# generated using pymatgen
data_BaLaMnRuO6
_symmetry_space_group_name_H-M   'P 1'
_cell_length_a   5.78197600
_cell_length_b   5.77729700
_cell_length_c   9.90925895
_cell_angle_alpha   90.00000000
_cell_angle_beta   125.05813081
_cell_angle_gamma   90.00000000
_symmetry_Int_Tables_number   1
_chemical_formula_structural   BaLaMnRuO6
_chemical_formula_sum   'Ba2 La2 Mn2 Ru2 O12'
_cell_volume   270.95540253
_cell_formula_units_Z   2
loop_
 _symmetry_equiv_pos_site_id
 _symmetry_equiv_pos_as_xyz
  1  'x, y, z'
loop_
 _atom_site_type_symbol
 _atom_site_label
 _atom_site_symmetry_multiplicity
 _atom_site_fract_x
 _atom_site_fract_y
 _atom_site_fract_z
 _atom_site_occupancy
  Ba  Ba0  1  0.25055900  0.25146100  0.75089800  1
  Ba  Ba1  1  0.25055900  0.74853900  0.25089800  1
  La  La2  1  0.73270500  0.76080000  0.75086000  1
  La  La3  1  0.73270500  0.23920000  0.25086000  1
  Mn  Mn4  1  0.99843300  0.74742500  0.50295700  1
  Mn  Mn5  1  0.99843300  0.25257500  0.00295700  1
  Ru  Ru6  1  0.50159800  0.74955400  0.00098100  1
  Ru  Ru7  1  0.50159800  0.25044600  0.50098100  1
  O  O8  1  0.78718400  0.75960900  0.24041900  1
  O  O9  1  0.71234700  0.01941000  0.45834000  1
  O  O10  1  0.31249500  0.00795700  0.03733300  1
  O  O11  1  0.31249500  0.99204300  0.53733300  1
  O  O12  1  0.71234700  0.98059000  0.95834000  1
  O  O13  1  0.78718400  0.24039100  0.74041900  1
  O  O14  1  0.16370700  0.25100800  0.26097600  1
  O  O15  1  0.32431600  0.48607600  0.04087000  1
  O  O16  1  0.71665600  0.47380000  0.45636600  1
  O  O17  1  0.71665600  0.52620000  0.95636600  1
  O  O18  1  0.32431600  0.51392400  0.54087000  1
  O  O19  1  0.16370700  0.74899200  0.76097600  1
