# generated using pymatgen
data_Mn7SbAsO12
_symmetry_space_group_name_H-M   'P 1'
_cell_length_a   6.21991600
_cell_length_b   8.96180200
_cell_length_c   19.32306400
_cell_angle_alpha   90.00000000
_cell_angle_beta   90.00000000
_cell_angle_gamma   90.00000000
_symmetry_Int_Tables_number   1
_chemical_formula_structural   Mn7SbAsO12
_chemical_formula_sum   'Mn28 Sb4 As4 O48'
_cell_volume   1077.09957956
_cell_formula_units_Z   4
loop_
 _symmetry_equiv_pos_site_id
 _symmetry_equiv_pos_as_xyz
  1  'x, y, z'
loop_
 _atom_site_type_symbol
 _atom_site_label
 _atom_site_symmetry_multiplicity
 _atom_site_fract_x
 _atom_site_fract_y
 _atom_site_fract_z
 _atom_site_occupancy
  Mn  Mn0  1  0.00000000  0.13077100  0.07430300  1
  Mn  Mn1  1  0.75000000  0.75000000  0.09160600  1
  Mn  Mn2  1  0.50000000  0.02347900  0.16610600  1
  Mn  Mn3  1  0.25000000  0.75000000  0.09160600  1
  Mn  Mn4  1  0.50000000  0.02347900  0.33389400  1
  Mn  Mn5  1  0.25000000  0.75000000  0.40839400  1
  Mn  Mn6  1  0.50000000  0.36922900  0.07430300  1
  Mn  Mn7  1  0.75000000  0.75000000  0.25000000  1
  Mn  Mn8  1  0.00000000  0.47652100  0.16610600  1
  Mn  Mn9  1  0.75000000  0.75000000  0.40839400  1
  Mn  Mn10  1  0.00000000  0.47652100  0.33389400  1
  Mn  Mn11  1  0.50000000  0.36922900  0.42569700  1
  Mn  Mn12  1  0.00000000  0.13077100  0.42569700  1
  Mn  Mn13  1  0.25000000  0.75000000  0.25000000  1
  Mn  Mn14  1  0.50000000  0.63077100  0.57430300  1
  Mn  Mn15  1  0.25000000  0.25000000  0.59160600  1
  Mn  Mn16  1  0.00000000  0.52347900  0.66610600  1
  Mn  Mn17  1  0.75000000  0.25000000  0.59160600  1
  Mn  Mn18  1  0.00000000  0.52347900  0.83389400  1
  Mn  Mn19  1  0.75000000  0.25000000  0.90839400  1
  Mn  Mn20  1  0.00000000  0.86922900  0.57430300  1
  Mn  Mn21  1  0.25000000  0.25000000  0.75000000  1
  Mn  Mn22  1  0.50000000  0.97652100  0.66610600  1
  Mn  Mn23  1  0.25000000  0.25000000  0.90839400  1
  Mn  Mn24  1  0.50000000  0.97652100  0.83389400  1
  Mn  Mn25  1  0.00000000  0.86922900  0.92569700  1
  Mn  Mn26  1  0.50000000  0.63077100  0.92569700  1
  Mn  Mn27  1  0.75000000  0.25000000  0.75000000  1
  Sb  Sb28  1  0.00000000  0.50000000  0.00000000  1
  Sb  Sb29  1  0.50000000  0.00000000  0.00000000  1
  Sb  Sb30  1  0.50000000  0.00000000  0.50000000  1
  Sb  Sb31  1  0.00000000  0.50000000  0.50000000  1
  As  As32  1  0.50000000  0.37953000  0.25000000  1
  As  As33  1  0.00000000  0.12047000  0.25000000  1
  As  As34  1  0.00000000  0.87953000  0.75000000  1
  As  As35  1  0.50000000  0.62047000  0.75000000  1
  O  O36  1  0.00000000  0.72434250  0.00911450  1
  O  O37  1  0.00000000  0.71795600  0.17097900  1
  O  O38  1  0.23217650  0.01132050  0.25000000  1
  O  O39  1  0.00000000  0.72434250  0.49088550  1
  O  O40  1  0.76782350  0.01132050  0.25000000  1
  O  O41  1  0.50000000  0.27030600  0.32401900  1
  O  O42  1  0.00000000  0.22969400  0.32401900  1
  O  O43  1  0.50000000  0.27030600  0.17598100  1
  O  O44  1  0.50000000  0.77565750  0.49088550  1
  O  O45  1  0.72218450  0.00340950  0.07685750  1
  O  O46  1  0.26782350  0.48867950  0.25000000  1
  O  O47  1  0.00000000  0.71795600  0.32902100  1
  O  O48  1  0.00000000  0.22969400  0.17598100  1
  O  O49  1  0.27781550  0.00340950  0.42314250  1
  O  O50  1  0.22218450  0.49659050  0.42314250  1
  O  O51  1  0.50000000  0.78204400  0.32902100  1
  O  O52  1  0.50000000  0.77565750  0.00911450  1
  O  O53  1  0.27781550  0.00340950  0.07685750  1
  O  O54  1  0.50000000  0.78204400  0.17097900  1
  O  O55  1  0.22218450  0.49659050  0.07685750  1
  O  O56  1  0.72218450  0.00340950  0.42314250  1
  O  O57  1  0.73217650  0.48867950  0.25000000  1
  O  O58  1  0.77781550  0.49659050  0.07685750  1
  O  O59  1  0.77781550  0.49659050  0.42314250  1
  O  O60  1  0.50000000  0.22434250  0.50911450  1
  O  O61  1  0.50000000  0.21795600  0.67097900  1
  O  O62  1  0.73217650  0.51132050  0.75000000  1
  O  O63  1  0.50000000  0.22434250  0.99088550  1
  O  O64  1  0.26782350  0.51132050  0.75000000  1
  O  O65  1  0.00000000  0.77030600  0.82401900  1
  O  O66  1  0.50000000  0.72969400  0.82401900  1
  O  O67  1  0.00000000  0.77030600  0.67598100  1
  O  O68  1  0.00000000  0.27565750  0.99088550  1
  O  O69  1  0.22218450  0.50340950  0.57685750  1
  O  O70  1  0.76782350  0.98867950  0.75000000  1
  O  O71  1  0.50000000  0.21795600  0.82902100  1
  O  O72  1  0.50000000  0.72969400  0.67598100  1
  O  O73  1  0.77781550  0.50340950  0.92314250  1
  O  O74  1  0.72218450  0.99659050  0.92314250  1
  O  O75  1  0.00000000  0.28204400  0.82902100  1
  O  O76  1  0.00000000  0.27565750  0.50911450  1
  O  O77  1  0.77781550  0.50340950  0.57685750  1
  O  O78  1  0.00000000  0.28204400  0.67097900  1
  O  O79  1  0.72218450  0.99659050  0.57685750  1
  O  O80  1  0.22218450  0.50340950  0.92314250  1
  O  O81  1  0.23217650  0.98867950  0.75000000  1
  O  O82  1  0.27781550  0.99659050  0.57685750  1
  O  O83  1  0.27781550  0.99659050  0.92314250  1
