# generated using pymatgen
data_WO3
_symmetry_space_group_name_H-M   'P 1'
_cell_length_a   5.49361400
_cell_length_b   5.49526000
_cell_length_c   7.68169100
_cell_angle_alpha   90.00000000
_cell_angle_beta   90.00000000
_cell_angle_gamma   90.00000000
_symmetry_Int_Tables_number   1
_chemical_formula_structural   WO3
_chemical_formula_sum   'W4 O12'
_cell_volume   231.90131955
_cell_formula_units_Z   4
loop_
 _symmetry_equiv_pos_site_id
 _symmetry_equiv_pos_as_xyz
  1  'x, y, z'
loop_
 _atom_site_type_symbol
 _atom_site_label
 _atom_site_symmetry_multiplicity
 _atom_site_fract_x
 _atom_site_fract_y
 _atom_site_fract_z
 _atom_site_occupancy
  W  W0  1  0.50000000  0.96624700  0.75000000  1
  W  W1  1  0.50000000  0.03375300  0.25000000  1
  W  W2  1  0.00000000  0.46624700  0.75000000  1
  W  W3  1  0.00000000  0.53375300  0.25000000  1
  O  O4  1  0.50000000  0.00000000  0.50000000  1
  O  O5  1  0.50000000  0.00000000  0.00000000  1
  O  O6  1  0.25167750  0.76388650  0.25000000  1
  O  O7  1  0.74832250  0.76388650  0.25000000  1
  O  O8  1  0.74832250  0.23611350  0.75000000  1
  O  O9  1  0.25167750  0.23611350  0.75000000  1
  O  O10  1  0.00000000  0.50000000  0.50000000  1
  O  O11  1  0.00000000  0.50000000  0.00000000  1
  O  O12  1  0.75167750  0.26388650  0.25000000  1
  O  O13  1  0.24832250  0.26388650  0.25000000  1
  O  O14  1  0.24832250  0.73611350  0.75000000  1
  O  O15  1  0.75167750  0.73611350  0.75000000  1
