# generated using pymatgen
data_Na(CoO2)3
_symmetry_space_group_name_H-M   'P 1'
_cell_length_a   5.01322601
_cell_length_b   5.01322601
_cell_length_c   13.81752804
_cell_angle_alpha   90.00000000
_cell_angle_beta   90.00000000
_cell_angle_gamma   120.00000000
_symmetry_Int_Tables_number   1
_chemical_formula_structural   Na(CoO2)3
_chemical_formula_sum   'Na3 Co9 O18'
_cell_volume   300.74301899
_cell_formula_units_Z   3
loop_
 _symmetry_equiv_pos_site_id
 _symmetry_equiv_pos_as_xyz
  1  'x, y, z'
loop_
 _atom_site_type_symbol
 _atom_site_label
 _atom_site_symmetry_multiplicity
 _atom_site_fract_x
 _atom_site_fract_y
 _atom_site_fract_z
 _atom_site_occupancy
  Na  Na0  1  0.66666667  0.33333333  0.13913133  1
  Na  Na1  1  0.33333333  0.66666667  0.47246467  1
  Na  Na2  1  0.00000000  0.00000000  0.80579800  1
  Co  Co3  1  0.00000000  0.00000000  0.02137300  1
  Co  Co4  1  0.33333333  0.66666667  0.20813667  1
  Co  Co5  1  0.33333333  0.66666667  0.00744267  1
  Co  Co6  1  0.66666667  0.33333333  0.35470633  1
  Co  Co7  1  0.00000000  0.00000000  0.54147000  1
  Co  Co8  1  0.00000000  0.00000000  0.34077600  1
  Co  Co9  1  0.33333333  0.66666667  0.68803967  1
  Co  Co10  1  0.66666667  0.33333333  0.87480333  1
  Co  Co11  1  0.66666667  0.33333333  0.67410933  1
  O  O12  1  0.99384200  0.34234100  0.27381900  1
  O  O13  1  0.25972000  0.34267800  0.09188900  1
  O  O14  1  0.65765900  0.65150100  0.27381900  1
  O  O15  1  0.08295800  0.74028000  0.09188900  1
  O  O16  1  0.34849900  0.00615800  0.27381900  1
  O  O17  1  0.65732200  0.91704200  0.09188900  1
  O  O18  1  0.66050867  0.67567433  0.60715233  1
  O  O19  1  0.92638667  0.67601133  0.42522233  1
  O  O20  1  0.32432567  0.98483433  0.60715233  1
  O  O21  1  0.74962467  0.07361333  0.42522233  1
  O  O22  1  0.01516567  0.33949133  0.60715233  1
  O  O23  1  0.32398867  0.25037533  0.42522233  1
  O  O24  1  0.32717533  0.00900767  0.94048567  1
  O  O25  1  0.59305333  0.00934467  0.75855567  1
  O  O26  1  0.99099233  0.31816767  0.94048567  1
  O  O27  1  0.41629133  0.40694667  0.75855567  1
  O  O28  1  0.68183233  0.67282467  0.94048567  1
  O  O29  1  0.99065533  0.58370867  0.75855567  1
