# generated using pymatgen
data_Pr7Mn8O24
_symmetry_space_group_name_H-M   'P 1'
_cell_length_a   11.05482000
_cell_length_b   15.62090800
_cell_length_c   7.79020708
_cell_angle_alpha   90.00000000
_cell_angle_beta   134.87669741
_cell_angle_gamma   90.00000000
_symmetry_Int_Tables_number   1
_chemical_formula_structural   Pr7Mn8O24
_chemical_formula_sum   'Pr14 Mn16 O48'
_cell_volume   953.28896071
_cell_formula_units_Z   2
loop_
 _symmetry_equiv_pos_site_id
 _symmetry_equiv_pos_as_xyz
  1  'x, y, z'
loop_
 _atom_site_type_symbol
 _atom_site_label
 _atom_site_symmetry_multiplicity
 _atom_site_fract_x
 _atom_site_fract_y
 _atom_site_fract_z
 _atom_site_occupancy
  Pr  Pr0  1  0.35416900  0.25312900  0.96776900  1
  Pr  Pr1  1  0.88725700  0.00000000  0.53790400  1
  Pr  Pr2  1  0.36199800  0.25163900  0.47492000  1
  Pr  Pr3  1  0.85416900  0.24687100  0.96776900  1
  Pr  Pr4  1  0.38323100  0.00000000  0.52518800  1
  Pr  Pr5  1  0.86199800  0.24836100  0.47492000  1
  Pr  Pr6  1  0.38879000  0.00000000  0.01422500  1
  Pr  Pr7  1  0.85416900  0.75312900  0.96776900  1
  Pr  Pr8  1  0.38725700  0.50000000  0.53790400  1
  Pr  Pr9  1  0.86199800  0.75163900  0.47492000  1
  Pr  Pr10  1  0.35416900  0.74687100  0.96776900  1
  Pr  Pr11  1  0.88323100  0.50000000  0.52518800  1
  Pr  Pr12  1  0.36199800  0.74836100  0.47492000  1
  Pr  Pr13  1  0.88879000  0.50000000  0.01422500  1
  Mn  Mn14  1  0.12353600  0.12427900  0.00291900  1
  Mn  Mn15  1  0.12402450  0.37660050  0.49939500  1
  Mn  Mn16  1  0.11974350  0.12296250  0.49077100  1
  Mn  Mn17  1  0.62673200  0.12261300  0.99837300  1
  Mn  Mn18  1  0.62353600  0.37572100  0.00291900  1
  Mn  Mn19  1  0.61974350  0.37703750  0.49077100  1
  Mn  Mn20  1  0.62402450  0.12339950  0.49939500  1
  Mn  Mn21  1  0.12673200  0.37738700  0.99837300  1
  Mn  Mn22  1  0.62353600  0.62427900  0.00291900  1
  Mn  Mn23  1  0.62402450  0.87660050  0.49939500  1
  Mn  Mn24  1  0.61974350  0.62296250  0.49077100  1
  Mn  Mn25  1  0.12673200  0.62261300  0.99837300  1
  Mn  Mn26  1  0.12353600  0.87572100  0.00291900  1
  Mn  Mn27  1  0.11974350  0.87703750  0.49077100  1
  Mn  Mn28  1  0.12402450  0.62339950  0.49939500  1
  Mn  Mn29  1  0.62673200  0.87738700  0.99837300  1
  O  O30  1  0.10483450  0.14542150  0.72915700  1
  O  O31  1  0.16063400  0.25039800  0.50669600  1
  O  O32  1  0.37454700  0.38494400  0.75306600  1
  O  O33  1  0.87454700  0.11505600  0.75306600  1
  O  O34  1  0.14869900  0.39621100  0.27278600  1
  O  O35  1  0.09440000  0.25027700  0.01248100  1
  O  O36  1  0.15722800  0.00000000  0.98874500  1
  O  O37  1  0.59462000  0.14748100  0.71828800  1
  O  O38  1  0.60483450  0.35457850  0.72915700  1
  O  O39  1  0.37318250  0.14561150  0.21729300  1
  O  O40  1  0.37198150  0.34986350  0.23330700  1
  O  O41  1  0.10283600  0.00000000  0.53125900  1
  O  O42  1  0.66063400  0.24960200  0.50669600  1
  O  O43  1  0.87442300  0.39073800  0.77538800  1
  O  O44  1  0.37442300  0.10926200  0.77538800  1
  O  O45  1  0.67228350  0.38571050  0.29695700  1
  O  O46  1  0.17228350  0.11428950  0.29695700  1
  O  O47  1  0.59440000  0.24972300  0.01248100  1
  O  O48  1  0.62996600  0.00000000  0.97019200  1
  O  O49  1  0.09462000  0.35251900  0.71828800  1
  O  O50  1  0.87198150  0.15013650  0.23330700  1
  O  O51  1  0.87318250  0.35438850  0.21729300  1
  O  O52  1  0.56671300  0.00000000  0.46205500  1
  O  O53  1  0.64869900  0.10378900  0.27278600  1
  O  O54  1  0.60483450  0.64542150  0.72915700  1
  O  O55  1  0.66063400  0.75039800  0.50669600  1
  O  O56  1  0.87454700  0.88494400  0.75306600  1
  O  O57  1  0.37454700  0.61505600  0.75306600  1
  O  O58  1  0.64869900  0.89621100  0.27278600  1
  O  O59  1  0.59440000  0.75027700  0.01248100  1
  O  O60  1  0.65722800  0.50000000  0.98874500  1
  O  O61  1  0.09462000  0.64748100  0.71828800  1
  O  O62  1  0.10483450  0.85457850  0.72915700  1
  O  O63  1  0.87318250  0.64561150  0.21729300  1
  O  O64  1  0.87198150  0.84986350  0.23330700  1
  O  O65  1  0.60283600  0.50000000  0.53125900  1
  O  O66  1  0.16063400  0.74960200  0.50669600  1
  O  O67  1  0.37442300  0.89073800  0.77538800  1
  O  O68  1  0.87442300  0.60926200  0.77538800  1
  O  O69  1  0.17228350  0.88571050  0.29695700  1
  O  O70  1  0.67228350  0.61428950  0.29695700  1
  O  O71  1  0.09440000  0.74972300  0.01248100  1
  O  O72  1  0.12996600  0.50000000  0.97019200  1
  O  O73  1  0.59462000  0.85251900  0.71828800  1
  O  O74  1  0.37198150  0.65013650  0.23330700  1
  O  O75  1  0.37318250  0.85438850  0.21729300  1
  O  O76  1  0.06671300  0.50000000  0.46205500  1
  O  O77  1  0.14869900  0.60378900  0.27278600  1
