# generated using pymatgen
data_Nd4MgRu
_symmetry_space_group_name_H-M   'P 1'
_cell_length_a   14.16437200
_cell_length_b   14.16437200
_cell_length_c   14.16437200
_cell_angle_alpha   90.00000000
_cell_angle_beta   90.00000000
_cell_angle_gamma   90.00000000
_symmetry_Int_Tables_number   1
_chemical_formula_structural   Nd4MgRu
_chemical_formula_sum   'Nd64 Mg16 Ru16'
_cell_volume   2841.78993951
_cell_formula_units_Z   16
loop_
 _symmetry_equiv_pos_site_id
 _symmetry_equiv_pos_as_xyz
  1  'x, y, z'
loop_
 _atom_site_type_symbol
 _atom_site_label
 _atom_site_symmetry_multiplicity
 _atom_site_fract_x
 _atom_site_fract_y
 _atom_site_fract_z
 _atom_site_occupancy
  Nd  Nd0  1  0.75000000  0.43844925  0.75000000  1
  Nd  Nd1  1  0.00000000  0.00000000  0.18877975  1
  Nd  Nd2  1  0.50000000  0.18877975  0.50000000  1
  Nd  Nd3  1  0.00000000  0.31122025  0.50000000  1
  Nd  Nd4  1  0.59448092  0.40551908  0.40551908  1
  Nd  Nd5  1  0.00000000  0.00000000  0.81122025  1
  Nd  Nd6  1  0.75000000  0.06155075  0.75000000  1
  Nd  Nd7  1  0.68877975  0.00000000  0.50000000  1
  Nd  Nd8  1  0.75000000  0.25000000  0.93844925  1
  Nd  Nd9  1  0.40551908  0.40551908  0.59448092  1
  Nd  Nd10  1  0.93844925  0.25000000  0.75000000  1
  Nd  Nd11  1  0.31122025  0.00000000  0.50000000  1
  Nd  Nd12  1  0.75000000  0.25000000  0.56155075  1
  Nd  Nd13  1  0.90551908  0.09448092  0.40551908  1
  Nd  Nd14  1  0.56155075  0.25000000  0.75000000  1
  Nd  Nd15  1  0.09448092  0.09448092  0.59448092  1
  Nd  Nd16  1  0.75000000  0.93844925  0.25000000  1
  Nd  Nd17  1  0.00000000  0.50000000  0.68877975  1
  Nd  Nd18  1  0.50000000  0.68877975  0.00000000  1
  Nd  Nd19  1  0.00000000  0.81122025  0.00000000  1
  Nd  Nd20  1  0.59448092  0.90551908  0.90551908  1
  Nd  Nd21  1  0.00000000  0.50000000  0.31122025  1
  Nd  Nd22  1  0.75000000  0.56155075  0.25000000  1
  Nd  Nd23  1  0.68877975  0.50000000  0.00000000  1
  Nd  Nd24  1  0.75000000  0.75000000  0.43844925  1
  Nd  Nd25  1  0.40551908  0.90551908  0.09448092  1
  Nd  Nd26  1  0.93844925  0.75000000  0.25000000  1
  Nd  Nd27  1  0.31122025  0.50000000  0.00000000  1
  Nd  Nd28  1  0.75000000  0.75000000  0.06155075  1
  Nd  Nd29  1  0.90551908  0.59448092  0.90551908  1
  Nd  Nd30  1  0.56155075  0.75000000  0.25000000  1
  Nd  Nd31  1  0.09448092  0.59448092  0.09448092  1
  Nd  Nd32  1  0.25000000  0.43844925  0.25000000  1
  Nd  Nd33  1  0.50000000  0.00000000  0.68877975  1
  Nd  Nd34  1  0.00000000  0.18877975  0.00000000  1
  Nd  Nd35  1  0.50000000  0.31122025  0.00000000  1
  Nd  Nd36  1  0.09448092  0.40551908  0.90551908  1
  Nd  Nd37  1  0.50000000  0.00000000  0.31122025  1
  Nd  Nd38  1  0.25000000  0.06155075  0.25000000  1
  Nd  Nd39  1  0.18877975  0.00000000  0.00000000  1
  Nd  Nd40  1  0.25000000  0.25000000  0.43844925  1
  Nd  Nd41  1  0.90551908  0.40551908  0.09448092  1
  Nd  Nd42  1  0.43844925  0.25000000  0.25000000  1
  Nd  Nd43  1  0.81122025  0.00000000  0.00000000  1
  Nd  Nd44  1  0.25000000  0.25000000  0.06155075  1
  Nd  Nd45  1  0.40551908  0.09448092  0.90551908  1
  Nd  Nd46  1  0.06155075  0.25000000  0.25000000  1
  Nd  Nd47  1  0.59448092  0.09448092  0.09448092  1
  Nd  Nd48  1  0.25000000  0.93844925  0.75000000  1
  Nd  Nd49  1  0.50000000  0.50000000  0.18877975  1
  Nd  Nd50  1  0.00000000  0.68877975  0.50000000  1
  Nd  Nd51  1  0.50000000  0.81122025  0.50000000  1
  Nd  Nd52  1  0.09448092  0.90551908  0.40551908  1
  Nd  Nd53  1  0.50000000  0.50000000  0.81122025  1
  Nd  Nd54  1  0.25000000  0.56155075  0.75000000  1
  Nd  Nd55  1  0.18877975  0.50000000  0.50000000  1
  Nd  Nd56  1  0.25000000  0.75000000  0.93844925  1
  Nd  Nd57  1  0.90551908  0.90551908  0.59448092  1
  Nd  Nd58  1  0.43844925  0.75000000  0.75000000  1
  Nd  Nd59  1  0.81122025  0.50000000  0.50000000  1
  Nd  Nd60  1  0.25000000  0.75000000  0.56155075  1
  Nd  Nd61  1  0.40551908  0.59448092  0.40551908  1
  Nd  Nd62  1  0.06155075  0.75000000  0.75000000  1
  Nd  Nd63  1  0.59448092  0.59448092  0.59448092  1
  Mg  Mg64  1  0.82854225  0.17145775  0.17145775  1
  Mg  Mg65  1  0.82854225  0.32854225  0.32854225  1
  Mg  Mg66  1  0.67145775  0.17145775  0.32854225  1
  Mg  Mg67  1  0.67145775  0.32854225  0.17145775  1
  Mg  Mg68  1  0.82854225  0.67145775  0.67145775  1
  Mg  Mg69  1  0.82854225  0.82854225  0.82854225  1
  Mg  Mg70  1  0.67145775  0.67145775  0.82854225  1
  Mg  Mg71  1  0.67145775  0.82854225  0.67145775  1
  Mg  Mg72  1  0.32854225  0.17145775  0.67145775  1
  Mg  Mg73  1  0.32854225  0.32854225  0.82854225  1
  Mg  Mg74  1  0.17145775  0.17145775  0.82854225  1
  Mg  Mg75  1  0.17145775  0.32854225  0.67145775  1
  Mg  Mg76  1  0.32854225  0.67145775  0.17145775  1
  Mg  Mg77  1  0.32854225  0.82854225  0.32854225  1
  Mg  Mg78  1  0.17145775  0.67145775  0.32854225  1
  Mg  Mg79  1  0.17145775  0.82854225  0.17145775  1
  Ru  Ru80  1  0.11198442  0.11198442  0.38801558  1
  Ru  Ru81  1  0.38801558  0.38801558  0.38801558  1
  Ru  Ru82  1  0.61198442  0.38801558  0.61198442  1
  Ru  Ru83  1  0.88801558  0.11198442  0.61198442  1
  Ru  Ru84  1  0.11198442  0.61198442  0.88801558  1
  Ru  Ru85  1  0.38801558  0.88801558  0.88801558  1
  Ru  Ru86  1  0.61198442  0.88801558  0.11198442  1
  Ru  Ru87  1  0.88801558  0.61198442  0.11198442  1
  Ru  Ru88  1  0.61198442  0.11198442  0.88801558  1
  Ru  Ru89  1  0.88801558  0.38801558  0.88801558  1
  Ru  Ru90  1  0.11198442  0.38801558  0.11198442  1
  Ru  Ru91  1  0.38801558  0.11198442  0.11198442  1
  Ru  Ru92  1  0.61198442  0.61198442  0.38801558  1
  Ru  Ru93  1  0.88801558  0.88801558  0.38801558  1
  Ru  Ru94  1  0.11198442  0.88801558  0.61198442  1
  Ru  Ru95  1  0.38801558  0.61198442  0.61198442  1
