# generated using pymatgen
data_MnGa
_symmetry_space_group_name_H-M   'P 1'
_cell_length_a   12.77864150
_cell_length_b   12.77864150
_cell_length_c   8.09807092
_cell_angle_alpha   90.00000000
_cell_angle_beta   90.00000000
_cell_angle_gamma   120.00000000
_symmetry_Int_Tables_number   1
_chemical_formula_structural   MnGa
_chemical_formula_sum   'Mn39 Ga39'
_cell_volume   1145.20063593
_cell_formula_units_Z   39
loop_
 _symmetry_equiv_pos_site_id
 _symmetry_equiv_pos_as_xyz
  1  'x, y, z'
loop_
 _atom_site_type_symbol
 _atom_site_label
 _atom_site_symmetry_multiplicity
 _atom_site_fract_x
 _atom_site_fract_y
 _atom_site_fract_z
 _atom_site_occupancy
  Mn  Mn0  1  0.78491167  0.56982333  0.40274733  1
  Mn  Mn1  1  0.07317000  0.92683000  0.75012300  1
  Mn  Mn2  1  0.07317000  0.14634000  0.75012300  1
  Mn  Mn3  1  0.21508833  0.78491167  0.59725267  1
  Mn  Mn4  1  0.92683000  0.07317000  0.24987700  1
  Mn  Mn5  1  0.92683000  0.85366000  0.24987700  1
  Mn  Mn6  1  0.43017667  0.21508833  0.40274733  1
  Mn  Mn7  1  0.56982333  0.78491167  0.59725267  1
  Mn  Mn8  1  0.78491167  0.21508833  0.40274733  1
  Mn  Mn9  1  0.21508833  0.43017667  0.59725267  1
  Mn  Mn10  1  0.85366000  0.92683000  0.75012300  1
  Mn  Mn11  1  0.14634000  0.07317000  0.24987700  1
  Mn  Mn12  1  0.00000000  0.00000000  0.50000000  1
  Mn  Mn13  1  0.45157833  0.90315667  0.73608067  1
  Mn  Mn14  1  0.73983667  0.26016333  0.08345633  1
  Mn  Mn15  1  0.73983667  0.47967333  0.08345633  1
  Mn  Mn16  1  0.88175500  0.11824500  0.93058600  1
  Mn  Mn17  1  0.59349667  0.40650333  0.58321033  1
  Mn  Mn18  1  0.59349667  0.18699333  0.58321033  1
  Mn  Mn19  1  0.09684333  0.54842167  0.73608067  1
  Mn  Mn20  1  0.23649000  0.11824500  0.93058600  1
  Mn  Mn21  1  0.45157833  0.54842167  0.73608067  1
  Mn  Mn22  1  0.88175500  0.76351000  0.93058600  1
  Mn  Mn23  1  0.52032667  0.26016333  0.08345633  1
  Mn  Mn24  1  0.81300667  0.40650333  0.58321033  1
  Mn  Mn25  1  0.66666667  0.33333333  0.83333333  1
  Mn  Mn26  1  0.11824500  0.23649000  0.06941400  1
  Mn  Mn27  1  0.40650333  0.59349667  0.41678967  1
  Mn  Mn28  1  0.40650333  0.81300667  0.41678967  1
  Mn  Mn29  1  0.54842167  0.45157833  0.26391933  1
  Mn  Mn30  1  0.26016333  0.73983667  0.91654367  1
  Mn  Mn31  1  0.26016333  0.52032667  0.91654367  1
  Mn  Mn32  1  0.76351000  0.88175500  0.06941400  1
  Mn  Mn33  1  0.90315667  0.45157833  0.26391933  1
  Mn  Mn34  1  0.11824500  0.88175500  0.06941400  1
  Mn  Mn35  1  0.54842167  0.09684333  0.26391933  1
  Mn  Mn36  1  0.18699333  0.59349667  0.41678967  1
  Mn  Mn37  1  0.47967333  0.73983667  0.91654367  1
  Mn  Mn38  1  0.33333333  0.66666667  0.16666667  1
  Ga  Ga39  1  0.11619017  0.88380983  0.42410233  1
  Ga  Ga40  1  0.62104850  0.00000000  0.50000000  1
  Ga  Ga41  1  0.62104850  0.62104850  0.50000000  1
  Ga  Ga42  1  0.37895150  0.00000000  0.50000000  1
  Ga  Ga43  1  0.11619017  0.23238033  0.42410233  1
  Ga  Ga44  1  0.88380983  0.11619017  0.57589767  1
  Ga  Ga45  1  0.00000000  0.37895150  0.50000000  1
  Ga  Ga46  1  0.76761967  0.88380983  0.42410233  1
  Ga  Ga47  1  0.00000000  0.62104850  0.50000000  1
  Ga  Ga48  1  0.88380983  0.76761967  0.57589767  1
  Ga  Ga49  1  0.23238033  0.11619017  0.57589767  1
  Ga  Ga50  1  0.33333333  0.66666667  0.66666667  1
  Ga  Ga51  1  0.37895150  0.37895150  0.50000000  1
  Ga  Ga52  1  0.78285683  0.21714317  0.75743567  1
  Ga  Ga53  1  0.28771517  0.33333333  0.83333333  1
  Ga  Ga54  1  0.28771517  0.95438183  0.83333333  1
  Ga  Ga55  1  0.04561817  0.33333333  0.83333333  1
  Ga  Ga56  1  0.78285683  0.56571367  0.75743567  1
  Ga  Ga57  1  0.55047650  0.44952350  0.90923100  1
  Ga  Ga58  1  0.66666667  0.71228483  0.83333333  1
  Ga  Ga59  1  0.43428633  0.21714317  0.75743567  1
  Ga  Ga60  1  0.66666667  0.95438183  0.83333333  1
  Ga  Ga61  1  0.55047650  0.10095300  0.90923100  1
  Ga  Ga62  1  0.89904700  0.44952350  0.90923100  1
  Ga  Ga63  1  1.00000000  1.00000000  0.00000000  1
  Ga  Ga64  1  0.04561817  0.71228483  0.83333333  1
  Ga  Ga65  1  0.44952350  0.55047650  0.09076900  1
  Ga  Ga66  1  0.95438183  0.66666667  0.16666667  1
  Ga  Ga67  1  0.95438183  0.28771517  0.16666667  1
  Ga  Ga68  1  0.71228483  0.66666667  0.16666667  1
  Ga  Ga69  1  0.44952350  0.89904700  0.09076900  1
  Ga  Ga70  1  0.21714317  0.78285683  0.24256433  1
  Ga  Ga71  1  0.33333333  0.04561817  0.16666667  1
  Ga  Ga72  1  0.10095300  0.55047650  0.09076900  1
  Ga  Ga73  1  0.33333333  0.28771517  0.16666667  1
  Ga  Ga74  1  0.21714317  0.43428633  0.24256433  1
  Ga  Ga75  1  0.56571367  0.78285683  0.24256433  1
  Ga  Ga76  1  0.66666667  0.33333333  0.33333333  1
  Ga  Ga77  1  0.71228483  0.04561817  0.16666667  1
