# generated using pymatgen
data_Fe2CuS3
_symmetry_space_group_name_H-M   'P 1'
_cell_length_a   6.20731889
_cell_length_b   6.37779644
_cell_length_c   10.99529246
_cell_angle_alpha   90.00000000
_cell_angle_beta   90.00000000
_cell_angle_gamma   90.00000000
_symmetry_Int_Tables_number   1
_chemical_formula_structural   Fe2CuS3
_chemical_formula_sum   'Fe8 Cu4 S12'
_cell_volume   435.29281256
_cell_formula_units_Z   4
loop_
 _symmetry_equiv_pos_site_id
 _symmetry_equiv_pos_as_xyz
  1  'x, y, z'
loop_
 _atom_site_type_symbol
 _atom_site_label
 _atom_site_symmetry_multiplicity
 _atom_site_fract_x
 _atom_site_fract_y
 _atom_site_fract_z
 _atom_site_occupancy
  Fe  Fe0  1  0.37365650  0.42005750  0.08381650  1
  Fe  Fe1  1  0.87365650  0.07994250  0.41618350  1
  Fe  Fe2  1  0.12634350  0.92005750  0.58381650  1
  Fe  Fe3  1  0.62634350  0.57994250  0.91618350  1
  Fe  Fe4  1  0.87365650  0.07994250  0.08381650  1
  Fe  Fe5  1  0.37365650  0.42005750  0.41618350  1
  Fe  Fe6  1  0.12634350  0.92005750  0.91618350  1
  Fe  Fe7  1  0.62634350  0.57994250  0.58381650  1
  Cu  Cu8  1  0.11133250  0.41568150  0.75000000  1
  Cu  Cu9  1  0.88866750  0.58431850  0.25000000  1
  Cu  Cu10  1  0.61133250  0.08431850  0.75000000  1
  Cu  Cu11  1  0.38866750  0.91568150  0.25000000  1
  S  S12  1  0.26903750  0.58480450  0.58807850  1
  S  S13  1  0.73096250  0.41519550  0.08807850  1
  S  S14  1  0.75471150  0.92155150  0.25000000  1
  S  S15  1  0.23096250  0.08480450  0.41192150  1
  S  S16  1  0.26903750  0.58480450  0.91192150  1
  S  S17  1  0.74528850  0.42155150  0.75000000  1
  S  S18  1  0.76903750  0.91519550  0.58807850  1
  S  S19  1  0.25471150  0.57844850  0.25000000  1
  S  S20  1  0.23096250  0.08480450  0.08807850  1
  S  S21  1  0.76903750  0.91519550  0.91192150  1
  S  S22  1  0.24528850  0.07844850  0.75000000  1
  S  S23  1  0.73096250  0.41519550  0.41192150  1
