# generated using pymatgen
data_Ti8S3
_symmetry_space_group_name_H-M   'P 1'
_cell_length_a   24.99543800
_cell_length_b   3.33585400
_cell_length_c   19.21284848
_cell_angle_alpha   90.00000000
_cell_angle_beta   122.91694581
_cell_angle_gamma   90.00000000
_symmetry_Int_Tables_number   1
_chemical_formula_structural   Ti8S3
_chemical_formula_sum   'Ti64 S24'
_cell_volume   1344.80441343
_cell_formula_units_Z   8
loop_
 _symmetry_equiv_pos_site_id
 _symmetry_equiv_pos_as_xyz
  1  'x, y, z'
loop_
 _atom_site_type_symbol
 _atom_site_label
 _atom_site_symmetry_multiplicity
 _atom_site_fract_x
 _atom_site_fract_y
 _atom_site_fract_z
 _atom_site_occupancy
  Ti  Ti0  1  0.90473100  0.50000000  0.58544700  1
  Ti  Ti1  1  0.98856400  0.00000000  0.57492500  1
  Ti  Ti2  1  0.05995600  0.00000000  0.28050000  1
  Ti  Ti3  1  0.94876000  0.50000000  0.27816700  1
  Ti  Ti4  1  0.65208000  0.50000000  0.20271400  1
  Ti  Ti5  1  0.16348100  0.00000000  0.84580000  1
  Ti  Ti6  1  0.99013300  0.00000000  0.08860500  1
  Ti  Ti7  1  0.83651900  0.00000000  0.15420000  1
  Ti  Ti8  1  0.67108900  0.00000000  0.33947300  1
  Ti  Ti9  1  0.01143600  0.00000000  0.42507500  1
  Ti  Ti10  1  0.91985100  0.50000000  0.42769900  1
  Ti  Ti11  1  0.78174500  0.50000000  0.39298100  1
  Ti  Ti12  1  0.29512000  0.00000000  0.87264200  1
  Ti  Ti13  1  0.56744900  0.00000000  0.05621200  1
  Ti  Ti14  1  0.19850600  0.00000000  0.46707600  1
  Ti  Ti15  1  0.05124000  0.50000000  0.72183300  1
  Ti  Ti16  1  0.34792000  0.50000000  0.79728600  1
  Ti  Ti17  1  0.70488000  0.00000000  0.12735800  1
  Ti  Ti18  1  0.73331200  0.50000000  0.04091900  1
  Ti  Ti19  1  0.26668800  0.50000000  0.95908100  1
  Ti  Ti20  1  0.94004400  0.00000000  0.71950000  1
  Ti  Ti21  1  0.43255100  0.00000000  0.94378800  1
  Ti  Ti22  1  0.32891100  0.00000000  0.66052700  1
  Ti  Ti23  1  0.00986700  0.00000000  0.91139500  1
  Ti  Ti24  1  0.12119300  0.50000000  0.93184600  1
  Ti  Ti25  1  0.09526900  0.50000000  0.41455300  1
  Ti  Ti26  1  0.08014900  0.50000000  0.57230100  1
  Ti  Ti27  1  0.80407200  0.50000000  0.25053700  1
  Ti  Ti28  1  0.21825500  0.50000000  0.60701900  1
  Ti  Ti29  1  0.19592800  0.50000000  0.74946300  1
  Ti  Ti30  1  0.80149400  0.00000000  0.53292400  1
  Ti  Ti31  1  0.87880700  0.50000000  0.06815400  1
  Ti  Ti32  1  0.40473100  0.00000000  0.58544700  1
  Ti  Ti33  1  0.48856400  0.50000000  0.57492500  1
  Ti  Ti34  1  0.55995600  0.50000000  0.28050000  1
  Ti  Ti35  1  0.44876000  0.00000000  0.27816700  1
  Ti  Ti36  1  0.15208000  0.00000000  0.20271400  1
  Ti  Ti37  1  0.66348100  0.50000000  0.84580000  1
  Ti  Ti38  1  0.49013300  0.50000000  0.08860500  1
  Ti  Ti39  1  0.33651900  0.50000000  0.15420000  1
  Ti  Ti40  1  0.17108900  0.50000000  0.33947300  1
  Ti  Ti41  1  0.51143600  0.50000000  0.42507500  1
  Ti  Ti42  1  0.41985100  0.00000000  0.42769900  1
  Ti  Ti43  1  0.28174500  0.00000000  0.39298100  1
  Ti  Ti44  1  0.79512000  0.50000000  0.87264200  1
  Ti  Ti45  1  0.06744900  0.50000000  0.05621200  1
  Ti  Ti46  1  0.69850600  0.50000000  0.46707600  1
  Ti  Ti47  1  0.55124000  0.00000000  0.72183300  1
  Ti  Ti48  1  0.84792000  0.00000000  0.79728600  1
  Ti  Ti49  1  0.20488000  0.50000000  0.12735800  1
  Ti  Ti50  1  0.23331200  0.00000000  0.04091900  1
  Ti  Ti51  1  0.76668800  0.00000000  0.95908100  1
  Ti  Ti52  1  0.44004400  0.50000000  0.71950000  1
  Ti  Ti53  1  0.93255100  0.50000000  0.94378800  1
  Ti  Ti54  1  0.82891100  0.50000000  0.66052700  1
  Ti  Ti55  1  0.50986700  0.50000000  0.91139500  1
  Ti  Ti56  1  0.62119300  0.00000000  0.93184600  1
  Ti  Ti57  1  0.59526900  0.00000000  0.41455300  1
  Ti  Ti58  1  0.58014900  0.00000000  0.57230100  1
  Ti  Ti59  1  0.30407200  0.00000000  0.25053700  1
  Ti  Ti60  1  0.71825500  0.00000000  0.60701900  1
  Ti  Ti61  1  0.69592800  0.00000000  0.74946300  1
  Ti  Ti62  1  0.30149400  0.50000000  0.53292400  1
  Ti  Ti63  1  0.37880700  0.00000000  0.06815400  1
  S  S64  1  0.05376100  0.00000000  0.82364800  1
  S  S65  1  0.25627700  0.00000000  0.71980700  1
  S  S66  1  0.37102200  0.50000000  0.96740900  1
  S  S67  1  0.94623900  0.00000000  0.17635200  1
  S  S68  1  0.89198900  0.00000000  0.31453400  1
  S  S69  1  0.86987200  0.00000000  0.47252200  1
  S  S70  1  0.10801100  0.00000000  0.68546600  1
  S  S71  1  0.07188000  0.50000000  0.19117300  1
  S  S72  1  0.13012800  0.00000000  0.52747800  1
  S  S73  1  0.74372300  0.00000000  0.28019300  1
  S  S74  1  0.92812000  0.50000000  0.80882700  1
  S  S75  1  0.62897800  0.50000000  0.03259100  1
  S  S76  1  0.55376100  0.50000000  0.82364800  1
  S  S77  1  0.75627700  0.50000000  0.71980700  1
  S  S78  1  0.87102200  0.00000000  0.96740900  1
  S  S79  1  0.44623900  0.50000000  0.17635200  1
  S  S80  1  0.39198900  0.50000000  0.31453400  1
  S  S81  1  0.36987200  0.50000000  0.47252200  1
  S  S82  1  0.60801100  0.50000000  0.68546600  1
  S  S83  1  0.57188000  0.00000000  0.19117300  1
  S  S84  1  0.63012800  0.50000000  0.52747800  1
  S  S85  1  0.24372300  0.50000000  0.28019300  1
  S  S86  1  0.42812000  0.00000000  0.80882700  1
  S  S87  1  0.12897800  0.00000000  0.03259100  1
