# generated using pymatgen
data_NbHg2F6
_symmetry_space_group_name_H-M   'P 1'
_cell_length_a   10.65079000
_cell_length_b   10.67706600
_cell_length_c   7.99547377
_cell_angle_alpha   90.00000000
_cell_angle_beta   129.79345897
_cell_angle_gamma   90.00000000
_symmetry_Int_Tables_number   1
_chemical_formula_structural   NbHg2F6
_chemical_formula_sum   'Nb4 Hg8 F24'
_cell_volume   698.61961524
_cell_formula_units_Z   4
loop_
 _symmetry_equiv_pos_site_id
 _symmetry_equiv_pos_as_xyz
  1  'x, y, z'
loop_
 _atom_site_type_symbol
 _atom_site_label
 _atom_site_symmetry_multiplicity
 _atom_site_fract_x
 _atom_site_fract_y
 _atom_site_fract_z
 _atom_site_occupancy
  Nb  Nb0  1  0.50000000  0.12481000  0.25000000  1
  Nb  Nb1  1  0.50000000  0.87519000  0.75000000  1
  Nb  Nb2  1  0.00000000  0.62481000  0.25000000  1
  Nb  Nb3  1  0.00000000  0.37519000  0.75000000  1
  Hg  Hg4  1  0.00000000  0.00000000  0.00000000  1
  Hg  Hg5  1  0.00000000  0.00000000  0.50000000  1
  Hg  Hg6  1  0.25000000  0.75000000  0.00000000  1
  Hg  Hg7  1  0.25000000  0.25000000  0.50000000  1
  Hg  Hg8  1  0.50000000  0.50000000  0.00000000  1
  Hg  Hg9  1  0.50000000  0.50000000  0.50000000  1
  Hg  Hg10  1  0.75000000  0.25000000  0.00000000  1
  Hg  Hg11  1  0.75000000  0.75000000  0.50000000  1
  F  F12  1  0.31959150  0.12494550  0.25391900  1
  F  F13  1  0.50000000  0.30690900  0.25000000  1
  F  F14  1  0.34486450  0.12623350  0.93578200  1
  F  F15  1  0.34486450  0.87376650  0.43578200  1
  F  F16  1  0.50000000  0.94329000  0.25000000  1
  F  F17  1  0.68040850  0.12494550  0.24608100  1
  F  F18  1  0.31959150  0.87505450  0.75391900  1
  F  F19  1  0.50000000  0.05671000  0.75000000  1
  F  F20  1  0.65513550  0.12623350  0.56421800  1
  F  F21  1  0.65513550  0.87376650  0.06421800  1
  F  F22  1  0.50000000  0.69309100  0.75000000  1
  F  F23  1  0.68040850  0.87505450  0.74608100  1
  F  F24  1  0.81959150  0.62494550  0.25391900  1
  F  F25  1  0.00000000  0.80690900  0.25000000  1
  F  F26  1  0.84486450  0.62623350  0.93578200  1
  F  F27  1  0.84486450  0.37376650  0.43578200  1
  F  F28  1  0.00000000  0.44329000  0.25000000  1
  F  F29  1  0.18040850  0.62494550  0.24608100  1
  F  F30  1  0.81959150  0.37505450  0.75391900  1
  F  F31  1  0.00000000  0.55671000  0.75000000  1
  F  F32  1  0.15513550  0.62623350  0.56421800  1
  F  F33  1  0.15513550  0.37376650  0.06421800  1
  F  F34  1  0.00000000  0.19309100  0.75000000  1
  F  F35  1  0.18040850  0.37505450  0.74608100  1
