# generated using pymatgen
data_Ce3(Ge3Pd10)2
_symmetry_space_group_name_H-M   'P 1'
_cell_length_a   12.55820400
_cell_length_b   12.55820400
_cell_length_c   12.55820400
_cell_angle_alpha   90.00000000
_cell_angle_beta   90.00000000
_cell_angle_gamma   90.00000000
_symmetry_Int_Tables_number   1
_chemical_formula_structural   Ce3(Ge3Pd10)2
_chemical_formula_sum   'Ce12 Ge24 Pd80'
_cell_volume   1980.53536114
_cell_formula_units_Z   4
loop_
 _symmetry_equiv_pos_site_id
 _symmetry_equiv_pos_as_xyz
  1  'x, y, z'
loop_
 _atom_site_type_symbol
 _atom_site_label
 _atom_site_symmetry_multiplicity
 _atom_site_fract_x
 _atom_site_fract_y
 _atom_site_fract_z
 _atom_site_occupancy
  Ce  Ce0  1  0.00000000  0.00000000  0.00000000  1
  Ce  Ce1  1  0.25000000  0.75000000  0.75000000  1
  Ce  Ce2  1  0.25000000  0.25000000  0.75000000  1
  Ce  Ce3  1  0.00000000  0.50000000  0.50000000  1
  Ce  Ce4  1  0.25000000  0.25000000  0.25000000  1
  Ce  Ce5  1  0.25000000  0.75000000  0.25000000  1
  Ce  Ce6  1  0.50000000  0.00000000  0.50000000  1
  Ce  Ce7  1  0.75000000  0.75000000  0.25000000  1
  Ce  Ce8  1  0.75000000  0.25000000  0.25000000  1
  Ce  Ce9  1  0.50000000  0.50000000  0.00000000  1
  Ce  Ce10  1  0.75000000  0.25000000  0.75000000  1
  Ce  Ce11  1  0.75000000  0.75000000  0.75000000  1
  Ge  Ge12  1  0.50000000  0.76865500  0.00000000  1
  Ge  Ge13  1  0.50000000  0.00000000  0.76865500  1
  Ge  Ge14  1  0.73134500  0.00000000  0.00000000  1
  Ge  Ge15  1  0.50000000  0.23134500  0.00000000  1
  Ge  Ge16  1  0.26865500  0.00000000  0.00000000  1
  Ge  Ge17  1  0.00000000  0.00000000  0.73134500  1
  Ge  Ge18  1  0.50000000  0.26865500  0.50000000  1
  Ge  Ge19  1  0.50000000  0.50000000  0.26865500  1
  Ge  Ge20  1  0.73134500  0.50000000  0.50000000  1
  Ge  Ge21  1  0.50000000  0.73134500  0.50000000  1
  Ge  Ge22  1  0.26865500  0.50000000  0.50000000  1
  Ge  Ge23  1  0.00000000  0.50000000  0.23134500  1
  Ge  Ge24  1  0.00000000  0.76865500  0.50000000  1
  Ge  Ge25  1  0.00000000  0.00000000  0.26865500  1
  Ge  Ge26  1  0.23134500  0.00000000  0.50000000  1
  Ge  Ge27  1  0.00000000  0.23134500  0.50000000  1
  Ge  Ge28  1  0.76865500  0.00000000  0.50000000  1
  Ge  Ge29  1  0.50000000  0.00000000  0.23134500  1
  Ge  Ge30  1  0.00000000  0.26865500  0.00000000  1
  Ge  Ge31  1  0.00000000  0.50000000  0.76865500  1
  Ge  Ge32  1  0.23134500  0.50000000  0.00000000  1
  Ge  Ge33  1  0.00000000  0.73134500  0.00000000  1
  Ge  Ge34  1  0.76865500  0.50000000  0.00000000  1
  Ge  Ge35  1  0.50000000  0.50000000  0.73134500  1
  Pd  Pd36  1  0.88174533  0.11825467  0.61825467  1
  Pd  Pd37  1  0.32577200  0.67422800  0.00000000  1
  Pd  Pd38  1  0.00000000  0.67422800  0.67422800  1
  Pd  Pd39  1  0.00000000  0.32577200  0.67422800  1
  Pd  Pd40  1  0.67422800  0.00000000  0.67422800  1
  Pd  Pd41  1  0.38174533  0.88174533  0.88174533  1
  Pd  Pd42  1  0.17422800  0.17422800  0.00000000  1
  Pd  Pd43  1  0.82577200  0.00000000  0.82577200  1
  Pd  Pd44  1  0.32577200  0.32577200  0.00000000  1
  Pd  Pd45  1  0.17422800  0.00000000  0.82577200  1
  Pd  Pd46  1  0.61825467  0.88174533  0.88174533  1
  Pd  Pd47  1  0.11825467  0.11825467  0.61825467  1
  Pd  Pd48  1  0.17422800  0.82577200  0.00000000  1
  Pd  Pd49  1  0.38174533  0.11825467  0.88174533  1
  Pd  Pd50  1  0.00000000  0.82577200  0.82577200  1
  Pd  Pd51  1  0.88174533  0.88174533  0.61825467  1
  Pd  Pd52  1  0.00000000  0.17422800  0.82577200  1
  Pd  Pd53  1  0.32577200  0.00000000  0.67422800  1
  Pd  Pd54  1  0.11825467  0.88174533  0.61825467  1
  Pd  Pd55  1  0.61825467  0.11825467  0.88174533  1
  Pd  Pd56  1  0.88174533  0.61825467  0.11825467  1
  Pd  Pd57  1  0.32577200  0.17422800  0.50000000  1
  Pd  Pd58  1  0.00000000  0.17422800  0.17422800  1
  Pd  Pd59  1  0.00000000  0.82577200  0.17422800  1
  Pd  Pd60  1  0.67422800  0.50000000  0.17422800  1
  Pd  Pd61  1  0.38174533  0.38174533  0.38174533  1
  Pd  Pd62  1  0.17422800  0.67422800  0.50000000  1
  Pd  Pd63  1  0.82577200  0.50000000  0.32577200  1
  Pd  Pd64  1  0.32577200  0.82577200  0.50000000  1
  Pd  Pd65  1  0.17422800  0.50000000  0.32577200  1
  Pd  Pd66  1  0.61825467  0.38174533  0.38174533  1
  Pd  Pd67  1  0.11825467  0.61825467  0.11825467  1
  Pd  Pd68  1  0.17422800  0.32577200  0.50000000  1
  Pd  Pd69  1  0.38174533  0.61825467  0.38174533  1
  Pd  Pd70  1  0.00000000  0.32577200  0.32577200  1
  Pd  Pd71  1  0.88174533  0.38174533  0.11825467  1
  Pd  Pd72  1  0.00000000  0.67422800  0.32577200  1
  Pd  Pd73  1  0.32577200  0.50000000  0.17422800  1
  Pd  Pd74  1  0.11825467  0.38174533  0.11825467  1
  Pd  Pd75  1  0.61825467  0.61825467  0.38174533  1
  Pd  Pd76  1  0.38174533  0.11825467  0.11825467  1
  Pd  Pd77  1  0.82577200  0.67422800  0.50000000  1
  Pd  Pd78  1  0.50000000  0.67422800  0.17422800  1
  Pd  Pd79  1  0.50000000  0.32577200  0.17422800  1
  Pd  Pd80  1  0.17422800  0.00000000  0.17422800  1
  Pd  Pd81  1  0.88174533  0.88174533  0.38174533  1
  Pd  Pd82  1  0.67422800  0.17422800  0.50000000  1
  Pd  Pd83  1  0.32577200  0.00000000  0.32577200  1
  Pd  Pd84  1  0.82577200  0.32577200  0.50000000  1
  Pd  Pd85  1  0.67422800  0.00000000  0.32577200  1
  Pd  Pd86  1  0.11825467  0.88174533  0.38174533  1
  Pd  Pd87  1  0.61825467  0.11825467  0.11825467  1
  Pd  Pd88  1  0.67422800  0.82577200  0.50000000  1
  Pd  Pd89  1  0.88174533  0.11825467  0.38174533  1
  Pd  Pd90  1  0.50000000  0.82577200  0.32577200  1
  Pd  Pd91  1  0.38174533  0.88174533  0.11825467  1
  Pd  Pd92  1  0.50000000  0.17422800  0.32577200  1
  Pd  Pd93  1  0.82577200  0.00000000  0.17422800  1
  Pd  Pd94  1  0.61825467  0.88174533  0.11825467  1
  Pd  Pd95  1  0.11825467  0.11825467  0.38174533  1
  Pd  Pd96  1  0.38174533  0.61825467  0.61825467  1
  Pd  Pd97  1  0.82577200  0.17422800  0.00000000  1
  Pd  Pd98  1  0.50000000  0.17422800  0.67422800  1
  Pd  Pd99  1  0.50000000  0.82577200  0.67422800  1
  Pd  Pd100  1  0.17422800  0.50000000  0.67422800  1
  Pd  Pd101  1  0.88174533  0.38174533  0.88174533  1
  Pd  Pd102  1  0.67422800  0.67422800  0.00000000  1
  Pd  Pd103  1  0.32577200  0.50000000  0.82577200  1
  Pd  Pd104  1  0.82577200  0.82577200  0.00000000  1
  Pd  Pd105  1  0.67422800  0.50000000  0.82577200  1
  Pd  Pd106  1  0.11825467  0.38174533  0.88174533  1
  Pd  Pd107  1  0.61825467  0.61825467  0.61825467  1
  Pd  Pd108  1  0.67422800  0.32577200  0.00000000  1
  Pd  Pd109  1  0.88174533  0.61825467  0.88174533  1
  Pd  Pd110  1  0.50000000  0.32577200  0.82577200  1
  Pd  Pd111  1  0.38174533  0.38174533  0.61825467  1
  Pd  Pd112  1  0.50000000  0.67422800  0.82577200  1
  Pd  Pd113  1  0.82577200  0.50000000  0.67422800  1
  Pd  Pd114  1  0.61825467  0.38174533  0.61825467  1
  Pd  Pd115  1  0.11825467  0.61825467  0.88174533  1
