# generated using pymatgen
data_Ca19In8N7
_symmetry_space_group_name_H-M   'P 1'
_cell_length_a   14.76493200
_cell_length_b   14.76493200
_cell_length_c   14.76493200
_cell_angle_alpha   90.00000000
_cell_angle_beta   90.00000000
_cell_angle_gamma   90.00000000
_symmetry_Int_Tables_number   1
_chemical_formula_structural   Ca19In8N7
_chemical_formula_sum   'Ca76 In32 N28'
_cell_volume   3218.80267426
_cell_formula_units_Z   4
loop_
 _symmetry_equiv_pos_site_id
 _symmetry_equiv_pos_as_xyz
  1  'x, y, z'
loop_
 _atom_site_type_symbol
 _atom_site_label
 _atom_site_symmetry_multiplicity
 _atom_site_fract_x
 _atom_site_fract_y
 _atom_site_fract_z
 _atom_site_occupancy
  Ca  Ca0  1  0.66350200  0.00000000  0.83649800  1
  Ca  Ca1  1  0.00000000  0.83649800  0.66350200  1
  Ca  Ca2  1  0.33649800  0.16350200  0.00000000  1
  Ca  Ca3  1  0.50000000  0.66654800  0.00000000  1
  Ca  Ca4  1  0.83649800  0.00000000  0.66350200  1
  Ca  Ca5  1  0.66350200  0.83649800  0.00000000  1
  Ca  Ca6  1  0.50000000  0.00000000  0.66654800  1
  Ca  Ca7  1  0.50000000  0.83649800  0.83649800  1
  Ca  Ca8  1  0.00000000  0.00000000  0.83345200  1
  Ca  Ca9  1  0.50000000  0.33345200  0.00000000  1
  Ca  Ca10  1  0.16350200  0.00000000  0.66350200  1
  Ca  Ca11  1  0.50000000  0.00000000  0.00000000  1
  Ca  Ca12  1  0.33649800  0.83649800  0.00000000  1
  Ca  Ca13  1  0.83345200  0.00000000  0.00000000  1
  Ca  Ca14  1  0.50000000  0.16350200  0.83649800  1
  Ca  Ca15  1  0.33649800  0.00000000  0.83649800  1
  Ca  Ca16  1  0.00000000  0.16350200  0.66350200  1
  Ca  Ca17  1  0.16654800  0.00000000  0.00000000  1
  Ca  Ca18  1  0.66350200  0.16350200  0.00000000  1
  Ca  Ca19  1  0.66350200  0.50000000  0.33649800  1
  Ca  Ca20  1  0.00000000  0.33649800  0.16350200  1
  Ca  Ca21  1  0.33649800  0.66350200  0.50000000  1
  Ca  Ca22  1  0.50000000  0.16654800  0.50000000  1
  Ca  Ca23  1  0.83649800  0.50000000  0.16350200  1
  Ca  Ca24  1  0.66350200  0.33649800  0.50000000  1
  Ca  Ca25  1  0.50000000  0.50000000  0.16654800  1
  Ca  Ca26  1  0.50000000  0.33649800  0.33649800  1
  Ca  Ca27  1  0.00000000  0.50000000  0.33345200  1
  Ca  Ca28  1  0.50000000  0.83345200  0.50000000  1
  Ca  Ca29  1  0.16350200  0.50000000  0.16350200  1
  Ca  Ca30  1  0.50000000  0.50000000  0.50000000  1
  Ca  Ca31  1  0.33649800  0.33649800  0.50000000  1
  Ca  Ca32  1  0.83345200  0.50000000  0.50000000  1
  Ca  Ca33  1  0.50000000  0.66350200  0.33649800  1
  Ca  Ca34  1  0.33649800  0.50000000  0.33649800  1
  Ca  Ca35  1  0.00000000  0.66350200  0.16350200  1
  Ca  Ca36  1  0.16654800  0.50000000  0.50000000  1
  Ca  Ca37  1  0.66350200  0.66350200  0.50000000  1
  Ca  Ca38  1  0.16350200  0.00000000  0.33649800  1
  Ca  Ca39  1  0.50000000  0.83649800  0.16350200  1
  Ca  Ca40  1  0.83649800  0.16350200  0.50000000  1
  Ca  Ca41  1  0.00000000  0.66654800  0.50000000  1
  Ca  Ca42  1  0.33649800  0.00000000  0.16350200  1
  Ca  Ca43  1  0.16350200  0.83649800  0.50000000  1
  Ca  Ca44  1  0.00000000  0.00000000  0.16654800  1
  Ca  Ca45  1  0.00000000  0.83649800  0.33649800  1
  Ca  Ca46  1  0.50000000  0.00000000  0.33345200  1
  Ca  Ca47  1  0.00000000  0.33345200  0.50000000  1
  Ca  Ca48  1  0.66350200  0.00000000  0.16350200  1
  Ca  Ca49  1  0.00000000  0.00000000  0.50000000  1
  Ca  Ca50  1  0.83649800  0.83649800  0.50000000  1
  Ca  Ca51  1  0.33345200  0.00000000  0.50000000  1
  Ca  Ca52  1  0.00000000  0.16350200  0.33649800  1
  Ca  Ca53  1  0.83649800  0.00000000  0.33649800  1
  Ca  Ca54  1  0.50000000  0.16350200  0.16350200  1
  Ca  Ca55  1  0.66654800  0.00000000  0.50000000  1
  Ca  Ca56  1  0.16350200  0.16350200  0.50000000  1
  Ca  Ca57  1  0.16350200  0.50000000  0.83649800  1
  Ca  Ca58  1  0.50000000  0.33649800  0.66350200  1
  Ca  Ca59  1  0.83649800  0.66350200  0.00000000  1
  Ca  Ca60  1  0.00000000  0.16654800  0.00000000  1
  Ca  Ca61  1  0.33649800  0.50000000  0.66350200  1
  Ca  Ca62  1  0.16350200  0.33649800  0.00000000  1
  Ca  Ca63  1  0.00000000  0.50000000  0.66654800  1
  Ca  Ca64  1  0.00000000  0.33649800  0.83649800  1
  Ca  Ca65  1  0.50000000  0.50000000  0.83345200  1
  Ca  Ca66  1  0.00000000  0.83345200  0.00000000  1
  Ca  Ca67  1  0.66350200  0.50000000  0.66350200  1
  Ca  Ca68  1  0.00000000  0.50000000  0.00000000  1
  Ca  Ca69  1  0.83649800  0.33649800  0.00000000  1
  Ca  Ca70  1  0.33345200  0.50000000  0.00000000  1
  Ca  Ca71  1  0.00000000  0.66350200  0.83649800  1
  Ca  Ca72  1  0.83649800  0.50000000  0.83649800  1
  Ca  Ca73  1  0.50000000  0.66350200  0.66350200  1
  Ca  Ca74  1  0.66654800  0.50000000  0.00000000  1
  Ca  Ca75  1  0.16350200  0.66350200  0.00000000  1
  In  In76  1  0.32526067  0.82526067  0.67473933  1
  In  In77  1  0.17473933  0.32526067  0.67473933  1
  In  In78  1  0.17473933  0.82526067  0.82526067  1
  In  In79  1  0.32526067  0.67473933  0.82526067  1
  In  In80  1  0.32526067  0.17473933  0.67473933  1
  In  In81  1  0.17473933  0.67473933  0.67473933  1
  In  In82  1  0.32526067  0.32526067  0.82526067  1
  In  In83  1  0.17473933  0.17473933  0.82526067  1
  In  In84  1  0.32526067  0.32526067  0.17473933  1
  In  In85  1  0.17473933  0.82526067  0.17473933  1
  In  In86  1  0.17473933  0.32526067  0.32526067  1
  In  In87  1  0.32526067  0.17473933  0.32526067  1
  In  In88  1  0.32526067  0.67473933  0.17473933  1
  In  In89  1  0.17473933  0.17473933  0.17473933  1
  In  In90  1  0.32526067  0.82526067  0.32526067  1
  In  In91  1  0.17473933  0.67473933  0.32526067  1
  In  In92  1  0.82526067  0.82526067  0.17473933  1
  In  In93  1  0.67473933  0.32526067  0.17473933  1
  In  In94  1  0.67473933  0.82526067  0.32526067  1
  In  In95  1  0.82526067  0.67473933  0.32526067  1
  In  In96  1  0.82526067  0.17473933  0.17473933  1
  In  In97  1  0.67473933  0.67473933  0.17473933  1
  In  In98  1  0.82526067  0.32526067  0.32526067  1
  In  In99  1  0.67473933  0.17473933  0.32526067  1
  In  In100  1  0.82526067  0.32526067  0.67473933  1
  In  In101  1  0.67473933  0.82526067  0.67473933  1
  In  In102  1  0.67473933  0.32526067  0.82526067  1
  In  In103  1  0.82526067  0.17473933  0.82526067  1
  In  In104  1  0.82526067  0.67473933  0.67473933  1
  In  In105  1  0.67473933  0.17473933  0.67473933  1
  In  In106  1  0.82526067  0.82526067  0.82526067  1
  In  In107  1  0.67473933  0.67473933  0.82526067  1
  N  N108  1  0.50000000  0.17376100  0.00000000  1
  N  N109  1  0.32623900  0.00000000  0.00000000  1
  N  N110  1  0.67376100  0.00000000  0.00000000  1
  N  N111  1  0.50000000  0.82623900  0.00000000  1
  N  N112  1  0.50000000  0.00000000  0.82623900  1
  N  N113  1  0.00000000  0.00000000  0.67376100  1
  N  N114  1  0.00000000  0.00000000  0.00000000  1
  N  N115  1  0.50000000  0.67376100  0.50000000  1
  N  N116  1  0.32623900  0.50000000  0.50000000  1
  N  N117  1  0.67376100  0.50000000  0.50000000  1
  N  N118  1  0.50000000  0.32623900  0.50000000  1
  N  N119  1  0.50000000  0.50000000  0.32623900  1
  N  N120  1  0.00000000  0.50000000  0.17376100  1
  N  N121  1  0.00000000  0.50000000  0.50000000  1
  N  N122  1  0.00000000  0.17376100  0.50000000  1
  N  N123  1  0.82623900  0.00000000  0.50000000  1
  N  N124  1  0.17376100  0.00000000  0.50000000  1
  N  N125  1  0.00000000  0.82623900  0.50000000  1
  N  N126  1  0.00000000  0.00000000  0.32623900  1
  N  N127  1  0.50000000  0.00000000  0.17376100  1
  N  N128  1  0.50000000  0.00000000  0.50000000  1
  N  N129  1  0.00000000  0.67376100  0.00000000  1
  N  N130  1  0.82623900  0.50000000  0.00000000  1
  N  N131  1  0.17376100  0.50000000  0.00000000  1
  N  N132  1  0.00000000  0.32623900  0.00000000  1
  N  N133  1  0.00000000  0.50000000  0.82623900  1
  N  N134  1  0.50000000  0.50000000  0.67376100  1
  N  N135  1  0.50000000  0.50000000  0.00000000  1
