# generated using pymatgen
data_Yb8Si11
_symmetry_space_group_name_H-M   'P 1'
_cell_length_a   4.41413200
_cell_length_b   7.74622200
_cell_length_c   24.52140200
_cell_angle_alpha   90.00000000
_cell_angle_beta   90.00000000
_cell_angle_gamma   90.00000000
_symmetry_Int_Tables_number   1
_chemical_formula_structural   Yb8Si11
_chemical_formula_sum   'Yb16 Si22'
_cell_volume   838.45653233
_cell_formula_units_Z   2
loop_
 _symmetry_equiv_pos_site_id
 _symmetry_equiv_pos_as_xyz
  1  'x, y, z'
loop_
 _atom_site_type_symbol
 _atom_site_label
 _atom_site_symmetry_multiplicity
 _atom_site_fract_x
 _atom_site_fract_y
 _atom_site_fract_z
 _atom_site_occupancy
  Yb  Yb0  1  0.50000000  0.50000000  0.07247800  1
  Yb  Yb1  1  0.50000000  0.00000000  0.07531300  1
  Yb  Yb2  1  0.00000000  0.00000000  0.29974700  1
  Yb  Yb3  1  0.00000000  0.50000000  0.30260600  1
  Yb  Yb4  1  0.50000000  0.75148900  0.20535600  1
  Yb  Yb5  1  0.50000000  0.24851100  0.20535600  1
  Yb  Yb6  1  0.00000000  0.24992400  0.43133000  1
  Yb  Yb7  1  0.00000000  0.75007600  0.43133000  1
  Yb  Yb8  1  0.00000000  0.00000000  0.57247800  1
  Yb  Yb9  1  0.00000000  0.50000000  0.57531300  1
  Yb  Yb10  1  0.50000000  0.50000000  0.79974700  1
  Yb  Yb11  1  0.50000000  0.00000000  0.80260600  1
  Yb  Yb12  1  0.00000000  0.25148900  0.70535600  1
  Yb  Yb13  1  0.00000000  0.74851100  0.70535600  1
  Yb  Yb14  1  0.50000000  0.74992400  0.93133000  1
  Yb  Yb15  1  0.50000000  0.25007600  0.93133000  1
  Si  Si16  1  0.50000000  0.50000000  0.39461000  1
  Si  Si17  1  0.00000000  0.25317800  0.11562400  1
  Si  Si18  1  0.50000000  0.74677250  0.33219850  1
  Si  Si19  1  0.50000000  0.25322750  0.33219850  1
  Si  Si20  1  0.00000000  0.00000000  0.17210000  1
  Si  Si21  1  0.00000000  0.74682200  0.11562400  1
  Si  Si22  1  0.50000000  0.00000000  0.38766000  1
  Si  Si23  1  0.00000000  0.78352650  0.01979450  1
  Si  Si24  1  0.50000000  0.00000000  0.48393300  1
  Si  Si25  1  0.00000000  0.21647350  0.01979450  1
  Si  Si26  1  0.00000000  0.50000000  0.17462100  1
  Si  Si27  1  0.00000000  0.00000000  0.89461000  1
  Si  Si28  1  0.50000000  0.75317800  0.61562400  1
  Si  Si29  1  0.00000000  0.24677250  0.83219850  1
  Si  Si30  1  0.00000000  0.75322750  0.83219850  1
  Si  Si31  1  0.50000000  0.50000000  0.67210000  1
  Si  Si32  1  0.50000000  0.24682200  0.61562400  1
  Si  Si33  1  0.00000000  0.50000000  0.88766000  1
  Si  Si34  1  0.50000000  0.28352650  0.51979450  1
  Si  Si35  1  0.00000000  0.50000000  0.98393300  1
  Si  Si36  1  0.50000000  0.71647350  0.51979450  1
  Si  Si37  1  0.50000000  0.00000000  0.67462100  1
