# generated using pymatgen
data_Rb4Fe2O5
_symmetry_space_group_name_H-M   'P 1'
_cell_length_a   7.24212000
_cell_length_b   17.90543200
_cell_length_c   7.37065876
_cell_angle_alpha   90.00000000
_cell_angle_beta   103.48126897
_cell_angle_gamma   90.00000000
_symmetry_Int_Tables_number   1
_chemical_formula_structural   Rb4Fe2O5
_chemical_formula_sum   'Rb16 Fe8 O20'
_cell_volume   929.44223343
_cell_formula_units_Z   4
loop_
 _symmetry_equiv_pos_site_id
 _symmetry_equiv_pos_as_xyz
  1  'x, y, z'
loop_
 _atom_site_type_symbol
 _atom_site_label
 _atom_site_symmetry_multiplicity
 _atom_site_fract_x
 _atom_site_fract_y
 _atom_site_fract_z
 _atom_site_occupancy
  Rb  Rb0  1  0.50000000  0.03487000  0.25000000  1
  Rb  Rb1  1  0.00000000  0.46513000  0.75000000  1
  Rb  Rb2  1  0.50000000  0.47945000  0.25000000  1
  Rb  Rb3  1  0.00000000  0.02055000  0.75000000  1
  Rb  Rb4  1  0.35249450  0.17990850  0.88670000  1
  Rb  Rb5  1  0.64750550  0.17990850  0.61330000  1
  Rb  Rb6  1  0.85249450  0.32009150  0.38670000  1
  Rb  Rb7  1  0.14750550  0.32009150  0.11330000  1
  Rb  Rb8  1  0.00000000  0.53487000  0.25000000  1
  Rb  Rb9  1  0.50000000  0.96513000  0.75000000  1
  Rb  Rb10  1  0.00000000  0.97945000  0.25000000  1
  Rb  Rb11  1  0.50000000  0.52055000  0.75000000  1
  Rb  Rb12  1  0.85249450  0.67990850  0.88670000  1
  Rb  Rb13  1  0.14750550  0.67990850  0.61330000  1
  Rb  Rb14  1  0.35249450  0.82009150  0.38670000  1
  Rb  Rb15  1  0.64750550  0.82009150  0.11330000  1
  Fe  Fe16  1  0.34904650  0.34546450  0.59530700  1
  Fe  Fe17  1  0.84904650  0.15453550  0.09530700  1
  Fe  Fe18  1  0.15095350  0.15453550  0.40469300  1
  Fe  Fe19  1  0.65095350  0.34546450  0.90469300  1
  Fe  Fe20  1  0.84904650  0.84546450  0.59530700  1
  Fe  Fe21  1  0.34904650  0.65453550  0.09530700  1
  Fe  Fe22  1  0.65095350  0.65453550  0.40469300  1
  Fe  Fe23  1  0.15095350  0.84546450  0.90469300  1
  O  O24  1  0.71784750  0.07726950  0.95820700  1
  O  O25  1  0.37334850  0.35185650  0.86642700  1
  O  O26  1  0.21784750  0.42273050  0.45820700  1
  O  O27  1  0.12665150  0.14814350  0.13357300  1
  O  O28  1  0.87334850  0.14814350  0.36642700  1
  O  O29  1  0.75000000  0.25000000  0.00000000  1
  O  O30  1  0.28215250  0.07726950  0.54179300  1
  O  O31  1  0.62665150  0.35185650  0.63357300  1
  O  O32  1  0.78215250  0.42273050  0.04179300  1
  O  O33  1  0.25000000  0.25000000  0.50000000  1
  O  O34  1  0.21784750  0.57726950  0.95820700  1
  O  O35  1  0.87334850  0.85185650  0.86642700  1
  O  O36  1  0.71784750  0.92273050  0.45820700  1
  O  O37  1  0.62665150  0.64814350  0.13357300  1
  O  O38  1  0.37334850  0.64814350  0.36642700  1
  O  O39  1  0.25000000  0.75000000  0.00000000  1
  O  O40  1  0.78215250  0.57726950  0.54179300  1
  O  O41  1  0.12665150  0.85185650  0.63357300  1
  O  O42  1  0.28215250  0.92273050  0.04179300  1
  O  O43  1  0.75000000  0.75000000  0.50000000  1
