# generated using pymatgen
data_La(Mo3Se4)2
_symmetry_space_group_name_H-M   'P 1'
_cell_length_a   9.56987245
_cell_length_b   9.56987245
_cell_length_c   12.14127084
_cell_angle_alpha   90.00000000
_cell_angle_beta   90.00000000
_cell_angle_gamma   120.00000000
_symmetry_Int_Tables_number   1
_chemical_formula_structural   La(Mo3Se4)2
_chemical_formula_sum   'La3 Mo18 Se24'
_cell_volume   962.95740663
_cell_formula_units_Z   3
loop_
 _symmetry_equiv_pos_site_id
 _symmetry_equiv_pos_as_xyz
  1  'x, y, z'
loop_
 _atom_site_type_symbol
 _atom_site_label
 _atom_site_symmetry_multiplicity
 _atom_site_fract_x
 _atom_site_fract_y
 _atom_site_fract_z
 _atom_site_occupancy
  La  La0  1  0.00000000  0.00000000  0.00000000  1
  La  La1  1  0.66666667  0.33333333  0.33333333  1
  La  La2  1  0.33333333  0.66666667  0.66666667  1
  Mo  Mo3  1  0.17906233  0.49682267  0.25942067  1
  Mo  Mo4  1  0.31776033  0.82093767  0.25942067  1
  Mo  Mo5  1  0.50317733  0.68223967  0.25942067  1
  Mo  Mo6  1  0.16348933  0.65109367  0.07391267  1
  Mo  Mo7  1  0.34890633  0.51239567  0.07391267  1
  Mo  Mo8  1  0.48760433  0.83651067  0.07391267  1
  Mo  Mo9  1  0.84572900  0.83015600  0.59275400  1
  Mo  Mo10  1  0.98442700  0.15427100  0.59275400  1
  Mo  Mo11  1  0.16984400  0.01557300  0.59275400  1
  Mo  Mo12  1  0.83015600  0.98442700  0.40724600  1
  Mo  Mo13  1  0.01557300  0.84572900  0.40724600  1
  Mo  Mo14  1  0.15427100  0.16984400  0.40724600  1
  Mo  Mo15  1  0.51239567  0.16348933  0.92608733  1
  Mo  Mo16  1  0.65109367  0.48760433  0.92608733  1
  Mo  Mo17  1  0.83651067  0.34890633  0.92608733  1
  Mo  Mo18  1  0.49682267  0.31776033  0.74057933  1
  Mo  Mo19  1  0.68223967  0.17906233  0.74057933  1
  Mo  Mo20  1  0.82093767  0.50317733  0.74057933  1
  Se  Se21  1  0.99751500  0.62746200  0.24911400  1
  Se  Se22  1  0.37253800  0.37005300  0.24911400  1
  Se  Se23  1  0.33333333  0.66666667  0.42387567  1
  Se  Se24  1  0.62994700  0.00248500  0.24911400  1
  Se  Se25  1  0.03671967  0.33084833  0.08421933  1
  Se  Se26  1  0.33333333  0.66666667  0.90945767  1
  Se  Se27  1  0.29412867  0.96328033  0.08421933  1
  Se  Se28  1  0.66915167  0.70587133  0.08421933  1
  Se  Se29  1  0.66418167  0.96079533  0.58244733  1
  Se  Se30  1  0.03920467  0.70338633  0.58244733  1
  Se  Se31  1  0.00000000  0.00000000  0.75720900  1
  Se  Se32  1  0.29661367  0.33581833  0.58244733  1
  Se  Se33  1  0.70338633  0.66418167  0.41755267  1
  Se  Se34  1  0.00000000  0.00000000  0.24279100  1
  Se  Se35  1  0.96079533  0.29661367  0.41755267  1
  Se  Se36  1  0.33581833  0.03920467  0.41755267  1
  Se  Se37  1  0.33084833  0.29412867  0.91578067  1
  Se  Se38  1  0.70587133  0.03671967  0.91578067  1
  Se  Se39  1  0.66666667  0.33333333  0.09054233  1
  Se  Se40  1  0.96328033  0.66915167  0.91578067  1
  Se  Se41  1  0.37005300  0.99751500  0.75088600  1
  Se  Se42  1  0.66666667  0.33333333  0.57612433  1
  Se  Se43  1  0.62746200  0.62994700  0.75088600  1
  Se  Se44  1  0.00248500  0.37253800  0.75088600  1
