# generated using pymatgen
data_FeHO2
_symmetry_space_group_name_H-M   'P 1'
_cell_length_a   3.13250729
_cell_length_b   3.94775499
_cell_length_c   6.74068486
_cell_angle_alpha   90.00000000
_cell_angle_beta   102.63260659
_cell_angle_gamma   90.00000000
_symmetry_Int_Tables_number   1
_chemical_formula_structural   FeHO2
_chemical_formula_sum   'Fe2 H2 O4'
_cell_volume   81.33992429
_cell_formula_units_Z   2
loop_
 _symmetry_equiv_pos_site_id
 _symmetry_equiv_pos_as_xyz
  1  'x, y, z'
loop_
 _atom_site_type_symbol
 _atom_site_label
 _atom_site_symmetry_multiplicity
 _atom_site_fract_x
 _atom_site_fract_y
 _atom_site_fract_z
 _atom_site_occupancy
  Fe  Fe0  1  0.18514450  0.25000000  0.36265150  1
  Fe  Fe1  1  0.81485550  0.75000000  0.63734850  1
  H  H2  1  0.52369750  0.25000000  0.02011850  1
  H  H3  1  0.47630250  0.75000000  0.97988150  1
  O  O4  1  0.78238000  0.25000000  0.56868200  1
  O  O5  1  0.21762000  0.75000000  0.43131800  1
  O  O6  1  0.59372900  0.25000000  0.16842000  1
  O  O7  1  0.40627100  0.75000000  0.83158000  1
