# generated using pymatgen
data_Na5Gd(MoO4)4
_symmetry_space_group_name_H-M   'P 1'
_cell_length_a   11.61953200
_cell_length_b   11.61953200
_cell_length_c   11.60451800
_cell_angle_alpha   90.00000000
_cell_angle_beta   90.00000000
_cell_angle_gamma   90.00000000
_symmetry_Int_Tables_number   1
_chemical_formula_structural   Na5Gd(MoO4)4
_chemical_formula_sum   'Na20 Gd4 Mo16 O64'
_cell_volume   1566.76686833
_cell_formula_units_Z   4
loop_
 _symmetry_equiv_pos_site_id
 _symmetry_equiv_pos_as_xyz
  1  'x, y, z'
loop_
 _atom_site_type_symbol
 _atom_site_label
 _atom_site_symmetry_multiplicity
 _atom_site_fract_x
 _atom_site_fract_y
 _atom_site_fract_z
 _atom_site_occupancy
  Na  Na0  1  0.12147550  0.29577950  0.03250050  1
  Na  Na1  1  0.87852450  0.20422050  0.71749950  1
  Na  Na2  1  0.50000000  0.50000000  0.50000000  1
  Na  Na3  1  0.79577950  0.37852450  0.46749950  1
  Na  Na4  1  0.20422050  0.12147550  0.28250050  1
  Na  Na5  1  0.37852450  0.20422050  0.53250050  1
  Na  Na6  1  0.29577950  0.37852450  0.78250050  1
  Na  Na7  1  0.62147550  0.29577950  0.21749950  1
  Na  Na8  1  0.70422050  0.12147550  0.96749950  1
  Na  Na9  1  0.50000000  0.00000000  0.25000000  1
  Na  Na10  1  0.62147550  0.79577950  0.53250050  1
  Na  Na11  1  0.37852450  0.70422050  0.21749950  1
  Na  Na12  1  0.00000000  0.00000000  0.00000000  1
  Na  Na13  1  0.29577950  0.87852450  0.96749950  1
  Na  Na14  1  0.70422050  0.62147550  0.78250050  1
  Na  Na15  1  0.87852450  0.70422050  0.03250050  1
  Na  Na16  1  0.79577950  0.87852450  0.28250050  1
  Na  Na17  1  0.12147550  0.79577950  0.71749950  1
  Na  Na18  1  0.20422050  0.62147550  0.46749950  1
  Na  Na19  1  0.00000000  0.50000000  0.75000000  1
  Gd  Gd20  1  0.50000000  0.00000000  0.75000000  1
  Gd  Gd21  1  0.00000000  0.00000000  0.50000000  1
  Gd  Gd22  1  0.00000000  0.50000000  0.25000000  1
  Gd  Gd23  1  0.50000000  0.50000000  0.00000000  1
  Mo  Mo24  1  0.68049150  0.09396950  0.48604350  1
  Mo  Mo25  1  0.40603050  0.18049150  0.01395650  1
  Mo  Mo26  1  0.81950850  0.90603050  0.76395650  1
  Mo  Mo27  1  0.09396950  0.31950850  0.51395650  1
  Mo  Mo28  1  0.68049150  0.59396950  0.26395650  1
  Mo  Mo29  1  0.81950850  0.40603050  0.98604350  1
  Mo  Mo30  1  0.90603050  0.18049150  0.23604350  1
  Mo  Mo31  1  0.59396950  0.31950850  0.73604350  1
  Mo  Mo32  1  0.18049150  0.59396950  0.98604350  1
  Mo  Mo33  1  0.90603050  0.68049150  0.51395650  1
  Mo  Mo34  1  0.31950850  0.40603050  0.26395650  1
  Mo  Mo35  1  0.59396950  0.81950850  0.01395650  1
  Mo  Mo36  1  0.18049150  0.09396950  0.76395650  1
  Mo  Mo37  1  0.31950850  0.90603050  0.48604350  1
  Mo  Mo38  1  0.40603050  0.68049150  0.73604350  1
  Mo  Mo39  1  0.09396950  0.81950850  0.23604350  1
  O  O40  1  0.67652000  0.21597500  0.39403700  1
  O  O41  1  0.06096050  0.11127350  0.66512550  1
  O  O42  1  0.85189300  0.02980700  0.85096600  1
  O  O43  1  0.81908900  0.58441200  0.18928500  1
  O  O44  1  0.47019300  0.35189300  0.64903400  1
  O  O45  1  0.64810700  0.97019300  0.39903400  1
  O  O46  1  0.58441200  0.18091100  0.81071500  1
  O  O47  1  0.82348000  0.78402500  0.85596300  1
  O  O48  1  0.93903950  0.38872650  0.08487450  1
  O  O49  1  0.68091100  0.91558800  0.68928500  1
  O  O50  1  0.91558800  0.31908900  0.31071500  1
  O  O51  1  0.08441200  0.18091100  0.43928500  1
  O  O52  1  0.18091100  0.91558800  0.56071500  1
  O  O53  1  0.81908900  0.08441200  0.56071500  1
  O  O54  1  0.11127350  0.93903950  0.33487450  1
  O  O55  1  0.97019300  0.35189300  0.60096600  1
  O  O56  1  0.71597500  0.32348000  0.64403700  1
  O  O57  1  0.88872650  0.06096050  0.33487450  1
  O  O58  1  0.61127350  0.93903950  0.91512550  1
  O  O59  1  0.56096050  0.11127350  0.58487450  1
  O  O60  1  0.02980700  0.14810700  0.14903400  1
  O  O61  1  0.78402500  0.17652000  0.14403700  1
  O  O62  1  0.52980700  0.14810700  0.10096600  1
  O  O63  1  0.88872650  0.56096050  0.41512550  1
  O  O64  1  0.85189300  0.52980700  0.89903400  1
  O  O65  1  0.21597500  0.32348000  0.60596300  1
  O  O66  1  0.91558800  0.81908900  0.43928500  1
  O  O67  1  0.67652000  0.71597500  0.35596300  1
  O  O68  1  0.82348000  0.28402500  0.89403700  1
  O  O69  1  0.28402500  0.17652000  0.10596300  1
  O  O70  1  0.64810700  0.47019300  0.35096600  1
  O  O71  1  0.93903950  0.88872650  0.66512550  1
  O  O72  1  0.17652000  0.71597500  0.89403700  1
  O  O73  1  0.56096050  0.61127350  0.16512550  1
  O  O74  1  0.35189300  0.52980700  0.35096600  1
  O  O75  1  0.31908900  0.08441200  0.68928500  1
  O  O76  1  0.97019300  0.85189300  0.14903400  1
  O  O77  1  0.14810700  0.47019300  0.89903400  1
  O  O78  1  0.08441200  0.68091100  0.31071500  1
  O  O79  1  0.32348000  0.28402500  0.35596300  1
  O  O80  1  0.43903950  0.88872650  0.58487450  1
  O  O81  1  0.18091100  0.41558800  0.18928500  1
  O  O82  1  0.41558800  0.81908900  0.81071500  1
  O  O83  1  0.58441200  0.68091100  0.93928500  1
  O  O84  1  0.68091100  0.41558800  0.06071500  1
  O  O85  1  0.31908900  0.58441200  0.06071500  1
  O  O86  1  0.61127350  0.43903950  0.83487450  1
  O  O87  1  0.47019300  0.85189300  0.10096600  1
  O  O88  1  0.21597500  0.82348000  0.14403700  1
  O  O89  1  0.38872650  0.56096050  0.83487450  1
  O  O90  1  0.11127350  0.43903950  0.41512550  1
  O  O91  1  0.06096050  0.61127350  0.08487450  1
  O  O92  1  0.52980700  0.64810700  0.64903400  1
  O  O93  1  0.28402500  0.67652000  0.64403700  1
  O  O94  1  0.02980700  0.64810700  0.60096600  1
  O  O95  1  0.38872650  0.06096050  0.91512550  1
  O  O96  1  0.35189300  0.02980700  0.39903400  1
  O  O97  1  0.71597500  0.82348000  0.10596300  1
  O  O98  1  0.41558800  0.31908900  0.93928500  1
  O  O99  1  0.17652000  0.21597500  0.85596300  1
  O  O100  1  0.32348000  0.78402500  0.39403700  1
  O  O101  1  0.78402500  0.67652000  0.60596300  1
  O  O102  1  0.14810700  0.97019300  0.85096600  1
  O  O103  1  0.43903950  0.38872650  0.16512550  1
