# generated using pymatgen
data_Ca4In3Au10
_symmetry_space_group_name_H-M   'P 1'
_cell_length_a   10.22557000
_cell_length_b   13.99859400
_cell_length_c   10.32359000
_cell_angle_alpha   90.00000000
_cell_angle_beta   90.00000000
_cell_angle_gamma   90.00000000
_symmetry_Int_Tables_number   1
_chemical_formula_structural   Ca4In3Au10
_chemical_formula_sum   'Ca16 In12 Au40'
_cell_volume   1477.75586693
_cell_formula_units_Z   4
loop_
 _symmetry_equiv_pos_site_id
 _symmetry_equiv_pos_as_xyz
  1  'x, y, z'
loop_
 _atom_site_type_symbol
 _atom_site_label
 _atom_site_symmetry_multiplicity
 _atom_site_fract_x
 _atom_site_fract_y
 _atom_site_fract_z
 _atom_site_occupancy
  Ca  Ca0  1  0.50000000  0.19747600  0.00000000  1
  Ca  Ca1  1  0.50000000  0.69747600  0.50000000  1
  Ca  Ca2  1  0.80289300  0.00000000  0.29788200  1
  Ca  Ca3  1  0.30289300  0.00000000  0.20211800  1
  Ca  Ca4  1  0.50000000  0.30252400  0.50000000  1
  Ca  Ca5  1  0.50000000  0.80252400  0.00000000  1
  Ca  Ca6  1  0.69710700  0.00000000  0.79788200  1
  Ca  Ca7  1  0.19710700  0.00000000  0.70211800  1
  Ca  Ca8  1  0.00000000  0.69747600  0.00000000  1
  Ca  Ca9  1  0.00000000  0.19747600  0.50000000  1
  Ca  Ca10  1  0.30289300  0.50000000  0.29788200  1
  Ca  Ca11  1  0.80289300  0.50000000  0.20211800  1
  Ca  Ca12  1  0.00000000  0.80252400  0.50000000  1
  Ca  Ca13  1  0.00000000  0.30252400  0.00000000  1
  Ca  Ca14  1  0.19710700  0.50000000  0.79788200  1
  Ca  Ca15  1  0.69710700  0.50000000  0.70211800  1
  In  In16  1  0.26933500  0.25000000  0.25000000  1
  In  In17  1  0.73066500  0.25000000  0.75000000  1
  In  In18  1  0.00000000  0.00000000  0.00000000  1
  In  In19  1  0.26933500  0.75000000  0.25000000  1
  In  In20  1  0.73066500  0.75000000  0.75000000  1
  In  In21  1  0.50000000  0.00000000  0.50000000  1
  In  In22  1  0.76933500  0.75000000  0.25000000  1
  In  In23  1  0.23066500  0.75000000  0.75000000  1
  In  In24  1  0.50000000  0.50000000  0.00000000  1
  In  In25  1  0.76933500  0.25000000  0.25000000  1
  In  In26  1  0.23066500  0.25000000  0.75000000  1
  In  In27  1  0.00000000  0.50000000  0.50000000  1
  Au  Au28  1  0.29291500  0.85887900  0.48191800  1
  Au  Au29  1  0.90181700  0.00000000  0.59580400  1
  Au  Au30  1  0.70708500  0.85887900  0.51808200  1
  Au  Au31  1  0.52725400  0.35862600  0.20748200  1
  Au  Au32  1  0.52725400  0.85862600  0.29251800  1
  Au  Au33  1  0.52725400  0.14137400  0.29251800  1
  Au  Au34  1  0.40181700  0.00000000  0.90419600  1
  Au  Au35  1  0.79291500  0.14112100  0.01808200  1
  Au  Au36  1  0.47274600  0.85862600  0.70748200  1
  Au  Au37  1  0.20708500  0.14112100  0.98191800  1
  Au  Au38  1  0.59818300  0.00000000  0.09580400  1
  Au  Au39  1  0.79291500  0.85887900  0.01808200  1
  Au  Au40  1  0.09818300  0.00000000  0.40419600  1
  Au  Au41  1  0.47274600  0.14137400  0.70748200  1
  Au  Au42  1  0.47274600  0.64137400  0.79251800  1
  Au  Au43  1  0.20708500  0.85887900  0.98191800  1
  Au  Au44  1  0.70708500  0.14112100  0.51808200  1
  Au  Au45  1  0.52725400  0.64137400  0.20748200  1
  Au  Au46  1  0.29291500  0.14112100  0.48191800  1
  Au  Au47  1  0.47274600  0.35862600  0.79251800  1
  Au  Au48  1  0.79291500  0.35887900  0.48191800  1
  Au  Au49  1  0.40181700  0.50000000  0.59580400  1
  Au  Au50  1  0.20708500  0.35887900  0.51808200  1
  Au  Au51  1  0.02725400  0.85862600  0.20748200  1
  Au  Au52  1  0.02725400  0.35862600  0.29251800  1
  Au  Au53  1  0.02725400  0.64137400  0.29251800  1
  Au  Au54  1  0.90181700  0.50000000  0.90419600  1
  Au  Au55  1  0.29291500  0.64112100  0.01808200  1
  Au  Au56  1  0.97274600  0.35862600  0.70748200  1
  Au  Au57  1  0.70708500  0.64112100  0.98191800  1
  Au  Au58  1  0.09818300  0.50000000  0.09580400  1
  Au  Au59  1  0.29291500  0.35887900  0.01808200  1
  Au  Au60  1  0.59818300  0.50000000  0.40419600  1
  Au  Au61  1  0.97274600  0.64137400  0.70748200  1
  Au  Au62  1  0.97274600  0.14137400  0.79251800  1
  Au  Au63  1  0.70708500  0.35887900  0.98191800  1
  Au  Au64  1  0.20708500  0.64112100  0.51808200  1
  Au  Au65  1  0.02725400  0.14137400  0.20748200  1
  Au  Au66  1  0.79291500  0.64112100  0.48191800  1
  Au  Au67  1  0.97274600  0.85862600  0.79251800  1
