# generated using pymatgen
data_BaW6O19
_symmetry_space_group_name_H-M   'P 1'
_cell_length_a   7.51251200
_cell_length_b   13.07701400
_cell_length_c   7.83301367
_cell_angle_alpha   90.00000000
_cell_angle_beta   90.04726730
_cell_angle_gamma   90.00000000
_symmetry_Int_Tables_number   1
_chemical_formula_structural   BaW6O19
_chemical_formula_sum   'Ba2 W12 O38'
_cell_volume   769.52459294
_cell_formula_units_Z   2
loop_
 _symmetry_equiv_pos_site_id
 _symmetry_equiv_pos_as_xyz
  1  'x, y, z'
loop_
 _atom_site_type_symbol
 _atom_site_label
 _atom_site_symmetry_multiplicity
 _atom_site_fract_x
 _atom_site_fract_y
 _atom_site_fract_z
 _atom_site_occupancy
  Ba  Ba0  1  0.00765400  0.00000000  0.40916700  1
  Ba  Ba1  1  0.50765400  0.50000000  0.40916700  1
  W  W2  1  0.24774600  0.24947100  0.74801200  1
  W  W3  1  0.49878000  0.00000000  0.24917100  1
  W  W4  1  0.74871050  0.24964750  0.24384100  1
  W  W5  1  0.74774600  0.25052900  0.74801200  1
  W  W6  1  0.49904300  0.00000000  0.76441400  1
  W  W7  1  0.24871050  0.25035250  0.24384100  1
  W  W8  1  0.74774600  0.74947100  0.74801200  1
  W  W9  1  0.99878000  0.50000000  0.24917100  1
  W  W10  1  0.24871050  0.74964750  0.24384100  1
  W  W11  1  0.24774600  0.75052900  0.74801200  1
  W  W12  1  0.99904300  0.50000000  0.76441400  1
  W  W13  1  0.74871050  0.75035250  0.24384100  1
  O  O14  1  0.24790200  0.25106600  0.00062100  1
  O  O15  1  0.24844400  0.24829800  0.49964500  1
  O  O16  1  0.17749500  0.39123000  0.75794500  1
  O  O17  1  0.19108150  0.39385450  0.24729000  1
  O  O18  1  0.99878650  0.20941450  0.25426600  1
  O  O19  1  0.99757850  0.21045150  0.74541100  1
  O  O20  1  0.81741950  0.39185550  0.76255400  1
  O  O21  1  0.80692100  0.39389700  0.24382300  1
  O  O22  1  0.74790200  0.24893400  0.00062100  1
  O  O23  1  0.74844400  0.25170200  0.49964500  1
  O  O24  1  0.67749500  0.10877000  0.75794500  1
  O  O25  1  0.69108150  0.10614550  0.24729000  1
  O  O26  1  0.59459700  0.00000000  0.50510000  1
  O  O27  1  0.49878650  0.29058550  0.25426600  1
  O  O28  1  0.49757850  0.28954850  0.74541100  1
  O  O29  1  0.39408500  0.00000000  0.50667200  1
  O  O30  1  0.50167300  0.00000000  0.99865600  1
  O  O31  1  0.31741950  0.10814450  0.76255400  1
  O  O32  1  0.30692100  0.10610300  0.24382300  1
  O  O33  1  0.74790200  0.75106600  0.00062100  1
  O  O34  1  0.74844400  0.74829800  0.49964500  1
  O  O35  1  0.67749500  0.89123000  0.75794500  1
  O  O36  1  0.69108150  0.89385450  0.24729000  1
  O  O37  1  0.49878650  0.70941450  0.25426600  1
  O  O38  1  0.49757850  0.71045150  0.74541100  1
  O  O39  1  0.31741950  0.89185550  0.76255400  1
  O  O40  1  0.30692100  0.89389700  0.24382300  1
  O  O41  1  0.24790200  0.74893400  0.00062100  1
  O  O42  1  0.24844400  0.75170200  0.49964500  1
  O  O43  1  0.17749500  0.60877000  0.75794500  1
  O  O44  1  0.19108150  0.60614550  0.24729000  1
  O  O45  1  0.09459700  0.50000000  0.50510000  1
  O  O46  1  0.99878650  0.79058550  0.25426600  1
  O  O47  1  0.99757850  0.78954850  0.74541100  1
  O  O48  1  0.89408500  0.50000000  0.50667200  1
  O  O49  1  0.00167300  0.50000000  0.99865600  1
  O  O50  1  0.81741950  0.60814450  0.76255400  1
  O  O51  1  0.80692100  0.60610300  0.24382300  1
