# generated using pymatgen
data_RbMnO2
_symmetry_space_group_name_H-M   'P 1'
_cell_length_a   6.63536630
_cell_length_b   7.89869610
_cell_length_c   8.64364332
_cell_angle_alpha   102.58810388
_cell_angle_beta   88.37786389
_cell_angle_gamma   101.32436695
_symmetry_Int_Tables_number   1
_chemical_formula_structural   RbMnO2
_chemical_formula_sum   'Rb6 Mn6 O12'
_cell_volume   433.47267589
_cell_formula_units_Z   6
loop_
 _symmetry_equiv_pos_site_id
 _symmetry_equiv_pos_as_xyz
  1  'x, y, z'
loop_
 _atom_site_type_symbol
 _atom_site_label
 _atom_site_symmetry_multiplicity
 _atom_site_fract_x
 _atom_site_fract_y
 _atom_site_fract_z
 _atom_site_occupancy
  Rb  Rb0  1  0.84708000  0.10944300  0.88210900  1
  Rb  Rb1  1  0.15292000  0.89055700  0.11789100  1
  Rb  Rb2  1  0.17339100  0.87222900  0.53266100  1
  Rb  Rb3  1  0.82660900  0.12777100  0.46733900  1
  Rb  Rb4  1  0.98096600  0.45872100  0.23331400  1
  Rb  Rb5  1  0.01903400  0.54127900  0.76668600  1
  Mn  Mn6  1  0.58493000  0.67719300  0.78474700  1
  Mn  Mn7  1  0.41507000  0.32280700  0.21525300  1
  Mn  Mn8  1  0.40122300  0.32734200  0.54978600  1
  Mn  Mn9  1  0.59877700  0.67265800  0.45021400  1
  Mn  Mn10  1  0.40390900  0.32472700  0.88268300  1
  Mn  Mn11  1  0.59609100  0.67527300  0.11731700  1
  O  O12  1  0.77168200  0.77758400  0.63651700  1
  O  O13  1  0.22831800  0.22241600  0.36348300  1
  O  O14  1  0.21154400  0.23656400  0.70173100  1
  O  O15  1  0.78845600  0.76343600  0.29826900  1
  O  O16  1  0.77354800  0.76981000  0.96276000  1
  O  O17  1  0.22645200  0.23019000  0.03724000  1
  O  O18  1  0.38840400  0.61781700  0.60749200  1
  O  O19  1  0.61159600  0.38218300  0.39250800  1
  O  O20  1  0.61260900  0.38077800  0.05361900  1
  O  O21  1  0.38739100  0.61922200  0.94638100  1
  O  O22  1  0.39560600  0.62727900  0.27911800  1
  O  O23  1  0.60439400  0.37272100  0.72088200  1
