# generated using pymatgen
data_MnSiO3
_symmetry_space_group_name_H-M   'P 1'
_cell_length_a   11.91472200
_cell_length_b   11.91472200
_cell_length_c   11.76183200
_cell_angle_alpha   90.00000000
_cell_angle_beta   90.00000000
_cell_angle_gamma   90.00000000
_symmetry_Int_Tables_number   1
_chemical_formula_structural   MnSiO3
_chemical_formula_sum   'Mn32 Si32 O96'
_cell_volume   1669.71673179
_cell_formula_units_Z   32
loop_
 _symmetry_equiv_pos_site_id
 _symmetry_equiv_pos_as_xyz
  1  'x, y, z'
loop_
 _atom_site_type_symbol
 _atom_site_label
 _atom_site_symmetry_multiplicity
 _atom_site_fract_x
 _atom_site_fract_y
 _atom_site_fract_z
 _atom_site_occupancy
  Mn  Mn0  1  0.37374650  0.24126650  0.63438750  1
  Mn  Mn1  1  0.50000000  0.00000000  0.99903200  1
  Mn  Mn2  1  0.75873350  0.87374650  0.38438750  1
  Mn  Mn3  1  0.12625350  0.25873350  0.13438750  1
  Mn  Mn4  1  0.00000000  0.00000000  0.74903200  1
  Mn  Mn5  1  0.24126650  0.12625350  0.38438750  1
  Mn  Mn6  1  0.75000000  0.00000000  0.62500000  1
  Mn  Mn7  1  0.50000000  0.25000000  0.87500000  1
  Mn  Mn8  1  0.00000000  0.25000000  0.37500000  1
  Mn  Mn9  1  0.75000000  0.50000000  0.12500000  1
  Mn  Mn10  1  0.75873350  0.37374650  0.36561250  1
  Mn  Mn11  1  0.50000000  0.00000000  0.50096800  1
  Mn  Mn12  1  0.87374650  0.24126650  0.61561250  1
  Mn  Mn13  1  0.74126650  0.12625350  0.86561250  1
  Mn  Mn14  1  0.00000000  0.00000000  0.25096800  1
  Mn  Mn15  1  0.12625350  0.75873350  0.61561250  1
  Mn  Mn16  1  0.87374650  0.74126650  0.13438750  1
  Mn  Mn17  1  0.00000000  0.50000000  0.49903200  1
  Mn  Mn18  1  0.25873350  0.37374650  0.88438750  1
  Mn  Mn19  1  0.62625350  0.75873350  0.63438750  1
  Mn  Mn20  1  0.50000000  0.50000000  0.24903200  1
  Mn  Mn21  1  0.74126650  0.62625350  0.88438750  1
  Mn  Mn22  1  0.25000000  0.50000000  0.12500000  1
  Mn  Mn23  1  0.00000000  0.75000000  0.37500000  1
  Mn  Mn24  1  0.50000000  0.75000000  0.87500000  1
  Mn  Mn25  1  0.25000000  0.00000000  0.62500000  1
  Mn  Mn26  1  0.25873350  0.87374650  0.86561250  1
  Mn  Mn27  1  0.00000000  0.50000000  0.00096800  1
  Mn  Mn28  1  0.37374650  0.74126650  0.11561250  1
  Mn  Mn29  1  0.24126650  0.62625350  0.36561250  1
  Mn  Mn30  1  0.50000000  0.50000000  0.75096800  1
  Mn  Mn31  1  0.62625350  0.25873350  0.11561250  1
  Si  Si32  1  0.87347950  0.73577850  0.63494050  1
  Si  Si33  1  0.76422150  0.87347950  0.88494050  1
  Si  Si34  1  0.62652050  0.76422150  0.13494050  1
  Si  Si35  1  0.73577850  0.62652050  0.38494050  1
  Si  Si36  1  0.75000000  0.50000000  0.62500000  1
  Si  Si37  1  0.76422150  0.37347950  0.86505950  1
  Si  Si38  1  0.50000000  0.75000000  0.37500000  1
  Si  Si39  1  0.87347950  0.23577850  0.11505950  1
  Si  Si40  1  0.50000000  0.00000000  0.25000000  1
  Si  Si41  1  0.25000000  0.50000000  0.62500000  1
  Si  Si42  1  0.50000000  0.25000000  0.37500000  1
  Si  Si43  1  0.73577850  0.12652050  0.36505950  1
  Si  Si44  1  0.50000000  0.00000000  0.75000000  1
  Si  Si45  1  0.50000000  0.50000000  0.50000000  1
  Si  Si46  1  0.62652050  0.26422150  0.61505950  1
  Si  Si47  1  0.00000000  0.00000000  0.50000000  1
  Si  Si48  1  0.37347950  0.23577850  0.13494050  1
  Si  Si49  1  0.26422150  0.37347950  0.38494050  1
  Si  Si50  1  0.12652050  0.26422150  0.63494050  1
  Si  Si51  1  0.23577850  0.12652050  0.88494050  1
  Si  Si52  1  0.25000000  0.00000000  0.12500000  1
  Si  Si53  1  0.26422150  0.87347950  0.36505950  1
  Si  Si54  1  0.00000000  0.25000000  0.87500000  1
  Si  Si55  1  0.37347950  0.73577850  0.61505950  1
  Si  Si56  1  0.00000000  0.50000000  0.75000000  1
  Si  Si57  1  0.75000000  0.00000000  0.12500000  1
  Si  Si58  1  0.00000000  0.75000000  0.87500000  1
  Si  Si59  1  0.23577850  0.62652050  0.86505950  1
  Si  Si60  1  0.00000000  0.50000000  0.25000000  1
  Si  Si61  1  0.00000000  0.00000000  0.00000000  1
  Si  Si62  1  0.12652050  0.76422150  0.11505950  1
  Si  Si63  1  0.50000000  0.50000000  0.00000000  1
  O  O64  1  0.56484250  0.08358550  0.84100250  1
  O  O65  1  0.27683600  0.14035800  0.18170900  1
  O  O66  1  0.79007600  0.82962100  0.57940900  1
  O  O67  1  0.47028800  0.18797600  0.04838900  1
  O  O68  1  0.17037900  0.29007600  0.32940900  1
  O  O69  1  0.10287350  0.53387550  0.66012950  1
  O  O70  1  0.95279300  0.79100400  0.73851700  1
  O  O71  1  0.35964200  0.27683600  0.43170900  1
  O  O72  1  0.91641450  0.06484250  0.59100250  1
  O  O73  1  0.81202400  0.97028800  0.79838900  1
  O  O74  1  0.08358550  0.93515750  0.59100250  1
  O  O75  1  0.70899600  0.95279300  0.98851700  1
  O  O76  1  0.93515750  0.41641450  0.34100250  1
  O  O77  1  0.53387550  0.39712650  0.41012950  1
  O  O78  1  0.02971200  0.31202400  0.54838900  1
  O  O79  1  0.70992400  0.67037900  0.07940900  1
  O  O80  1  0.46612450  0.60287350  0.41012950  1
  O  O81  1  0.54720700  0.70899600  0.23851700  1
  O  O82  1  0.68797600  0.52971200  0.29838900  1
  O  O83  1  0.89712650  0.46612450  0.66012950  1
  O  O84  1  0.22316400  0.35964200  0.68170900  1
  O  O85  1  0.64035800  0.72316400  0.43170900  1
  O  O86  1  0.79100400  0.54720700  0.48851700  1
  O  O87  1  0.67037900  0.29007600  0.92059100  1
  O  O88  1  0.32962100  0.20992400  0.82940900  1
  O  O89  1  0.70899600  0.45279300  0.76148300  1
  O  O90  1  0.85964200  0.27683600  0.81829100  1
  O  O91  1  0.27683600  0.64035800  0.56829100  1
  O  O92  1  0.60287350  0.53387550  0.58987050  1
  O  O93  1  0.81202400  0.47028800  0.95161100  1
  O  O94  1  0.95279300  0.29100400  0.01148300  1
  O  O95  1  0.53387550  0.89712650  0.33987050  1
  O  O96  1  0.79007600  0.32962100  0.17059100  1
  O  O97  1  0.97028800  0.18797600  0.20161100  1
  O  O98  1  0.46612450  0.10287350  0.33987050  1
  O  O99  1  0.06484250  0.08358550  0.40899750  1
  O  O100  1  0.79100400  0.04720700  0.26148300  1
  O  O101  1  0.91641450  0.56484250  0.15899750  1
  O  O102  1  0.68797600  0.02971200  0.45161100  1
  O  O103  1  0.58358550  0.93515750  0.65899750  1
  O  O104  1  0.64035800  0.22316400  0.31829100  1
  O  O105  1  0.54720700  0.20899600  0.51148300  1
  O  O106  1  0.39712650  0.46612450  0.58987050  1
  O  O107  1  0.82962100  0.20992400  0.42059100  1
  O  O108  1  0.52971200  0.31202400  0.70161100  1
  O  O109  1  0.70992400  0.17037900  0.67059100  1
  O  O110  1  0.72316400  0.35964200  0.56829100  1
  O  O111  1  0.93515750  0.91641450  0.40899750  1
  O  O112  1  0.06484250  0.58358550  0.34100250  1
  O  O113  1  0.77683600  0.64035800  0.68170900  1
  O  O114  1  0.29007600  0.32962100  0.07940900  1
  O  O115  1  0.97028800  0.68797600  0.54838900  1
  O  O116  1  0.67037900  0.79007600  0.82940900  1
  O  O117  1  0.60287350  0.03387550  0.16012950  1
  O  O118  1  0.45279300  0.29100400  0.23851700  1
  O  O119  1  0.85964200  0.77683600  0.93170900  1
  O  O120  1  0.41641450  0.56484250  0.09100250  1
  O  O121  1  0.31202400  0.47028800  0.29838900  1
  O  O122  1  0.58358550  0.43515750  0.09100250  1
  O  O123  1  0.20899600  0.45279300  0.48851700  1
  O  O124  1  0.43515750  0.91641450  0.84100250  1
  O  O125  1  0.03387550  0.89712650  0.91012950  1
  O  O126  1  0.52971200  0.81202400  0.04838900  1
  O  O127  1  0.20992400  0.17037900  0.57940900  1
  O  O128  1  0.96612450  0.10287350  0.91012950  1
  O  O129  1  0.04720700  0.20899600  0.73851700  1
  O  O130  1  0.18797600  0.02971200  0.79838900  1
  O  O131  1  0.39712650  0.96612450  0.16012950  1
  O  O132  1  0.72316400  0.85964200  0.18170900  1
  O  O133  1  0.14035800  0.22316400  0.93170900  1
  O  O134  1  0.29100400  0.04720700  0.98851700  1
  O  O135  1  0.17037900  0.79007600  0.42059100  1
  O  O136  1  0.82962100  0.70992400  0.32940900  1
  O  O137  1  0.20899600  0.95279300  0.26148300  1
  O  O138  1  0.35964200  0.77683600  0.31829100  1
  O  O139  1  0.77683600  0.14035800  0.06829100  1
  O  O140  1  0.10287350  0.03387550  0.08987050  1
  O  O141  1  0.31202400  0.97028800  0.45161100  1
  O  O142  1  0.45279300  0.79100400  0.51148300  1
  O  O143  1  0.03387550  0.39712650  0.83987050  1
  O  O144  1  0.29007600  0.82962100  0.67059100  1
  O  O145  1  0.47028800  0.68797600  0.70161100  1
  O  O146  1  0.96612450  0.60287350  0.83987050  1
  O  O147  1  0.56484250  0.58358550  0.90899750  1
  O  O148  1  0.29100400  0.54720700  0.76148300  1
  O  O149  1  0.41641450  0.06484250  0.65899750  1
  O  O150  1  0.18797600  0.52971200  0.95161100  1
  O  O151  1  0.08358550  0.43515750  0.15899750  1
  O  O152  1  0.14035800  0.72316400  0.81829100  1
  O  O153  1  0.04720700  0.70899600  0.01148300  1
  O  O154  1  0.89712650  0.96612450  0.08987050  1
  O  O155  1  0.32962100  0.70992400  0.92059100  1
  O  O156  1  0.02971200  0.81202400  0.20161100  1
  O  O157  1  0.20992400  0.67037900  0.17059100  1
  O  O158  1  0.22316400  0.85964200  0.06829100  1
  O  O159  1  0.43515750  0.41641450  0.90899750  1
