# generated using pymatgen
data_ScU8S17
_symmetry_space_group_name_H-M   'P 1'
_cell_length_a   13.23495811
_cell_length_b   8.41039571
_cell_length_c   10.50045496
_cell_angle_alpha   90.00000000
_cell_angle_beta   101.12085270
_cell_angle_gamma   90.00000000
_symmetry_Int_Tables_number   1
_chemical_formula_structural   ScU8S17
_chemical_formula_sum   'Sc2 U16 S34'
_cell_volume   1146.87115408
_cell_formula_units_Z   2
loop_
 _symmetry_equiv_pos_site_id
 _symmetry_equiv_pos_as_xyz
  1  'x, y, z'
loop_
 _atom_site_type_symbol
 _atom_site_label
 _atom_site_symmetry_multiplicity
 _atom_site_fract_x
 _atom_site_fract_y
 _atom_site_fract_z
 _atom_site_occupancy
  Sc  Sc0  1  0.00000000  0.00000000  0.00000000  1
  Sc  Sc1  1  0.50000000  0.50000000  0.00000000  1
  U  U2  1  0.20483700  0.00000000  0.45947700  1
  U  U3  1  0.79516300  0.00000000  0.54052300  1
  U  U4  1  0.55881550  0.74229250  0.69725500  1
  U  U5  1  0.55881550  0.25770750  0.69725500  1
  U  U6  1  0.44118450  0.74229250  0.30274500  1
  U  U7  1  0.31851100  0.00000000  0.98216700  1
  U  U8  1  0.68148900  0.00000000  0.01783300  1
  U  U9  1  0.44118450  0.25770750  0.30274500  1
  U  U10  1  0.70483700  0.50000000  0.45947700  1
  U  U11  1  0.29516300  0.50000000  0.54052300  1
  U  U12  1  0.05881550  0.24229250  0.69725500  1
  U  U13  1  0.05881550  0.75770750  0.69725500  1
  U  U14  1  0.94118450  0.24229250  0.30274500  1
  U  U15  1  0.81851100  0.50000000  0.98216700  1
  U  U16  1  0.18148900  0.50000000  0.01783300  1
  U  U17  1  0.94118450  0.75770750  0.30274500  1
  S  S18  1  0.52054000  0.00000000  0.16975600  1
  S  S19  1  0.30378700  0.00000000  0.24768400  1
  S  S20  1  0.62719650  0.80473650  0.46616400  1
  S  S21  1  0.63627750  0.30549050  0.96362100  1
  S  S22  1  0.78938500  0.00000000  0.27885700  1
  S  S23  1  0.37280350  0.19526350  0.53383600  1
  S  S24  1  0.47946000  0.00000000  0.83024400  1
  S  S25  1  0.63627750  0.69450950  0.96362100  1
  S  S26  1  0.06153500  0.00000000  0.23544100  1
  S  S27  1  0.93846500  0.00000000  0.76455900  1
  S  S28  1  0.69621300  0.00000000  0.75231600  1
  S  S29  1  0.36372250  0.30549050  0.03637900  1
  S  S30  1  0.37280350  0.80473650  0.53383600  1
  S  S31  1  0.36372250  0.69450950  0.03637900  1
  S  S32  1  0.62719650  0.19526350  0.46616400  1
  S  S33  1  0.00000000  0.00000000  0.50000000  1
  S  S34  1  0.21061500  0.00000000  0.72114300  1
  S  S35  1  0.02054000  0.50000000  0.16975600  1
  S  S36  1  0.80378700  0.50000000  0.24768400  1
  S  S37  1  0.12719650  0.30473650  0.46616400  1
  S  S38  1  0.13627750  0.80549050  0.96362100  1
  S  S39  1  0.28938500  0.50000000  0.27885700  1
  S  S40  1  0.87280350  0.69526350  0.53383600  1
  S  S41  1  0.97946000  0.50000000  0.83024400  1
  S  S42  1  0.13627750  0.19450950  0.96362100  1
  S  S43  1  0.56153500  0.50000000  0.23544100  1
  S  S44  1  0.43846500  0.50000000  0.76455900  1
  S  S45  1  0.19621300  0.50000000  0.75231600  1
  S  S46  1  0.86372250  0.80549050  0.03637900  1
  S  S47  1  0.87280350  0.30473650  0.53383600  1
  S  S48  1  0.86372250  0.19450950  0.03637900  1
  S  S49  1  0.12719650  0.69526350  0.46616400  1
  S  S50  1  0.50000000  0.50000000  0.50000000  1
  S  S51  1  0.71061500  0.50000000  0.72114300  1
