# generated using pymatgen
data_CeZn3
_symmetry_space_group_name_H-M   'P 1'
_cell_length_a   4.61896400
_cell_length_b   10.37998000
_cell_length_c   6.54421800
_cell_angle_alpha   90.00000000
_cell_angle_beta   90.00000000
_cell_angle_gamma   90.00000000
_symmetry_Int_Tables_number   1
_chemical_formula_structural   CeZn3
_chemical_formula_sum   'Ce4 Zn12'
_cell_volume   313.76092174
_cell_formula_units_Z   4
loop_
 _symmetry_equiv_pos_site_id
 _symmetry_equiv_pos_as_xyz
  1  'x, y, z'
loop_
 _atom_site_type_symbol
 _atom_site_label
 _atom_site_symmetry_multiplicity
 _atom_site_fract_x
 _atom_site_fract_y
 _atom_site_fract_z
 _atom_site_occupancy
  Ce  Ce0  1  0.00000000  0.10173600  0.75000000  1
  Ce  Ce1  1  0.50000000  0.39826400  0.25000000  1
  Ce  Ce2  1  0.50000000  0.60173600  0.75000000  1
  Ce  Ce3  1  0.00000000  0.89826400  0.25000000  1
  Zn  Zn4  1  0.00000000  0.20011300  0.25000000  1
  Zn  Zn5  1  0.50000000  0.11910600  0.05623300  1
  Zn  Zn6  1  0.00000000  0.38089400  0.94376700  1
  Zn  Zn7  1  0.50000000  0.11910600  0.44376700  1
  Zn  Zn8  1  0.00000000  0.38089400  0.55623300  1
  Zn  Zn9  1  0.50000000  0.29988700  0.75000000  1
  Zn  Zn10  1  0.50000000  0.70011300  0.25000000  1
  Zn  Zn11  1  0.00000000  0.61910600  0.05623300  1
  Zn  Zn12  1  0.50000000  0.88089400  0.94376700  1
  Zn  Zn13  1  0.00000000  0.61910600  0.44376700  1
  Zn  Zn14  1  0.50000000  0.88089400  0.55623300  1
  Zn  Zn15  1  0.00000000  0.79988700  0.75000000  1
