# generated using pymatgen
data_Sb(PO3)4
_symmetry_space_group_name_H-M   'P 1'
_cell_length_a   17.12468400
_cell_length_b   12.29193200
_cell_length_c   5.44954605
_cell_angle_alpha   90.00000000
_cell_angle_beta   99.94689373
_cell_angle_gamma   90.00000000
_symmetry_Int_Tables_number   1
_chemical_formula_structural   Sb(PO3)4
_chemical_formula_sum   'Sb4 P16 O48'
_cell_volume   1129.86169899
_cell_formula_units_Z   4
loop_
 _symmetry_equiv_pos_site_id
 _symmetry_equiv_pos_as_xyz
  1  'x, y, z'
loop_
 _atom_site_type_symbol
 _atom_site_label
 _atom_site_symmetry_multiplicity
 _atom_site_fract_x
 _atom_site_fract_y
 _atom_site_fract_z
 _atom_site_occupancy
  Sb  Sb0  1  0.25000000  0.25000000  0.00000000  1
  Sb  Sb1  1  0.25000000  0.75000000  0.00000000  1
  Sb  Sb2  1  0.75000000  0.75000000  0.00000000  1
  Sb  Sb3  1  0.75000000  0.25000000  0.00000000  1
  P  P4  1  0.17253700  0.12051400  0.45420600  1
  P  P5  1  0.57252150  0.80074950  0.18102000  1
  P  P6  1  0.57252150  0.19925050  0.18102000  1
  P  P7  1  0.82746300  0.87948600  0.54579400  1
  P  P8  1  0.17253700  0.87948600  0.45420600  1
  P  P9  1  0.42747850  0.19925050  0.81898000  1
  P  P10  1  0.42747850  0.80074950  0.81898000  1
  P  P11  1  0.82746300  0.12051400  0.54579400  1
  P  P12  1  0.67253700  0.62051400  0.45420600  1
  P  P13  1  0.07252150  0.30074950  0.18102000  1
  P  P14  1  0.07252150  0.69925050  0.18102000  1
  P  P15  1  0.32746300  0.37948600  0.54579400  1
  P  P16  1  0.67253700  0.37948600  0.45420600  1
  P  P17  1  0.92747850  0.69925050  0.81898000  1
  P  P18  1  0.92747850  0.30074950  0.81898000  1
  P  P19  1  0.32746300  0.62051400  0.54579400  1
  O  O20  1  0.13954500  0.00000000  0.37989800  1
  O  O21  1  0.80928100  0.87330500  0.26344300  1
  O  O22  1  0.59766900  0.30969400  0.35002000  1
  O  O23  1  0.24171500  0.85485400  0.32028100  1
  O  O24  1  0.80928100  0.12669500  0.26344300  1
  O  O25  1  0.45046450  0.89006650  0.67095000  1
  O  O26  1  0.35976550  0.17838950  0.96886500  1
  O  O27  1  0.35976550  0.82161050  0.96886500  1
  O  O28  1  0.64023450  0.82161050  0.03113500  1
  O  O29  1  0.50000000  0.74118900  0.00000000  1
  O  O30  1  0.40233100  0.69030600  0.64998000  1
  O  O31  1  0.59766900  0.69030600  0.35002000  1
  O  O32  1  0.45046450  0.10993350  0.67095000  1
  O  O33  1  0.75828500  0.14514600  0.67971900  1
  O  O34  1  0.50000000  0.25881100  0.00000000  1
  O  O35  1  0.19071900  0.87330500  0.73655700  1
  O  O36  1  0.86045500  0.00000000  0.62010200  1
  O  O37  1  0.54953550  0.10993350  0.32905000  1
  O  O38  1  0.75828500  0.85485400  0.67971900  1
  O  O39  1  0.64023450  0.17838950  0.03113500  1
  O  O40  1  0.54953550  0.89006650  0.32905000  1
  O  O41  1  0.24171500  0.14514600  0.32028100  1
  O  O42  1  0.19071900  0.12669500  0.73655700  1
  O  O43  1  0.40233100  0.30969400  0.64998000  1
  O  O44  1  0.63954500  0.50000000  0.37989800  1
  O  O45  1  0.30928100  0.37330500  0.26344300  1
  O  O46  1  0.09766900  0.80969400  0.35002000  1
  O  O47  1  0.74171500  0.35485400  0.32028100  1
  O  O48  1  0.30928100  0.62669500  0.26344300  1
  O  O49  1  0.95046450  0.39006650  0.67095000  1
  O  O50  1  0.85976550  0.67838950  0.96886500  1
  O  O51  1  0.85976550  0.32161050  0.96886500  1
  O  O52  1  0.14023450  0.32161050  0.03113500  1
  O  O53  1  0.00000000  0.24118900  0.00000000  1
  O  O54  1  0.90233100  0.19030600  0.64998000  1
  O  O55  1  0.09766900  0.19030600  0.35002000  1
  O  O56  1  0.95046450  0.60993350  0.67095000  1
  O  O57  1  0.25828500  0.64514600  0.67971900  1
  O  O58  1  0.00000000  0.75881100  0.00000000  1
  O  O59  1  0.69071900  0.37330500  0.73655700  1
  O  O60  1  0.36045500  0.50000000  0.62010200  1
  O  O61  1  0.04953550  0.60993350  0.32905000  1
  O  O62  1  0.25828500  0.35485400  0.67971900  1
  O  O63  1  0.14023450  0.67838950  0.03113500  1
  O  O64  1  0.04953550  0.39006650  0.32905000  1
  O  O65  1  0.74171500  0.64514600  0.32028100  1
  O  O66  1  0.69071900  0.62669500  0.73655700  1
  O  O67  1  0.90233100  0.80969400  0.64998000  1
