# generated using pymatgen
data_UGa
_symmetry_space_group_name_H-M   'P 1'
_cell_length_a   5.43311800
_cell_length_b   10.84771800
_cell_length_c   5.46160100
_cell_angle_alpha   90.00000000
_cell_angle_beta   90.00000000
_cell_angle_gamma   90.00000000
_symmetry_Int_Tables_number   1
_chemical_formula_structural   UGa
_chemical_formula_sum   'U8 Ga8'
_cell_volume   321.89000634
_cell_formula_units_Z   8
loop_
 _symmetry_equiv_pos_site_id
 _symmetry_equiv_pos_as_xyz
  1  'x, y, z'
loop_
 _atom_site_type_symbol
 _atom_site_label
 _atom_site_symmetry_multiplicity
 _atom_site_fract_x
 _atom_site_fract_y
 _atom_site_fract_z
 _atom_site_occupancy
  U  U0  1  0.50000000  0.73445000  0.00000000  1
  U  U1  1  0.00000000  0.76555000  0.00000000  1
  U  U2  1  0.00000000  0.00000000  0.00000000  1
  U  U3  1  0.00000000  0.00000000  0.50000000  1
  U  U4  1  0.00000000  0.23445000  0.00000000  1
  U  U5  1  0.50000000  0.26555000  0.00000000  1
  U  U6  1  0.50000000  0.50000000  0.00000000  1
  U  U7  1  0.50000000  0.50000000  0.50000000  1
  Ga  Ga8  1  0.50000000  0.00000000  0.25208400  1
  Ga  Ga9  1  0.75000000  0.75000000  0.50000000  1
  Ga  Ga10  1  0.25000000  0.75000000  0.50000000  1
  Ga  Ga11  1  0.50000000  0.00000000  0.74791600  1
  Ga  Ga12  1  0.00000000  0.50000000  0.25208400  1
  Ga  Ga13  1  0.25000000  0.25000000  0.50000000  1
  Ga  Ga14  1  0.75000000  0.25000000  0.50000000  1
  Ga  Ga15  1  0.00000000  0.50000000  0.74791600  1
