# generated using pymatgen
data_Co5Te4(BrO6)2
_symmetry_space_group_name_H-M   'P 1'
_cell_length_a   20.80857600
_cell_length_b   5.33379400
_cell_length_c   16.55806177
_cell_angle_alpha   90.00000000
_cell_angle_beta   124.43896648
_cell_angle_gamma   90.00000000
_symmetry_Int_Tables_number   1
_chemical_formula_structural   Co5Te4(BrO6)2
_chemical_formula_sum   'Co20 Te16 Br8 O48'
_cell_volume   1515.65167712
_cell_formula_units_Z   4
loop_
 _symmetry_equiv_pos_site_id
 _symmetry_equiv_pos_as_xyz
  1  'x, y, z'
loop_
 _atom_site_type_symbol
 _atom_site_label
 _atom_site_symmetry_multiplicity
 _atom_site_fract_x
 _atom_site_fract_y
 _atom_site_fract_z
 _atom_site_occupancy
  Co  Co0  1  0.00000000  0.76372700  0.75000000  1
  Co  Co1  1  0.08625600  0.21673500  0.47314900  1
  Co  Co2  1  0.00858250  0.21805550  0.61885000  1
  Co  Co3  1  0.91374400  0.78326500  0.52685100  1
  Co  Co4  1  0.00858250  0.78194450  0.11885000  1
  Co  Co5  1  0.91374400  0.21673500  0.02685100  1
  Co  Co6  1  0.08625600  0.78326500  0.97314900  1
  Co  Co7  1  0.00000000  0.23627300  0.25000000  1
  Co  Co8  1  0.99141750  0.78194450  0.38115000  1
  Co  Co9  1  0.99141750  0.21805550  0.88115000  1
  Co  Co10  1  0.50000000  0.26372700  0.75000000  1
  Co  Co11  1  0.58625600  0.71673500  0.47314900  1
  Co  Co12  1  0.50858250  0.71805550  0.61885000  1
  Co  Co13  1  0.41374400  0.28326500  0.52685100  1
  Co  Co14  1  0.50858250  0.28194450  0.11885000  1
  Co  Co15  1  0.41374400  0.71673500  0.02685100  1
  Co  Co16  1  0.58625600  0.28326500  0.97314900  1
  Co  Co17  1  0.50000000  0.73627300  0.25000000  1
  Co  Co18  1  0.49141750  0.28194450  0.38115000  1
  Co  Co19  1  0.49141750  0.71805550  0.88115000  1
  Te  Te20  1  0.14135000  0.70986200  0.37666400  1
  Te  Te21  1  0.62170350  0.81561250  0.13773800  1
  Te  Te22  1  0.87829650  0.31561250  0.36226200  1
  Te  Te23  1  0.85865000  0.70986200  0.12333600  1
  Te  Te24  1  0.37829650  0.18438750  0.86226200  1
  Te  Te25  1  0.12170350  0.68438750  0.63773800  1
  Te  Te26  1  0.85865000  0.29013800  0.62333600  1
  Te  Te27  1  0.14135000  0.29013800  0.87666400  1
  Te  Te28  1  0.64135000  0.20986200  0.37666400  1
  Te  Te29  1  0.12170350  0.31561250  0.13773800  1
  Te  Te30  1  0.37829650  0.81561250  0.36226200  1
  Te  Te31  1  0.35865000  0.20986200  0.12333600  1
  Te  Te32  1  0.87829650  0.68438750  0.86226200  1
  Te  Te33  1  0.62170350  0.18438750  0.63773800  1
  Te  Te34  1  0.35865000  0.79013800  0.62333600  1
  Te  Te35  1  0.64135000  0.79013800  0.87666400  1
  Br  Br36  1  0.76440700  0.67064500  0.40148200  1
  Br  Br37  1  0.23559300  0.32935500  0.59851800  1
  Br  Br38  1  0.26440700  0.82935500  0.90148200  1
  Br  Br39  1  0.73559300  0.17064500  0.09851800  1
  Br  Br40  1  0.26440700  0.17064500  0.40148200  1
  Br  Br41  1  0.73559300  0.82935500  0.59851800  1
  Br  Br42  1  0.76440700  0.32935500  0.90148200  1
  Br  Br43  1  0.23559300  0.67064500  0.09851800  1
  O  O44  1  0.93853700  0.49307200  0.13283600  1
  O  O45  1  0.40685200  0.35633400  0.97992200  1
  O  O46  1  0.43179850  0.88546350  0.93141800  1
  O  O47  1  0.03967500  0.16252400  0.14234800  1
  O  O48  1  0.03967500  0.83747600  0.64234800  1
  O  O49  1  0.93853700  0.50692800  0.63283600  1
  O  O50  1  0.11058900  0.34054200  0.74798800  1
  O  O51  1  0.07569900  0.99099600  0.35524900  1
  O  O52  1  0.96032500  0.83747600  0.85765200  1
  O  O53  1  0.56820150  0.11453650  0.06858200  1
  O  O54  1  0.11058900  0.65945800  0.24798800  1
  O  O55  1  0.92430100  0.00900400  0.64475100  1
  O  O56  1  0.92430100  0.99099600  0.14475100  1
  O  O57  1  0.59314800  0.64366600  0.02007800  1
  O  O58  1  0.09314800  0.85633400  0.52007800  1
  O  O59  1  0.88941100  0.65945800  0.25201200  1
  O  O60  1  0.93179850  0.61453650  0.43141800  1
  O  O61  1  0.07569900  0.00900400  0.85524900  1
  O  O62  1  0.90685200  0.14366600  0.47992200  1
  O  O63  1  0.96032500  0.16252400  0.35765200  1
  O  O64  1  0.06820150  0.38546350  0.56858200  1
  O  O65  1  0.06146300  0.50692800  0.86716400  1
  O  O66  1  0.06146300  0.49307200  0.36716400  1
  O  O67  1  0.88941100  0.34054200  0.75201200  1
  O  O68  1  0.43853700  0.99307200  0.13283600  1
  O  O69  1  0.90685200  0.85633400  0.97992200  1
  O  O70  1  0.93179850  0.38546350  0.93141800  1
  O  O71  1  0.53967500  0.66252400  0.14234800  1
  O  O72  1  0.53967500  0.33747600  0.64234800  1
  O  O73  1  0.43853700  0.00692800  0.63283600  1
  O  O74  1  0.61058900  0.84054200  0.74798800  1
  O  O75  1  0.57569900  0.49099600  0.35524900  1
  O  O76  1  0.46032500  0.33747600  0.85765200  1
  O  O77  1  0.06820150  0.61453650  0.06858200  1
  O  O78  1  0.61058900  0.15945800  0.24798800  1
  O  O79  1  0.42430100  0.50900400  0.64475100  1
  O  O80  1  0.42430100  0.49099600  0.14475100  1
  O  O81  1  0.09314800  0.14366600  0.02007800  1
  O  O82  1  0.59314800  0.35633400  0.52007800  1
  O  O83  1  0.38941100  0.15945800  0.25201200  1
  O  O84  1  0.43179850  0.11453650  0.43141800  1
  O  O85  1  0.57569900  0.50900400  0.85524900  1
  O  O86  1  0.40685200  0.64366600  0.47992200  1
  O  O87  1  0.46032500  0.66252400  0.35765200  1
  O  O88  1  0.56820150  0.88546350  0.56858200  1
  O  O89  1  0.56146300  0.00692800  0.86716400  1
  O  O90  1  0.56146300  0.99307200  0.36716400  1
  O  O91  1  0.38941100  0.84054200  0.75201200  1
