# generated using pymatgen
data_Tb4In20Ni11
_symmetry_space_group_name_H-M   'P 1'
_cell_length_a   22.53451926
_cell_length_b   4.32190034
_cell_length_c   16.58671865
_cell_angle_alpha   90.00000000
_cell_angle_beta   124.51383868
_cell_angle_gamma   90.00000000
_symmetry_Int_Tables_number   1
_chemical_formula_structural   Tb4In20Ni11
_chemical_formula_sum   'Tb8 In40 Ni22'
_cell_volume   1331.08297249
_cell_formula_units_Z   2
loop_
 _symmetry_equiv_pos_site_id
 _symmetry_equiv_pos_as_xyz
  1  'x, y, z'
loop_
 _atom_site_type_symbol
 _atom_site_label
 _atom_site_symmetry_multiplicity
 _atom_site_fract_x
 _atom_site_fract_y
 _atom_site_fract_z
 _atom_site_occupancy
  Tb  Tb0  1  0.87825913  0.00000000  0.66810403  1
  Tb  Tb1  1  0.22723796  0.00000000  0.82594317  1
  Tb  Tb2  1  0.12174087  0.00000000  0.33189597  1
  Tb  Tb3  1  0.77276204  0.00000000  0.17405683  1
  Tb  Tb4  1  0.37825913  0.50000000  0.66810403  1
  Tb  Tb5  1  0.72723796  0.50000000  0.82594317  1
  Tb  Tb6  1  0.62174087  0.50000000  0.33189597  1
  Tb  Tb7  1  0.27276204  0.50000000  0.17405683  1
  In  In8  1  0.88256892  0.00000000  0.45079695  1
  In  In9  1  0.74464880  0.50000000  0.29109572  1
  In  In10  1  0.88658825  0.50000000  0.31088994  1
  In  In11  1  0.06200310  0.00000000  0.79162065  1
  In  In12  1  0.93566385  0.00000000  0.21206119  1
  In  In13  1  0.00811435  0.00000000  0.09570752  1
  In  In14  1  0.89737309  0.50000000  0.00895058  1
  In  In15  1  0.95773298  0.50000000  0.62381673  1
  In  In16  1  0.99188565  0.00000000  0.90429248  1
  In  In17  1  0.03867767  0.50000000  0.37805628  1
  In  In18  1  0.11333551  0.00000000  0.55244176  1
  In  In19  1  0.25108913  0.50000000  0.70938907  1
  In  In20  1  0.29721369  0.50000000  0.99769687  1
  In  In21  1  0.79533323  0.50000000  0.49864022  1
  In  In22  1  0.37054886  0.00000000  0.80414937  1
  In  In23  1  0.10262691  0.50000000  0.99104942  1
  In  In24  1  0.62945114  0.00000000  0.19585063  1
  In  In25  1  0.11002319  0.50000000  0.69285390  1
  In  In26  1  0.70278631  0.50000000  0.00230313  1
  In  In27  1  0.20022068  0.50000000  0.50189615  1
  In  In28  1  0.38256892  0.50000000  0.45079695  1
  In  In29  1  0.24464880  0.00000000  0.29109572  1
  In  In30  1  0.38658825  0.00000000  0.31088994  1
  In  In31  1  0.56200310  0.50000000  0.79162065  1
  In  In32  1  0.43566385  0.50000000  0.21206119  1
  In  In33  1  0.50811435  0.50000000  0.09570752  1
  In  In34  1  0.39737309  0.00000000  0.00895058  1
  In  In35  1  0.45773298  0.00000000  0.62381673  1
  In  In36  1  0.49188565  0.50000000  0.90429248  1
  In  In37  1  0.53867767  0.00000000  0.37805628  1
  In  In38  1  0.61333551  0.50000000  0.55244176  1
  In  In39  1  0.75108913  0.00000000  0.70938907  1
  In  In40  1  0.79721369  0.00000000  0.99769687  1
  In  In41  1  0.29533323  0.00000000  0.49864022  1
  In  In42  1  0.87054886  0.50000000  0.80414937  1
  In  In43  1  0.60262691  0.00000000  0.99104942  1
  In  In44  1  0.12945114  0.50000000  0.19585063  1
  In  In45  1  0.61002319  0.00000000  0.69285390  1
  In  In46  1  0.20278631  0.00000000  0.00230313  1
  In  In47  1  0.70022068  0.00000000  0.50189615  1
  Ni  Ni48  1  0.36255282  0.50000000  0.89756680  1
  Ni  Ni49  1  0.02085410  0.00000000  0.60187566  1
  Ni  Ni50  1  0.74401850  0.00000000  0.38353328  1
  Ni  Ni51  1  0.15231297  0.50000000  0.88101035  1
  Ni  Ni52  1  0.99220987  0.50000000  0.80621739  1
  Ni  Ni53  1  0.25197564  0.00000000  0.61747360  1
  Ni  Ni54  1  0.00779013  0.50000000  0.19378261  1
  Ni  Ni55  1  0.84768703  0.50000000  0.11898965  1
  Ni  Ni56  1  0.63744718  0.50000000  0.10243320  1
  Ni  Ni57  1  0.00000000  0.50000000  0.50000000  1
  Ni  Ni58  1  0.97482085  0.00000000  0.40133276  1
  Ni  Ni59  1  0.86255282  0.00000000  0.89756680  1
  Ni  Ni60  1  0.52085410  0.50000000  0.60187566  1
  Ni  Ni61  1  0.24401850  0.50000000  0.38353328  1
  Ni  Ni62  1  0.65231297  0.00000000  0.88101035  1
  Ni  Ni63  1  0.49220987  0.00000000  0.80621739  1
  Ni  Ni64  1  0.75197564  0.50000000  0.61747360  1
  Ni  Ni65  1  0.50779013  0.00000000  0.19378261  1
  Ni  Ni66  1  0.34768703  0.00000000  0.11898965  1
  Ni  Ni67  1  0.13744718  0.00000000  0.10243320  1
  Ni  Ni68  1  0.50000000  0.00000000  0.50000000  1
  Ni  Ni69  1  0.47482085  0.50000000  0.40133276  1
