# generated using pymatgen
data_RbCr3S5
_symmetry_space_group_name_H-M   'P 1'
_cell_length_a   19.53296200
_cell_length_b   3.54097200
_cell_length_c   12.22930343
_cell_angle_alpha   90.00000000
_cell_angle_beta   122.75358778
_cell_angle_gamma   90.00000000
_symmetry_Int_Tables_number   1
_chemical_formula_structural   RbCr3S5
_chemical_formula_sum   'Rb4 Cr12 S20'
_cell_volume   711.36249917
_cell_formula_units_Z   4
loop_
 _symmetry_equiv_pos_site_id
 _symmetry_equiv_pos_as_xyz
  1  'x, y, z'
loop_
 _atom_site_type_symbol
 _atom_site_label
 _atom_site_symmetry_multiplicity
 _atom_site_fract_x
 _atom_site_fract_y
 _atom_site_fract_z
 _atom_site_occupancy
  Rb  Rb0  1  0.75415600  0.50000000  0.16521400  1
  Rb  Rb1  1  0.24584400  0.50000000  0.83478600  1
  Rb  Rb2  1  0.25415600  0.00000000  0.16521400  1
  Rb  Rb3  1  0.74584400  0.00000000  0.83478600  1
  Cr  Cr4  1  0.98350600  0.00000000  0.22953200  1
  Cr  Cr5  1  0.83494000  0.00000000  0.61105000  1
  Cr  Cr6  1  0.00000000  0.50000000  0.00000000  1
  Cr  Cr7  1  0.01649400  0.00000000  0.77046800  1
  Cr  Cr8  1  0.16506000  0.00000000  0.38895000  1
  Cr  Cr9  1  0.00000000  0.50000000  0.50000000  1
  Cr  Cr10  1  0.48350600  0.50000000  0.22953200  1
  Cr  Cr11  1  0.33494000  0.50000000  0.61105000  1
  Cr  Cr12  1  0.50000000  0.00000000  0.00000000  1
  Cr  Cr13  1  0.51649400  0.50000000  0.77046800  1
  Cr  Cr14  1  0.66506000  0.50000000  0.38895000  1
  Cr  Cr15  1  0.50000000  0.00000000  0.50000000  1
  S  S16  1  0.90977900  0.50000000  0.08311400  1
  S  S17  1  0.92456300  0.50000000  0.60774700  1
  S  S18  1  0.07440100  0.00000000  0.15159000  1
  S  S19  1  0.07543700  0.50000000  0.39225300  1
  S  S20  1  0.92102900  0.00000000  0.34959700  1
  S  S21  1  0.92559900  0.00000000  0.84841000  1
  S  S22  1  0.25628100  0.00000000  0.61574500  1
  S  S23  1  0.09022100  0.50000000  0.91688600  1
  S  S24  1  0.74371900  0.00000000  0.38425500  1
  S  S25  1  0.07897100  0.00000000  0.65040300  1
  S  S26  1  0.40977900  0.00000000  0.08311400  1
  S  S27  1  0.42456300  0.00000000  0.60774700  1
  S  S28  1  0.57440100  0.50000000  0.15159000  1
  S  S29  1  0.57543700  0.00000000  0.39225300  1
  S  S30  1  0.42102900  0.50000000  0.34959700  1
  S  S31  1  0.42559900  0.50000000  0.84841000  1
  S  S32  1  0.75628100  0.50000000  0.61574500  1
  S  S33  1  0.59022100  0.00000000  0.91688600  1
  S  S34  1  0.24371900  0.50000000  0.38425500  1
  S  S35  1  0.57897100  0.50000000  0.65040300  1
