# generated using pymatgen
data_Sr2CoTeO6
_symmetry_space_group_name_H-M   'P 1'
_cell_length_a   5.72486586
_cell_length_b   5.69685358
_cell_length_c   9.81612474
_cell_angle_alpha   90.00000000
_cell_angle_beta   125.37397012
_cell_angle_gamma   90.00000000
_symmetry_Int_Tables_number   1
_chemical_formula_structural   Sr2CoTeO6
_chemical_formula_sum   'Sr4 Co2 Te2 O12'
_cell_volume   261.03953848
_cell_formula_units_Z   2
loop_
 _symmetry_equiv_pos_site_id
 _symmetry_equiv_pos_as_xyz
  1  'x, y, z'
loop_
 _atom_site_type_symbol
 _atom_site_label
 _atom_site_symmetry_multiplicity
 _atom_site_fract_x
 _atom_site_fract_y
 _atom_site_fract_z
 _atom_site_occupancy
  Sr  Sr0  1  0.75413300  0.48229800  0.25025200  1
  Sr  Sr1  1  0.75413300  0.01770200  0.75025200  1
  Sr  Sr2  1  0.24586700  0.51770200  0.74974800  1
  Sr  Sr3  1  0.24586700  0.98229800  0.24974800  1
  Co  Co4  1  0.50000000  0.50000000  0.50000000  1
  Co  Co5  1  0.50000000  0.00000000  0.00000000  1
  Te  Te6  1  0.00000000  0.50000000  0.00000000  1
  Te  Te7  1  0.00000000  0.00000000  0.50000000  1
  O  O8  1  0.22582300  0.22183600  0.46742800  1
  O  O9  1  0.77417700  0.72183600  0.03257200  1
  O  O10  1  0.77417700  0.77816400  0.53257200  1
  O  O11  1  0.22582300  0.27816400  0.96742800  1
  O  O12  1  0.18488200  0.74037000  0.46721400  1
  O  O13  1  0.18488200  0.75963000  0.96721400  1
  O  O14  1  0.81511800  0.24037000  0.03278600  1
  O  O15  1  0.81511800  0.25963000  0.53278600  1
  O  O16  1  0.30148900  0.99210700  0.74001400  1
  O  O17  1  0.30148900  0.50789300  0.24001400  1
  O  O18  1  0.69851100  0.00789300  0.25998600  1
  O  O19  1  0.69851100  0.49210700  0.75998600  1
