# generated using pymatgen
data_K3Na(MoO4)2
_symmetry_space_group_name_H-M   'P 1'
_cell_length_a   10.66746200
_cell_length_b   6.14683200
_cell_length_c   15.51974102
_cell_angle_alpha   90.00000000
_cell_angle_beta   90.06177859
_cell_angle_gamma   90.00000000
_symmetry_Int_Tables_number   1
_chemical_formula_structural   K3Na(MoO4)2
_chemical_formula_sum   'K12 Na4 Mo8 O32'
_cell_volume   1017.64584898
_cell_formula_units_Z   4
loop_
 _symmetry_equiv_pos_site_id
 _symmetry_equiv_pos_as_xyz
  1  'x, y, z'
loop_
 _atom_site_type_symbol
 _atom_site_label
 _atom_site_symmetry_multiplicity
 _atom_site_fract_x
 _atom_site_fract_y
 _atom_site_fract_z
 _atom_site_occupancy
  K  K0  1  0.67072450  0.97929150  0.91538300  1
  K  K1  1  0.82927550  0.52070850  0.08461700  1
  K  K2  1  0.00000000  0.94456200  0.75000000  1
  K  K3  1  0.00000000  0.05543800  0.25000000  1
  K  K4  1  0.82927550  0.47929150  0.58461700  1
  K  K5  1  0.67072450  0.02070850  0.41538300  1
  K  K6  1  0.17072450  0.47929150  0.91538300  1
  K  K7  1  0.32927550  0.02070850  0.08461700  1
  K  K8  1  0.50000000  0.44456200  0.75000000  1
  K  K9  1  0.50000000  0.55543800  0.25000000  1
  K  K10  1  0.32927550  0.97929150  0.58461700  1
  K  K11  1  0.17072450  0.52070850  0.41538300  1
  Na  Na12  1  0.00000000  0.00000000  0.00000000  1
  Na  Na13  1  0.00000000  0.00000000  0.50000000  1
  Na  Na14  1  0.50000000  0.50000000  0.00000000  1
  Na  Na15  1  0.50000000  0.50000000  0.50000000  1
  Mo  Mo16  1  0.66249450  0.01996550  0.13900200  1
  Mo  Mo17  1  0.83750550  0.48003450  0.86099800  1
  Mo  Mo18  1  0.83750550  0.51996550  0.36099800  1
  Mo  Mo19  1  0.66249450  0.98003450  0.63900200  1
  Mo  Mo20  1  0.16249450  0.51996550  0.13900200  1
  Mo  Mo21  1  0.33750550  0.98003450  0.86099800  1
  Mo  Mo22  1  0.33750550  0.01996550  0.36099800  1
  Mo  Mo23  1  0.16249450  0.48003450  0.63900200  1
  O  O24  1  0.82840100  0.44891200  0.24946400  1
  O  O25  1  0.68386200  0.46028400  0.90893600  1
  O  O26  1  0.92111000  0.22969700  0.87960300  1
  O  O27  1  0.58144650  0.19461850  0.58225800  1
  O  O28  1  0.81613800  0.03971600  0.09106400  1
  O  O29  1  0.57889000  0.72969700  0.62039700  1
  O  O30  1  0.81613800  0.96028400  0.59106400  1
  O  O31  1  0.92111000  0.77030300  0.37960300  1
  O  O32  1  0.91855350  0.30538150  0.41774200  1
  O  O33  1  0.67159900  0.05108800  0.75053600  1
  O  O34  1  0.57889000  0.27030300  0.12039700  1
  O  O35  1  0.91855350  0.69461850  0.91774200  1
  O  O36  1  0.67159900  0.94891200  0.25053600  1
  O  O37  1  0.82840100  0.55108800  0.74946400  1
  O  O38  1  0.58144650  0.80538150  0.08225800  1
  O  O39  1  0.68386200  0.53971600  0.40893600  1
  O  O40  1  0.32840100  0.94891200  0.24946400  1
  O  O41  1  0.18386200  0.96028400  0.90893600  1
  O  O42  1  0.42111000  0.72969700  0.87960300  1
  O  O43  1  0.08144650  0.69461850  0.58225800  1
  O  O44  1  0.31613800  0.53971600  0.09106400  1
  O  O45  1  0.07889000  0.22969700  0.62039700  1
  O  O46  1  0.31613800  0.46028400  0.59106400  1
  O  O47  1  0.42111000  0.27030300  0.37960300  1
  O  O48  1  0.41855350  0.80538150  0.41774200  1
  O  O49  1  0.17159900  0.55108800  0.75053600  1
  O  O50  1  0.07889000  0.77030300  0.12039700  1
  O  O51  1  0.41855350  0.19461850  0.91774200  1
  O  O52  1  0.17159900  0.44891200  0.25053600  1
  O  O53  1  0.32840100  0.05108800  0.74946400  1
  O  O54  1  0.08144650  0.30538150  0.08225800  1
  O  O55  1  0.18386200  0.03971600  0.40893600  1
