# generated using pymatgen
data_Mg3In
_symmetry_space_group_name_H-M   'P 1'
_cell_length_a   6.30772221
_cell_length_b   6.30772221
_cell_length_c   31.70095278
_cell_angle_alpha   90.00000000
_cell_angle_beta   90.00000000
_cell_angle_gamma   120.00000000
_symmetry_Int_Tables_number   1
_chemical_formula_structural   Mg3In
_chemical_formula_sum   'Mg36 In12'
_cell_volume   1092.31541952
_cell_formula_units_Z   12
loop_
 _symmetry_equiv_pos_site_id
 _symmetry_equiv_pos_as_xyz
  1  'x, y, z'
loop_
 _atom_site_type_symbol
 _atom_site_label
 _atom_site_symmetry_multiplicity
 _atom_site_fract_x
 _atom_site_fract_y
 _atom_site_fract_z
 _atom_site_occupancy
  Mg  Mg0  1  0.83334667  0.16665333  0.29174133  1
  Mg  Mg1  1  0.33330667  0.16665333  0.29174133  1
  Mg  Mg2  1  0.83334667  0.66669333  0.29174133  1
  Mg  Mg3  1  0.50003733  0.49996267  0.20850367  1
  Mg  Mg4  1  0.99992533  0.49996267  0.20850367  1
  Mg  Mg5  1  0.50003733  0.00007467  0.20850367  1
  Mg  Mg6  1  0.16662933  0.83337067  0.12482967  1
  Mg  Mg7  1  0.66674133  0.83337067  0.12482967  1
  Mg  Mg8  1  0.16662933  0.33325867  0.12482967  1
  Mg  Mg9  1  0.83332000  0.16668000  0.04159200  1
  Mg  Mg10  1  0.33336000  0.16668000  0.04159200  1
  Mg  Mg11  1  0.83332000  0.66664000  0.04159200  1
  Mg  Mg12  1  0.50001333  0.49998667  0.62507467  1
  Mg  Mg13  1  0.99997333  0.49998667  0.62507467  1
  Mg  Mg14  1  0.50001333  0.00002667  0.62507467  1
  Mg  Mg15  1  0.16670400  0.83329600  0.54183700  1
  Mg  Mg16  1  0.66659200  0.83329600  0.54183700  1
  Mg  Mg17  1  0.16670400  0.33340800  0.54183700  1
  Mg  Mg18  1  0.83329600  0.16670400  0.45816300  1
  Mg  Mg19  1  0.33340800  0.16670400  0.45816300  1
  Mg  Mg20  1  0.83329600  0.66659200  0.45816300  1
  Mg  Mg21  1  0.49998667  0.50001333  0.37492533  1
  Mg  Mg22  1  0.00002667  0.50001333  0.37492533  1
  Mg  Mg23  1  0.49998667  0.99997333  0.37492533  1
  Mg  Mg24  1  0.16668000  0.83332000  0.95840800  1
  Mg  Mg25  1  0.66664000  0.83332000  0.95840800  1
  Mg  Mg26  1  0.16668000  0.33336000  0.95840800  1
  Mg  Mg27  1  0.83337067  0.16662933  0.87517033  1
  Mg  Mg28  1  0.33325867  0.16662933  0.87517033  1
  Mg  Mg29  1  0.83337067  0.66674133  0.87517033  1
  Mg  Mg30  1  0.49996267  0.50003733  0.79149633  1
  Mg  Mg31  1  0.00007467  0.50003733  0.79149633  1
  Mg  Mg32  1  0.49996267  0.99992533  0.79149633  1
  Mg  Mg33  1  0.16665333  0.83334667  0.70825867  1
  Mg  Mg34  1  0.66669333  0.83334667  0.70825867  1
  Mg  Mg35  1  0.16665333  0.33330667  0.70825867  1
  In  In36  1  0.33333333  0.66666667  0.29184667  1
  In  In37  1  0.33333333  0.66666667  0.04148667  1
  In  In38  1  0.00000000  0.00000000  0.20843400  1
  In  In39  1  0.66666667  0.33333333  0.12489933  1
  In  In40  1  0.00000000  0.00000000  0.62518000  1
  In  In41  1  0.00000000  0.00000000  0.37482000  1
  In  In42  1  0.66666667  0.33333333  0.54176733  1
  In  In43  1  0.33333333  0.66666667  0.45823267  1
  In  In44  1  0.66666667  0.33333333  0.95851333  1
  In  In45  1  0.66666667  0.33333333  0.70815333  1
  In  In46  1  0.33333333  0.66666667  0.87510067  1
  In  In47  1  0.00000000  0.00000000  0.79156600  1
