# generated using pymatgen
data_Li2FeBr4
_symmetry_space_group_name_H-M   'P 1'
_cell_length_a   7.84788200
_cell_length_b   7.89230400
_cell_length_c   11.01386000
_cell_angle_alpha   90.00000000
_cell_angle_beta   90.00000000
_cell_angle_gamma   90.00000000
_symmetry_Int_Tables_number   1
_chemical_formula_structural   Li2FeBr4
_chemical_formula_sum   'Li8 Fe4 Br16'
_cell_volume   682.17503439
_cell_formula_units_Z   4
loop_
 _symmetry_equiv_pos_site_id
 _symmetry_equiv_pos_as_xyz
  1  'x, y, z'
loop_
 _atom_site_type_symbol
 _atom_site_label
 _atom_site_symmetry_multiplicity
 _atom_site_fract_x
 _atom_site_fract_y
 _atom_site_fract_z
 _atom_site_occupancy
  Li  Li0  1  0.50000000  0.75000000  0.38083100  1
  Li  Li1  1  0.00000000  0.00000000  0.50000000  1
  Li  Li2  1  0.50000000  0.00000000  0.00000000  1
  Li  Li3  1  0.00000000  0.75000000  0.11916900  1
  Li  Li4  1  0.00000000  0.25000000  0.88083100  1
  Li  Li5  1  0.50000000  0.50000000  0.00000000  1
  Li  Li6  1  0.00000000  0.50000000  0.50000000  1
  Li  Li7  1  0.50000000  0.25000000  0.61916900  1
  Fe  Fe8  1  0.75000000  0.25000000  0.25000000  1
  Fe  Fe9  1  0.25000000  0.25000000  0.25000000  1
  Fe  Fe10  1  0.25000000  0.75000000  0.75000000  1
  Fe  Fe11  1  0.75000000  0.75000000  0.75000000  1
  Br  Br12  1  0.73929700  0.25000000  0.01419600  1
  Br  Br13  1  0.50000000  0.47966000  0.24684900  1
  Br  Br14  1  0.26070300  0.25000000  0.01419600  1
  Br  Br15  1  0.50000000  0.02034000  0.24684900  1
  Br  Br16  1  0.00000000  0.47966000  0.25315100  1
  Br  Br17  1  0.23929700  0.25000000  0.48580400  1
  Br  Br18  1  0.00000000  0.02034000  0.25315100  1
  Br  Br19  1  0.76070300  0.25000000  0.48580400  1
  Br  Br20  1  0.23929700  0.75000000  0.51419600  1
  Br  Br21  1  0.00000000  0.97966000  0.74684900  1
  Br  Br22  1  0.76070300  0.75000000  0.51419600  1
  Br  Br23  1  0.00000000  0.52034000  0.74684900  1
  Br  Br24  1  0.50000000  0.97966000  0.75315100  1
  Br  Br25  1  0.73929700  0.75000000  0.98580400  1
  Br  Br26  1  0.50000000  0.52034000  0.75315100  1
  Br  Br27  1  0.26070300  0.75000000  0.98580400  1
