# generated using pymatgen
data_Hg2SbF6
_symmetry_space_group_name_H-M   'P 1'
_cell_length_a   10.67943800
_cell_length_b   10.69735400
_cell_length_c   8.00209467
_cell_angle_alpha   90.00000000
_cell_angle_beta   130.01317749
_cell_angle_gamma   90.00000000
_symmetry_Int_Tables_number   1
_chemical_formula_structural   Hg2SbF6
_chemical_formula_sum   'Hg8 Sb4 F24'
_cell_volume   700.16207995
_cell_formula_units_Z   4
loop_
 _symmetry_equiv_pos_site_id
 _symmetry_equiv_pos_as_xyz
  1  'x, y, z'
loop_
 _atom_site_type_symbol
 _atom_site_label
 _atom_site_symmetry_multiplicity
 _atom_site_fract_x
 _atom_site_fract_y
 _atom_site_fract_z
 _atom_site_occupancy
  Hg  Hg0  1  0.00000000  0.00000000  0.50000000  1
  Hg  Hg1  1  0.00000000  0.00000000  0.00000000  1
  Hg  Hg2  1  0.25000000  0.25000000  0.00000000  1
  Hg  Hg3  1  0.25000000  0.75000000  0.50000000  1
  Hg  Hg4  1  0.50000000  0.50000000  0.50000000  1
  Hg  Hg5  1  0.50000000  0.50000000  0.00000000  1
  Hg  Hg6  1  0.75000000  0.75000000  0.00000000  1
  Hg  Hg7  1  0.75000000  0.25000000  0.50000000  1
  Sb  Sb8  1  0.50000000  0.12526100  0.75000000  1
  Sb  Sb9  1  0.50000000  0.87473900  0.25000000  1
  Sb  Sb10  1  0.00000000  0.62526100  0.75000000  1
  Sb  Sb11  1  0.00000000  0.37473900  0.25000000  1
  F  F12  1  0.50000000  0.30509000  0.75000000  1
  F  F13  1  0.32105200  0.12536500  0.75257100  1
  F  F14  1  0.34466750  0.12588950  0.43702300  1
  F  F15  1  0.34466750  0.87411050  0.93702300  1
  F  F16  1  0.50000000  0.94536700  0.75000000  1
  F  F17  1  0.67894800  0.12536500  0.74742900  1
  F  F18  1  0.32105200  0.87463500  0.25257100  1
  F  F19  1  0.50000000  0.05463300  0.25000000  1
  F  F20  1  0.65533250  0.12588950  0.06297700  1
  F  F21  1  0.65533250  0.87411050  0.56297700  1
  F  F22  1  0.67894800  0.87463500  0.24742900  1
  F  F23  1  0.50000000  0.69491000  0.25000000  1
  F  F24  1  0.00000000  0.80509000  0.75000000  1
  F  F25  1  0.82105200  0.62536500  0.75257100  1
  F  F26  1  0.84466750  0.62588950  0.43702300  1
  F  F27  1  0.84466750  0.37411050  0.93702300  1
  F  F28  1  0.00000000  0.44536700  0.75000000  1
  F  F29  1  0.17894800  0.62536500  0.74742900  1
  F  F30  1  0.82105200  0.37463500  0.25257100  1
  F  F31  1  0.00000000  0.55463300  0.25000000  1
  F  F32  1  0.15533250  0.62588950  0.06297700  1
  F  F33  1  0.15533250  0.37411050  0.56297700  1
  F  F34  1  0.17894800  0.37463500  0.24742900  1
  F  F35  1  0.00000000  0.19491000  0.25000000  1
