# generated using pymatgen
data_Sr4Ru3O10
_symmetry_space_group_name_H-M   'P 1'
_cell_length_a   5.58404200
_cell_length_b   28.93019000
_cell_length_c   5.58376100
_cell_angle_alpha   90.00000000
_cell_angle_beta   90.00000000
_cell_angle_gamma   90.00000000
_symmetry_Int_Tables_number   1
_chemical_formula_structural   Sr4Ru3O10
_chemical_formula_sum   'Sr16 Ru12 O40'
_cell_volume   902.04204959
_cell_formula_units_Z   4
loop_
 _symmetry_equiv_pos_site_id
 _symmetry_equiv_pos_as_xyz
  1  'x, y, z'
loop_
 _atom_site_type_symbol
 _atom_site_label
 _atom_site_symmetry_multiplicity
 _atom_site_fract_x
 _atom_site_fract_y
 _atom_site_fract_z
 _atom_site_occupancy
  Sr  Sr0  1  0.00000000  0.29629600  0.00000000  1
  Sr  Sr1  1  0.50000000  0.29629600  0.50000000  1
  Sr  Sr2  1  0.50000000  0.07010400  0.00000000  1
  Sr  Sr3  1  0.50000000  0.42989600  0.50000000  1
  Sr  Sr4  1  0.00000000  0.42989600  0.00000000  1
  Sr  Sr5  1  0.50000000  0.20370400  0.00000000  1
  Sr  Sr6  1  0.00000000  0.20370400  0.50000000  1
  Sr  Sr7  1  0.00000000  0.07010400  0.50000000  1
  Sr  Sr8  1  0.50000000  0.79629600  0.00000000  1
  Sr  Sr9  1  0.00000000  0.79629600  0.50000000  1
  Sr  Sr10  1  0.00000000  0.57010400  0.00000000  1
  Sr  Sr11  1  0.00000000  0.92989600  0.50000000  1
  Sr  Sr12  1  0.50000000  0.92989600  0.00000000  1
  Sr  Sr13  1  0.00000000  0.70370400  0.00000000  1
  Sr  Sr14  1  0.50000000  0.70370400  0.50000000  1
  Sr  Sr15  1  0.50000000  0.57010400  0.50000000  1
  Ru  Ru16  1  0.00000000  0.14041600  0.00000000  1
  Ru  Ru17  1  0.00000000  0.35958400  0.50000000  1
  Ru  Ru18  1  0.50000000  0.00000000  0.50000000  1
  Ru  Ru19  1  0.50000000  0.35958400  0.00000000  1
  Ru  Ru20  1  0.50000000  0.14041600  0.50000000  1
  Ru  Ru21  1  0.00000000  0.00000000  0.00000000  1
  Ru  Ru22  1  0.50000000  0.64041600  0.00000000  1
  Ru  Ru23  1  0.50000000  0.85958400  0.50000000  1
  Ru  Ru24  1  0.00000000  0.50000000  0.50000000  1
  Ru  Ru25  1  0.00000000  0.85958400  0.00000000  1
  Ru  Ru26  1  0.00000000  0.64041600  0.50000000  1
  Ru  Ru27  1  0.50000000  0.50000000  0.00000000  1
  O  O28  1  0.19800200  0.00000000  0.69801000  1
  O  O29  1  0.28323950  0.13943550  0.78321500  1
  O  O30  1  0.50000000  0.28915400  0.00000000  1
  O  O31  1  0.21676050  0.36056450  0.21678500  1
  O  O32  1  0.30199800  0.00000000  0.19801000  1
  O  O33  1  0.71676050  0.13943550  0.21678500  1
  O  O34  1  0.50000000  0.43098600  0.00000000  1
  O  O35  1  0.50000000  0.21084600  0.50000000  1
  O  O36  1  0.00000000  0.06901400  0.00000000  1
  O  O37  1  0.69800200  0.00000000  0.80199000  1
  O  O38  1  0.28323950  0.36056450  0.71678500  1
  O  O39  1  0.00000000  0.21084600  0.00000000  1
  O  O40  1  0.71676050  0.36056450  0.28321500  1
  O  O41  1  0.78323950  0.13943550  0.71678500  1
  O  O42  1  0.50000000  0.06901400  0.50000000  1
  O  O43  1  0.80199800  0.00000000  0.30199000  1
  O  O44  1  0.00000000  0.28915400  0.50000000  1
  O  O45  1  0.21676050  0.13943550  0.28321500  1
  O  O46  1  0.00000000  0.43098600  0.50000000  1
  O  O47  1  0.78323950  0.36056450  0.78321500  1
  O  O48  1  0.69800200  0.50000000  0.69801000  1
  O  O49  1  0.78323950  0.63943550  0.78321500  1
  O  O50  1  0.00000000  0.78915400  0.00000000  1
  O  O51  1  0.71676050  0.86056450  0.21678500  1
  O  O52  1  0.80199800  0.50000000  0.19801000  1
  O  O53  1  0.21676050  0.63943550  0.21678500  1
  O  O54  1  0.00000000  0.93098600  0.00000000  1
  O  O55  1  0.00000000  0.71084600  0.50000000  1
  O  O56  1  0.50000000  0.56901400  0.00000000  1
  O  O57  1  0.19800200  0.50000000  0.80199000  1
  O  O58  1  0.78323950  0.86056450  0.71678500  1
  O  O59  1  0.50000000  0.71084600  0.00000000  1
  O  O60  1  0.21676050  0.86056450  0.28321500  1
  O  O61  1  0.28323950  0.63943550  0.71678500  1
  O  O62  1  0.00000000  0.56901400  0.50000000  1
  O  O63  1  0.30199800  0.50000000  0.30199000  1
  O  O64  1  0.50000000  0.78915400  0.50000000  1
  O  O65  1  0.71676050  0.63943550  0.28321500  1
  O  O66  1  0.50000000  0.93098600  0.50000000  1
  O  O67  1  0.28323950  0.86056450  0.78321500  1
