# generated using pymatgen
data_Eu3(GaNi)4
_symmetry_space_group_name_H-M   'P 1'
_cell_length_a   7.45439000
_cell_length_b   7.45439000
_cell_length_c   7.45439000
_cell_angle_alpha   90.00000000
_cell_angle_beta   90.00000000
_cell_angle_gamma   90.00000000
_symmetry_Int_Tables_number   1
_chemical_formula_structural   Eu3(GaNi)4
_chemical_formula_sum   'Eu6 Ga8 Ni8'
_cell_volume   414.22502374
_cell_formula_units_Z   2
loop_
 _symmetry_equiv_pos_site_id
 _symmetry_equiv_pos_as_xyz
  1  'x, y, z'
loop_
 _atom_site_type_symbol
 _atom_site_label
 _atom_site_symmetry_multiplicity
 _atom_site_fract_x
 _atom_site_fract_y
 _atom_site_fract_z
 _atom_site_occupancy
  Eu  Eu0  1  0.00000000  0.50000000  0.00000000  1
  Eu  Eu1  1  0.50000000  0.00000000  0.00000000  1
  Eu  Eu2  1  0.00000000  0.00000000  0.50000000  1
  Eu  Eu3  1  0.50000000  0.00000000  0.50000000  1
  Eu  Eu4  1  0.00000000  0.50000000  0.50000000  1
  Eu  Eu5  1  0.50000000  0.50000000  0.00000000  1
  Ga  Ga6  1  0.30222450  0.30222450  0.69777550  1
  Ga  Ga7  1  0.19777550  0.19777550  0.19777550  1
  Ga  Ga8  1  0.30222450  0.69777550  0.30222450  1
  Ga  Ga9  1  0.69777550  0.30222450  0.30222450  1
  Ga  Ga10  1  0.80222450  0.80222450  0.19777550  1
  Ga  Ga11  1  0.69777550  0.69777550  0.69777550  1
  Ga  Ga12  1  0.80222450  0.19777550  0.80222450  1
  Ga  Ga13  1  0.19777550  0.80222450  0.80222450  1
  Ni  Ni14  1  0.12009550  0.12009550  0.87990450  1
  Ni  Ni15  1  0.37990450  0.37990450  0.37990450  1
  Ni  Ni16  1  0.87990450  0.12009550  0.12009550  1
  Ni  Ni17  1  0.12009550  0.87990450  0.12009550  1
  Ni  Ni18  1  0.62009550  0.62009550  0.37990450  1
  Ni  Ni19  1  0.87990450  0.87990450  0.87990450  1
  Ni  Ni20  1  0.37990450  0.62009550  0.62009550  1
  Ni  Ni21  1  0.62009550  0.37990450  0.62009550  1
