# generated using pymatgen
data_V6H4O13
_symmetry_space_group_name_H-M   'P 1'
_cell_length_a   12.26668800
_cell_length_b   3.83338000
_cell_length_c   10.69808824
_cell_angle_alpha   90.00000000
_cell_angle_beta   100.10802568
_cell_angle_gamma   90.00000000
_symmetry_Int_Tables_number   1
_chemical_formula_structural   V6H4O13
_chemical_formula_sum   'V12 H8 O26'
_cell_volume   495.24676862
_cell_formula_units_Z   2
loop_
 _symmetry_equiv_pos_site_id
 _symmetry_equiv_pos_as_xyz
  1  'x, y, z'
loop_
 _atom_site_type_symbol
 _atom_site_label
 _atom_site_symmetry_multiplicity
 _atom_site_fract_x
 _atom_site_fract_y
 _atom_site_fract_z
 _atom_site_occupancy
  V  V0  1  0.84933250  0.50300650  0.00028400  1
  V  V1  1  0.65066750  0.00300650  0.99971600  1
  V  V2  1  0.91302850  0.50193150  0.38458100  1
  V  V3  1  0.58697150  0.00193150  0.61541900  1
  V  V4  1  0.71860200  0.99640600  0.38282600  1
  V  V5  1  0.78139800  0.49640600  0.61717400  1
  V  V6  1  0.34933250  0.00300650  0.00028400  1
  V  V7  1  0.15066750  0.50300650  0.99971600  1
  V  V8  1  0.41302850  0.00193150  0.38458100  1
  V  V9  1  0.08697150  0.50193150  0.61541900  1
  V  V10  1  0.21860200  0.49640600  0.38282600  1
  V  V11  1  0.28139800  0.99640600  0.61717400  1
  H  H12  1  0.93464950  0.24648150  0.19366100  1
  H  H13  1  0.56535050  0.74648150  0.80633900  1
  H  H14  1  0.60917700  0.21938200  0.19717600  1
  H  H15  1  0.89082300  0.71938200  0.80282400  1
  H  H16  1  0.43464950  0.74648150  0.19366100  1
  H  H17  1  0.06535050  0.24648150  0.80633900  1
  H  H18  1  0.10917700  0.71938200  0.19717600  1
  H  H19  1  0.39082300  0.21938200  0.80282400  1
  O  O20  1  0.68547450  0.50993050  0.99884000  1
  O  O21  1  0.81452550  0.00993050  0.00116000  1
  O  O22  1  0.88284200  0.00475900  0.37663000  1
  O  O23  1  0.61715800  0.50475900  0.62337000  1
  O  O24  1  0.74934000  0.49375300  0.41337000  1
  O  O25  1  0.75066000  0.99375300  0.58663000  1
  O  O26  1  0.00000000  0.51183300  0.00000000  1
  O  O27  1  0.89872600  0.47346700  0.19676200  1
  O  O28  1  0.60127400  0.97346700  0.80323800  1
  O  O29  1  0.66517800  0.03814100  0.19777600  1
  O  O30  1  0.83482200  0.53814100  0.80222400  1
  O  O31  1  0.56395400  0.00301000  0.42035900  1
  O  O32  1  0.93604600  0.50301000  0.57964100  1
  O  O33  1  0.18547450  0.00993050  0.99884000  1
  O  O34  1  0.31452550  0.50993050  0.00116000  1
  O  O35  1  0.38284200  0.50475900  0.37663000  1
  O  O36  1  0.11715800  0.00475900  0.62337000  1
  O  O37  1  0.24934000  0.99375300  0.41337000  1
  O  O38  1  0.25066000  0.49375300  0.58663000  1
  O  O39  1  0.50000000  0.01183300  0.00000000  1
  O  O40  1  0.39872600  0.97346700  0.19676200  1
  O  O41  1  0.10127400  0.47346700  0.80323800  1
  O  O42  1  0.16517800  0.53814100  0.19777600  1
  O  O43  1  0.33482200  0.03814100  0.80222400  1
  O  O44  1  0.06395400  0.50301000  0.42035900  1
  O  O45  1  0.43604600  0.00301000  0.57964100  1
