# generated using pymatgen
data_Li5Ca7Sn11
_symmetry_space_group_name_H-M   'P 1'
_cell_length_a   4.62840800
_cell_length_b   17.12770800
_cell_length_c   32.03243700
_cell_angle_alpha   90.00000000
_cell_angle_beta   90.00000000
_cell_angle_gamma   90.00000000
_symmetry_Int_Tables_number   1
_chemical_formula_structural   Li5Ca7Sn11
_chemical_formula_sum   'Li20 Ca28 Sn44'
_cell_volume   2539.34007473
_cell_formula_units_Z   4
loop_
 _symmetry_equiv_pos_site_id
 _symmetry_equiv_pos_as_xyz
  1  'x, y, z'
loop_
 _atom_site_type_symbol
 _atom_site_label
 _atom_site_symmetry_multiplicity
 _atom_site_fract_x
 _atom_site_fract_y
 _atom_site_fract_z
 _atom_site_occupancy
  Li  Li0  1  0.50000000  0.20833800  0.02791800  1
  Li  Li1  1  0.00000000  0.29166200  0.52791800  1
  Li  Li2  1  0.50000000  0.15784200  0.75000000  1
  Li  Li3  1  0.00000000  0.34215800  0.25000000  1
  Li  Li4  1  0.00000000  0.29166200  0.97208200  1
  Li  Li5  1  0.50000000  0.28840000  0.11644000  1
  Li  Li6  1  0.50000000  0.20833800  0.47208200  1
  Li  Li7  1  0.00000000  0.21160000  0.88356000  1
  Li  Li8  1  0.00000000  0.21160000  0.61644000  1
  Li  Li9  1  0.50000000  0.28840000  0.38356000  1
  Li  Li10  1  0.00000000  0.70833800  0.02791800  1
  Li  Li11  1  0.50000000  0.79166200  0.52791800  1
  Li  Li12  1  0.00000000  0.65784200  0.75000000  1
  Li  Li13  1  0.50000000  0.84215800  0.25000000  1
  Li  Li14  1  0.50000000  0.79166200  0.97208200  1
  Li  Li15  1  0.00000000  0.78840000  0.11644000  1
  Li  Li16  1  0.00000000  0.70833800  0.47208200  1
  Li  Li17  1  0.50000000  0.71160000  0.88356000  1
  Li  Li18  1  0.50000000  0.71160000  0.61644000  1
  Li  Li19  1  0.00000000  0.78840000  0.38356000  1
  Ca  Ca20  1  0.00000000  0.10643600  0.39881800  1
  Ca  Ca21  1  0.50000000  0.39356400  0.60118200  1
  Ca  Ca22  1  0.00000000  0.04560000  0.81650400  1
  Ca  Ca23  1  0.50000000  0.45440000  0.18349600  1
  Ca  Ca24  1  0.50000000  0.40336900  0.03018100  1
  Ca  Ca25  1  0.00000000  0.09663100  0.96981900  1
  Ca  Ca26  1  0.50000000  0.39356400  0.89881800  1
  Ca  Ca27  1  0.50000000  0.35122700  0.75000000  1
  Ca  Ca28  1  0.50000000  0.40336900  0.46981900  1
  Ca  Ca29  1  0.00000000  0.09663100  0.53018100  1
  Ca  Ca30  1  0.50000000  0.45440000  0.31650400  1
  Ca  Ca31  1  0.00000000  0.14877300  0.25000000  1
  Ca  Ca32  1  0.00000000  0.04560000  0.68349600  1
  Ca  Ca33  1  0.00000000  0.10643600  0.10118200  1
  Ca  Ca34  1  0.50000000  0.60643600  0.39881800  1
  Ca  Ca35  1  0.00000000  0.89356400  0.60118200  1
  Ca  Ca36  1  0.50000000  0.54560000  0.81650400  1
  Ca  Ca37  1  0.00000000  0.95440000  0.18349600  1
  Ca  Ca38  1  0.00000000  0.90336900  0.03018100  1
  Ca  Ca39  1  0.50000000  0.59663100  0.96981900  1
  Ca  Ca40  1  0.00000000  0.89356400  0.89881800  1
  Ca  Ca41  1  0.00000000  0.85122700  0.75000000  1
  Ca  Ca42  1  0.00000000  0.90336900  0.46981900  1
  Ca  Ca43  1  0.50000000  0.59663100  0.53018100  1
  Ca  Ca44  1  0.00000000  0.95440000  0.31650400  1
  Ca  Ca45  1  0.50000000  0.64877300  0.25000000  1
  Ca  Ca46  1  0.50000000  0.54560000  0.68349600  1
  Ca  Ca47  1  0.50000000  0.60643600  0.10118200  1
  Sn  Sn48  1  0.00000000  0.23066200  0.79443000  1
  Sn  Sn49  1  0.00000000  0.39148500  0.82519700  1
  Sn  Sn50  1  0.00000000  0.39148500  0.67480300  1
  Sn  Sn51  1  0.50000000  0.07133000  0.60789700  1
  Sn  Sn52  1  0.00000000  0.27942100  0.06163300  1
  Sn  Sn53  1  0.00000000  0.45472700  0.96153900  1
  Sn  Sn54  1  0.50000000  0.10851500  0.17480300  1
  Sn  Sn55  1  0.50000000  0.04527300  0.46153900  1
  Sn  Sn56  1  0.50000000  0.26933800  0.29443000  1
  Sn  Sn57  1  0.00000000  0.42867000  0.10789700  1
  Sn  Sn58  1  0.00000000  0.27942100  0.43836700  1
  Sn  Sn59  1  0.50000000  0.07133000  0.89210300  1
  Sn  Sn60  1  0.50000000  0.00951200  0.25000000  1
  Sn  Sn61  1  0.00000000  0.42867000  0.39210300  1
  Sn  Sn62  1  0.50000000  0.26933800  0.20557000  1
  Sn  Sn63  1  0.00000000  0.45472700  0.53846100  1
  Sn  Sn64  1  0.00000000  0.23066200  0.70557000  1
  Sn  Sn65  1  0.50000000  0.04527300  0.03846100  1
  Sn  Sn66  1  0.50000000  0.22057900  0.93836700  1
  Sn  Sn67  1  0.50000000  0.10851500  0.32519700  1
  Sn  Sn68  1  0.50000000  0.22057900  0.56163300  1
  Sn  Sn69  1  0.00000000  0.49048800  0.75000000  1
  Sn  Sn70  1  0.50000000  0.73066200  0.79443000  1
  Sn  Sn71  1  0.50000000  0.89148500  0.82519700  1
  Sn  Sn72  1  0.50000000  0.89148500  0.67480300  1
  Sn  Sn73  1  0.00000000  0.57133000  0.60789700  1
  Sn  Sn74  1  0.50000000  0.77942100  0.06163300  1
  Sn  Sn75  1  0.50000000  0.95472700  0.96153900  1
  Sn  Sn76  1  0.00000000  0.60851500  0.17480300  1
  Sn  Sn77  1  0.00000000  0.54527300  0.46153900  1
  Sn  Sn78  1  0.00000000  0.76933800  0.29443000  1
  Sn  Sn79  1  0.50000000  0.92867000  0.10789700  1
  Sn  Sn80  1  0.50000000  0.77942100  0.43836700  1
  Sn  Sn81  1  0.00000000  0.57133000  0.89210300  1
  Sn  Sn82  1  0.00000000  0.50951200  0.25000000  1
  Sn  Sn83  1  0.50000000  0.92867000  0.39210300  1
  Sn  Sn84  1  0.00000000  0.76933800  0.20557000  1
  Sn  Sn85  1  0.50000000  0.95472700  0.53846100  1
  Sn  Sn86  1  0.50000000  0.73066200  0.70557000  1
  Sn  Sn87  1  0.00000000  0.54527300  0.03846100  1
  Sn  Sn88  1  0.00000000  0.72057900  0.93836700  1
  Sn  Sn89  1  0.00000000  0.60851500  0.32519700  1
  Sn  Sn90  1  0.00000000  0.72057900  0.56163300  1
  Sn  Sn91  1  0.50000000  0.99048800  0.75000000  1
