# generated using pymatgen
data_Cu4Sn7S16
_symmetry_space_group_name_H-M   'P 1'
_cell_length_a   7.42423398
_cell_length_b   7.42423398
_cell_length_c   36.67084493
_cell_angle_alpha   90.00000000
_cell_angle_beta   90.00000000
_cell_angle_gamma   120.00000000
_symmetry_Int_Tables_number   1
_chemical_formula_structural   Cu4Sn7S16
_chemical_formula_sum   'Cu12 Sn21 S48'
_cell_volume   1750.47071349
_cell_formula_units_Z   3
loop_
 _symmetry_equiv_pos_site_id
 _symmetry_equiv_pos_as_xyz
  1  'x, y, z'
loop_
 _atom_site_type_symbol
 _atom_site_label
 _atom_site_symmetry_multiplicity
 _atom_site_fract_x
 _atom_site_fract_y
 _atom_site_fract_z
 _atom_site_occupancy
  Cu  Cu0  1  0.00000000  0.00000000  0.00021800  1
  Cu  Cu1  1  0.66666667  0.33333333  0.03914933  1
  Cu  Cu2  1  0.00000000  0.00000000  0.29455500  1
  Cu  Cu3  1  0.00000000  0.00000000  0.18825100  1
  Cu  Cu4  1  0.66666667  0.33333333  0.33355133  1
  Cu  Cu5  1  0.33333333  0.66666667  0.37248267  1
  Cu  Cu6  1  0.66666667  0.33333333  0.62788833  1
  Cu  Cu7  1  0.66666667  0.33333333  0.52158433  1
  Cu  Cu8  1  0.33333333  0.66666667  0.66688467  1
  Cu  Cu9  1  0.00000000  0.00000000  0.70581600  1
  Cu  Cu10  1  0.33333333  0.66666667  0.96122167  1
  Cu  Cu11  1  0.33333333  0.66666667  0.85491767  1
  Sn  Sn12  1  0.99389733  0.49694867  0.25130167  1
  Sn  Sn13  1  0.50305133  0.00610267  0.25130167  1
  Sn  Sn14  1  0.50305133  0.49694867  0.25130167  1
  Sn  Sn15  1  0.33333333  0.66666667  0.16425367  1
  Sn  Sn16  1  0.16785533  0.83214467  0.08251867  1
  Sn  Sn17  1  0.66428933  0.83214467  0.08251867  1
  Sn  Sn18  1  0.16785533  0.33571067  0.08251867  1
  Sn  Sn19  1  0.66056400  0.83028200  0.58463500  1
  Sn  Sn20  1  0.16971800  0.33943600  0.58463500  1
  Sn  Sn21  1  0.16971800  0.83028200  0.58463500  1
  Sn  Sn22  1  0.00000000  0.00000000  0.49758700  1
  Sn  Sn23  1  0.83452200  0.16547800  0.41585200  1
  Sn  Sn24  1  0.33095600  0.16547800  0.41585200  1
  Sn  Sn25  1  0.83452200  0.66904400  0.41585200  1
  Sn  Sn26  1  0.32723067  0.16361533  0.91796833  1
  Sn  Sn27  1  0.83638467  0.67276933  0.91796833  1
  Sn  Sn28  1  0.83638467  0.16361533  0.91796833  1
  Sn  Sn29  1  0.66666667  0.33333333  0.83092033  1
  Sn  Sn30  1  0.50118867  0.49881133  0.74918533  1
  Sn  Sn31  1  0.99762267  0.49881133  0.74918533  1
  Sn  Sn32  1  0.50118867  0.00237733  0.74918533  1
  S  S33  1  0.66666667  0.33333333  0.20984833  1
  S  S34  1  0.31664500  0.15832250  0.04210300  1
  S  S35  1  0.84167750  0.68335500  0.04210300  1
  S  S36  1  0.84167750  0.15832250  0.04210300  1
  S  S37  1  0.33333333  0.66666667  0.29012467  1
  S  S38  1  0.17149867  0.82850133  0.20860633  1
  S  S39  1  0.65700267  0.82850133  0.20860633  1
  S  S40  1  0.17149867  0.34299733  0.20860633  1
  S  S41  1  0.00882667  0.50441333  0.12433033  1
  S  S42  1  0.49558667  0.99117333  0.12433033  1
  S  S43  1  0.49558667  0.50441333  0.12433033  1
  S  S44  1  0.33333333  0.66666667  0.04170767  1
  S  S45  1  0.82639600  0.17360400  0.29194600  1
  S  S46  1  0.34720800  0.17360400  0.29194600  1
  S  S47  1  0.82639600  0.65279200  0.29194600  1
  S  S48  1  0.00000000  0.00000000  0.12453900  1
  S  S49  1  0.33333333  0.66666667  0.54318167  1
  S  S50  1  0.98331167  0.49165583  0.37543633  1
  S  S51  1  0.50834417  0.01668833  0.37543633  1
  S  S52  1  0.50834417  0.49165583  0.37543633  1
  S  S53  1  0.00000000  0.00000000  0.62345800  1
  S  S54  1  0.83816533  0.16183467  0.54193967  1
  S  S55  1  0.32366933  0.16183467  0.54193967  1
  S  S56  1  0.83816533  0.67633067  0.54193967  1
  S  S57  1  0.67549333  0.83774667  0.45766367  1
  S  S58  1  0.16225333  0.32450667  0.45766367  1
  S  S59  1  0.16225333  0.83774667  0.45766367  1
  S  S60  1  0.00000000  0.00000000  0.37504100  1
  S  S61  1  0.49306267  0.50693733  0.62527933  1
  S  S62  1  0.01387467  0.50693733  0.62527933  1
  S  S63  1  0.49306267  0.98612533  0.62527933  1
  S  S64  1  0.66666667  0.33333333  0.45787233  1
  S  S65  1  0.00000000  0.00000000  0.87651500  1
  S  S66  1  0.64997833  0.82498917  0.70876967  1
  S  S67  1  0.17501083  0.35002167  0.70876967  1
  S  S68  1  0.17501083  0.82498917  0.70876967  1
  S  S69  1  0.66666667  0.33333333  0.95679133  1
  S  S70  1  0.50483200  0.49516800  0.87527300  1
  S  S71  1  0.99033600  0.49516800  0.87527300  1
  S  S72  1  0.50483200  0.00966400  0.87527300  1
  S  S73  1  0.34216000  0.17108000  0.79099700  1
  S  S74  1  0.82892000  0.65784000  0.79099700  1
  S  S75  1  0.82892000  0.17108000  0.79099700  1
  S  S76  1  0.66666667  0.33333333  0.70837433  1
  S  S77  1  0.15972933  0.84027067  0.95861267  1
  S  S78  1  0.68054133  0.84027067  0.95861267  1
  S  S79  1  0.15972933  0.31945867  0.95861267  1
  S  S80  1  0.33333333  0.66666667  0.79120567  1
