# generated using pymatgen
data_La4C5Cl2
_symmetry_space_group_name_H-M   'P 1'
_cell_length_a   22.68020400
_cell_length_b   3.92067600
_cell_length_c   10.26626458
_cell_angle_alpha   90.00000000
_cell_angle_beta   95.34729130
_cell_angle_gamma   90.00000000
_symmetry_Int_Tables_number   1
_chemical_formula_structural   La4C5Cl2
_chemical_formula_sum   'La16 C20 Cl8'
_cell_volume   908.92121470
_cell_formula_units_Z   4
loop_
 _symmetry_equiv_pos_site_id
 _symmetry_equiv_pos_as_xyz
  1  'x, y, z'
loop_
 _atom_site_type_symbol
 _atom_site_label
 _atom_site_symmetry_multiplicity
 _atom_site_fract_x
 _atom_site_fract_y
 _atom_site_fract_z
 _atom_site_occupancy
  La  La0  1  0.82541500  0.00000000  0.97647300  1
  La  La1  1  0.67458500  0.50000000  0.02352700  1
  La  La2  1  0.88249500  0.50000000  0.64660700  1
  La  La3  1  0.61750500  0.00000000  0.35339300  1
  La  La4  1  0.72520000  0.00000000  0.66629800  1
  La  La5  1  0.77480000  0.50000000  0.33370200  1
  La  La6  1  0.54626000  0.50000000  0.65062300  1
  La  La7  1  0.95374000  0.00000000  0.34937700  1
  La  La8  1  0.32541500  0.50000000  0.97647300  1
  La  La9  1  0.17458500  0.00000000  0.02352700  1
  La  La10  1  0.38249500  0.00000000  0.64660700  1
  La  La11  1  0.11750500  0.50000000  0.35339300  1
  La  La12  1  0.22520000  0.50000000  0.66629800  1
  La  La13  1  0.27480000  0.00000000  0.33370200  1
  La  La14  1  0.04626000  0.00000000  0.65062300  1
  La  La15  1  0.45374000  0.50000000  0.34937700  1
  C  C16  1  0.85567400  0.00000000  0.45259600  1
  C  C17  1  0.64432600  0.50000000  0.54740400  1
  C  C18  1  0.79688700  0.50000000  0.79669800  1
  C  C19  1  0.70311300  0.00000000  0.20330200  1
  C  C20  1  0.81033400  0.00000000  0.52381800  1
  C  C21  1  0.68966600  0.50000000  0.47618200  1
  C  C22  1  0.74921300  0.00000000  0.13298900  1
  C  C23  1  0.75078700  0.50000000  0.86701100  1
  C  C24  1  0.97641800  0.50000000  0.53456200  1
  C  C25  1  0.52358200  0.00000000  0.46543800  1
  C  C26  1  0.35567400  0.50000000  0.45259600  1
  C  C27  1  0.14432600  0.00000000  0.54740400  1
  C  C28  1  0.29688700  0.00000000  0.79669800  1
  C  C29  1  0.20311300  0.50000000  0.20330200  1
  C  C30  1  0.31033400  0.50000000  0.52381800  1
  C  C31  1  0.18966600  0.00000000  0.47618200  1
  C  C32  1  0.24921300  0.50000000  0.13298900  1
  C  C33  1  0.25078700  0.00000000  0.86701100  1
  C  C34  1  0.47641800  0.00000000  0.53456200  1
  C  C35  1  0.02358200  0.50000000  0.46543800  1
  Cl  Cl36  1  0.94274700  0.00000000  0.83602400  1
  Cl  Cl37  1  0.55725300  0.50000000  0.16397600  1
  Cl  Cl38  1  0.89734000  0.50000000  0.14996800  1
  Cl  Cl39  1  0.60266000  0.00000000  0.85003200  1
  Cl  Cl40  1  0.44274700  0.50000000  0.83602400  1
  Cl  Cl41  1  0.05725300  0.00000000  0.16397600  1
  Cl  Cl42  1  0.39734000  0.00000000  0.14996800  1
  Cl  Cl43  1  0.10266000  0.50000000  0.85003200  1
