# generated using pymatgen
data_Yb2Ge4Ru3
_symmetry_space_group_name_H-M   'P 1'
_cell_length_a   20.15467400
_cell_length_b   5.55407600
_cell_length_c   14.07127102
_cell_angle_alpha   90.00000000
_cell_angle_beta   128.50112816
_cell_angle_gamma   90.00000000
_symmetry_Int_Tables_number   1
_chemical_formula_structural   Yb2Ge4Ru3
_chemical_formula_sum   'Yb16 Ge32 Ru24'
_cell_volume   1232.70311069
_cell_formula_units_Z   8
loop_
 _symmetry_equiv_pos_site_id
 _symmetry_equiv_pos_as_xyz
  1  'x, y, z'
loop_
 _atom_site_type_symbol
 _atom_site_label
 _atom_site_symmetry_multiplicity
 _atom_site_fract_x
 _atom_site_fract_y
 _atom_site_fract_z
 _atom_site_occupancy
  Yb  Yb0  1  0.06852700  0.63235400  0.64202300  1
  Yb  Yb1  1  0.16142950  0.12191450  0.85375600  1
  Yb  Yb2  1  0.83857050  0.87808550  0.14624400  1
  Yb  Yb3  1  0.93147300  0.63235400  0.85797700  1
  Yb  Yb4  1  0.83857050  0.12191450  0.64624400  1
  Yb  Yb5  1  0.06852700  0.36764600  0.14202300  1
  Yb  Yb6  1  0.16142950  0.87808550  0.35375600  1
  Yb  Yb7  1  0.93147300  0.36764600  0.35797700  1
  Yb  Yb8  1  0.56852700  0.13235400  0.64202300  1
  Yb  Yb9  1  0.66142950  0.62191450  0.85375600  1
  Yb  Yb10  1  0.33857050  0.37808550  0.14624400  1
  Yb  Yb11  1  0.43147300  0.13235400  0.85797700  1
  Yb  Yb12  1  0.33857050  0.62191450  0.64624400  1
  Yb  Yb13  1  0.56852700  0.86764600  0.14202300  1
  Yb  Yb14  1  0.66142950  0.37808550  0.35375600  1
  Yb  Yb15  1  0.43147300  0.86764600  0.35797700  1
  Ge  Ge16  1  0.60916800  0.35287200  0.09961100  1
  Ge  Ge17  1  0.26373700  0.12613600  0.60122200  1
  Ge  Ge18  1  0.39083200  0.64712800  0.90038900  1
  Ge  Ge19  1  0.00000000  0.61956900  0.25000000  1
  Ge  Ge20  1  0.73626300  0.87386400  0.39877800  1
  Ge  Ge21  1  0.66949000  0.76419000  0.06535900  1
  Ge  Ge22  1  0.23626300  0.62613600  0.89877800  1
  Ge  Ge23  1  0.89083200  0.85287200  0.40038900  1
  Ge  Ge24  1  0.16949000  0.73581000  0.56535900  1
  Ge  Ge25  1  0.33051000  0.23581000  0.93464100  1
  Ge  Ge26  1  0.00000000  0.86935600  0.75000000  1
  Ge  Ge27  1  0.10916800  0.14712800  0.59961100  1
  Ge  Ge28  1  0.00000000  0.13064400  0.25000000  1
  Ge  Ge29  1  0.00000000  0.38043100  0.75000000  1
  Ge  Ge30  1  0.83051000  0.26419000  0.43464100  1
  Ge  Ge31  1  0.76373700  0.37386400  0.10122200  1
  Ge  Ge32  1  0.10916800  0.85287200  0.09961100  1
  Ge  Ge33  1  0.76373700  0.62613600  0.60122200  1
  Ge  Ge34  1  0.89083200  0.14712800  0.90038900  1
  Ge  Ge35  1  0.50000000  0.11956900  0.25000000  1
  Ge  Ge36  1  0.23626300  0.37386400  0.39877800  1
  Ge  Ge37  1  0.16949000  0.26419000  0.06535900  1
  Ge  Ge38  1  0.73626300  0.12613600  0.89877800  1
  Ge  Ge39  1  0.39083200  0.35287200  0.40038900  1
  Ge  Ge40  1  0.66949000  0.23581000  0.56535900  1
  Ge  Ge41  1  0.83051000  0.73581000  0.93464100  1
  Ge  Ge42  1  0.50000000  0.36935600  0.75000000  1
  Ge  Ge43  1  0.60916800  0.64712800  0.59961100  1
  Ge  Ge44  1  0.50000000  0.63064400  0.25000000  1
  Ge  Ge45  1  0.50000000  0.88043100  0.75000000  1
  Ge  Ge46  1  0.33051000  0.76419000  0.43464100  1
  Ge  Ge47  1  0.26373700  0.87386400  0.10122200  1
  Ru  Ru48  1  0.98133850  0.88006450  0.08831700  1
  Ru  Ru49  1  0.74092200  0.10754000  0.22375900  1
  Ru  Ru50  1  0.24092200  0.39246000  0.72375900  1
  Ru  Ru51  1  0.25907800  0.89246000  0.77624100  1
  Ru  Ru52  1  0.12525300  0.36822600  0.43832500  1
  Ru  Ru53  1  0.01866150  0.11993550  0.91168300  1
  Ru  Ru54  1  0.75907800  0.60754000  0.27624100  1
  Ru  Ru55  1  0.12525300  0.63177400  0.93832500  1
  Ru  Ru56  1  0.87474700  0.36822600  0.06167500  1
  Ru  Ru57  1  0.01866150  0.88006450  0.41168300  1
  Ru  Ru58  1  0.98133850  0.11993550  0.58831700  1
  Ru  Ru59  1  0.87474700  0.63177400  0.56167500  1
  Ru  Ru60  1  0.48133850  0.38006450  0.08831700  1
  Ru  Ru61  1  0.24092200  0.60754000  0.22375900  1
  Ru  Ru62  1  0.74092200  0.89246000  0.72375900  1
  Ru  Ru63  1  0.75907800  0.39246000  0.77624100  1
  Ru  Ru64  1  0.62525300  0.86822600  0.43832500  1
  Ru  Ru65  1  0.51866150  0.61993550  0.91168300  1
  Ru  Ru66  1  0.25907800  0.10754000  0.27624100  1
  Ru  Ru67  1  0.62525300  0.13177400  0.93832500  1
  Ru  Ru68  1  0.37474700  0.86822600  0.06167500  1
  Ru  Ru69  1  0.51866150  0.38006450  0.41168300  1
  Ru  Ru70  1  0.48133850  0.61993550  0.58831700  1
  Ru  Ru71  1  0.37474700  0.13177400  0.56167500  1
