# generated using pymatgen
data_Ba2CaV2CuF14
_symmetry_space_group_name_H-M   'P 1'
_cell_length_a   14.13485400
_cell_length_b   5.46398600
_cell_length_c   15.13675670
_cell_angle_alpha   90.00000000
_cell_angle_beta   91.52006820
_cell_angle_gamma   90.00000000
_symmetry_Int_Tables_number   1
_chemical_formula_structural   Ba2CaV2CuF14
_chemical_formula_sum   'Ba8 Ca4 V8 Cu4 F56'
_cell_volume   1168.64035197
_cell_formula_units_Z   4
loop_
 _symmetry_equiv_pos_site_id
 _symmetry_equiv_pos_as_xyz
  1  'x, y, z'
loop_
 _atom_site_type_symbol
 _atom_site_label
 _atom_site_symmetry_multiplicity
 _atom_site_fract_x
 _atom_site_fract_y
 _atom_site_fract_z
 _atom_site_occupancy
  Ba  Ba0  1  0.68568350  0.57715050  0.12408400  1
  Ba  Ba1  1  0.68568350  0.42284950  0.62408400  1
  Ba  Ba2  1  0.81431650  0.07715050  0.37591600  1
  Ba  Ba3  1  0.81431650  0.92284950  0.87591600  1
  Ba  Ba4  1  0.18568350  0.07715050  0.12408400  1
  Ba  Ba5  1  0.18568350  0.92284950  0.62408400  1
  Ba  Ba6  1  0.31431650  0.57715050  0.37591600  1
  Ba  Ba7  1  0.31431650  0.42284950  0.87591600  1
  Ca  Ca8  1  0.00000000  0.42183900  0.75000000  1
  Ca  Ca9  1  0.00000000  0.57816100  0.25000000  1
  Ca  Ca10  1  0.50000000  0.92183900  0.75000000  1
  Ca  Ca11  1  0.50000000  0.07816100  0.25000000  1
  V  V12  1  0.62209750  0.47474350  0.87580000  1
  V  V13  1  0.87790250  0.97474350  0.62420000  1
  V  V14  1  0.62209750  0.52525650  0.37580000  1
  V  V15  1  0.87790250  0.02525650  0.12420000  1
  V  V16  1  0.12209750  0.97474350  0.87580000  1
  V  V17  1  0.37790250  0.47474350  0.62420000  1
  V  V18  1  0.12209750  0.02525650  0.37580000  1
  V  V19  1  0.37790250  0.52525650  0.12420000  1
  Cu  Cu20  1  0.00000000  0.50000000  0.00000000  1
  Cu  Cu21  1  0.00000000  0.50000000  0.50000000  1
  Cu  Cu22  1  0.50000000  0.00000000  0.00000000  1
  Cu  Cu23  1  0.50000000  0.00000000  0.50000000  1
  F  F24  1  0.64491550  0.24318050  0.45540900  1
  F  F25  1  0.88201800  0.70736300  0.71185300  1
  F  F26  1  0.88201800  0.29263700  0.21185300  1
  F  F27  1  0.91555050  0.79259750  0.51743700  1
  F  F28  1  0.83946850  0.19856650  0.72213500  1
  F  F29  1  0.50660450  0.57855050  0.65476900  1
  F  F30  1  0.55116550  0.06494550  0.61597400  1
  F  F31  1  0.94883450  0.43505450  0.38402600  1
  F  F32  1  0.50660450  0.42144950  0.15476900  1
  F  F33  1  0.58444950  0.29259750  0.98256300  1
  F  F34  1  0.55116550  0.93505450  0.11597400  1
  F  F35  1  0.99339550  0.92144950  0.34523100  1
  F  F36  1  0.66053150  0.30143350  0.27786500  1
  F  F37  1  0.74684350  0.89234850  0.60148200  1
  F  F38  1  0.99339550  0.07855050  0.84523100  1
  F  F39  1  0.75315650  0.39234850  0.89851800  1
  F  F40  1  0.75315650  0.60765150  0.39851800  1
  F  F41  1  0.61798200  0.20736300  0.78814700  1
  F  F42  1  0.85508450  0.25681950  0.54459100  1
  F  F43  1  0.61798200  0.79263700  0.28814700  1
  F  F44  1  0.85508450  0.74318050  0.04459100  1
  F  F45  1  0.94883450  0.56494550  0.88402600  1
  F  F46  1  0.91555050  0.20740250  0.01743700  1
  F  F47  1  0.74684350  0.10765150  0.10148200  1
  F  F48  1  0.83946850  0.80143350  0.22213500  1
  F  F49  1  0.66053150  0.69856650  0.77786500  1
  F  F50  1  0.64491550  0.75681950  0.95540900  1
  F  F51  1  0.58444950  0.70740250  0.48256300  1
  F  F52  1  0.14491550  0.74318050  0.45540900  1
  F  F53  1  0.38201800  0.20736300  0.71185300  1
  F  F54  1  0.38201800  0.79263700  0.21185300  1
  F  F55  1  0.41555050  0.29259750  0.51743700  1
  F  F56  1  0.33946850  0.69856650  0.72213500  1
  F  F57  1  0.00660450  0.07855050  0.65476900  1
  F  F58  1  0.05116550  0.56494550  0.61597400  1
  F  F59  1  0.44883450  0.93505450  0.38402600  1
  F  F60  1  0.00660450  0.92144950  0.15476900  1
  F  F61  1  0.08444950  0.79259750  0.98256300  1
  F  F62  1  0.05116550  0.43505450  0.11597400  1
  F  F63  1  0.49339550  0.42144950  0.34523100  1
  F  F64  1  0.16053150  0.80143350  0.27786500  1
  F  F65  1  0.24684350  0.39234850  0.60148200  1
  F  F66  1  0.49339550  0.57855050  0.84523100  1
  F  F67  1  0.25315650  0.89234850  0.89851800  1
  F  F68  1  0.25315650  0.10765150  0.39851800  1
  F  F69  1  0.11798200  0.70736300  0.78814700  1
  F  F70  1  0.35508450  0.75681950  0.54459100  1
  F  F71  1  0.11798200  0.29263700  0.28814700  1
  F  F72  1  0.35508450  0.24318050  0.04459100  1
  F  F73  1  0.44883450  0.06494550  0.88402600  1
  F  F74  1  0.41555050  0.70740250  0.01743700  1
  F  F75  1  0.24684350  0.60765150  0.10148200  1
  F  F76  1  0.33946850  0.30143350  0.22213500  1
  F  F77  1  0.16053150  0.19856650  0.77786500  1
  F  F78  1  0.14491550  0.25681950  0.95540900  1
  F  F79  1  0.08444950  0.20740250  0.48256300  1
