# generated using pymatgen
data_Pr4In21Pd10
_symmetry_space_group_name_H-M   'P 1'
_cell_length_a   23.52354200
_cell_length_b   4.55695600
_cell_length_c   17.52906546
_cell_angle_alpha   90.00000000
_cell_angle_beta   124.47675360
_cell_angle_gamma   90.00000000
_symmetry_Int_Tables_number   1
_chemical_formula_structural   Pr4In21Pd10
_chemical_formula_sum   'Pr8 In42 Pd20'
_cell_volume   1548.99878765
_cell_formula_units_Z   2
loop_
 _symmetry_equiv_pos_site_id
 _symmetry_equiv_pos_as_xyz
  1  'x, y, z'
loop_
 _atom_site_type_symbol
 _atom_site_label
 _atom_site_symmetry_multiplicity
 _atom_site_fract_x
 _atom_site_fract_y
 _atom_site_fract_z
 _atom_site_occupancy
  Pr  Pr0  1  0.72899300  0.50000000  0.32466500  1
  Pr  Pr1  1  0.12213100  0.00000000  0.83297300  1
  Pr  Pr2  1  0.87786900  0.00000000  0.16702700  1
  Pr  Pr3  1  0.27100700  0.50000000  0.67533500  1
  Pr  Pr4  1  0.22899300  0.00000000  0.32466500  1
  Pr  Pr5  1  0.62213100  0.50000000  0.83297300  1
  Pr  Pr6  1  0.37786900  0.50000000  0.16702700  1
  Pr  Pr7  1  0.77100700  0.00000000  0.67533500  1
  In  In8  1  0.99047300  0.00000000  0.40754500  1
  In  In9  1  0.38444200  0.00000000  0.79608500  1
  In  In10  1  0.20053100  0.00000000  0.50354600  1
  In  In11  1  0.95739700  0.50000000  0.13156400  1
  In  In12  1  0.89859800  0.50000000  0.50331400  1
  In  In13  1  0.70042500  0.00000000  0.00049000  1
  In  In14  1  0.06426000  0.00000000  0.29748000  1
  In  In15  1  0.74733800  0.00000000  0.20374100  1
  In  In16  1  0.79946900  0.00000000  0.49645400  1
  In  In17  1  0.61399200  0.50000000  0.04892700  1
  In  In18  1  0.93574000  0.00000000  0.70252000  1
  In  In19  1  0.38600800  0.50000000  0.95107300  1
  In  In20  1  0.86924200  0.50000000  0.30071100  1
  In  In21  1  0.13075800  0.50000000  0.69928900  1
  In  In22  1  0.00000000  0.50000000  0.00000000  1
  In  In23  1  0.25266200  0.00000000  0.79625900  1
  In  In24  1  0.61555800  0.00000000  0.20391500  1
  In  In25  1  0.00952700  0.00000000  0.59245500  1
  In  In26  1  0.29957500  0.00000000  0.99951000  1
  In  In27  1  0.04260300  0.50000000  0.86843600  1
  In  In28  1  0.10140200  0.50000000  0.49668600  1
  In  In29  1  0.49047300  0.50000000  0.40754500  1
  In  In30  1  0.88444200  0.50000000  0.79608500  1
  In  In31  1  0.70053100  0.50000000  0.50354600  1
  In  In32  1  0.45739700  0.00000000  0.13156400  1
  In  In33  1  0.39859800  0.00000000  0.50331400  1
  In  In34  1  0.20042500  0.50000000  0.00049000  1
  In  In35  1  0.56426000  0.50000000  0.29748000  1
  In  In36  1  0.24733800  0.50000000  0.20374100  1
  In  In37  1  0.29946900  0.50000000  0.49645400  1
  In  In38  1  0.11399200  0.00000000  0.04892700  1
  In  In39  1  0.43574000  0.50000000  0.70252000  1
  In  In40  1  0.88600800  0.00000000  0.95107300  1
  In  In41  1  0.36924200  0.00000000  0.30071100  1
  In  In42  1  0.63075800  0.00000000  0.69928900  1
  In  In43  1  0.50000000  0.00000000  0.00000000  1
  In  In44  1  0.75266200  0.50000000  0.79625900  1
  In  In45  1  0.11555800  0.50000000  0.20391500  1
  In  In46  1  0.50952700  0.50000000  0.59245500  1
  In  In47  1  0.79957500  0.50000000  0.99951000  1
  In  In48  1  0.54260300  0.00000000  0.86843600  1
  In  In49  1  0.60140200  0.00000000  0.49668600  1
  Pd  Pd50  1  0.25013900  0.50000000  0.88519300  1
  Pd  Pd51  1  0.84614300  0.50000000  0.61328400  1
  Pd  Pd52  1  0.86273600  0.00000000  0.39240700  1
  Pd  Pd53  1  0.74986100  0.50000000  0.11480700  1
  Pd  Pd54  1  0.15385700  0.50000000  0.38671600  1
  Pd  Pd55  1  0.13726400  0.00000000  0.60759300  1
  Pd  Pd56  1  0.00534600  0.50000000  0.68843000  1
  Pd  Pd57  1  0.02563700  0.00000000  0.11253300  1
  Pd  Pd58  1  0.99465400  0.50000000  0.31157000  1
  Pd  Pd59  1  0.97436300  0.00000000  0.88746700  1
  Pd  Pd60  1  0.75013900  0.00000000  0.88519300  1
  Pd  Pd61  1  0.34614300  0.00000000  0.61328400  1
  Pd  Pd62  1  0.36273600  0.50000000  0.39240700  1
  Pd  Pd63  1  0.24986100  0.00000000  0.11480700  1
  Pd  Pd64  1  0.65385700  0.00000000  0.38671600  1
  Pd  Pd65  1  0.63726400  0.50000000  0.60759300  1
  Pd  Pd66  1  0.50534600  0.00000000  0.68843000  1
  Pd  Pd67  1  0.52563700  0.50000000  0.11253300  1
  Pd  Pd68  1  0.49465400  0.00000000  0.31157000  1
  Pd  Pd69  1  0.47436300  0.50000000  0.88746700  1
