# generated using pymatgen
data_Ba2CaCr2CuF14
_symmetry_space_group_name_H-M   'P 1'
_cell_length_a   14.09636800
_cell_length_b   5.42302600
_cell_length_c   15.03463656
_cell_angle_alpha   90.00000000
_cell_angle_beta   91.34779858
_cell_angle_gamma   90.00000000
_symmetry_Int_Tables_number   1
_chemical_formula_structural   Ba2CaCr2CuF14
_chemical_formula_sum   'Ba8 Ca4 Cr8 Cu4 F56'
_cell_volume   1149.00436590
_cell_formula_units_Z   4
loop_
 _symmetry_equiv_pos_site_id
 _symmetry_equiv_pos_as_xyz
  1  'x, y, z'
loop_
 _atom_site_type_symbol
 _atom_site_label
 _atom_site_symmetry_multiplicity
 _atom_site_fract_x
 _atom_site_fract_y
 _atom_site_fract_z
 _atom_site_occupancy
  Ba  Ba0  1  0.81290700  0.06955700  0.37814000  1
  Ba  Ba1  1  0.81290700  0.93044300  0.87814000  1
  Ba  Ba2  1  0.68709300  0.43044300  0.62186000  1
  Ba  Ba3  1  0.68709300  0.56955700  0.12186000  1
  Ba  Ba4  1  0.31290700  0.56955700  0.37814000  1
  Ba  Ba5  1  0.31290700  0.43044300  0.87814000  1
  Ba  Ba6  1  0.18709300  0.93044300  0.62186000  1
  Ba  Ba7  1  0.18709300  0.06955700  0.12186000  1
  Ca  Ca8  1  0.00000000  0.42191400  0.75000000  1
  Ca  Ca9  1  0.00000000  0.57808600  0.25000000  1
  Ca  Ca10  1  0.50000000  0.92191400  0.75000000  1
  Ca  Ca11  1  0.50000000  0.07808600  0.25000000  1
  Cr  Cr12  1  0.87825000  0.97741700  0.62509500  1
  Cr  Cr13  1  0.87825000  0.02258300  0.12509500  1
  Cr  Cr14  1  0.62175000  0.52258300  0.37490500  1
  Cr  Cr15  1  0.62175000  0.47741700  0.87490500  1
  Cr  Cr16  1  0.37825000  0.47741700  0.62509500  1
  Cr  Cr17  1  0.37825000  0.52258300  0.12509500  1
  Cr  Cr18  1  0.12175000  0.02258300  0.37490500  1
  Cr  Cr19  1  0.12175000  0.97741700  0.87490500  1
  Cu  Cu20  1  0.00000000  0.50000000  0.00000000  1
  Cu  Cu21  1  0.00000000  0.50000000  0.50000000  1
  Cu  Cu22  1  0.50000000  0.00000000  0.00000000  1
  Cu  Cu23  1  0.50000000  0.00000000  0.50000000  1
  F  F24  1  0.75237550  0.40297950  0.90203800  1
  F  F25  1  0.74762450  0.09702050  0.09796200  1
  F  F26  1  0.99265100  0.92267800  0.34536000  1
  F  F27  1  0.50734900  0.42267800  0.15464000  1
  F  F28  1  0.91497800  0.78613700  0.51959300  1
  F  F29  1  0.61880150  0.79482850  0.29022900  1
  F  F30  1  0.88119850  0.29482850  0.20977100  1
  F  F31  1  0.75237550  0.59702050  0.40203800  1
  F  F32  1  0.99265100  0.07732200  0.84536000  1
  F  F33  1  0.86058200  0.25926600  0.54541000  1
  F  F34  1  0.86058200  0.74073400  0.04541000  1
  F  F35  1  0.94667450  0.43809050  0.38527900  1
  F  F36  1  0.50734900  0.57732200  0.65464000  1
  F  F37  1  0.61880150  0.20517150  0.79022900  1
  F  F38  1  0.66044950  0.69566850  0.77800100  1
  F  F39  1  0.74762450  0.90297950  0.59796200  1
  F  F40  1  0.91497800  0.21386300  0.01959300  1
  F  F41  1  0.63941800  0.75926600  0.95459000  1
  F  F42  1  0.83955050  0.19566850  0.72199900  1
  F  F43  1  0.66044950  0.30433150  0.27800100  1
  F  F44  1  0.55332550  0.93809050  0.11472100  1
  F  F45  1  0.94667450  0.56190950  0.88527900  1
  F  F46  1  0.63941800  0.24073400  0.45459000  1
  F  F47  1  0.58502200  0.71386300  0.48040700  1
  F  F48  1  0.58502200  0.28613700  0.98040700  1
  F  F49  1  0.83955050  0.80433150  0.22199900  1
  F  F50  1  0.88119850  0.70517150  0.70977100  1
  F  F51  1  0.55332550  0.06190950  0.61472100  1
  F  F52  1  0.25237550  0.90297950  0.90203800  1
  F  F53  1  0.24762450  0.59702050  0.09796200  1
  F  F54  1  0.49265100  0.42267800  0.34536000  1
  F  F55  1  0.00734900  0.92267800  0.15464000  1
  F  F56  1  0.41497800  0.28613700  0.51959300  1
  F  F57  1  0.11880150  0.29482850  0.29022900  1
  F  F58  1  0.38119850  0.79482850  0.20977100  1
  F  F59  1  0.25237550  0.09702050  0.40203800  1
  F  F60  1  0.49265100  0.57732200  0.84536000  1
  F  F61  1  0.36058200  0.75926600  0.54541000  1
  F  F62  1  0.36058200  0.24073400  0.04541000  1
  F  F63  1  0.44667450  0.93809050  0.38527900  1
  F  F64  1  0.00734900  0.07732200  0.65464000  1
  F  F65  1  0.11880150  0.70517150  0.79022900  1
  F  F66  1  0.16044950  0.19566850  0.77800100  1
  F  F67  1  0.24762450  0.40297950  0.59796200  1
  F  F68  1  0.41497800  0.71386300  0.01959300  1
  F  F69  1  0.13941800  0.25926600  0.95459000  1
  F  F70  1  0.33955050  0.69566850  0.72199900  1
  F  F71  1  0.16044950  0.80433150  0.27800100  1
  F  F72  1  0.05332550  0.43809050  0.11472100  1
  F  F73  1  0.44667450  0.06190950  0.88527900  1
  F  F74  1  0.13941800  0.74073400  0.45459000  1
  F  F75  1  0.08502200  0.21386300  0.48040700  1
  F  F76  1  0.08502200  0.78613700  0.98040700  1
  F  F77  1  0.33955050  0.30433150  0.22199900  1
  F  F78  1  0.38119850  0.20517150  0.70977100  1
  F  F79  1  0.05332550  0.56190950  0.61472100  1
