# generated using pymatgen
data_LiCr3O8
_symmetry_space_group_name_H-M   'P 1'
_cell_length_a   5.53487851
_cell_length_b   6.45575003
_cell_length_c   8.39796733
_cell_angle_alpha   90.00000000
_cell_angle_beta   90.00000000
_cell_angle_gamma   90.00000000
_symmetry_Int_Tables_number   1
_chemical_formula_structural   LiCr3O8
_chemical_formula_sum   'Li2 Cr6 O16'
_cell_volume   300.07442297
_cell_formula_units_Z   2
loop_
 _symmetry_equiv_pos_site_id
 _symmetry_equiv_pos_as_xyz
  1  'x, y, z'
loop_
 _atom_site_type_symbol
 _atom_site_label
 _atom_site_symmetry_multiplicity
 _atom_site_fract_x
 _atom_site_fract_y
 _atom_site_fract_z
 _atom_site_occupancy
  Li  Li0  1  0.00000000  0.50000000  0.50000000  1
  Li  Li1  1  0.50000000  0.00000000  0.00000000  1
  Cr  Cr2  1  0.50000000  0.76903800  0.35143800  1
  Cr  Cr3  1  0.50000000  0.23096200  0.64856200  1
  Cr  Cr4  1  0.50000000  0.50000000  0.00000000  1
  Cr  Cr5  1  0.00000000  0.00000000  0.50000000  1
  Cr  Cr6  1  0.00000000  0.26903800  0.14856200  1
  Cr  Cr7  1  0.00000000  0.73096200  0.85143800  1
  O  O8  1  0.00000000  0.05855800  0.26450900  1
  O  O9  1  0.50000000  0.55855800  0.23549100  1
  O  O10  1  0.50000000  0.44144200  0.76450900  1
  O  O11  1  0.00000000  0.94144200  0.73549100  1
  O  O12  1  0.00000000  0.47058800  0.25975400  1
  O  O13  1  0.50000000  0.97058800  0.24024600  1
  O  O14  1  0.50000000  0.02941200  0.75975400  1
  O  O15  1  0.00000000  0.52941200  0.74024600  1
  O  O16  1  0.74718300  0.27355400  0.03257100  1
  O  O17  1  0.25281700  0.27355400  0.03257100  1
  O  O18  1  0.24718300  0.77355400  0.46742900  1
  O  O19  1  0.24718300  0.22644600  0.53257100  1
  O  O20  1  0.75281700  0.77355400  0.46742900  1
  O  O21  1  0.75281700  0.22644600  0.53257100  1
  O  O22  1  0.74718300  0.72644600  0.96742900  1
  O  O23  1  0.25281700  0.72644600  0.96742900  1
