# generated using pymatgen
data_Na(CoO2)3
_symmetry_space_group_name_H-M   'P 1'
_cell_length_a   5.38495781
_cell_length_b   5.38495781
_cell_length_c   11.50268577
_cell_angle_alpha   90.00000000
_cell_angle_beta   90.00000000
_cell_angle_gamma   120.00000000
_symmetry_Int_Tables_number   1
_chemical_formula_structural   Na(CoO2)3
_chemical_formula_sum   'Na6 Co18 O36'
_cell_volume   288.86471666
_cell_formula_units_Z   6
loop_
 _symmetry_equiv_pos_site_id
 _symmetry_equiv_pos_as_xyz
  1  'x, y, z'
loop_
 _atom_site_type_symbol
 _atom_site_label
 _atom_site_symmetry_multiplicity
 _atom_site_fract_x
 _atom_site_fract_y
 _atom_site_fract_z
 _atom_site_occupancy
  Na  Na0  1  0.33333333  0.66666667  0.85175767  1
  Na  Na1  1  0.33333333  0.66666667  0.48157567  1
  Na  Na2  1  0.00000000  0.00000000  0.18509100  1
  Na  Na3  1  1.00000000  0.00000000  0.81490900  1
  Na  Na4  1  0.66666667  0.33333333  0.51842433  1
  Na  Na5  1  0.66666667  0.33333333  0.14824233  1
  Co  Co6  1  0.32928267  0.98426433  0.08292533  1
  Co  Co7  1  0.33738400  0.98831500  0.25040800  1
  Co  Co8  1  0.65498167  0.67071733  0.08292533  1
  Co  Co9  1  0.01573567  0.34501833  0.08292533  1
  Co  Co10  1  0.65093100  0.66261600  0.25040800  1
  Co  Co11  1  0.01168500  0.34906900  0.25040800  1
  Co  Co12  1  0.99594933  0.31759767  0.41625867  1
  Co  Co13  1  0.00405067  0.32164833  0.58374133  1
  Co  Co14  1  0.32164833  0.00405067  0.41625867  1
  Co  Co15  1  0.68240233  0.67835167  0.41625867  1
  Co  Co16  1  0.31759767  0.99594933  0.58374133  1
  Co  Co17  1  0.67835167  0.68240233  0.58374133  1
  Co  Co18  1  0.66261600  0.65093100  0.74959200  1
  Co  Co19  1  0.67071733  0.65498167  0.91707467  1
  Co  Co20  1  0.98831500  0.33738400  0.74959200  1
  Co  Co21  1  0.34906900  0.01168500  0.74959200  1
  Co  Co22  1  0.98426433  0.32928267  0.91707467  1
  Co  Co23  1  0.34501833  0.01573567  0.91707467  1
  O  O24  1  0.33333333  0.66666667  0.71827567  1
  O  O25  1  0.33333333  0.66666667  0.34160867  1
  O  O26  1  0.34746700  0.32222200  0.08577000  1
  O  O27  1  0.31919967  0.30808833  0.24756333  1
  O  O28  1  0.33333333  0.66666667  0.23285967  1
  O  O29  1  0.33333333  0.66666667  0.10047367  1
  O  O30  1  0.67777800  0.02524500  0.08577000  1
  O  O31  1  0.69191167  0.01111133  0.24756333  1
  O  O32  1  0.33333333  0.66666667  0.99172467  1
  O  O33  1  0.33333333  0.66666667  0.61505767  1
  O  O34  1  0.97475500  0.65253300  0.08577000  1
  O  O35  1  0.98888867  0.68080033  0.24756333  1
  O  O36  1  0.00000000  0.00000000  0.05160900  1
  O  O37  1  0.00000000  0.00000000  0.67494200  1
  O  O38  1  0.01413367  0.65555533  0.41910333  1
  O  O39  1  0.98586633  0.64142167  0.58089667  1
  O  O40  1  0.00000000  0.00000000  0.56619300  1
  O  O41  1  1.00000000  0.00000000  0.43380700  1
  O  O42  1  0.34444467  0.35857833  0.41910333  1
  O  O43  1  0.35857833  0.34444467  0.58089667  1
  O  O44  1  1.00000000  0.00000000  0.32505800  1
  O  O45  1  1.00000000  0.00000000  0.94839100  1
  O  O46  1  0.64142167  0.98586633  0.41910333  1
  O  O47  1  0.65555533  0.01413367  0.58089667  1
  O  O48  1  0.66666667  0.33333333  0.38494233  1
  O  O49  1  0.66666667  0.33333333  0.00827533  1
  O  O50  1  0.68080033  0.98888867  0.75243667  1
  O  O51  1  0.65253300  0.97475500  0.91423000  1
  O  O52  1  0.66666667  0.33333333  0.89952633  1
  O  O53  1  0.66666667  0.33333333  0.76714033  1
  O  O54  1  0.01111133  0.69191167  0.75243667  1
  O  O55  1  0.02524500  0.67777800  0.91423000  1
  O  O56  1  0.66666667  0.33333333  0.65839133  1
  O  O57  1  0.66666667  0.33333333  0.28172433  1
  O  O58  1  0.30808833  0.31919967  0.75243667  1
  O  O59  1  0.32222200  0.34746700  0.91423000  1
