# generated using pymatgen
data_RbMnH2OF4
_symmetry_space_group_name_H-M   'P 1'
_cell_length_a   13.98402200
_cell_length_b   6.68253800
_cell_length_c   10.87382671
_cell_angle_alpha   90.00000000
_cell_angle_beta   104.24021328
_cell_angle_gamma   90.00000000
_symmetry_Int_Tables_number   1
_chemical_formula_structural   RbMnH2OF4
_chemical_formula_sum   'Rb8 Mn8 H16 O8 F32'
_cell_volume   984.92243968
_cell_formula_units_Z   8
loop_
 _symmetry_equiv_pos_site_id
 _symmetry_equiv_pos_as_xyz
  1  'x, y, z'
loop_
 _atom_site_type_symbol
 _atom_site_label
 _atom_site_symmetry_multiplicity
 _atom_site_fract_x
 _atom_site_fract_y
 _atom_site_fract_z
 _atom_site_occupancy
  Rb  Rb0  1  0.92078250  0.74391950  0.55974600  1
  Rb  Rb1  1  0.57921750  0.24391950  0.94025400  1
  Rb  Rb2  1  0.57921750  0.75608050  0.44025400  1
  Rb  Rb3  1  0.92078250  0.25608050  0.05974600  1
  Rb  Rb4  1  0.42078250  0.24391950  0.55974600  1
  Rb  Rb5  1  0.07921750  0.74391950  0.94025400  1
  Rb  Rb6  1  0.07921750  0.25608050  0.44025400  1
  Rb  Rb7  1  0.42078250  0.75608050  0.05974600  1
  Mn  Mn8  1  0.75000000  0.25000000  0.50000000  1
  Mn  Mn9  1  0.75000000  0.75000000  0.00000000  1
  Mn  Mn10  1  0.00000000  0.24304900  0.75000000  1
  Mn  Mn11  1  0.00000000  0.75695100  0.25000000  1
  Mn  Mn12  1  0.25000000  0.75000000  0.50000000  1
  Mn  Mn13  1  0.25000000  0.25000000  0.00000000  1
  Mn  Mn14  1  0.50000000  0.74304900  0.75000000  1
  Mn  Mn15  1  0.50000000  0.25695100  0.25000000  1
  H  H16  1  0.67999450  0.41593750  0.69833700  1
  H  H17  1  0.82000550  0.91593750  0.80166300  1
  H  H18  1  0.82000550  0.08406250  0.30166300  1
  H  H19  1  0.67999450  0.58406250  0.19833700  1
  H  H20  1  0.79503400  0.38908600  0.74777100  1
  H  H21  1  0.70496600  0.88908600  0.75222900  1
  H  H22  1  0.70496600  0.11091400  0.25222900  1
  H  H23  1  0.79503400  0.61091400  0.24777100  1
  H  H24  1  0.17999450  0.91593750  0.69833700  1
  H  H25  1  0.32000550  0.41593750  0.80166300  1
  H  H26  1  0.32000550  0.58406250  0.30166300  1
  H  H27  1  0.17999450  0.08406250  0.19833700  1
  H  H28  1  0.29503400  0.88908600  0.74777100  1
  H  H29  1  0.20496600  0.38908600  0.75222900  1
  H  H30  1  0.20496600  0.61091400  0.25222900  1
  H  H31  1  0.29503400  0.11091400  0.24777100  1
  O  O32  1  0.73525900  0.32603200  0.69466600  1
  O  O33  1  0.76474100  0.82603200  0.80533400  1
  O  O34  1  0.76474100  0.17396800  0.30533400  1
  O  O35  1  0.73525900  0.67396800  0.19466600  1
  O  O36  1  0.23525900  0.82603200  0.69466600  1
  O  O37  1  0.26474100  0.32603200  0.80533400  1
  O  O38  1  0.26474100  0.67396800  0.30533400  1
  O  O39  1  0.23525900  0.17396800  0.19466600  1
  F  F40  1  0.89438350  0.25015850  0.56470800  1
  F  F41  1  0.60561650  0.75015850  0.93529200  1
  F  F42  1  0.60561650  0.24984150  0.43529200  1
  F  F43  1  0.89438350  0.74984150  0.06470800  1
  F  F44  1  0.74858900  0.97950100  0.53596300  1
  F  F45  1  0.75141100  0.47950100  0.96403700  1
  F  F46  1  0.75141100  0.52049900  0.46403700  1
  F  F47  1  0.74858900  0.02049900  0.03596300  1
  F  F48  1  0.93096450  0.04058750  0.81449100  1
  F  F49  1  0.56903550  0.54058750  0.68550900  1
  F  F50  1  0.56903550  0.45941250  0.18550900  1
  F  F51  1  0.93096450  0.95941250  0.31449100  1
  F  F52  1  0.92752250  0.44338850  0.80924100  1
  F  F53  1  0.57247750  0.94338850  0.69075900  1
  F  F54  1  0.57247750  0.05661150  0.19075900  1
  F  F55  1  0.92752250  0.55661150  0.30924100  1
  F  F56  1  0.39438350  0.75015850  0.56470800  1
  F  F57  1  0.10561650  0.25015850  0.93529200  1
  F  F58  1  0.10561650  0.74984150  0.43529200  1
  F  F59  1  0.39438350  0.24984150  0.06470800  1
  F  F60  1  0.24858900  0.47950100  0.53596300  1
  F  F61  1  0.25141100  0.97950100  0.96403700  1
  F  F62  1  0.25141100  0.02049900  0.46403700  1
  F  F63  1  0.24858900  0.52049900  0.03596300  1
  F  F64  1  0.43096450  0.54058750  0.81449100  1
  F  F65  1  0.06903550  0.04058750  0.68550900  1
  F  F66  1  0.06903550  0.95941250  0.18550900  1
  F  F67  1  0.43096450  0.45941250  0.31449100  1
  F  F68  1  0.42752250  0.94338850  0.80924100  1
  F  F69  1  0.07247750  0.44338850  0.69075900  1
  F  F70  1  0.07247750  0.55661150  0.19075900  1
  F  F71  1  0.42752250  0.05661150  0.30924100  1
