# generated using pymatgen
data_MnFeO3
_symmetry_space_group_name_H-M   'P 1'
_cell_length_a   9.52144163
_cell_length_b   9.55405625
_cell_length_c   9.57318297
_cell_angle_alpha   90.00000000
_cell_angle_beta   90.00000000
_cell_angle_gamma   90.00000000
_symmetry_Int_Tables_number   1
_chemical_formula_structural   MnFeO3
_chemical_formula_sum   'Mn16 Fe16 O48'
_cell_volume   870.85703163
_cell_formula_units_Z   16
loop_
 _symmetry_equiv_pos_site_id
 _symmetry_equiv_pos_as_xyz
  1  'x, y, z'
loop_
 _atom_site_type_symbol
 _atom_site_label
 _atom_site_symmetry_multiplicity
 _atom_site_fract_x
 _atom_site_fract_y
 _atom_site_fract_z
 _atom_site_occupancy
  Mn  Mn0  1  0.75000000  0.21814000  0.00000000  1
  Mn  Mn1  1  0.28367900  0.00000000  0.25000000  1
  Mn  Mn2  1  0.25000000  0.28186000  0.00000000  1
  Mn  Mn3  1  0.78367900  0.00000000  0.25000000  1
  Mn  Mn4  1  0.21632100  0.00000000  0.75000000  1
  Mn  Mn5  1  0.71632100  0.00000000  0.75000000  1
  Mn  Mn6  1  0.75000000  0.71814000  0.00000000  1
  Mn  Mn7  1  0.25000000  0.78186000  0.00000000  1
  Mn  Mn8  1  0.25000000  0.71814000  0.50000000  1
  Mn  Mn9  1  0.78367900  0.50000000  0.75000000  1
  Mn  Mn10  1  0.75000000  0.78186000  0.50000000  1
  Mn  Mn11  1  0.28367900  0.50000000  0.75000000  1
  Mn  Mn12  1  0.71632100  0.50000000  0.25000000  1
  Mn  Mn13  1  0.21632100  0.50000000  0.25000000  1
  Mn  Mn14  1  0.25000000  0.21814000  0.50000000  1
  Mn  Mn15  1  0.75000000  0.28186000  0.50000000  1
  Fe  Fe16  1  0.50000000  0.00000000  0.00000000  1
  Fe  Fe17  1  0.00000000  0.25000000  0.78999900  1
  Fe  Fe18  1  0.00000000  0.00000000  0.00000000  1
  Fe  Fe19  1  0.50000000  0.25000000  0.21000100  1
  Fe  Fe20  1  0.50000000  0.50000000  0.00000000  1
  Fe  Fe21  1  0.50000000  0.75000000  0.78999900  1
  Fe  Fe22  1  0.50000000  0.00000000  0.50000000  1
  Fe  Fe23  1  0.00000000  0.75000000  0.21000100  1
  Fe  Fe24  1  0.00000000  0.50000000  0.50000000  1
  Fe  Fe25  1  0.50000000  0.75000000  0.28999900  1
  Fe  Fe26  1  0.50000000  0.50000000  0.50000000  1
  Fe  Fe27  1  0.00000000  0.75000000  0.71000100  1
  Fe  Fe28  1  0.00000000  0.00000000  0.50000000  1
  Fe  Fe29  1  0.00000000  0.25000000  0.28999900  1
  Fe  Fe30  1  0.00000000  0.50000000  0.00000000  1
  Fe  Fe31  1  0.50000000  0.25000000  0.71000100  1
  O  O32  1  0.13204350  0.14120450  0.91798950  1
  O  O33  1  0.64084950  0.09112450  0.13352450  1
  O  O34  1  0.64084950  0.90887550  0.36647550  1
  O  O35  1  0.36795650  0.14120450  0.08201050  1
  O  O36  1  0.58485400  0.12899700  0.85413900  1
  O  O37  1  0.91514600  0.87100300  0.35413900  1
  O  O38  1  0.14084950  0.90887550  0.13352450  1
  O  O39  1  0.41514600  0.62899700  0.64586100  1
  O  O40  1  0.63204350  0.14120450  0.58201050  1
  O  O41  1  0.36795650  0.64120450  0.91798950  1
  O  O42  1  0.41514600  0.12899700  0.35413900  1
  O  O43  1  0.35915050  0.40887550  0.13352450  1
  O  O44  1  0.64084950  0.59112450  0.86647550  1
  O  O45  1  0.58485400  0.87100300  0.64586100  1
  O  O46  1  0.63204350  0.35879550  0.08201050  1
  O  O47  1  0.36795650  0.85879550  0.41798950  1
  O  O48  1  0.85915050  0.09112450  0.86647550  1
  O  O49  1  0.58485400  0.37100300  0.35413900  1
  O  O50  1  0.08485400  0.12899700  0.64586100  1
  O  O51  1  0.41514600  0.87100300  0.14586100  1
  O  O52  1  0.63204350  0.85879550  0.91798950  1
  O  O53  1  0.35915050  0.09112450  0.63352450  1
  O  O54  1  0.35915050  0.90887550  0.86647550  1
  O  O55  1  0.86795650  0.85879550  0.08201050  1
  O  O56  1  0.63204350  0.64120450  0.41798950  1
  O  O57  1  0.14084950  0.59112450  0.63352450  1
  O  O58  1  0.14084950  0.40887550  0.86647550  1
  O  O59  1  0.86795650  0.64120450  0.58201050  1
  O  O60  1  0.08485400  0.62899700  0.35413900  1
  O  O61  1  0.41514600  0.37100300  0.85413900  1
  O  O62  1  0.64084950  0.40887550  0.63352450  1
  O  O63  1  0.91514600  0.12899700  0.14586100  1
  O  O64  1  0.13204350  0.64120450  0.08201050  1
  O  O65  1  0.86795650  0.14120450  0.41798950  1
  O  O66  1  0.91514600  0.62899700  0.85413900  1
  O  O67  1  0.85915050  0.90887550  0.63352450  1
  O  O68  1  0.14084950  0.09112450  0.36647550  1
  O  O69  1  0.08485400  0.37100300  0.14586100  1
  O  O70  1  0.13204350  0.85879550  0.58201050  1
  O  O71  1  0.86795650  0.35879550  0.91798950  1
  O  O72  1  0.35915050  0.59112450  0.36647550  1
  O  O73  1  0.08485400  0.87100300  0.85413900  1
  O  O74  1  0.58485400  0.62899700  0.14586100  1
  O  O75  1  0.91514600  0.37100300  0.64586100  1
  O  O76  1  0.13204350  0.35879550  0.41798950  1
  O  O77  1  0.85915050  0.59112450  0.13352450  1
  O  O78  1  0.85915050  0.40887550  0.36647550  1
  O  O79  1  0.36795650  0.35879550  0.58201050  1
