# generated using pymatgen
data_NiH2SO5
_symmetry_space_group_name_H-M   'P 1'
_cell_length_a   6.85548000
_cell_length_b   7.65264400
_cell_length_c   7.48924525
_cell_angle_alpha   90.00000000
_cell_angle_beta   116.43449515
_cell_angle_gamma   90.00000000
_symmetry_Int_Tables_number   1
_chemical_formula_structural   NiH2SO5
_chemical_formula_sum   'Ni4 H8 S4 O20'
_cell_volume   351.82428619
_cell_formula_units_Z   4
loop_
 _symmetry_equiv_pos_site_id
 _symmetry_equiv_pos_as_xyz
  1  'x, y, z'
loop_
 _atom_site_type_symbol
 _atom_site_label
 _atom_site_symmetry_multiplicity
 _atom_site_fract_x
 _atom_site_fract_y
 _atom_site_fract_z
 _atom_site_occupancy
  Ni  Ni0  1  0.75000000  0.75000000  0.50000000  1
  Ni  Ni1  1  0.75000000  0.25000000  0.00000000  1
  Ni  Ni2  1  0.25000000  0.25000000  0.50000000  1
  Ni  Ni3  1  0.25000000  0.75000000  0.00000000  1
  H  H4  1  0.58692400  0.95755300  0.20285600  1
  H  H5  1  0.41307600  0.95755300  0.29714400  1
  H  H6  1  0.41307600  0.04244700  0.79714400  1
  H  H7  1  0.58692400  0.04244700  0.70285600  1
  H  H8  1  0.08692400  0.45755300  0.20285600  1
  H  H9  1  0.91307600  0.45755300  0.29714400  1
  H  H10  1  0.91307600  0.54244700  0.79714400  1
  H  H11  1  0.08692400  0.54244700  0.70285600  1
  S  S12  1  0.50000000  0.40728900  0.25000000  1
  S  S13  1  0.50000000  0.59271100  0.75000000  1
  S  S14  1  0.00000000  0.90728900  0.25000000  1
  S  S15  1  0.00000000  0.09271100  0.75000000  1
  O  O16  1  0.51972150  0.29685250  0.09719700  1
  O  O17  1  0.48027850  0.29685250  0.40280300  1
  O  O18  1  0.48027850  0.70314750  0.90280300  1
  O  O19  1  0.51972150  0.70314750  0.59719700  1
  O  O20  1  0.19882000  0.02078700  0.34391600  1
  O  O21  1  0.80118000  0.02078700  0.15608400  1
  O  O22  1  0.80118000  0.97921300  0.65608400  1
  O  O23  1  0.19882000  0.97921300  0.84391600  1
  O  O24  1  0.50000000  0.88185900  0.25000000  1
  O  O25  1  0.50000000  0.11814100  0.75000000  1
  O  O26  1  0.01972150  0.79685250  0.09719700  1
  O  O27  1  0.98027850  0.79685250  0.40280300  1
  O  O28  1  0.98027850  0.20314750  0.90280300  1
  O  O29  1  0.01972150  0.20314750  0.59719700  1
  O  O30  1  0.69882000  0.52078700  0.34391600  1
  O  O31  1  0.30118000  0.52078700  0.15608400  1
  O  O32  1  0.30118000  0.47921300  0.65608400  1
  O  O33  1  0.69882000  0.47921300  0.84391600  1
  O  O34  1  0.00000000  0.38185900  0.25000000  1
  O  O35  1  0.00000000  0.61814100  0.75000000  1
