# generated using pymatgen
data_CeIn4Pd
_symmetry_space_group_name_H-M   'P 1'
_cell_length_a   4.61727200
_cell_length_b   17.11977800
_cell_length_c   7.34651600
_cell_angle_alpha   90.00000000
_cell_angle_beta   90.00000000
_cell_angle_gamma   90.00000000
_symmetry_Int_Tables_number   1
_chemical_formula_structural   CeIn4Pd
_chemical_formula_sum   'Ce4 In16 Pd4'
_cell_volume   580.71763770
_cell_formula_units_Z   4
loop_
 _symmetry_equiv_pos_site_id
 _symmetry_equiv_pos_as_xyz
  1  'x, y, z'
loop_
 _atom_site_type_symbol
 _atom_site_label
 _atom_site_symmetry_multiplicity
 _atom_site_fract_x
 _atom_site_fract_y
 _atom_site_fract_z
 _atom_site_occupancy
  Ce  Ce0  1  0.00000000  0.61769600  0.75000000  1
  Ce  Ce1  1  0.50000000  0.88230400  0.25000000  1
  Ce  Ce2  1  0.50000000  0.11769600  0.75000000  1
  Ce  Ce3  1  0.00000000  0.38230400  0.25000000  1
  In  In4  1  0.00000000  0.00000000  0.50000000  1
  In  In5  1  0.50000000  0.68264400  0.45356600  1
  In  In6  1  0.50000000  0.68264400  0.04643400  1
  In  In7  1  0.00000000  0.56806700  0.25000000  1
  In  In8  1  0.00000000  0.81735600  0.95356600  1
  In  In9  1  0.00000000  0.81735600  0.54643400  1
  In  In10  1  0.00000000  0.00000000  0.00000000  1
  In  In11  1  0.50000000  0.93193300  0.75000000  1
  In  In12  1  0.50000000  0.50000000  0.50000000  1
  In  In13  1  0.00000000  0.18264400  0.45356600  1
  In  In14  1  0.00000000  0.18264400  0.04643400  1
  In  In15  1  0.50000000  0.06806700  0.25000000  1
  In  In16  1  0.50000000  0.31735600  0.95356600  1
  In  In17  1  0.50000000  0.31735600  0.54643400  1
  In  In18  1  0.50000000  0.50000000  0.00000000  1
  In  In19  1  0.00000000  0.43193300  0.75000000  1
  Pd  Pd20  1  0.00000000  0.72448400  0.25000000  1
  Pd  Pd21  1  0.50000000  0.77551600  0.75000000  1
  Pd  Pd22  1  0.50000000  0.22448400  0.25000000  1
  Pd  Pd23  1  0.00000000  0.27551600  0.75000000  1
