# generated using pymatgen
data_Na2AlNiF7
_symmetry_space_group_name_H-M   'P 1'
_cell_length_a   7.13709800
_cell_length_b   7.42705800
_cell_length_c   10.16467000
_cell_angle_alpha   90.00000000
_cell_angle_beta   90.00000000
_cell_angle_gamma   90.00000000
_symmetry_Int_Tables_number   1
_chemical_formula_structural   Na2AlNiF7
_chemical_formula_sum   'Na8 Al4 Ni4 F28'
_cell_volume   538.80517619
_cell_formula_units_Z   4
loop_
 _symmetry_equiv_pos_site_id
 _symmetry_equiv_pos_as_xyz
  1  'x, y, z'
loop_
 _atom_site_type_symbol
 _atom_site_label
 _atom_site_symmetry_multiplicity
 _atom_site_fract_x
 _atom_site_fract_y
 _atom_site_fract_z
 _atom_site_occupancy
  Na  Na0  1  0.25000000  0.75000000  0.25000000  1
  Na  Na1  1  0.75000000  0.75000000  0.25000000  1
  Na  Na2  1  0.00000000  0.00000000  0.00000000  1
  Na  Na3  1  0.00000000  0.00000000  0.50000000  1
  Na  Na4  1  0.75000000  0.25000000  0.75000000  1
  Na  Na5  1  0.25000000  0.25000000  0.75000000  1
  Na  Na6  1  0.50000000  0.50000000  0.50000000  1
  Na  Na7  1  0.50000000  0.50000000  0.00000000  1
  Al  Al8  1  0.50000000  0.00000000  0.50000000  1
  Al  Al9  1  0.50000000  0.00000000  0.00000000  1
  Al  Al10  1  0.00000000  0.50000000  0.00000000  1
  Al  Al11  1  0.00000000  0.50000000  0.50000000  1
  Ni  Ni12  1  0.75000000  0.25000000  0.25000000  1
  Ni  Ni13  1  0.25000000  0.25000000  0.25000000  1
  Ni  Ni14  1  0.25000000  0.75000000  0.75000000  1
  Ni  Ni15  1  0.75000000  0.75000000  0.75000000  1
  F  F16  1  0.31334550  0.93463650  0.61240850  1
  F  F17  1  0.31334550  0.06536350  0.11240850  1
  F  F18  1  0.00000000  0.87159500  0.75000000  1
  F  F19  1  0.00000000  0.72121350  0.41587350  1
  F  F20  1  0.68665450  0.93463650  0.61240850  1
  F  F21  1  0.50000000  0.77878650  0.41587350  1
  F  F22  1  0.00000000  0.12840500  0.25000000  1
  F  F23  1  0.00000000  0.27878650  0.58412650  1
  F  F24  1  0.50000000  0.22121350  0.58412650  1
  F  F25  1  0.31334550  0.06536350  0.38759150  1
  F  F26  1  0.68665450  0.06536350  0.11240850  1
  F  F27  1  0.68665450  0.06536350  0.38759150  1
  F  F28  1  0.68665450  0.93463650  0.88759150  1
  F  F29  1  0.31334550  0.93463650  0.88759150  1
  F  F30  1  0.81334550  0.43463650  0.11240850  1
  F  F31  1  0.81334550  0.56536350  0.61240850  1
  F  F32  1  0.50000000  0.37159500  0.25000000  1
  F  F33  1  0.50000000  0.22121350  0.91587350  1
  F  F34  1  0.18665450  0.43463650  0.11240850  1
  F  F35  1  0.00000000  0.27878650  0.91587350  1
  F  F36  1  0.50000000  0.62840500  0.75000000  1
  F  F37  1  0.50000000  0.77878650  0.08412650  1
  F  F38  1  0.00000000  0.72121350  0.08412650  1
  F  F39  1  0.81334550  0.56536350  0.88759150  1
  F  F40  1  0.18665450  0.56536350  0.61240850  1
  F  F41  1  0.18665450  0.56536350  0.88759150  1
  F  F42  1  0.18665450  0.43463650  0.38759150  1
  F  F43  1  0.81334550  0.43463650  0.38759150  1
