# generated using pymatgen
data_Sr2FeClO3
_symmetry_space_group_name_H-M   'P 1'
_cell_length_a   3.97445700
_cell_length_b   3.97445700
_cell_length_c   14.46140100
_cell_angle_alpha   90.00000000
_cell_angle_beta   90.00000000
_cell_angle_gamma   90.00000000
_symmetry_Int_Tables_number   1
_chemical_formula_structural   Sr2FeClO3
_chemical_formula_sum   'Sr4 Fe2 Cl2 O6'
_cell_volume   228.43675096
_cell_formula_units_Z   2
loop_
 _symmetry_equiv_pos_site_id
 _symmetry_equiv_pos_as_xyz
  1  'x, y, z'
loop_
 _atom_site_type_symbol
 _atom_site_label
 _atom_site_symmetry_multiplicity
 _atom_site_fract_x
 _atom_site_fract_y
 _atom_site_fract_z
 _atom_site_occupancy
  Sr  Sr0  1  0.50000000  0.00000000  0.34400050  1
  Sr  Sr1  1  0.00000000  0.50000000  0.65599950  1
  Sr  Sr2  1  0.50000000  0.00000000  0.09574350  1
  Sr  Sr3  1  0.00000000  0.50000000  0.90425650  1
  Fe  Fe4  1  0.00000000  0.50000000  0.20761850  1
  Fe  Fe5  1  0.50000000  0.00000000  0.79238150  1
  Cl  Cl6  1  0.00000000  0.50000000  0.42432950  1
  Cl  Cl7  1  0.50000000  0.00000000  0.57567050  1
  O  O8  1  0.50000000  0.00000000  0.92522650  1
  O  O9  1  0.00000000  0.50000000  0.07477350  1
  O  O10  1  0.50000000  0.50000000  0.23087800  1
  O  O11  1  0.50000000  0.50000000  0.76912200  1
  O  O12  1  0.00000000  0.00000000  0.23087800  1
  O  O13  1  0.00000000  0.00000000  0.76912200  1
