# generated using pymatgen
data_Fe2RhS4
_symmetry_space_group_name_H-M   'P 1'
_cell_length_a   6.66647600
_cell_length_b   6.86158400
_cell_length_c   9.59809400
_cell_angle_alpha   90.00000000
_cell_angle_beta   90.00000000
_cell_angle_gamma   90.00000000
_symmetry_Int_Tables_number   1
_chemical_formula_structural   Fe2RhS4
_chemical_formula_sum   'Fe8 Rh4 S16'
_cell_volume   439.04163119
_cell_formula_units_Z   4
loop_
 _symmetry_equiv_pos_site_id
 _symmetry_equiv_pos_as_xyz
  1  'x, y, z'
loop_
 _atom_site_type_symbol
 _atom_site_label
 _atom_site_symmetry_multiplicity
 _atom_site_fract_x
 _atom_site_fract_y
 _atom_site_fract_z
 _atom_site_occupancy
  Fe  Fe0  1  0.00000000  0.25000000  0.87413900  1
  Fe  Fe1  1  0.00000000  0.75000000  0.12586100  1
  Fe  Fe2  1  0.25000000  0.25000000  0.25000000  1
  Fe  Fe3  1  0.75000000  0.25000000  0.25000000  1
  Fe  Fe4  1  0.50000000  0.75000000  0.37413900  1
  Fe  Fe5  1  0.50000000  0.25000000  0.62586100  1
  Fe  Fe6  1  0.75000000  0.75000000  0.75000000  1
  Fe  Fe7  1  0.25000000  0.75000000  0.75000000  1
  Rh  Rh8  1  0.50000000  0.00000000  0.00000000  1
  Rh  Rh9  1  0.50000000  0.50000000  0.00000000  1
  Rh  Rh10  1  0.00000000  0.50000000  0.50000000  1
  Rh  Rh11  1  0.00000000  0.00000000  0.50000000  1
  S  S12  1  0.74441600  0.75000000  0.98641100  1
  S  S13  1  0.50000000  0.97993800  0.75194400  1
  S  S14  1  0.25558400  0.75000000  0.98641100  1
  S  S15  1  0.00000000  0.02006200  0.25194400  1
  S  S16  1  0.00000000  0.97993800  0.74805600  1
  S  S17  1  0.50000000  0.02006200  0.24805600  1
  S  S18  1  0.74441600  0.25000000  0.01358900  1
  S  S19  1  0.25558400  0.25000000  0.01358900  1
  S  S20  1  0.24441600  0.25000000  0.48641100  1
  S  S21  1  0.00000000  0.47993800  0.25194400  1
  S  S22  1  0.75558400  0.25000000  0.48641100  1
  S  S23  1  0.50000000  0.52006200  0.75194400  1
  S  S24  1  0.50000000  0.47993800  0.24805600  1
  S  S25  1  0.00000000  0.52006200  0.74805600  1
  S  S26  1  0.24441600  0.75000000  0.51358900  1
  S  S27  1  0.75558400  0.75000000  0.51358900  1
