# generated using pymatgen
data_U(BiO2)4
_symmetry_space_group_name_H-M   'P 1'
_cell_length_a   3.84561400
_cell_length_b   3.95444000
_cell_length_c   28.32846800
_cell_angle_alpha   90.00000000
_cell_angle_beta   90.00000000
_cell_angle_gamma   90.00000000
_symmetry_Int_Tables_number   1
_chemical_formula_structural   U(BiO2)4
_chemical_formula_sum   'U2 Bi8 O16'
_cell_volume   430.79809007
_cell_formula_units_Z   2
loop_
 _symmetry_equiv_pos_site_id
 _symmetry_equiv_pos_as_xyz
  1  'x, y, z'
loop_
 _atom_site_type_symbol
 _atom_site_label
 _atom_site_symmetry_multiplicity
 _atom_site_fract_x
 _atom_site_fract_y
 _atom_site_fract_z
 _atom_site_occupancy
  U  U0  1  0.00000000  0.00000000  0.00000000  1
  U  U1  1  0.50000000  0.50000000  0.50000000  1
  Bi  Bi2  1  0.00000000  0.00000000  0.59544600  1
  Bi  Bi3  1  0.50000000  0.50000000  0.70420000  1
  Bi  Bi4  1  0.00000000  0.00000000  0.79580000  1
  Bi  Bi5  1  0.50000000  0.50000000  0.90455400  1
  Bi  Bi6  1  0.50000000  0.50000000  0.09544600  1
  Bi  Bi7  1  0.00000000  0.00000000  0.20420000  1
  Bi  Bi8  1  0.50000000  0.50000000  0.29580000  1
  Bi  Bi9  1  0.00000000  0.00000000  0.40455400  1
  O  O10  1  0.00000000  0.50000000  0.64786700  1
  O  O11  1  0.50000000  0.00000000  0.74404000  1
  O  O12  1  0.50000000  0.00000000  0.95526700  1
  O  O13  1  0.00000000  0.50000000  0.95164100  1
  O  O14  1  0.50000000  0.00000000  0.54835900  1
  O  O15  1  0.00000000  0.50000000  0.54473300  1
  O  O16  1  0.00000000  0.50000000  0.75596000  1
  O  O17  1  0.50000000  0.00000000  0.85213300  1
  O  O18  1  0.50000000  0.00000000  0.14786700  1
  O  O19  1  0.00000000  0.50000000  0.24404000  1
  O  O20  1  0.00000000  0.50000000  0.45526700  1
  O  O21  1  0.50000000  0.00000000  0.45164100  1
  O  O22  1  0.00000000  0.50000000  0.04835900  1
  O  O23  1  0.50000000  0.00000000  0.04473300  1
  O  O24  1  0.50000000  0.00000000  0.25596000  1
  O  O25  1  0.00000000  0.50000000  0.35213300  1
