# generated using pymatgen
data_Pr2C3
_symmetry_space_group_name_H-M   'P 1'
_cell_length_a   8.70001600
_cell_length_b   8.70001600
_cell_length_c   8.70001600
_cell_angle_alpha   90.00000000
_cell_angle_beta   90.00000000
_cell_angle_gamma   90.00000000
_symmetry_Int_Tables_number   1
_chemical_formula_structural   Pr2C3
_chemical_formula_sum   'Pr16 C24'
_cell_volume   658.50663313
_cell_formula_units_Z   8
loop_
 _symmetry_equiv_pos_site_id
 _symmetry_equiv_pos_as_xyz
  1  'x, y, z'
loop_
 _atom_site_type_symbol
 _atom_site_label
 _atom_site_symmetry_multiplicity
 _atom_site_fract_x
 _atom_site_fract_y
 _atom_site_fract_z
 _atom_site_occupancy
  Pr  Pr0  1  0.80174400  0.30174400  0.19825600  1
  Pr  Pr1  1  0.94825600  0.05174400  0.55174400  1
  Pr  Pr2  1  0.55174400  0.94825600  0.05174400  1
  Pr  Pr3  1  0.44825600  0.44825600  0.44825600  1
  Pr  Pr4  1  0.30174400  0.19825600  0.80174400  1
  Pr  Pr5  1  0.19825600  0.19825600  0.19825600  1
  Pr  Pr6  1  0.19825600  0.80174400  0.30174400  1
  Pr  Pr7  1  0.05174400  0.55174400  0.94825600  1
  Pr  Pr8  1  0.30174400  0.80174400  0.69825600  1
  Pr  Pr9  1  0.44825600  0.55174400  0.05174400  1
  Pr  Pr10  1  0.05174400  0.44825600  0.55174400  1
  Pr  Pr11  1  0.94825600  0.94825600  0.94825600  1
  Pr  Pr12  1  0.80174400  0.69825600  0.30174400  1
  Pr  Pr13  1  0.69825600  0.69825600  0.69825600  1
  Pr  Pr14  1  0.69825600  0.30174400  0.80174400  1
  Pr  Pr15  1  0.55174400  0.05174400  0.44825600  1
  C  C16  1  0.25000000  0.04867800  0.50000000  1
  C  C17  1  0.20132200  0.50000000  0.25000000  1
  C  C18  1  0.29867800  0.50000000  0.75000000  1
  C  C19  1  0.50000000  0.25000000  0.20132200  1
  C  C20  1  0.50000000  0.75000000  0.29867800  1
  C  C21  1  0.25000000  0.20132200  0.50000000  1
  C  C22  1  0.50000000  0.25000000  0.04867800  1
  C  C23  1  0.45132200  0.50000000  0.75000000  1
  C  C24  1  0.50000000  0.75000000  0.45132200  1
  C  C25  1  0.04867800  0.50000000  0.25000000  1
  C  C26  1  0.75000000  0.45132200  0.50000000  1
  C  C27  1  0.75000000  0.29867800  0.50000000  1
  C  C28  1  0.75000000  0.54867800  0.00000000  1
  C  C29  1  0.70132200  0.00000000  0.75000000  1
  C  C30  1  0.79867800  0.00000000  0.25000000  1
  C  C31  1  0.00000000  0.75000000  0.70132200  1
  C  C32  1  0.00000000  0.25000000  0.79867800  1
  C  C33  1  0.75000000  0.70132200  0.00000000  1
  C  C34  1  0.00000000  0.75000000  0.54867800  1
  C  C35  1  0.95132200  0.00000000  0.25000000  1
  C  C36  1  0.00000000  0.25000000  0.95132200  1
  C  C37  1  0.54867800  0.00000000  0.75000000  1
  C  C38  1  0.25000000  0.95132200  0.00000000  1
  C  C39  1  0.25000000  0.79867800  0.00000000  1
