# generated using pymatgen
data_Fe(NiS2)2
_symmetry_space_group_name_H-M   'P 1'
_cell_length_a   6.59587400
_cell_length_b   6.65393400
_cell_length_c   9.38216200
_cell_angle_alpha   90.00000000
_cell_angle_beta   90.00000000
_cell_angle_gamma   90.00000000
_symmetry_Int_Tables_number   1
_chemical_formula_structural   Fe(NiS2)2
_chemical_formula_sum   'Fe4 Ni8 S16'
_cell_volume   411.76911328
_cell_formula_units_Z   4
loop_
 _symmetry_equiv_pos_site_id
 _symmetry_equiv_pos_as_xyz
  1  'x, y, z'
loop_
 _atom_site_type_symbol
 _atom_site_label
 _atom_site_symmetry_multiplicity
 _atom_site_fract_x
 _atom_site_fract_y
 _atom_site_fract_z
 _atom_site_occupancy
  Fe  Fe0  1  0.25000000  0.25000000  0.25000000  1
  Fe  Fe1  1  0.75000000  0.25000000  0.25000000  1
  Fe  Fe2  1  0.75000000  0.75000000  0.75000000  1
  Fe  Fe3  1  0.25000000  0.75000000  0.75000000  1
  Ni  Ni4  1  0.00000000  0.75000000  0.37362700  1
  Ni  Ni5  1  0.00000000  0.00000000  0.00000000  1
  Ni  Ni6  1  0.50000000  0.00000000  0.50000000  1
  Ni  Ni7  1  0.00000000  0.25000000  0.62637300  1
  Ni  Ni8  1  0.50000000  0.25000000  0.87362700  1
  Ni  Ni9  1  0.50000000  0.50000000  0.50000000  1
  Ni  Ni10  1  0.00000000  0.50000000  0.00000000  1
  Ni  Ni11  1  0.50000000  0.75000000  0.12637300  1
  S  S12  1  0.26334400  0.75000000  0.51078400  1
  S  S13  1  0.73665600  0.75000000  0.51078400  1
  S  S14  1  0.00000000  0.02111100  0.24457700  1
  S  S15  1  0.50000000  0.97888900  0.74457700  1
  S  S16  1  0.50000000  0.02111100  0.25542300  1
  S  S17  1  0.00000000  0.97888900  0.75542300  1
  S  S18  1  0.26334400  0.25000000  0.48921600  1
  S  S19  1  0.73665600  0.25000000  0.48921600  1
  S  S20  1  0.76334400  0.25000000  0.01078400  1
  S  S21  1  0.23665600  0.25000000  0.01078400  1
  S  S22  1  0.50000000  0.52111100  0.74457700  1
  S  S23  1  0.00000000  0.47888900  0.24457700  1
  S  S24  1  0.00000000  0.52111100  0.75542300  1
  S  S25  1  0.50000000  0.47888900  0.25542300  1
  S  S26  1  0.76334400  0.75000000  0.98921600  1
  S  S27  1  0.23665600  0.75000000  0.98921600  1
