# generated using pymatgen
data_Fe21O32
_symmetry_space_group_name_H-M   'P 1'
_cell_length_a   11.66441535
_cell_length_b   11.66441535
_cell_length_c   14.51387491
_cell_angle_alpha   90.00000000
_cell_angle_beta   90.00000000
_cell_angle_gamma   120.00000000
_symmetry_Int_Tables_number   1
_chemical_formula_structural   Fe21O32
_chemical_formula_sum   'Fe63 O96'
_cell_volume   1710.17265954
_cell_formula_units_Z   3
loop_
 _symmetry_equiv_pos_site_id
 _symmetry_equiv_pos_as_xyz
  1  'x, y, z'
loop_
 _atom_site_type_symbol
 _atom_site_label
 _atom_site_symmetry_multiplicity
 _atom_site_fract_x
 _atom_site_fract_y
 _atom_site_fract_z
 _atom_site_occupancy
  Fe  Fe0  1  0.67137100  0.83159900  0.20478600  1
  Fe  Fe1  1  0.50062033  0.74922967  0.00033267  1
  Fe  Fe2  1  0.25077033  0.75139067  0.00033267  1
  Fe  Fe3  1  0.00000000  0.75725000  0.00000000  1
  Fe  Fe4  1  0.33333333  0.66666667  0.79283067  1
  Fe  Fe5  1  0.49826567  0.00470433  0.12854733  1
  Fe  Fe6  1  0.33333333  0.16275467  0.16666667  1
  Fe  Fe7  1  0.75725000  0.00000000  0.00000000  1
  Fe  Fe8  1  0.83724533  0.17057867  0.16666667  1
  Fe  Fe9  1  0.16022800  0.32862900  0.20478600  1
  Fe  Fe10  1  0.33333333  0.66666667  0.54050267  1
  Fe  Fe11  1  0.90941667  0.57608333  0.33333333  1
  Fe  Fe12  1  0.16604633  0.58194267  0.33300067  1
  Fe  Fe13  1  0.41805733  0.58410367  0.33300067  1
  Fe  Fe14  1  0.50643867  0.50173433  0.12854733  1
  Fe  Fe15  1  0.99529567  0.49356133  0.12854733  1
  Fe  Fe16  1  0.24860933  0.49937967  0.00033267  1
  Fe  Fe17  1  0.33333333  0.66666667  0.16666667  1
  Fe  Fe18  1  0.82942133  0.66666667  0.16666667  1
  Fe  Fe19  1  0.41589633  0.83395367  0.33300067  1
  Fe  Fe20  1  0.16840100  0.83977200  0.20478600  1
  Fe  Fe21  1  0.33803767  0.16493233  0.53811933  1
  Fe  Fe22  1  0.16728700  0.08256300  0.33366600  1
  Fe  Fe23  1  0.91743700  0.08472400  0.33366600  1
  Fe  Fe24  1  0.66666667  0.09058333  0.33333333  1
  Fe  Fe25  1  0.00000000  0.00000000  0.12616400  1
  Fe  Fe26  1  0.16493233  0.33803767  0.46188067  1
  Fe  Fe27  1  0.00000000  0.49608800  0.50000000  1
  Fe  Fe28  1  0.42391667  0.33333333  0.33333333  1
  Fe  Fe29  1  0.50391200  0.50391200  0.50000000  1
  Fe  Fe30  1  0.82689467  0.66196233  0.53811933  1
  Fe  Fe31  1  1.00000000  0.00000000  0.87383600  1
  Fe  Fe32  1  0.57608333  0.90941667  0.66666667  1
  Fe  Fe33  1  0.83271300  0.91527600  0.66633400  1
  Fe  Fe34  1  0.08472400  0.91743700  0.66633400  1
  Fe  Fe35  1  0.17310533  0.83506767  0.46188067  1
  Fe  Fe36  1  0.66196233  0.82689467  0.46188067  1
  Fe  Fe37  1  0.91527600  0.83271300  0.33366600  1
  Fe  Fe38  1  0.00000000  0.00000000  0.50000000  1
  Fe  Fe39  1  0.49608800  0.00000000  0.50000000  1
  Fe  Fe40  1  0.08256300  0.16728700  0.66633400  1
  Fe  Fe41  1  0.83506767  0.17310533  0.53811933  1
  Fe  Fe42  1  0.00470433  0.49826567  0.87145267  1
  Fe  Fe43  1  0.83395367  0.41589633  0.66699933  1
  Fe  Fe44  1  0.58410367  0.41805733  0.66699933  1
  Fe  Fe45  1  0.33333333  0.42391667  0.66666667  1
  Fe  Fe46  1  0.66666667  0.33333333  0.45949733  1
  Fe  Fe47  1  0.83159900  0.67137100  0.79521400  1
  Fe  Fe48  1  0.66666667  0.82942133  0.83333333  1
  Fe  Fe49  1  0.09058333  0.66666667  0.66666667  1
  Fe  Fe50  1  0.17057867  0.83724533  0.83333333  1
  Fe  Fe51  1  0.49356133  0.99529567  0.87145267  1
  Fe  Fe52  1  0.66666667  0.33333333  0.20716933  1
  Fe  Fe53  1  0.24275000  0.24275000  0.00000000  1
  Fe  Fe54  1  0.49937967  0.24860933  0.99966733  1
  Fe  Fe55  1  0.75139067  0.25077033  0.99966733  1
  Fe  Fe56  1  0.83977200  0.16840100  0.79521400  1
  Fe  Fe57  1  0.32862900  0.16022800  0.79521400  1
  Fe  Fe58  1  0.58194267  0.16604633  0.66699933  1
  Fe  Fe59  1  0.66666667  0.33333333  0.83333333  1
  Fe  Fe60  1  0.16275467  0.33333333  0.83333333  1
  Fe  Fe61  1  0.74922967  0.50062033  0.99966733  1
  Fe  Fe62  1  0.50173433  0.50643867  0.87145267  1
  O  O63  1  0.92312700  0.82558100  0.09074200  1
  O  O64  1  0.33333333  0.66666667  0.93089767  1
  O  O65  1  0.50708567  0.98367633  0.25368033  1
  O  O66  1  0.15958100  0.80992400  0.07965300  1
  O  O67  1  0.40896367  0.82250033  0.07875033  1
  O  O68  1  0.09577667  0.68272233  0.91887033  1
  O  O69  1  0.57698500  0.67755800  0.91481000  1
  O  O70  1  0.65034300  0.84041900  0.07965300  1
  O  O71  1  0.32244200  0.89942700  0.91481000  1
  O  O72  1  0.74353967  0.23578733  0.24259133  1
  O  O73  1  0.58694567  0.90422333  0.91887033  1
  O  O74  1  0.90245400  0.07687300  0.09074200  1
  O  O75  1  0.49224767  0.25646033  0.24259133  1
  O  O76  1  0.34938900  0.42911000  0.41446300  1
  O  O77  1  0.17441900  0.09754600  0.09074200  1
  O  O78  1  0.08968167  0.43390633  0.41852333  1
  O  O79  1  0.47659067  0.49291433  0.25368033  1
  O  O80  1  0.56609367  0.65577533  0.41852333  1
  O  O81  1  0.07972100  0.65061100  0.41446300  1
  O  O82  1  0.25313000  0.51083300  0.25458300  1
  O  O83  1  0.01632367  0.52340933  0.25368033  1
  O  O84  1  0.33333333  0.66666667  0.40243567  1
  O  O85  1  0.19007600  0.34965700  0.07965300  1
  O  O86  1  0.76421267  0.50775233  0.24259133  1
  O  O87  1  0.25770300  0.74687000  0.25458300  1
  O  O88  1  0.48916700  0.74229700  0.25458300  1
  O  O89  1  0.31727767  0.41305433  0.91887033  1
  O  O90  1  0.34422467  0.91031833  0.41852333  1
  O  O91  1  0.10057300  0.42301500  0.91481000  1
  O  O92  1  0.41353667  0.59103633  0.07875033  1
  O  O93  1  0.57089000  0.92027900  0.41446300  1
  O  O94  1  0.17749967  0.58646333  0.07875033  1
  O  O95  1  0.58979367  0.15891433  0.42407533  1
  O  O96  1  0.00000000  0.00000000  0.26423100  1
  O  O97  1  0.17375233  0.31700967  0.58701367  1
  O  O98  1  0.82624767  0.14325733  0.41298633  1
  O  O99  1  0.07563033  0.15583367  0.41208367  1
  O  O100  1  0.76244333  0.01605567  0.25220367  1
  O  O101  1  0.24365167  0.01089133  0.24814333  1
  O  O102  1  0.31700967  0.17375233  0.41298633  1
  O  O103  1  0.98910867  0.23276033  0.24814333  1
  O  O104  1  0.41020633  0.56912067  0.57592467  1
  O  O105  1  0.25361233  0.23755667  0.25220367  1
  O  O106  1  0.56912067  0.41020633  0.42407533  1
  O  O107  1  0.15891433  0.58979367  0.57592467  1
  O  O108  1  0.01605567  0.76244333  0.74779633  1
  O  O109  1  0.84108567  0.43087933  0.42407533  1
  O  O110  1  0.75634833  0.76723967  0.75185667  1
  O  O111  1  0.14325733  0.82624767  0.58701367  1
  O  O112  1  0.23276033  0.98910867  0.75185667  1
  O  O113  1  0.74638767  0.98394433  0.74779633  1
  O  O114  1  0.91979667  0.84416633  0.58791633  1
  O  O115  1  0.68299033  0.85674267  0.58701367  1
  O  O116  1  1.00000000  0.00000000  0.73576900  1
  O  O117  1  0.85674267  0.68299033  0.41298633  1
  O  O118  1  0.43087933  0.84108567  0.57592467  1
  O  O119  1  0.92436967  0.08020333  0.58791633  1
  O  O120  1  0.15583367  0.07563033  0.58791633  1
  O  O121  1  0.98394433  0.74638767  0.25220367  1
  O  O122  1  0.01089133  0.24365167  0.75185667  1
  O  O123  1  0.76723967  0.75634833  0.24814333  1
  O  O124  1  0.08020333  0.92436967  0.41208367  1
  O  O125  1  0.23755667  0.25361233  0.74779633  1
  O  O126  1  0.84416633  0.91979667  0.41208367  1
  O  O127  1  0.25646033  0.49224767  0.75740867  1
  O  O128  1  0.66666667  0.33333333  0.59756433  1
  O  O129  1  0.84041900  0.65034300  0.92034700  1
  O  O130  1  0.49291433  0.47659067  0.74631967  1
  O  O131  1  0.74229700  0.48916700  0.74541700  1
  O  O132  1  0.42911000  0.34938900  0.58553700  1
  O  O133  1  0.91031833  0.34422467  0.58147667  1
  O  O134  1  0.98367633  0.50708567  0.74631967  1
  O  O135  1  0.65577533  0.56609367  0.58147667  1
  O  O136  1  0.07687300  0.90245400  0.90925800  1
  O  O137  1  0.92027900  0.57089000  0.58553700  1
  O  O138  1  0.23578733  0.74353967  0.75740867  1
  O  O139  1  0.82558100  0.92312700  0.90925800  1
  O  O140  1  0.68272233  0.09577667  0.08112967  1
  O  O141  1  0.50775233  0.76421267  0.75740867  1
  O  O142  1  0.42301500  0.10057300  0.08519000  1
  O  O143  1  0.80992400  0.15958100  0.92034700  1
  O  O144  1  0.89942700  0.32244200  0.08519000  1
  O  O145  1  0.41305433  0.31727767  0.08112967  1
  O  O146  1  0.58646333  0.17749967  0.92124967  1
  O  O147  1  0.34965700  0.19007600  0.92034700  1
  O  O148  1  0.66666667  0.33333333  0.06910233  1
  O  O149  1  0.52340933  0.01632367  0.74631967  1
  O  O150  1  0.09754600  0.17441900  0.90925800  1
  O  O151  1  0.59103633  0.41353667  0.92124967  1
  O  O152  1  0.82250033  0.40896367  0.92124967  1
  O  O153  1  0.65061100  0.07972100  0.58553700  1
  O  O154  1  0.67755800  0.57698500  0.08519000  1
  O  O155  1  0.43390633  0.08968167  0.58147667  1
  O  O156  1  0.74687000  0.25770300  0.74541700  1
  O  O157  1  0.90422333  0.58694567  0.08112967  1
  O  O158  1  0.51083300  0.25313000  0.74541700  1
