# generated using pymatgen
data_Nb(PO3)4
_symmetry_space_group_name_H-M   'P 1'
_cell_length_a   11.91661800
_cell_length_b   8.44229600
_cell_length_c   10.33792653
_cell_angle_alpha   90.00000000
_cell_angle_beta   119.93342550
_cell_angle_gamma   90.00000000
_symmetry_Int_Tables_number   1
_chemical_formula_structural   Nb(PO3)4
_chemical_formula_sum   'Nb4 P16 O48'
_cell_volume   901.29844386
_cell_formula_units_Z   4
loop_
 _symmetry_equiv_pos_site_id
 _symmetry_equiv_pos_as_xyz
  1  'x, y, z'
loop_
 _atom_site_type_symbol
 _atom_site_label
 _atom_site_symmetry_multiplicity
 _atom_site_fract_x
 _atom_site_fract_y
 _atom_site_fract_z
 _atom_site_occupancy
  Nb  Nb0  1  0.50000000  0.55898500  0.25000000  1
  Nb  Nb1  1  0.00000000  0.94101500  0.75000000  1
  Nb  Nb2  1  0.00000000  0.05898500  0.25000000  1
  Nb  Nb3  1  0.50000000  0.44101500  0.75000000  1
  P  P4  1  0.50949650  0.76450050  0.97874700  1
  P  P5  1  0.19949400  0.48710500  0.19850900  1
  P  P6  1  0.30050600  0.98710500  0.30149100  1
  P  P7  1  0.00949650  0.73549950  0.47874700  1
  P  P8  1  0.99050350  0.73549950  0.02125300  1
  P  P9  1  0.30050600  0.01289500  0.80149100  1
  P  P10  1  0.19949400  0.51289500  0.69850900  1
  P  P11  1  0.49050350  0.76450050  0.52125300  1
  P  P12  1  0.00949650  0.26450050  0.97874700  1
  P  P13  1  0.69949400  0.98710500  0.19850900  1
  P  P14  1  0.80050600  0.48710500  0.30149100  1
  P  P15  1  0.50949650  0.23549950  0.47874700  1
  P  P16  1  0.49050350  0.23549950  0.02125300  1
  P  P17  1  0.80050600  0.51289500  0.80149100  1
  P  P18  1  0.69949400  0.01289500  0.69850900  1
  P  P19  1  0.99050350  0.26450050  0.52125300  1
  O  O20  1  0.96688950  0.87449350  0.09481100  1
  O  O21  1  0.53408900  0.26441100  0.90890100  1
  O  O22  1  0.53311050  0.62550650  0.90518900  1
  O  O23  1  0.14140750  0.36435750  0.05855300  1
  O  O24  1  0.31167800  0.56273000  0.18622300  1
  O  O25  1  0.72921250  0.08056050  0.84240600  1
  O  O26  1  0.27078750  0.08056050  0.65759400  1
  O  O27  1  0.03311050  0.87449350  0.40518900  1
  O  O28  1  0.53408900  0.73558900  0.40890100  1
  O  O29  1  0.31167800  0.43727000  0.68622300  1
  O  O30  1  0.96591100  0.76441100  0.59109900  1
  O  O31  1  0.22921250  0.41943950  0.34240600  1
  O  O32  1  0.91280150  0.61866750  0.35056100  1
  O  O33  1  0.14140750  0.63564250  0.55855300  1
  O  O34  1  0.35859250  0.86435750  0.44144700  1
  O  O35  1  0.18832200  0.93727000  0.81377700  1
  O  O36  1  0.96591100  0.23558900  0.09109900  1
  O  O37  1  0.58719850  0.88133250  0.64943900  1
  O  O38  1  0.18832200  0.06273000  0.31377700  1
  O  O39  1  0.77078750  0.41943950  0.15759400  1
  O  O40  1  0.46688950  0.62550650  0.59481100  1
  O  O41  1  0.35859250  0.13564250  0.94144700  1
  O  O42  1  0.08719850  0.61866750  0.14943900  1
  O  O43  1  0.41280150  0.88133250  0.85056100  1
  O  O44  1  0.46688950  0.37449350  0.09481100  1
  O  O45  1  0.03408900  0.76441100  0.90890100  1
  O  O46  1  0.03311050  0.12550650  0.90518900  1
  O  O47  1  0.64140750  0.86435750  0.05855300  1
  O  O48  1  0.81167800  0.06273000  0.18622300  1
  O  O49  1  0.22921250  0.58056050  0.84240600  1
  O  O50  1  0.77078750  0.58056050  0.65759400  1
  O  O51  1  0.53311050  0.37449350  0.40518900  1
  O  O52  1  0.03408900  0.23558900  0.40890100  1
  O  O53  1  0.81167800  0.93727000  0.68622300  1
  O  O54  1  0.46591100  0.26441100  0.59109900  1
  O  O55  1  0.72921250  0.91943950  0.34240600  1
  O  O56  1  0.41280150  0.11866750  0.35056100  1
  O  O57  1  0.64140750  0.13564250  0.55855300  1
  O  O58  1  0.85859250  0.36435750  0.44144700  1
  O  O59  1  0.68832200  0.43727000  0.81377700  1
  O  O60  1  0.46591100  0.73558900  0.09109900  1
  O  O61  1  0.08719850  0.38133250  0.64943900  1
  O  O62  1  0.68832200  0.56273000  0.31377700  1
  O  O63  1  0.27078750  0.91943950  0.15759400  1
  O  O64  1  0.96688950  0.12550650  0.59481100  1
  O  O65  1  0.85859250  0.63564250  0.94144700  1
  O  O66  1  0.58719850  0.11866750  0.14943900  1
  O  O67  1  0.91280150  0.38133250  0.85056100  1
