# generated using pymatgen
data_Y4InIr
_symmetry_space_group_name_H-M   'P 1'
_cell_length_a   13.75234800
_cell_length_b   13.75234800
_cell_length_c   13.75234800
_cell_angle_alpha   90.00000000
_cell_angle_beta   90.00000000
_cell_angle_gamma   90.00000000
_symmetry_Int_Tables_number   1
_chemical_formula_structural   Y4InIr
_chemical_formula_sum   'Y64 In16 Ir16'
_cell_volume   2600.94135868
_cell_formula_units_Z   16
loop_
 _symmetry_equiv_pos_site_id
 _symmetry_equiv_pos_as_xyz
  1  'x, y, z'
loop_
 _atom_site_type_symbol
 _atom_site_label
 _atom_site_symmetry_multiplicity
 _atom_site_fract_x
 _atom_site_fract_y
 _atom_site_fract_z
 _atom_site_occupancy
  Y  Y0  1  0.00000000  0.00000000  0.80839875  1
  Y  Y1  1  0.55963875  0.25000000  0.75000000  1
  Y  Y2  1  0.75000000  0.25000000  0.55963875  1
  Y  Y3  1  0.69160125  0.00000000  0.50000000  1
  Y  Y4  1  0.00000000  0.00000000  0.19160125  1
  Y  Y5  1  0.65126725  0.34873275  0.34873275  1
  Y  Y6  1  0.75000000  0.05963875  0.75000000  1
  Y  Y7  1  0.94036125  0.25000000  0.75000000  1
  Y  Y8  1  0.30839875  0.00000000  0.50000000  1
  Y  Y9  1  0.15126725  0.15126725  0.65126725  1
  Y  Y10  1  0.75000000  0.44036125  0.75000000  1
  Y  Y11  1  0.84873275  0.15126725  0.34873275  1
  Y  Y12  1  0.00000000  0.30839875  0.50000000  1
  Y  Y13  1  0.50000000  0.19160125  0.50000000  1
  Y  Y14  1  0.75000000  0.25000000  0.94036125  1
  Y  Y15  1  0.34873275  0.34873275  0.65126725  1
  Y  Y16  1  0.00000000  0.50000000  0.30839875  1
  Y  Y17  1  0.55963875  0.75000000  0.25000000  1
  Y  Y18  1  0.75000000  0.75000000  0.05963875  1
  Y  Y19  1  0.69160125  0.50000000  0.00000000  1
  Y  Y20  1  0.00000000  0.50000000  0.69160125  1
  Y  Y21  1  0.65126725  0.84873275  0.84873275  1
  Y  Y22  1  0.75000000  0.55963875  0.25000000  1
  Y  Y23  1  0.94036125  0.75000000  0.25000000  1
  Y  Y24  1  0.30839875  0.50000000  0.00000000  1
  Y  Y25  1  0.15126725  0.65126725  0.15126725  1
  Y  Y26  1  0.75000000  0.94036125  0.25000000  1
  Y  Y27  1  0.84873275  0.65126725  0.84873275  1
  Y  Y28  1  0.00000000  0.80839875  0.00000000  1
  Y  Y29  1  0.50000000  0.69160125  0.00000000  1
  Y  Y30  1  0.75000000  0.75000000  0.44036125  1
  Y  Y31  1  0.34873275  0.84873275  0.15126725  1
  Y  Y32  1  0.50000000  0.00000000  0.30839875  1
  Y  Y33  1  0.05963875  0.25000000  0.25000000  1
  Y  Y34  1  0.25000000  0.25000000  0.05963875  1
  Y  Y35  1  0.19160125  0.00000000  0.00000000  1
  Y  Y36  1  0.50000000  0.00000000  0.69160125  1
  Y  Y37  1  0.15126725  0.34873275  0.84873275  1
  Y  Y38  1  0.25000000  0.05963875  0.25000000  1
  Y  Y39  1  0.44036125  0.25000000  0.25000000  1
  Y  Y40  1  0.80839875  0.00000000  0.00000000  1
  Y  Y41  1  0.65126725  0.15126725  0.15126725  1
  Y  Y42  1  0.25000000  0.44036125  0.25000000  1
  Y  Y43  1  0.34873275  0.15126725  0.84873275  1
  Y  Y44  1  0.50000000  0.30839875  0.00000000  1
  Y  Y45  1  0.00000000  0.19160125  0.00000000  1
  Y  Y46  1  0.25000000  0.25000000  0.44036125  1
  Y  Y47  1  0.84873275  0.34873275  0.15126725  1
  Y  Y48  1  0.50000000  0.50000000  0.80839875  1
  Y  Y49  1  0.05963875  0.75000000  0.75000000  1
  Y  Y50  1  0.25000000  0.75000000  0.55963875  1
  Y  Y51  1  0.19160125  0.50000000  0.50000000  1
  Y  Y52  1  0.50000000  0.50000000  0.19160125  1
  Y  Y53  1  0.15126725  0.84873275  0.34873275  1
  Y  Y54  1  0.25000000  0.55963875  0.75000000  1
  Y  Y55  1  0.44036125  0.75000000  0.75000000  1
  Y  Y56  1  0.80839875  0.50000000  0.50000000  1
  Y  Y57  1  0.65126725  0.65126725  0.65126725  1
  Y  Y58  1  0.25000000  0.94036125  0.75000000  1
  Y  Y59  1  0.34873275  0.65126725  0.34873275  1
  Y  Y60  1  0.50000000  0.80839875  0.50000000  1
  Y  Y61  1  0.00000000  0.69160125  0.50000000  1
  Y  Y62  1  0.25000000  0.75000000  0.94036125  1
  Y  Y63  1  0.84873275  0.84873275  0.65126725  1
  In  In64  1  0.58314875  0.41685125  0.58314875  1
  In  In65  1  0.91685125  0.08314875  0.58314875  1
  In  In66  1  0.41685125  0.41685125  0.41685125  1
  In  In67  1  0.08314875  0.08314875  0.41685125  1
  In  In68  1  0.58314875  0.91685125  0.08314875  1
  In  In69  1  0.91685125  0.58314875  0.08314875  1
  In  In70  1  0.41685125  0.91685125  0.91685125  1
  In  In71  1  0.08314875  0.58314875  0.91685125  1
  In  In72  1  0.08314875  0.41685125  0.08314875  1
  In  In73  1  0.41685125  0.08314875  0.08314875  1
  In  In74  1  0.91685125  0.41685125  0.91685125  1
  In  In75  1  0.58314875  0.08314875  0.91685125  1
  In  In76  1  0.08314875  0.91685125  0.58314875  1
  In  In77  1  0.41685125  0.58314875  0.58314875  1
  In  In78  1  0.91685125  0.91685125  0.41685125  1
  In  In79  1  0.58314875  0.58314875  0.41685125  1
  Ir  Ir80  1  0.85899692  0.35899692  0.35899692  1
  Ir  Ir81  1  0.64100308  0.14100308  0.35899692  1
  Ir  Ir82  1  0.85899692  0.14100308  0.14100308  1
  Ir  Ir83  1  0.64100308  0.35899692  0.14100308  1
  Ir  Ir84  1  0.85899692  0.85899692  0.85899692  1
  Ir  Ir85  1  0.64100308  0.64100308  0.85899692  1
  Ir  Ir86  1  0.85899692  0.64100308  0.64100308  1
  Ir  Ir87  1  0.64100308  0.85899692  0.64100308  1
  Ir  Ir88  1  0.35899692  0.35899692  0.85899692  1
  Ir  Ir89  1  0.14100308  0.14100308  0.85899692  1
  Ir  Ir90  1  0.35899692  0.14100308  0.64100308  1
  Ir  Ir91  1  0.14100308  0.35899692  0.64100308  1
  Ir  Ir92  1  0.35899692  0.85899692  0.35899692  1
  Ir  Ir93  1  0.14100308  0.64100308  0.35899692  1
  Ir  Ir94  1  0.35899692  0.64100308  0.14100308  1
  Ir  Ir95  1  0.14100308  0.85899692  0.14100308  1
