# generated using pymatgen
data_TaHg2F6
_symmetry_space_group_name_H-M   'P 1'
_cell_length_a   10.80979200
_cell_length_b   10.81521000
_cell_length_c   7.99082395
_cell_angle_alpha   90.00000000
_cell_angle_beta   130.52837899
_cell_angle_gamma   90.00000000
_symmetry_Int_Tables_number   1
_chemical_formula_structural   TaHg2F6
_chemical_formula_sum   'Ta4 Hg8 F24'
_cell_volume   710.07718588
_cell_formula_units_Z   4
loop_
 _symmetry_equiv_pos_site_id
 _symmetry_equiv_pos_as_xyz
  1  'x, y, z'
loop_
 _atom_site_type_symbol
 _atom_site_label
 _atom_site_symmetry_multiplicity
 _atom_site_fract_x
 _atom_site_fract_y
 _atom_site_fract_z
 _atom_site_occupancy
  Ta  Ta0  1  0.50000000  0.12417600  0.75000000  1
  Ta  Ta1  1  0.50000000  0.87582400  0.25000000  1
  Ta  Ta2  1  0.00000000  0.62417600  0.75000000  1
  Ta  Ta3  1  0.00000000  0.37582400  0.25000000  1
  Hg  Hg4  1  0.00000000  0.00000000  0.50000000  1
  Hg  Hg5  1  0.00000000  0.00000000  0.00000000  1
  Hg  Hg6  1  0.25000000  0.25000000  0.00000000  1
  Hg  Hg7  1  0.25000000  0.75000000  0.50000000  1
  Hg  Hg8  1  0.50000000  0.50000000  0.50000000  1
  Hg  Hg9  1  0.50000000  0.50000000  0.00000000  1
  Hg  Hg10  1  0.75000000  0.75000000  0.00000000  1
  Hg  Hg11  1  0.75000000  0.25000000  0.50000000  1
  F  F12  1  0.32382800  0.12506000  0.75542100  1
  F  F13  1  0.50000000  0.30320000  0.75000000  1
  F  F14  1  0.34383600  0.12564400  0.43164000  1
  F  F15  1  0.34383600  0.87435600  0.93164000  1
  F  F16  1  0.67617200  0.12506000  0.74457900  1
  F  F17  1  0.50000000  0.94691600  0.75000000  1
  F  F18  1  0.50000000  0.05308400  0.25000000  1
  F  F19  1  0.32382800  0.87494000  0.25542100  1
  F  F20  1  0.65616400  0.12564400  0.06836000  1
  F  F21  1  0.65616400  0.87435600  0.56836000  1
  F  F22  1  0.50000000  0.69680000  0.25000000  1
  F  F23  1  0.67617200  0.87494000  0.24457900  1
  F  F24  1  0.82382800  0.62506000  0.75542100  1
  F  F25  1  0.00000000  0.80320000  0.75000000  1
  F  F26  1  0.84383600  0.62564400  0.43164000  1
  F  F27  1  0.84383600  0.37435600  0.93164000  1
  F  F28  1  0.17617200  0.62506000  0.74457900  1
  F  F29  1  0.00000000  0.44691600  0.75000000  1
  F  F30  1  0.00000000  0.55308400  0.25000000  1
  F  F31  1  0.82382800  0.37494000  0.25542100  1
  F  F32  1  0.15616400  0.62564400  0.06836000  1
  F  F33  1  0.15616400  0.37435600  0.56836000  1
  F  F34  1  0.00000000  0.19680000  0.25000000  1
  F  F35  1  0.17617200  0.37494000  0.24457900  1
