# generated using pymatgen
data_Tl2V8O21
_symmetry_space_group_name_H-M   'P 1'
_cell_length_a   15.54327200
_cell_length_b   3.62872400
_cell_length_c   15.28381676
_cell_angle_alpha   90.00000000
_cell_angle_beta   90.08483884
_cell_angle_gamma   90.00000000
_symmetry_Int_Tables_number   1
_chemical_formula_structural   Tl2V8O21
_chemical_formula_sum   'Tl4 V16 O42'
_cell_volume   862.04061906
_cell_formula_units_Z   2
loop_
 _symmetry_equiv_pos_site_id
 _symmetry_equiv_pos_as_xyz
  1  'x, y, z'
loop_
 _atom_site_type_symbol
 _atom_site_label
 _atom_site_symmetry_multiplicity
 _atom_site_fract_x
 _atom_site_fract_y
 _atom_site_fract_z
 _atom_site_occupancy
  Tl  Tl0  1  0.97396700  0.50000000  0.68750300  1
  Tl  Tl1  1  0.52603300  0.00000000  0.31249700  1
  Tl  Tl2  1  0.47396700  0.00000000  0.68750300  1
  Tl  Tl3  1  0.02603300  0.50000000  0.31249700  1
  V  V4  1  0.67130200  0.50000000  0.52510300  1
  V  V5  1  0.59266800  0.50000000  0.92811900  1
  V  V6  1  0.81148300  0.50000000  0.92894400  1
  V  V7  1  0.69205400  0.50000000  0.73365200  1
  V  V8  1  0.90733200  0.00000000  0.07188100  1
  V  V9  1  0.80794600  0.00000000  0.26634800  1
  V  V10  1  0.82869800  0.00000000  0.47489700  1
  V  V11  1  0.68851700  0.00000000  0.07105600  1
  V  V12  1  0.17130200  0.00000000  0.52510300  1
  V  V13  1  0.09266800  0.00000000  0.92811900  1
  V  V14  1  0.31148300  0.00000000  0.92894400  1
  V  V15  1  0.19205400  0.00000000  0.73365200  1
  V  V16  1  0.40733200  0.50000000  0.07188100  1
  V  V17  1  0.30794600  0.50000000  0.26634800  1
  V  V18  1  0.32869800  0.50000000  0.47489700  1
  V  V19  1  0.18851700  0.50000000  0.07105600  1
  O  O20  1  0.90512400  0.00000000  0.54858200  1
  O  O21  1  0.83357500  0.50000000  0.25679200  1
  O  O22  1  0.69412000  0.50000000  0.03338700  1
  O  O23  1  0.88718200  0.50000000  0.85626800  1
  O  O24  1  0.66642500  0.00000000  0.74320800  1
  O  O25  1  0.88164800  0.50000000  0.04529000  1
  O  O26  1  0.80588000  0.00000000  0.96661300  1
  O  O27  1  0.71199700  0.00000000  0.30890200  1
  O  O28  1  0.71052800  0.00000000  0.52901700  1
  O  O29  1  0.61949200  0.50000000  0.62825300  1
  O  O30  1  0.59487600  0.50000000  0.45141800  1
  O  O31  1  0.00000000  0.00000000  0.00000000  1
  O  O32  1  0.71461700  0.50000000  0.86179800  1
  O  O33  1  0.61835200  0.00000000  0.95471000  1
  O  O34  1  0.95004500  0.00000000  0.17049300  1
  O  O35  1  0.88050800  0.00000000  0.37174700  1
  O  O36  1  0.78947200  0.50000000  0.47098300  1
  O  O37  1  0.78538300  0.00000000  0.13820200  1
  O  O38  1  0.61281800  0.00000000  0.14373200  1
  O  O39  1  0.54995500  0.50000000  0.82950700  1
  O  O40  1  0.78800300  0.50000000  0.69109800  1
  O  O41  1  0.40512400  0.50000000  0.54858200  1
  O  O42  1  0.33357500  0.00000000  0.25679200  1
  O  O43  1  0.19412000  0.00000000  0.03338700  1
  O  O44  1  0.38718200  0.00000000  0.85626800  1
  O  O45  1  0.16642500  0.50000000  0.74320800  1
  O  O46  1  0.38164800  0.00000000  0.04529000  1
  O  O47  1  0.30588000  0.50000000  0.96661300  1
  O  O48  1  0.21199700  0.50000000  0.30890200  1
  O  O49  1  0.21052800  0.50000000  0.52901700  1
  O  O50  1  0.11949200  0.00000000  0.62825300  1
  O  O51  1  0.09487600  0.00000000  0.45141800  1
  O  O52  1  0.50000000  0.50000000  0.00000000  1
  O  O53  1  0.21461700  0.00000000  0.86179800  1
  O  O54  1  0.11835200  0.50000000  0.95471000  1
  O  O55  1  0.45004500  0.50000000  0.17049300  1
  O  O56  1  0.38050800  0.50000000  0.37174700  1
  O  O57  1  0.28947200  0.00000000  0.47098300  1
  O  O58  1  0.28538300  0.50000000  0.13820200  1
  O  O59  1  0.11281800  0.50000000  0.14373200  1
  O  O60  1  0.04995500  0.00000000  0.82950700  1
  O  O61  1  0.28800300  0.00000000  0.69109800  1
