# generated using pymatgen
data_Na4Cr13Se23
_symmetry_space_group_name_H-M   'P 1'
_cell_length_a   25.91506400
_cell_length_b   3.68443400
_cell_length_c   18.88093820
_cell_angle_alpha   90.00000000
_cell_angle_beta   94.57919515
_cell_angle_gamma   90.00000000
_symmetry_Int_Tables_number   1
_chemical_formula_structural   Na4Cr13Se23
_chemical_formula_sum   'Na8 Cr26 Se46'
_cell_volume   1797.04157132
_cell_formula_units_Z   2
loop_
 _symmetry_equiv_pos_site_id
 _symmetry_equiv_pos_as_xyz
  1  'x, y, z'
loop_
 _atom_site_type_symbol
 _atom_site_label
 _atom_site_symmetry_multiplicity
 _atom_site_fract_x
 _atom_site_fract_y
 _atom_site_fract_z
 _atom_site_occupancy
  Na  Na0  1  0.99912100  0.50000000  0.27743100  1
  Na  Na1  1  0.99917600  0.50000000  0.60532100  1
  Na  Na2  1  0.99880400  0.00000000  0.77750000  1
  Na  Na3  1  0.99656300  0.50000000  0.94893900  1
  Na  Na4  1  0.49912100  0.00000000  0.27743100  1
  Na  Na5  1  0.49917600  0.00000000  0.60532100  1
  Na  Na6  1  0.49880400  0.50000000  0.77750000  1
  Na  Na7  1  0.49656300  0.00000000  0.94893900  1
  Cr  Cr8  1  0.74526300  0.00000000  0.08648600  1
  Cr  Cr9  1  0.86611200  0.00000000  0.09946300  1
  Cr  Cr10  1  0.63782600  0.50000000  0.23286100  1
  Cr  Cr11  1  0.86075100  0.50000000  0.25738900  1
  Cr  Cr12  1  0.63267800  0.00000000  0.39968100  1
  Cr  Cr13  1  0.74970200  0.00000000  0.41604200  1
  Cr  Cr14  1  0.86700200  0.00000000  0.43476000  1
  Cr  Cr15  1  0.63864300  0.50000000  0.57387500  1
  Cr  Cr16  1  0.86053200  0.50000000  0.59491100  1
  Cr  Cr17  1  0.63898800  0.00000000  0.73909700  1
  Cr  Cr18  1  0.85945000  0.00000000  0.76182300  1
  Cr  Cr19  1  0.64385600  0.50000000  0.90148200  1
  Cr  Cr20  1  0.86057000  0.50000000  0.92583300  1
  Cr  Cr21  1  0.24526300  0.50000000  0.08648600  1
  Cr  Cr22  1  0.36611200  0.50000000  0.09946300  1
  Cr  Cr23  1  0.13782600  0.00000000  0.23286100  1
  Cr  Cr24  1  0.36075100  0.00000000  0.25738900  1
  Cr  Cr25  1  0.13267800  0.50000000  0.39968100  1
  Cr  Cr26  1  0.24970200  0.50000000  0.41604200  1
  Cr  Cr27  1  0.36700200  0.50000000  0.43476000  1
  Cr  Cr28  1  0.13864300  0.00000000  0.57387500  1
  Cr  Cr29  1  0.36053200  0.00000000  0.59491100  1
  Cr  Cr30  1  0.13898800  0.50000000  0.73909700  1
  Cr  Cr31  1  0.35945000  0.50000000  0.76182300  1
  Cr  Cr32  1  0.14385600  0.00000000  0.90148200  1
  Cr  Cr33  1  0.36057000  0.00000000  0.92583300  1
  Se  Se34  1  0.80543600  0.50000000  0.03460100  1
  Se  Se35  1  0.58454100  0.00000000  0.18034300  1
  Se  Se36  1  0.80607000  0.00000000  0.19933700  1
  Se  Se37  1  0.58310700  0.50000000  0.34029500  1
  Se  Se38  1  0.69358200  0.50000000  0.12899400  1
  Se  Se39  1  0.80595400  0.50000000  0.36792000  1
  Se  Se40  1  0.91774300  0.50000000  0.15711600  1
  Se  Se41  1  0.58486500  0.00000000  0.50913800  1
  Se  Se42  1  0.69204100  0.00000000  0.29978800  1
  Se  Se43  1  0.80652500  0.00000000  0.53419900  1
  Se  Se44  1  0.91338400  0.00000000  0.32221600  1
  Se  Se45  1  0.58235100  0.50000000  0.67670300  1
  Se  Se46  1  0.69361000  0.50000000  0.46597800  1
  Se  Se47  1  0.80783100  0.50000000  0.70069600  1
  Se  Se48  1  0.91801700  0.50000000  0.49032900  1
  Se  Se49  1  0.58162900  0.00000000  0.85287800  1
  Se  Se50  1  0.69147900  0.00000000  0.63516100  1
  Se  Se51  1  0.80768600  0.00000000  0.86719800  1
  Se  Se52  1  0.91585200  0.00000000  0.65546800  1
  Se  Se53  1  0.69239400  0.50000000  0.79744000  1
  Se  Se54  1  0.91685300  0.50000000  0.82376100  1
  Se  Se55  1  0.68919400  0.00000000  0.96553200  1
  Se  Se56  1  0.91627600  0.00000000  0.99106500  1
  Se  Se57  1  0.30543600  0.00000000  0.03460100  1
  Se  Se58  1  0.08454100  0.50000000  0.18034300  1
  Se  Se59  1  0.30607000  0.50000000  0.19933700  1
  Se  Se60  1  0.08310700  0.00000000  0.34029500  1
  Se  Se61  1  0.19358200  0.00000000  0.12899400  1
  Se  Se62  1  0.30595400  0.00000000  0.36792000  1
  Se  Se63  1  0.41774300  0.00000000  0.15711600  1
  Se  Se64  1  0.08486500  0.50000000  0.50913800  1
  Se  Se65  1  0.19204100  0.50000000  0.29978800  1
  Se  Se66  1  0.30652500  0.50000000  0.53419900  1
  Se  Se67  1  0.41338400  0.50000000  0.32221600  1
  Se  Se68  1  0.08235100  0.00000000  0.67670300  1
  Se  Se69  1  0.19361000  0.00000000  0.46597800  1
  Se  Se70  1  0.30783100  0.00000000  0.70069600  1
  Se  Se71  1  0.41801700  0.00000000  0.49032900  1
  Se  Se72  1  0.08162900  0.50000000  0.85287800  1
  Se  Se73  1  0.19147900  0.50000000  0.63516100  1
  Se  Se74  1  0.30768600  0.50000000  0.86719800  1
  Se  Se75  1  0.41585200  0.50000000  0.65546800  1
  Se  Se76  1  0.19239400  0.00000000  0.79744000  1
  Se  Se77  1  0.41685300  0.00000000  0.82376100  1
  Se  Se78  1  0.18919400  0.50000000  0.96553200  1
  Se  Se79  1  0.41627600  0.50000000  0.99106500  1
