# generated using pymatgen
data_Ni(RhO2)2
_symmetry_space_group_name_H-M   'P 1'
_cell_length_a   5.96789329
_cell_length_b   5.96789329
_cell_length_c   8.94540039
_cell_angle_alpha   90.00000000
_cell_angle_beta   90.00000000
_cell_angle_gamma   90.00000000
_symmetry_Int_Tables_number   1
_chemical_formula_structural   Ni(RhO2)2
_chemical_formula_sum   'Ni4 Rh8 O16'
_cell_volume   318.59714701
_cell_formula_units_Z   4
loop_
 _symmetry_equiv_pos_site_id
 _symmetry_equiv_pos_as_xyz
  1  'x, y, z'
loop_
 _atom_site_type_symbol
 _atom_site_label
 _atom_site_symmetry_multiplicity
 _atom_site_fract_x
 _atom_site_fract_y
 _atom_site_fract_z
 _atom_site_occupancy
  Ni  Ni0  1  0.00000000  0.00000000  0.00000000  1
  Ni  Ni1  1  0.50000000  0.00000000  0.75000000  1
  Ni  Ni2  1  0.50000000  0.50000000  0.50000000  1
  Ni  Ni3  1  0.00000000  0.50000000  0.25000000  1
  Rh  Rh4  1  0.25000000  0.50000000  0.87500000  1
  Rh  Rh5  1  0.50000000  0.25000000  0.12500000  1
  Rh  Rh6  1  0.75000000  0.50000000  0.87500000  1
  Rh  Rh7  1  0.00000000  0.25000000  0.62500000  1
  Rh  Rh8  1  0.75000000  0.00000000  0.37500000  1
  Rh  Rh9  1  0.00000000  0.75000000  0.62500000  1
  Rh  Rh10  1  0.25000000  0.00000000  0.37500000  1
  Rh  Rh11  1  0.50000000  0.75000000  0.12500000  1
  O  O12  1  0.50000000  0.74023350  0.89361450  1
  O  O13  1  0.74023350  0.50000000  0.10638550  1
  O  O14  1  0.25976650  0.50000000  0.10638550  1
  O  O15  1  0.00000000  0.25976650  0.85638550  1
  O  O16  1  0.00000000  0.74023350  0.85638550  1
  O  O17  1  0.75976650  0.50000000  0.64361450  1
  O  O18  1  0.50000000  0.25976650  0.89361450  1
  O  O19  1  0.24023350  0.50000000  0.64361450  1
  O  O20  1  0.00000000  0.24023350  0.39361450  1
  O  O21  1  0.24023350  0.00000000  0.60638550  1
  O  O22  1  0.75976650  0.00000000  0.60638550  1
  O  O23  1  0.50000000  0.75976650  0.35638550  1
  O  O24  1  0.50000000  0.24023350  0.35638550  1
  O  O25  1  0.25976650  0.00000000  0.14361450  1
  O  O26  1  0.00000000  0.75976650  0.39361450  1
  O  O27  1  0.74023350  0.00000000  0.14361450  1
