# generated using pymatgen
data_Sm2(MoO4)3
_symmetry_space_group_name_H-M   'P 1'
_cell_length_a   7.77892200
_cell_length_b   11.69532400
_cell_length_c   11.62593538
_cell_angle_alpha   90.00000000
_cell_angle_beta   109.42924732
_cell_angle_gamma   90.00000000
_symmetry_Int_Tables_number   1
_chemical_formula_structural   Sm2(MoO4)3
_chemical_formula_sum   'Sm8 Mo12 O48'
_cell_volume   997.46041821
_cell_formula_units_Z   4
loop_
 _symmetry_equiv_pos_site_id
 _symmetry_equiv_pos_as_xyz
  1  'x, y, z'
loop_
 _atom_site_type_symbol
 _atom_site_label
 _atom_site_symmetry_multiplicity
 _atom_site_fract_x
 _atom_site_fract_y
 _atom_site_fract_z
 _atom_site_occupancy
  Sm  Sm0  1  0.32448250  0.87215450  0.90847200  1
  Sm  Sm1  1  0.67551750  0.87215450  0.59152800  1
  Sm  Sm2  1  0.32448250  0.12784550  0.40847200  1
  Sm  Sm3  1  0.67551750  0.12784550  0.09152800  1
  Sm  Sm4  1  0.82448250  0.37215450  0.90847200  1
  Sm  Sm5  1  0.17551750  0.37215450  0.59152800  1
  Sm  Sm6  1  0.82448250  0.62784550  0.40847200  1
  Sm  Sm7  1  0.17551750  0.62784550  0.09152800  1
  Mo  Mo8  1  0.15715650  0.14322350  0.05267400  1
  Mo  Mo9  1  0.84284350  0.14322350  0.44732600  1
  Mo  Mo10  1  0.84284350  0.85677650  0.94732600  1
  Mo  Mo11  1  0.15715650  0.85677650  0.55267400  1
  Mo  Mo12  1  0.50000000  0.88068800  0.25000000  1
  Mo  Mo13  1  0.50000000  0.11931200  0.75000000  1
  Mo  Mo14  1  0.65715650  0.64322350  0.05267400  1
  Mo  Mo15  1  0.34284350  0.64322350  0.44732600  1
  Mo  Mo16  1  0.34284350  0.35677650  0.94732600  1
  Mo  Mo17  1  0.65715650  0.35677650  0.55267400  1
  Mo  Mo18  1  0.00000000  0.38068800  0.25000000  1
  Mo  Mo19  1  0.00000000  0.61931200  0.75000000  1
  O  O20  1  0.57296100  0.70144500  0.46037400  1
  O  O21  1  0.30374150  0.79296250  0.21780200  1
  O  O22  1  0.61274150  0.21290550  0.42121500  1
  O  O23  1  0.14363700  0.03389700  0.94566800  1
  O  O24  1  0.57296100  0.29855500  0.96037400  1
  O  O25  1  0.21884000  0.07378500  0.19906300  1
  O  O26  1  0.51009650  0.04127850  0.88905400  1
  O  O27  1  0.42703900  0.70144500  0.03962600  1
  O  O28  1  0.21884000  0.92621500  0.69906300  1
  O  O29  1  0.85636300  0.03389700  0.55433200  1
  O  O30  1  0.69625850  0.79296250  0.28219800  1
  O  O31  1  0.78116000  0.92621500  0.80093700  1
  O  O32  1  0.69625850  0.20703750  0.78219800  1
  O  O33  1  0.14363700  0.96610300  0.44566800  1
  O  O34  1  0.78116000  0.07378500  0.30093700  1
  O  O35  1  0.51009650  0.95872150  0.38905400  1
  O  O36  1  0.38725850  0.21290550  0.07878500  1
  O  O37  1  0.42703900  0.29855500  0.53962600  1
  O  O38  1  0.85636300  0.96610300  0.05433200  1
  O  O39  1  0.48990350  0.95872150  0.11094600  1
  O  O40  1  0.48990350  0.04127850  0.61094600  1
  O  O41  1  0.30374150  0.20703750  0.71780200  1
  O  O42  1  0.61274150  0.78709450  0.92121500  1
  O  O43  1  0.38725850  0.78709450  0.57878500  1
  O  O44  1  0.07296100  0.20144500  0.46037400  1
  O  O45  1  0.80374150  0.29296250  0.21780200  1
  O  O46  1  0.11274150  0.71290550  0.42121500  1
  O  O47  1  0.64363700  0.53389700  0.94566800  1
  O  O48  1  0.07296100  0.79855500  0.96037400  1
  O  O49  1  0.71884000  0.57378500  0.19906300  1
  O  O50  1  0.01009650  0.54127850  0.88905400  1
  O  O51  1  0.92703900  0.20144500  0.03962600  1
  O  O52  1  0.71884000  0.42621500  0.69906300  1
  O  O53  1  0.35636300  0.53389700  0.55433200  1
  O  O54  1  0.19625850  0.29296250  0.28219800  1
  O  O55  1  0.28116000  0.42621500  0.80093700  1
  O  O56  1  0.19625850  0.70703750  0.78219800  1
  O  O57  1  0.64363700  0.46610300  0.44566800  1
  O  O58  1  0.28116000  0.57378500  0.30093700  1
  O  O59  1  0.01009650  0.45872150  0.38905400  1
  O  O60  1  0.88725850  0.71290550  0.07878500  1
  O  O61  1  0.92703900  0.79855500  0.53962600  1
  O  O62  1  0.35636300  0.46610300  0.05433200  1
  O  O63  1  0.98990350  0.45872150  0.11094600  1
  O  O64  1  0.98990350  0.54127850  0.61094600  1
  O  O65  1  0.80374150  0.70703750  0.71780200  1
  O  O66  1  0.11274150  0.28709450  0.92121500  1
  O  O67  1  0.88725850  0.28709450  0.57878500  1
