# generated using pymatgen
data_Ti7Ni3N10
_symmetry_space_group_name_H-M   'P 1'
_cell_length_a   5.02841200
_cell_length_b   5.34512400
_cell_length_c   14.23386200
_cell_angle_alpha   90.00000000
_cell_angle_beta   90.00000000
_cell_angle_gamma   90.00000000
_symmetry_Int_Tables_number   1
_chemical_formula_structural   Ti7Ni3N10
_chemical_formula_sum   'Ti14 Ni6 N20'
_cell_volume   382.57042184
_cell_formula_units_Z   2
loop_
 _symmetry_equiv_pos_site_id
 _symmetry_equiv_pos_as_xyz
  1  'x, y, z'
loop_
 _atom_site_type_symbol
 _atom_site_label
 _atom_site_symmetry_multiplicity
 _atom_site_fract_x
 _atom_site_fract_y
 _atom_site_fract_z
 _atom_site_occupancy
  Ti  Ti0  1  0.49472000  0.00000000  0.09939900  1
  Ti  Ti1  1  0.99872900  0.00000000  0.20051300  1
  Ti  Ti2  1  0.01223700  0.00000000  0.39959900  1
  Ti  Ti3  1  0.00435800  0.50000000  0.00000000  1
  Ti  Ti4  1  0.51223700  0.50000000  0.10040100  1
  Ti  Ti5  1  0.49872900  0.50000000  0.29948700  1
  Ti  Ti6  1  0.99472000  0.50000000  0.40060100  1
  Ti  Ti7  1  0.99472000  0.50000000  0.59939900  1
  Ti  Ti8  1  0.49872900  0.50000000  0.70051300  1
  Ti  Ti9  1  0.51223700  0.50000000  0.89959900  1
  Ti  Ti10  1  0.50435800  0.00000000  0.50000000  1
  Ti  Ti11  1  0.01223700  0.00000000  0.60040100  1
  Ti  Ti12  1  0.99872900  0.00000000  0.79948700  1
  Ti  Ti13  1  0.49472000  0.00000000  0.90060100  1
  Ni  Ni14  1  0.93376800  0.00000000  0.00000000  1
  Ni  Ni15  1  0.48676200  0.00000000  0.29552600  1
  Ni  Ni16  1  0.98676200  0.50000000  0.20447400  1
  Ni  Ni17  1  0.43376800  0.50000000  0.50000000  1
  Ni  Ni18  1  0.98676200  0.50000000  0.79552600  1
  Ni  Ni19  1  0.48676200  0.00000000  0.70447400  1
  N  N20  1  0.84158000  0.25355000  0.30042000  1
  N  N21  1  0.33290600  0.25506700  0.40069000  1
  N  N22  1  0.35618200  0.73813200  0.00000000  1
  N  N23  1  0.83290600  0.75506700  0.09931000  1
  N  N24  1  0.34158000  0.75355000  0.19958000  1
  N  N25  1  0.84158000  0.74645000  0.30042000  1
  N  N26  1  0.33290600  0.74493300  0.40069000  1
  N  N27  1  0.35618200  0.26186800  0.00000000  1
  N  N28  1  0.83290600  0.24493300  0.09931000  1
  N  N29  1  0.34158000  0.24645000  0.19958000  1
  N  N30  1  0.34158000  0.75355000  0.80042000  1
  N  N31  1  0.83290600  0.75506700  0.90069000  1
  N  N32  1  0.85618200  0.23813200  0.50000000  1
  N  N33  1  0.33290600  0.25506700  0.59931000  1
  N  N34  1  0.84158000  0.25355000  0.69958000  1
  N  N35  1  0.34158000  0.24645000  0.80042000  1
  N  N36  1  0.83290600  0.24493300  0.90069000  1
  N  N37  1  0.85618200  0.76186800  0.50000000  1
  N  N38  1  0.33290600  0.74493300  0.59931000  1
  N  N39  1  0.84158000  0.74645000  0.69958000  1
