# generated using pymatgen
data_TlOF
_symmetry_space_group_name_H-M   'P 1'
_cell_length_a   11.15128400
_cell_length_b   15.05497800
_cell_length_c   9.80786761
_cell_angle_alpha   90.00000000
_cell_angle_beta   123.91666684
_cell_angle_gamma   90.00000000
_symmetry_Int_Tables_number   1
_chemical_formula_structural   TlOF
_chemical_formula_sum   'Tl32 O32 F32'
_cell_volume   1366.40423200
_cell_formula_units_Z   32
loop_
 _symmetry_equiv_pos_site_id
 _symmetry_equiv_pos_as_xyz
  1  'x, y, z'
loop_
 _atom_site_type_symbol
 _atom_site_label
 _atom_site_symmetry_multiplicity
 _atom_site_fract_x
 _atom_site_fract_y
 _atom_site_fract_z
 _atom_site_occupancy
  Tl  Tl0  1  0.16530900  0.87108100  0.78825000  1
  Tl  Tl1  1  0.50517300  0.24699100  0.97896300  1
  Tl  Tl2  1  0.26778800  0.00000000  0.52692100  1
  Tl  Tl3  1  0.16530900  0.12891900  0.78825000  1
  Tl  Tl4  1  0.03354500  0.00000000  0.00366700  1
  Tl  Tl5  1  0.61035250  0.13115450  0.73089200  1
  Tl  Tl6  1  0.61035250  0.86884550  0.73089200  1
  Tl  Tl7  1  0.85037600  0.12033800  0.22936700  1
  Tl  Tl8  1  0.71947500  0.00000000  0.48300800  1
  Tl  Tl9  1  0.26673100  0.74312000  0.52937900  1
  Tl  Tl10  1  0.26673100  0.25688000  0.52937900  1
  Tl  Tl11  1  0.37179300  0.13279700  0.26568400  1
  Tl  Tl12  1  0.37179300  0.86720300  0.26568400  1
  Tl  Tl13  1  0.85037600  0.87966200  0.22936700  1
  Tl  Tl14  1  0.49174200  0.00000000  0.96187600  1
  Tl  Tl15  1  0.50517300  0.75300900  0.97896300  1
  Tl  Tl16  1  0.66530900  0.37108100  0.78825000  1
  Tl  Tl17  1  0.00517300  0.74699100  0.97896300  1
  Tl  Tl18  1  0.76778800  0.50000000  0.52692100  1
  Tl  Tl19  1  0.66530900  0.62891900  0.78825000  1
  Tl  Tl20  1  0.53354500  0.50000000  0.00366700  1
  Tl  Tl21  1  0.11035250  0.63115450  0.73089200  1
  Tl  Tl22  1  0.11035250  0.36884550  0.73089200  1
  Tl  Tl23  1  0.35037600  0.62033800  0.22936700  1
  Tl  Tl24  1  0.21947500  0.50000000  0.48300800  1
  Tl  Tl25  1  0.76673100  0.24312000  0.52937900  1
  Tl  Tl26  1  0.76673100  0.75688000  0.52937900  1
  Tl  Tl27  1  0.87179300  0.63279700  0.26568400  1
  Tl  Tl28  1  0.87179300  0.36720300  0.26568400  1
  Tl  Tl29  1  0.35037600  0.37966200  0.22936700  1
  Tl  Tl30  1  0.99174200  0.50000000  0.96187600  1
  Tl  Tl31  1  0.00517300  0.25300900  0.97896300  1
  O  O32  1  0.40145550  0.12307050  0.00652200  1
  O  O33  1  0.23826400  0.00000000  0.73222400  1
  O  O34  1  0.64644000  0.12823000  0.99043100  1
  O  O35  1  0.64644000  0.87177000  0.99043100  1
  O  O36  1  0.15371750  0.12839250  0.03335300  1
  O  O37  1  0.50402800  0.26965200  0.74021500  1
  O  O38  1  0.50402800  0.73034800  0.74021500  1
  O  O39  1  0.51012600  0.00000000  0.73698000  1
  O  O40  1  0.26498100  0.73785200  0.76525300  1
  O  O41  1  0.26498100  0.26214800  0.76525300  1
  O  O42  1  0.36568950  0.13396850  0.49649000  1
  O  O43  1  0.36568950  0.86603150  0.49649000  1
  O  O44  1  0.61761600  0.12854000  0.47691300  1
  O  O45  1  0.61761600  0.87146000  0.47691300  1
  O  O46  1  0.40145550  0.87692950  0.00652200  1
  O  O47  1  0.15371750  0.87160750  0.03335300  1
  O  O48  1  0.90145550  0.62307050  0.00652200  1
  O  O49  1  0.73826400  0.50000000  0.73222400  1
  O  O50  1  0.14644000  0.62823000  0.99043100  1
  O  O51  1  0.14644000  0.37177000  0.99043100  1
  O  O52  1  0.65371750  0.62839250  0.03335300  1
  O  O53  1  0.00402800  0.76965200  0.74021500  1
  O  O54  1  0.00402800  0.23034800  0.74021500  1
  O  O55  1  0.01012600  0.50000000  0.73698000  1
  O  O56  1  0.76498100  0.23785200  0.76525300  1
  O  O57  1  0.76498100  0.76214800  0.76525300  1
  O  O58  1  0.86568950  0.63396850  0.49649000  1
  O  O59  1  0.86568950  0.36603150  0.49649000  1
  O  O60  1  0.11761600  0.62854000  0.47691300  1
  O  O61  1  0.11761600  0.37146000  0.47691300  1
  O  O62  1  0.90145550  0.37692950  0.00652200  1
  O  O63  1  0.65371750  0.37160750  0.03335300  1
  F  F64  1  0.40430000  0.60478800  0.02234600  1
  F  F65  1  0.40430000  0.39521200  0.02234600  1
  F  F66  1  0.76281000  0.00000000  0.74479400  1
  F  F67  1  0.72602200  0.23417900  0.26335600  1
  F  F68  1  0.22663400  0.00000000  0.27518200  1
  F  F69  1  0.00913000  0.00000000  0.76003900  1
  F  F70  1  0.60972800  0.36229700  0.48869600  1
  F  F71  1  0.60972800  0.63770300  0.48869600  1
  F  F72  1  0.87166150  0.10159350  0.47693100  1
  F  F73  1  0.87166150  0.89840650  0.47693100  1
  F  F74  1  0.45973800  0.00000000  0.24827100  1
  F  F75  1  0.46057400  0.25884700  0.22118200  1
  F  F76  1  0.46057400  0.74115300  0.22118200  1
  F  F77  1  0.72602200  0.76582100  0.26335600  1
  F  F78  1  0.70170400  0.00000000  0.22720100  1
  F  F79  1  0.98714200  0.00000000  0.29139000  1
  F  F80  1  0.90430000  0.10478800  0.02234600  1
  F  F81  1  0.90430000  0.89521200  0.02234600  1
  F  F82  1  0.26281000  0.50000000  0.74479400  1
  F  F83  1  0.22602200  0.73417900  0.26335600  1
  F  F84  1  0.72663400  0.50000000  0.27518200  1
  F  F85  1  0.50913000  0.50000000  0.76003900  1
  F  F86  1  0.10972800  0.86229700  0.48869600  1
  F  F87  1  0.10972800  0.13770300  0.48869600  1
  F  F88  1  0.37166150  0.60159350  0.47693100  1
  F  F89  1  0.37166150  0.39840650  0.47693100  1
  F  F90  1  0.95973800  0.50000000  0.24827100  1
  F  F91  1  0.96057400  0.75884700  0.22118200  1
  F  F92  1  0.96057400  0.24115300  0.22118200  1
  F  F93  1  0.22602200  0.26582100  0.26335600  1
  F  F94  1  0.20170400  0.50000000  0.22720100  1
  F  F95  1  0.48714200  0.50000000  0.29139000  1
