# generated using pymatgen
data_Yb8In3
_symmetry_space_group_name_H-M   'P 1'
_cell_length_a   9.58692414
_cell_length_b   9.58692414
_cell_length_c   53.82501506
_cell_angle_alpha   90.00000000
_cell_angle_beta   90.00000000
_cell_angle_gamma   120.00000000
_symmetry_Int_Tables_number   1
_chemical_formula_structural   Yb8In3
_chemical_formula_sum   'Yb96 In36'
_cell_volume   4284.23587326
_cell_formula_units_Z   12
loop_
 _symmetry_equiv_pos_site_id
 _symmetry_equiv_pos_as_xyz
  1  'x, y, z'
loop_
 _atom_site_type_symbol
 _atom_site_label
 _atom_site_symmetry_multiplicity
 _atom_site_fract_x
 _atom_site_fract_y
 _atom_site_fract_z
 _atom_site_occupancy
  Yb  Yb0  1  0.08449200  0.66287600  0.28129500  1
  Yb  Yb1  1  0.57838400  0.91550800  0.28129500  1
  Yb  Yb2  1  0.33712400  0.42161600  0.28129500  1
  Yb  Yb3  1  0.00379067  0.24884133  0.11462833  1
  Yb  Yb4  1  0.24505067  0.99620933  0.11462833  1
  Yb  Yb5  1  0.75115867  0.75494933  0.11462833  1
  Yb  Yb6  1  0.58217467  0.67045733  0.05203833  1
  Yb  Yb7  1  0.08828267  0.41782533  0.05203833  1
  Yb  Yb8  1  0.32954267  0.91171733  0.05203833  1
  Yb  Yb9  1  0.66287600  0.08449200  0.21870500  1
  Yb  Yb10  1  0.42161600  0.33712400  0.21870500  1
  Yb  Yb11  1  0.91550800  0.57838400  0.21870500  1
  Yb  Yb12  1  0.34056100  0.30617300  0.01783600  1
  Yb  Yb13  1  0.96561200  0.65943900  0.01783600  1
  Yb  Yb14  1  0.69382700  0.03438800  0.01783600  1
  Yb  Yb15  1  0.02716033  0.32610567  0.18450267  1
  Yb  Yb16  1  0.29894533  0.97283967  0.18450267  1
  Yb  Yb17  1  0.67389433  0.70105467  0.18450267  1
  Yb  Yb18  1  0.32610567  0.02716033  0.31549733  1
  Yb  Yb19  1  0.70105467  0.67389433  0.31549733  1
  Yb  Yb20  1  0.97283967  0.29894533  0.31549733  1
  Yb  Yb21  1  0.63950633  0.00722767  0.14883067  1
  Yb  Yb22  1  0.36772133  0.36049367  0.14883067  1
  Yb  Yb23  1  0.99277233  0.63227867  0.14883067  1
  Yb  Yb24  1  0.33333333  0.66666667  0.22766267  1
  Yb  Yb25  1  0.00000000  0.00000000  0.06099600  1
  Yb  Yb26  1  0.33333333  0.66666667  0.10567067  1
  Yb  Yb27  1  0.66666667  0.33333333  0.27233733  1
  Yb  Yb28  1  0.66666667  0.33333333  0.05352033  1
  Yb  Yb29  1  0.00000000  0.00000000  0.22018700  1
  Yb  Yb30  1  0.00000000  0.00000000  0.27981300  1
  Yb  Yb31  1  0.66666667  0.33333333  0.11314633  1
  Yb  Yb32  1  0.75115867  0.99620933  0.61462833  1
  Yb  Yb33  1  0.24505067  0.24884133  0.61462833  1
  Yb  Yb34  1  0.00379067  0.75494933  0.61462833  1
  Yb  Yb35  1  0.67045733  0.58217467  0.44796167  1
  Yb  Yb36  1  0.91171733  0.32954267  0.44796167  1
  Yb  Yb37  1  0.41782533  0.08828267  0.44796167  1
  Yb  Yb38  1  0.24884133  0.00379067  0.38537167  1
  Yb  Yb39  1  0.75494933  0.75115867  0.38537167  1
  Yb  Yb40  1  0.99620933  0.24505067  0.38537167  1
  Yb  Yb41  1  0.32954267  0.41782533  0.55203833  1
  Yb  Yb42  1  0.08828267  0.67045733  0.55203833  1
  Yb  Yb43  1  0.58217467  0.91171733  0.55203833  1
  Yb  Yb44  1  0.00722767  0.63950633  0.35116933  1
  Yb  Yb45  1  0.63227867  0.99277233  0.35116933  1
  Yb  Yb46  1  0.36049367  0.36772133  0.35116933  1
  Yb  Yb47  1  0.69382700  0.65943900  0.51783600  1
  Yb  Yb48  1  0.96561200  0.30617300  0.51783600  1
  Yb  Yb49  1  0.34056100  0.03438800  0.51783600  1
  Yb  Yb50  1  0.99277233  0.36049367  0.64883067  1
  Yb  Yb51  1  0.36772133  0.00722767  0.64883067  1
  Yb  Yb52  1  0.63950633  0.63227867  0.64883067  1
  Yb  Yb53  1  0.30617300  0.34056100  0.48216400  1
  Yb  Yb54  1  0.03438800  0.69382700  0.48216400  1
  Yb  Yb55  1  0.65943900  0.96561200  0.48216400  1
  Yb  Yb56  1  0.00000000  0.00000000  0.56099600  1
  Yb  Yb57  1  0.66666667  0.33333333  0.39432933  1
  Yb  Yb58  1  0.00000000  0.00000000  0.43900400  1
  Yb  Yb59  1  0.33333333  0.66666667  0.60567067  1
  Yb  Yb60  1  0.33333333  0.66666667  0.38685367  1
  Yb  Yb61  1  0.66666667  0.33333333  0.55352033  1
  Yb  Yb62  1  0.66666667  0.33333333  0.61314633  1
  Yb  Yb63  1  0.33333333  0.66666667  0.44647967  1
  Yb  Yb64  1  0.41782533  0.32954267  0.94796167  1
  Yb  Yb65  1  0.91171733  0.58217467  0.94796167  1
  Yb  Yb66  1  0.67045733  0.08828267  0.94796167  1
  Yb  Yb67  1  0.33712400  0.91550800  0.78129500  1
  Yb  Yb68  1  0.57838400  0.66287600  0.78129500  1
  Yb  Yb69  1  0.08449200  0.42161600  0.78129500  1
  Yb  Yb70  1  0.91550800  0.33712400  0.71870500  1
  Yb  Yb71  1  0.42161600  0.08449200  0.71870500  1
  Yb  Yb72  1  0.66287600  0.57838400  0.71870500  1
  Yb  Yb73  1  0.99620933  0.75115867  0.88537167  1
  Yb  Yb74  1  0.75494933  0.00379067  0.88537167  1
  Yb  Yb75  1  0.24884133  0.24505067  0.88537167  1
  Yb  Yb76  1  0.67389433  0.97283967  0.68450267  1
  Yb  Yb77  1  0.29894533  0.32610567  0.68450267  1
  Yb  Yb78  1  0.02716033  0.70105467  0.68450267  1
  Yb  Yb79  1  0.36049367  0.99277233  0.85116933  1
  Yb  Yb80  1  0.63227867  0.63950633  0.85116933  1
  Yb  Yb81  1  0.00722767  0.36772133  0.85116933  1
  Yb  Yb82  1  0.65943900  0.69382700  0.98216400  1
  Yb  Yb83  1  0.03438800  0.34056100  0.98216400  1
  Yb  Yb84  1  0.30617300  0.96561200  0.98216400  1
  Yb  Yb85  1  0.97283967  0.67389433  0.81549733  1
  Yb  Yb86  1  0.70105467  0.02716033  0.81549733  1
  Yb  Yb87  1  0.32610567  0.29894533  0.81549733  1
  Yb  Yb88  1  0.66666667  0.33333333  0.89432933  1
  Yb  Yb89  1  0.33333333  0.66666667  0.72766267  1
  Yb  Yb90  1  0.66666667  0.33333333  0.77233733  1
  Yb  Yb91  1  0.00000000  0.00000000  0.93900400  1
  Yb  Yb92  1  0.00000000  0.00000000  0.72018700  1
  Yb  Yb93  1  0.33333333  0.66666667  0.88685367  1
  Yb  Yb94  1  0.33333333  0.66666667  0.94647967  1
  Yb  Yb95  1  0.00000000  1.00000000  0.77981300  1
  In  In96  1  0.66666667  0.01466633  0.08333333  1
  In  In97  1  0.34799967  0.33333333  0.08333333  1
  In  In98  1  0.98533367  0.65200033  0.08333333  1
  In  In99  1  0.31866700  0.00000000  0.25000000  1
  In  In100  1  0.68133300  0.68133300  0.25000000  1
  In  In101  1  0.00000000  0.31866700  0.25000000  1
  In  In102  1  0.33333333  0.66666667  0.32679967  1
  In  In103  1  0.00000000  0.00000000  0.16013300  1
  In  In104  1  0.33333333  0.66666667  0.00653367  1
  In  In105  1  0.66666667  0.33333333  0.17320033  1
  In  In106  1  0.33333333  0.66666667  0.16666667  1
  In  In107  1  0.00000000  0.00000000  0.00000000  1
  In  In108  1  0.33333333  0.34799967  0.41666667  1
  In  In109  1  0.01466633  0.66666667  0.41666667  1
  In  In110  1  0.65200033  0.98533367  0.41666667  1
  In  In111  1  0.98533367  0.33333333  0.58333333  1
  In  In112  1  0.34799967  0.01466633  0.58333333  1
  In  In113  1  0.66666667  0.65200033  0.58333333  1
  In  In114  1  0.00000000  0.00000000  0.66013300  1
  In  In115  1  0.66666667  0.33333333  0.49346633  1
  In  In116  1  0.00000000  0.00000000  0.33986700  1
  In  In117  1  0.33333333  0.66666667  0.50653367  1
  In  In118  1  1.00000000  0.00000000  0.50000000  1
  In  In119  1  0.66666667  0.33333333  0.33333333  1
  In  In120  1  0.00000000  0.68133300  0.75000000  1
  In  In121  1  0.68133300  0.00000000  0.75000000  1
  In  In122  1  0.31866700  0.31866700  0.75000000  1
  In  In123  1  0.65200033  0.66666667  0.91666667  1
  In  In124  1  0.01466633  0.34799967  0.91666667  1
  In  In125  1  0.33333333  0.98533367  0.91666667  1
  In  In126  1  0.66666667  0.33333333  0.99346633  1
  In  In127  1  0.33333333  0.66666667  0.82679967  1
  In  In128  1  0.66666667  0.33333333  0.67320033  1
  In  In129  1  0.00000000  0.00000000  0.83986700  1
  In  In130  1  0.66666667  0.33333333  0.83333333  1
  In  In131  1  0.33333333  0.66666667  0.66666667  1
