# generated using pymatgen
data_NdNi4B
_symmetry_space_group_name_H-M   'P 1'
_cell_length_a   5.04275400
_cell_length_b   6.94621800
_cell_length_c   26.19689000
_cell_angle_alpha   90.00000000
_cell_angle_beta   90.00000000
_cell_angle_gamma   90.00000000
_symmetry_Int_Tables_number   1
_chemical_formula_structural   NdNi4B
_chemical_formula_sum   'Nd12 Ni48 B12'
_cell_volume   917.62646014
_cell_formula_units_Z   12
loop_
 _symmetry_equiv_pos_site_id
 _symmetry_equiv_pos_as_xyz
  1  'x, y, z'
loop_
 _atom_site_type_symbol
 _atom_site_label
 _atom_site_symmetry_multiplicity
 _atom_site_fract_x
 _atom_site_fract_y
 _atom_site_fract_z
 _atom_site_occupancy
  Nd  Nd0  1  0.50000000  0.75000000  0.83069100  1
  Nd  Nd1  1  0.00000000  0.75000000  0.99043400  1
  Nd  Nd2  1  0.00000000  0.25000000  0.66447800  1
  Nd  Nd3  1  0.50000000  0.75000000  0.50956600  1
  Nd  Nd4  1  0.00000000  0.75000000  0.66930900  1
  Nd  Nd5  1  0.50000000  0.25000000  0.83552200  1
  Nd  Nd6  1  0.00000000  0.25000000  0.33069100  1
  Nd  Nd7  1  0.50000000  0.25000000  0.49043400  1
  Nd  Nd8  1  0.50000000  0.75000000  0.16447800  1
  Nd  Nd9  1  0.00000000  0.25000000  0.00956600  1
  Nd  Nd10  1  0.50000000  0.25000000  0.16930900  1
  Nd  Nd11  1  0.00000000  0.75000000  0.33552200  1
  Ni  Ni12  1  0.24864500  0.05363600  0.58061400  1
  Ni  Ni13  1  0.00000000  0.45527300  0.83278300  1
  Ni  Ni14  1  0.00000000  0.75000000  0.56348100  1
  Ni  Ni15  1  0.75000000  0.45650900  0.75000000  1
  Ni  Ni16  1  0.00000000  0.04472700  0.83278300  1
  Ni  Ni17  1  0.25000000  0.04349100  0.75000000  1
  Ni  Ni18  1  0.74864500  0.05363600  0.91938600  1
  Ni  Ni19  1  0.50000000  0.75000000  0.61288400  1
  Ni  Ni20  1  0.00000000  0.75000000  0.77737300  1
  Ni  Ni21  1  0.50000000  0.45527300  0.66721700  1
  Ni  Ni22  1  0.75135500  0.44636400  0.58061400  1
  Ni  Ni23  1  0.00000000  0.75000000  0.88711600  1
  Ni  Ni24  1  0.50000000  0.50000000  0.00000000  1
  Ni  Ni25  1  0.50000000  0.04472700  0.66721700  1
  Ni  Ni26  1  0.25135500  0.05363600  0.91938600  1
  Ni  Ni27  1  0.25135500  0.44636400  0.91938600  1
  Ni  Ni28  1  0.24864500  0.44636400  0.58061400  1
  Ni  Ni29  1  0.75135500  0.05363600  0.58061400  1
  Ni  Ni30  1  0.74864500  0.44636400  0.91938600  1
  Ni  Ni31  1  0.50000000  0.75000000  0.93651900  1
  Ni  Ni32  1  0.25000000  0.45650900  0.75000000  1
  Ni  Ni33  1  0.75000000  0.04349100  0.75000000  1
  Ni  Ni34  1  0.50000000  0.00000000  0.00000000  1
  Ni  Ni35  1  0.50000000  0.75000000  0.72262700  1
  Ni  Ni36  1  0.74864500  0.55363600  0.08061400  1
  Ni  Ni37  1  0.50000000  0.95527300  0.33278300  1
  Ni  Ni38  1  0.50000000  0.25000000  0.06348100  1
  Ni  Ni39  1  0.25000000  0.95650900  0.25000000  1
  Ni  Ni40  1  0.50000000  0.54472700  0.33278300  1
  Ni  Ni41  1  0.75000000  0.54349100  0.25000000  1
  Ni  Ni42  1  0.24864500  0.55363600  0.41938600  1
  Ni  Ni43  1  0.00000000  0.25000000  0.11288400  1
  Ni  Ni44  1  0.50000000  0.25000000  0.27737300  1
  Ni  Ni45  1  0.00000000  0.95527300  0.16721700  1
  Ni  Ni46  1  0.25135500  0.94636400  0.08061400  1
  Ni  Ni47  1  0.50000000  0.25000000  0.38711600  1
  Ni  Ni48  1  0.00000000  0.00000000  0.50000000  1
  Ni  Ni49  1  0.00000000  0.54472700  0.16721700  1
  Ni  Ni50  1  0.75135500  0.55363600  0.41938600  1
  Ni  Ni51  1  0.75135500  0.94636400  0.41938600  1
  Ni  Ni52  1  0.74864500  0.94636400  0.08061400  1
  Ni  Ni53  1  0.25135500  0.55363600  0.08061400  1
  Ni  Ni54  1  0.24864500  0.94636400  0.41938600  1
  Ni  Ni55  1  0.00000000  0.25000000  0.43651900  1
  Ni  Ni56  1  0.75000000  0.95650900  0.25000000  1
  Ni  Ni57  1  0.25000000  0.54349100  0.25000000  1
  Ni  Ni58  1  0.00000000  0.50000000  0.50000000  1
  Ni  Ni59  1  0.00000000  0.25000000  0.22262700  1
  B  B60  1  0.00000000  0.25000000  0.54574900  1
  B  B61  1  0.50000000  0.25000000  0.60911500  1
  B  B62  1  0.00000000  0.25000000  0.89088500  1
  B  B63  1  0.50000000  0.25000000  0.95425100  1
  B  B64  1  0.50000000  0.25000000  0.72138600  1
  B  B65  1  0.00000000  0.25000000  0.77861400  1
  B  B66  1  0.50000000  0.75000000  0.04574900  1
  B  B67  1  0.00000000  0.75000000  0.10911500  1
  B  B68  1  0.50000000  0.75000000  0.39088500  1
  B  B69  1  0.00000000  0.75000000  0.45425100  1
  B  B70  1  0.00000000  0.75000000  0.22138600  1
  B  B71  1  0.50000000  0.75000000  0.27861400  1
