# generated using pymatgen
data_Cu2BiAsO6
_symmetry_space_group_name_H-M   'P 1'
_cell_length_a   5.29358300
_cell_length_b   7.75145707
_cell_length_c   12.48774511
_cell_angle_alpha   90.00000000
_cell_angle_beta   90.00000000
_cell_angle_gamma   90.00000000
_symmetry_Int_Tables_number   1
_chemical_formula_structural   Cu2BiAsO6
_chemical_formula_sum   'Cu8 Bi4 As4 O24'
_cell_volume   512.40941252
_cell_formula_units_Z   4
loop_
 _symmetry_equiv_pos_site_id
 _symmetry_equiv_pos_as_xyz
  1  'x, y, z'
loop_
 _atom_site_type_symbol
 _atom_site_label
 _atom_site_symmetry_multiplicity
 _atom_site_fract_x
 _atom_site_fract_y
 _atom_site_fract_z
 _atom_site_occupancy
  Cu  Cu0  1  0.75000000  0.71839950  0.87232600  1
  Cu  Cu1  1  0.75000000  0.04496650  0.19407000  1
  Cu  Cu2  1  0.25000000  0.28160050  0.12767400  1
  Cu  Cu3  1  0.75000000  0.78160050  0.37232600  1
  Cu  Cu4  1  0.25000000  0.54496650  0.30593000  1
  Cu  Cu5  1  0.25000000  0.21839950  0.62767400  1
  Cu  Cu6  1  0.25000000  0.95503350  0.80593000  1
  Cu  Cu7  1  0.75000000  0.45503350  0.69407000  1
  Bi  Bi8  1  0.75000000  0.14990350  0.94258800  1
  Bi  Bi9  1  0.25000000  0.64990350  0.55741200  1
  Bi  Bi10  1  0.75000000  0.35009650  0.44258800  1
  Bi  Bi11  1  0.25000000  0.85009650  0.05741200  1
  As  As12  1  0.25000000  0.02459850  0.37271100  1
  As  As13  1  0.75000000  0.97540150  0.62728900  1
  As  As14  1  0.25000000  0.47540150  0.87271100  1
  As  As15  1  0.75000000  0.52459850  0.12728900  1
  O  O16  1  0.25000000  0.25582050  0.87909300  1
  O  O17  1  0.98904200  0.55595250  0.79977600  1
  O  O18  1  0.48904200  0.05595250  0.70022400  1
  O  O19  1  0.49885700  0.88929450  0.91083800  1
  O  O20  1  0.50114300  0.11070550  0.08916200  1
  O  O21  1  0.49885700  0.61070550  0.41083800  1
  O  O22  1  0.25000000  0.24417950  0.37909300  1
  O  O23  1  0.75000000  0.75582050  0.62090700  1
  O  O24  1  0.51095800  0.55595250  0.79977600  1
  O  O25  1  0.75000000  0.06510650  0.50282600  1
  O  O26  1  0.01095800  0.05595250  0.70022400  1
  O  O27  1  0.51095800  0.94404750  0.29977600  1
  O  O28  1  0.98904200  0.94404750  0.29977600  1
  O  O29  1  0.00114300  0.88929450  0.91083800  1
  O  O30  1  0.99885700  0.11070550  0.08916200  1
  O  O31  1  0.48904200  0.44404750  0.20022400  1
  O  O32  1  0.75000000  0.74417950  0.12090700  1
  O  O33  1  0.75000000  0.43489350  0.00282600  1
  O  O34  1  0.50114300  0.38929450  0.58916200  1
  O  O35  1  0.99885700  0.38929450  0.58916200  1
  O  O36  1  0.01095800  0.44404750  0.20022400  1
  O  O37  1  0.25000000  0.93489350  0.49717400  1
  O  O38  1  0.25000000  0.56510650  0.99717400  1
  O  O39  1  0.00114300  0.61070550  0.41083800  1
