# generated using pymatgen
data_SiH2O
_symmetry_space_group_name_H-M   'P 1'
_cell_length_a   4.92922000
_cell_length_b   3.65675600
_cell_length_c   5.01323326
_cell_angle_alpha   90.00000000
_cell_angle_beta   93.29849009
_cell_angle_gamma   90.00000000
_symmetry_Int_Tables_number   1
_chemical_formula_structural   SiH2O
_chemical_formula_sum   'Si2 H4 O2'
_cell_volume   90.21360103
_cell_formula_units_Z   2
loop_
 _symmetry_equiv_pos_site_id
 _symmetry_equiv_pos_as_xyz
  1  'x, y, z'
loop_
 _atom_site_type_symbol
 _atom_site_label
 _atom_site_symmetry_multiplicity
 _atom_site_fract_x
 _atom_site_fract_y
 _atom_site_fract_z
 _atom_site_occupancy
  Si  Si0  1  0.31895600  0.00000000  0.26723500  1
  Si  Si1  1  0.81895600  0.50000000  0.26723500  1
  H  H2  1  0.18883700  0.00000000  0.69795400  1
  H  H3  1  0.66363800  0.00000000  0.22057500  1
  H  H4  1  0.68883700  0.50000000  0.69795400  1
  H  H5  1  0.16363800  0.50000000  0.22057500  1
  O  O6  1  0.35750100  0.00000000  0.60423600  1
  O  O7  1  0.85750100  0.50000000  0.60423600  1
