# generated using pymatgen
data_Sm6InCo2
_symmetry_space_group_name_H-M   'P 1'
_cell_length_a   9.50993000
_cell_length_b   9.94674800
_cell_length_c   10.14833000
_cell_angle_alpha   90.00000000
_cell_angle_beta   90.00000000
_cell_angle_gamma   90.00000000
_symmetry_Int_Tables_number   1
_chemical_formula_structural   Sm6InCo2
_chemical_formula_sum   'Sm24 In4 Co8'
_cell_volume   959.95973355
_cell_formula_units_Z   4
loop_
 _symmetry_equiv_pos_site_id
 _symmetry_equiv_pos_as_xyz
  1  'x, y, z'
loop_
 _atom_site_type_symbol
 _atom_site_label
 _atom_site_symmetry_multiplicity
 _atom_site_fract_x
 _atom_site_fract_y
 _atom_site_fract_z
 _atom_site_occupancy
  Sm  Sm0  1  0.18832400  0.00000000  0.67914700  1
  Sm  Sm1  1  0.71276600  0.31540000  0.50000000  1
  Sm  Sm2  1  0.00000000  0.70784400  0.26793200  1
  Sm  Sm3  1  0.31167600  0.50000000  0.82085300  1
  Sm  Sm4  1  0.31167600  0.50000000  0.17914700  1
  Sm  Sm5  1  0.28723400  0.31540000  0.50000000  1
  Sm  Sm6  1  0.50000000  0.79215600  0.23206800  1
  Sm  Sm7  1  0.78723400  0.18460000  0.00000000  1
  Sm  Sm8  1  0.00000000  0.29215600  0.26793200  1
  Sm  Sm9  1  0.21276600  0.18460000  0.00000000  1
  Sm  Sm10  1  0.50000000  0.20784400  0.23206800  1
  Sm  Sm11  1  0.18832400  0.00000000  0.32085300  1
  Sm  Sm12  1  0.68832400  0.50000000  0.17914700  1
  Sm  Sm13  1  0.21276600  0.81540000  0.00000000  1
  Sm  Sm14  1  0.50000000  0.20784400  0.76793200  1
  Sm  Sm15  1  0.81167600  0.00000000  0.32085300  1
  Sm  Sm16  1  0.81167600  0.00000000  0.67914700  1
  Sm  Sm17  1  0.78723400  0.81540000  0.00000000  1
  Sm  Sm18  1  0.00000000  0.29215600  0.73206800  1
  Sm  Sm19  1  0.28723400  0.68460000  0.50000000  1
  Sm  Sm20  1  0.50000000  0.79215600  0.76793200  1
  Sm  Sm21  1  0.71276600  0.68460000  0.50000000  1
  Sm  Sm22  1  0.00000000  0.70784400  0.73206800  1
  Sm  Sm23  1  0.68832400  0.50000000  0.82085300  1
  In  In24  1  0.00000000  0.50000000  0.00000000  1
  In  In25  1  0.50000000  0.00000000  0.00000000  1
  In  In26  1  0.50000000  0.00000000  0.50000000  1
  In  In27  1  0.00000000  0.50000000  0.50000000  1
  Co  Co28  1  0.50000000  0.35369700  0.00000000  1
  Co  Co29  1  0.00000000  0.00000000  0.89003200  1
  Co  Co30  1  0.00000000  0.00000000  0.10996800  1
  Co  Co31  1  0.00000000  0.14630300  0.50000000  1
  Co  Co32  1  0.00000000  0.85369700  0.50000000  1
  Co  Co33  1  0.50000000  0.50000000  0.39003200  1
  Co  Co34  1  0.50000000  0.50000000  0.60996800  1
  Co  Co35  1  0.50000000  0.64630300  0.00000000  1
