# generated using pymatgen
data_La12Au3I13
_symmetry_space_group_name_H-M   'P 1'
_cell_length_a   18.15718094
_cell_length_b   18.15718094
_cell_length_c   11.04670403
_cell_angle_alpha   90.00000000
_cell_angle_beta   90.00000000
_cell_angle_gamma   120.00000000
_symmetry_Int_Tables_number   1
_chemical_formula_structural   La12Au3I13
_chemical_formula_sum   'La36 Au9 I39'
_cell_volume   3153.98913625
_cell_formula_units_Z   3
loop_
 _symmetry_equiv_pos_site_id
 _symmetry_equiv_pos_as_xyz
  1  'x, y, z'
loop_
 _atom_site_type_symbol
 _atom_site_label
 _atom_site_symmetry_multiplicity
 _atom_site_fract_x
 _atom_site_fract_y
 _atom_site_fract_z
 _atom_site_occupancy
  La  La0  1  0.07732033  0.16556267  0.65310767  1
  La  La1  1  0.92267967  0.08824233  0.34689233  1
  La  La2  1  0.07030533  0.40363867  0.66666667  1
  La  La3  1  0.84888433  0.18221767  0.66666667  1
  La  La4  1  0.15111567  0.33333333  0.33333333  1
  La  La5  1  0.00000000  0.26302800  0.00000000  1
  La  La6  1  0.92969467  0.33333333  0.33333333  1
  La  La7  1  1.00000000  0.48444900  0.00000000  1
  La  La8  1  0.75490900  0.25601300  0.98644100  1
  La  La9  1  0.83222933  0.41065367  0.68022567  1
  La  La10  1  0.24509100  0.50110400  0.01355900  1
  La  La11  1  0.16777067  0.57842433  0.31977433  1
  La  La12  1  0.74398700  0.49889600  0.98644100  1
  La  La13  1  0.58934633  0.42157567  0.68022567  1
  La  La14  1  0.73697200  0.73697200  0.00000000  1
  La  La15  1  0.51555100  0.51555100  0.00000000  1
  La  La16  1  0.81778233  0.66666667  0.66666667  1
  La  La17  1  0.66666667  0.59636133  0.33333333  1
  La  La18  1  0.59636133  0.66666667  0.66666667  1
  La  La19  1  0.66666667  0.81778233  0.33333333  1
  La  La20  1  0.42157567  0.58934633  0.31977433  1
  La  La21  1  0.49889600  0.74398700  0.01355900  1
  La  La22  1  0.91175767  0.83443733  0.34689233  1
  La  La23  1  0.83443733  0.91175767  0.65310767  1
  La  La24  1  0.41065367  0.83222933  0.31977433  1
  La  La25  1  0.25601300  0.75490900  0.01355900  1
  La  La26  1  0.40363867  0.07030533  0.33333333  1
  La  La27  1  0.18221767  0.84888433  0.33333333  1
  La  La28  1  0.48444900  1.00000000  0.00000000  1
  La  La29  1  0.33333333  0.92969467  0.66666667  1
  La  La30  1  0.26302800  0.00000000  0.00000000  1
  La  La31  1  0.33333333  0.15111567  0.66666667  1
  La  La32  1  0.08824233  0.92267967  0.65310767  1
  La  La33  1  0.16556267  0.07732033  0.34689233  1
  La  La34  1  0.57842433  0.16777067  0.68022567  1
  La  La35  1  0.50110400  0.24509100  0.98644100  1
  Au  Au36  1  0.91704467  0.33333333  0.83333333  1
  Au  Au37  1  0.00000000  0.25037800  0.50000000  1
  Au  Au38  1  0.08295533  0.41628867  0.16666667  1
  Au  Au39  1  0.58371133  0.66666667  0.16666667  1
  Au  Au40  1  0.66666667  0.58371133  0.83333333  1
  Au  Au41  1  0.74962200  0.74962200  0.50000000  1
  Au  Au42  1  0.25037800  0.00000000  0.50000000  1
  Au  Au43  1  0.33333333  0.91704467  0.16666667  1
  Au  Au44  1  0.41628867  0.08295533  0.83333333  1
  I  I45  1  0.49629433  0.75327067  0.51219467  1
  I  I46  1  0.41993733  0.82962767  0.82113867  1
  I  I47  1  0.91339600  0.07635700  0.84552800  1
  I  I48  1  0.83703900  0.92364300  0.15447200  1
  I  I49  1  0.66666667  0.84345433  0.83333333  1
  I  I50  1  0.74038000  0.00000000  0.50000000  1
  I  I51  1  0.66666667  0.07371333  0.83333333  1
  I  I52  1  0.51012100  0.00000000  0.50000000  1
  I  I53  1  0.59295333  0.92628667  0.16666667  1
  I  I54  1  0.82321233  0.15654567  0.16666667  1
  I  I55  1  0.74302367  0.24672933  0.48780533  1
  I  I56  1  0.59030967  0.17037233  0.17886133  1
  I  I57  1  0.00000000  0.00000000  0.50000000  1
  I  I58  1  0.16296100  0.08660400  0.84552800  1
  I  I59  1  0.08660400  0.16296100  0.15447200  1
  I  I60  1  0.58006267  0.40969033  0.17886133  1
  I  I61  1  0.50370567  0.25697633  0.48780533  1
  I  I62  1  0.33333333  0.17678767  0.16666667  1
  I  I63  1  0.40704667  0.33333333  0.83333333  1
  I  I64  1  0.33333333  0.40704667  0.16666667  1
  I  I65  1  0.17678767  0.33333333  0.83333333  1
  I  I66  1  0.25962000  0.25962000  0.50000000  1
  I  I67  1  0.48987900  0.48987900  0.50000000  1
  I  I68  1  0.40969033  0.58006267  0.82113867  1
  I  I69  1  0.25697633  0.50370567  0.51219467  1
  I  I70  1  0.66666667  0.33333333  0.83333333  1
  I  I71  1  0.82962767  0.41993733  0.17886133  1
  I  I72  1  0.75327067  0.49629433  0.48780533  1
  I  I73  1  0.24672933  0.74302367  0.51219467  1
  I  I74  1  0.17037233  0.59030967  0.82113867  1
  I  I75  1  0.00000000  0.51012100  0.50000000  1
  I  I76  1  0.07371333  0.66666667  0.16666667  1
  I  I77  1  0.00000000  0.74038000  0.50000000  1
  I  I78  1  0.84345433  0.66666667  0.16666667  1
  I  I79  1  0.92628667  0.59295333  0.83333333  1
  I  I80  1  0.15654567  0.82321233  0.83333333  1
  I  I81  1  0.07635700  0.91339600  0.15447200  1
  I  I82  1  0.92364300  0.83703900  0.84552800  1
  I  I83  1  0.33333333  0.66666667  0.16666667  1
