# generated using pymatgen
data_Sr5Mn5O13
_symmetry_space_group_name_H-M   'P 1'
_cell_length_a   8.78061801
_cell_length_b   8.78061801
_cell_length_c   3.86969800
_cell_angle_alpha   90.00000000
_cell_angle_beta   90.00000000
_cell_angle_gamma   90.00000000
_symmetry_Int_Tables_number   1
_chemical_formula_structural   Sr5Mn5O13
_chemical_formula_sum   'Sr5 Mn5 O13'
_cell_volume   298.35082369
_cell_formula_units_Z   1
loop_
 _symmetry_equiv_pos_site_id
 _symmetry_equiv_pos_as_xyz
  1  'x, y, z'
loop_
 _atom_site_type_symbol
 _atom_site_label
 _atom_site_symmetry_multiplicity
 _atom_site_fract_x
 _atom_site_fract_y
 _atom_site_fract_z
 _atom_site_occupancy
  Sr  Sr0  1  0.21796550  0.38787450  0.50000000  1
  Sr  Sr1  1  0.61212550  0.21796550  0.50000000  1
  Sr  Sr2  1  0.38787450  0.78203450  0.50000000  1
  Sr  Sr3  1  0.78203450  0.61212550  0.50000000  1
  Sr  Sr4  1  0.00000000  0.00000000  0.50000000  1
  Mn  Mn5  1  0.30167550  0.10032950  0.00000000  1
  Mn  Mn6  1  0.69832450  0.89967050  0.00000000  1
  Mn  Mn7  1  0.89967050  0.30167550  0.00000000  1
  Mn  Mn8  1  0.10032950  0.69832450  0.00000000  1
  Mn  Mn9  1  0.50000000  0.50000000  0.00000000  1
  O  O10  1  0.78762850  0.09841450  0.00000000  1
  O  O11  1  0.71214450  0.42710150  0.00000000  1
  O  O12  1  0.66290050  0.91562250  0.50000000  1
  O  O13  1  0.42710150  0.28785550  0.00000000  1
  O  O14  1  0.90158550  0.78762850  0.00000000  1
  O  O15  1  0.21237150  0.90158550  0.00000000  1
  O  O16  1  0.28785550  0.57289850  0.00000000  1
  O  O17  1  0.33709950  0.08437750  0.50000000  1
  O  O18  1  0.08437750  0.66290050  0.50000000  1
  O  O19  1  0.91562250  0.33709950  0.50000000  1
  O  O20  1  0.57289850  0.71214450  0.00000000  1
  O  O21  1  0.50000000  0.50000000  0.50000000  1
  O  O22  1  0.09841450  0.21237150  0.00000000  1
