# generated using pymatgen
data_Na4CoAuO5
_symmetry_space_group_name_H-M   'P 1'
_cell_length_a   5.85933400
_cell_length_b   9.60311800
_cell_length_c   10.62063300
_cell_angle_alpha   90.00000000
_cell_angle_beta   90.00000000
_cell_angle_gamma   90.00000000
_symmetry_Int_Tables_number   1
_chemical_formula_structural   Na4CoAuO5
_chemical_formula_sum   'Na16 Co4 Au4 O20'
_cell_volume   597.60045860
_cell_formula_units_Z   4
loop_
 _symmetry_equiv_pos_site_id
 _symmetry_equiv_pos_as_xyz
  1  'x, y, z'
loop_
 _atom_site_type_symbol
 _atom_site_label
 _atom_site_symmetry_multiplicity
 _atom_site_fract_x
 _atom_site_fract_y
 _atom_site_fract_z
 _atom_site_occupancy
  Na  Na0  1  0.67599600  0.68424800  0.25000000  1
  Na  Na1  1  0.67599600  0.31575200  0.25000000  1
  Na  Na2  1  0.50000000  0.17091400  0.00000000  1
  Na  Na3  1  0.50000000  0.17091400  0.50000000  1
  Na  Na4  1  0.50000000  0.82908600  0.00000000  1
  Na  Na5  1  0.32400400  0.31575200  0.75000000  1
  Na  Na6  1  0.50000000  0.82908600  0.50000000  1
  Na  Na7  1  0.32400400  0.68424800  0.75000000  1
  Na  Na8  1  0.17599600  0.18424800  0.25000000  1
  Na  Na9  1  0.17599600  0.81575200  0.25000000  1
  Na  Na10  1  0.00000000  0.67091400  0.00000000  1
  Na  Na11  1  0.00000000  0.67091400  0.50000000  1
  Na  Na12  1  0.00000000  0.32908600  0.00000000  1
  Na  Na13  1  0.82400400  0.81575200  0.75000000  1
  Na  Na14  1  0.00000000  0.32908600  0.50000000  1
  Na  Na15  1  0.82400400  0.18424800  0.75000000  1
  Co  Co16  1  0.73057100  0.00000000  0.25000000  1
  Co  Co17  1  0.26942900  0.00000000  0.75000000  1
  Co  Co18  1  0.23057100  0.50000000  0.25000000  1
  Co  Co19  1  0.76942900  0.50000000  0.75000000  1
  Au  Au20  1  0.00000000  0.00000000  0.00000000  1
  Au  Au21  1  0.00000000  0.00000000  0.50000000  1
  Au  Au22  1  0.50000000  0.50000000  0.00000000  1
  Au  Au23  1  0.50000000  0.50000000  0.50000000  1
  O  O24  1  0.15286550  0.86107950  0.61764600  1
  O  O25  1  0.15286550  0.13892050  0.88235400  1
  O  O26  1  0.84713450  0.86107950  0.38235400  1
  O  O27  1  0.84713450  0.86107950  0.11764600  1
  O  O28  1  0.43041200  0.00000000  0.25000000  1
  O  O29  1  0.56958800  0.00000000  0.75000000  1
  O  O30  1  0.84713450  0.13892050  0.38235400  1
  O  O31  1  0.15286550  0.13892050  0.61764600  1
  O  O32  1  0.84713450  0.13892050  0.11764600  1
  O  O33  1  0.15286550  0.86107950  0.88235400  1
  O  O34  1  0.65286550  0.36107950  0.61764600  1
  O  O35  1  0.65286550  0.63892050  0.88235400  1
  O  O36  1  0.34713450  0.36107950  0.38235400  1
  O  O37  1  0.34713450  0.36107950  0.11764600  1
  O  O38  1  0.93041200  0.50000000  0.25000000  1
  O  O39  1  0.06958800  0.50000000  0.75000000  1
  O  O40  1  0.34713450  0.63892050  0.38235400  1
  O  O41  1  0.65286550  0.63892050  0.61764600  1
  O  O42  1  0.34713450  0.63892050  0.11764600  1
  O  O43  1  0.65286550  0.36107950  0.88235400  1
