# generated using pymatgen
data_Na(Ce2Se3)4
_symmetry_space_group_name_H-M   'P 1'
_cell_length_a   8.93325400
_cell_length_b   8.93325400
_cell_length_c   26.89008600
_cell_angle_alpha   90.00000000
_cell_angle_beta   90.00000000
_cell_angle_gamma   90.00000000
_symmetry_Int_Tables_number   1
_chemical_formula_structural   Na(Ce2Se3)4
_chemical_formula_sum   'Na4 Ce32 Se48'
_cell_volume   2145.91025986
_cell_formula_units_Z   4
loop_
 _symmetry_equiv_pos_site_id
 _symmetry_equiv_pos_as_xyz
  1  'x, y, z'
loop_
 _atom_site_type_symbol
 _atom_site_label
 _atom_site_symmetry_multiplicity
 _atom_site_fract_x
 _atom_site_fract_y
 _atom_site_fract_z
 _atom_site_occupancy
  Na  Na0  1  0.50000000  0.00000000  0.25000000  1
  Na  Na1  1  0.50000000  0.50000000  0.00000000  1
  Na  Na2  1  0.00000000  0.50000000  0.75000000  1
  Na  Na3  1  0.00000000  0.00000000  0.50000000  1
  Ce  Ce4  1  0.74802500  0.87089600  0.04041800  1
  Ce  Ce5  1  0.00000000  0.50000000  0.08334200  1
  Ce  Ce6  1  0.62100000  0.25000000  0.12500000  1
  Ce  Ce7  1  0.74802500  0.62910400  0.20958200  1
  Ce  Ce8  1  0.00000000  0.00000000  0.16665800  1
  Ce  Ce9  1  0.25197500  0.37089600  0.20958200  1
  Ce  Ce10  1  0.37900000  0.75000000  0.12500000  1
  Ce  Ce11  1  0.12910400  0.75197500  0.29041800  1
  Ce  Ce12  1  0.50000000  0.50000000  0.33334200  1
  Ce  Ce13  1  0.25000000  0.12100000  0.37500000  1
  Ce  Ce14  1  0.75000000  0.87900000  0.37500000  1
  Ce  Ce15  1  0.87089600  0.24802500  0.29041800  1
  Ce  Ce16  1  0.00000000  0.50000000  0.41665800  1
  Ce  Ce17  1  0.62910400  0.24802500  0.45958200  1
  Ce  Ce18  1  0.25197500  0.12910400  0.04041800  1
  Ce  Ce19  1  0.37089600  0.75197500  0.45958200  1
  Ce  Ce20  1  0.24802500  0.37089600  0.54041800  1
  Ce  Ce21  1  0.50000000  0.00000000  0.58334200  1
  Ce  Ce22  1  0.12100000  0.75000000  0.62500000  1
  Ce  Ce23  1  0.24802500  0.12910400  0.70958200  1
  Ce  Ce24  1  0.50000000  0.50000000  0.66665800  1
  Ce  Ce25  1  0.75197500  0.87089600  0.70958200  1
  Ce  Ce26  1  0.87900000  0.25000000  0.62500000  1
  Ce  Ce27  1  0.62910400  0.25197500  0.79041800  1
  Ce  Ce28  1  0.00000000  0.00000000  0.83334200  1
  Ce  Ce29  1  0.75000000  0.62100000  0.87500000  1
  Ce  Ce30  1  0.25000000  0.37900000  0.87500000  1
  Ce  Ce31  1  0.37089600  0.74802500  0.79041800  1
  Ce  Ce32  1  0.50000000  0.00000000  0.91665800  1
  Ce  Ce33  1  0.12910400  0.74802500  0.95958200  1
  Ce  Ce34  1  0.75197500  0.62910400  0.54041800  1
  Ce  Ce35  1  0.87089600  0.25197500  0.95958200  1
  Se  Se36  1  0.07523400  0.82548600  0.06694600  1
  Se  Se37  1  0.32011650  0.42503650  0.10273050  1
  Se  Se38  1  0.92476600  0.17451400  0.06694600  1
  Se  Se39  1  0.92476600  0.32548600  0.18305400  1
  Se  Se40  1  0.07523400  0.67451400  0.18305400  1
  Se  Se41  1  0.32011650  0.07496350  0.14726950  1
  Se  Se42  1  0.67988350  0.57496350  0.10273050  1
  Se  Se43  1  0.57756200  0.32710000  0.23378900  1
  Se  Se44  1  0.67988350  0.92503650  0.14726950  1
  Se  Se45  1  0.82710000  0.92243800  0.26621100  1
  Se  Se46  1  0.42243800  0.67290000  0.23378900  1
  Se  Se47  1  0.42503650  0.82011650  0.35273050  1
  Se  Se48  1  0.57496350  0.17988350  0.35273050  1
  Se  Se49  1  0.82548600  0.57523400  0.31694600  1
  Se  Se50  1  0.17290000  0.07756200  0.26621100  1
  Se  Se51  1  0.07496350  0.82011650  0.39726950  1
  Se  Se52  1  0.17451400  0.42476600  0.31694600  1
  Se  Se53  1  0.32548600  0.42476600  0.43305400  1
  Se  Se54  1  0.92503650  0.17988350  0.39726950  1
  Se  Se55  1  0.42243800  0.82710000  0.01621100  1
  Se  Se56  1  0.57756200  0.17290000  0.01621100  1
  Se  Se57  1  0.32710000  0.07756200  0.48378900  1
  Se  Se58  1  0.67451400  0.57523400  0.43305400  1
  Se  Se59  1  0.67290000  0.92243800  0.48378900  1
  Se  Se60  1  0.57523400  0.32548600  0.56694600  1
  Se  Se61  1  0.82011650  0.92503650  0.60273050  1
  Se  Se62  1  0.42476600  0.67451400  0.56694600  1
  Se  Se63  1  0.42476600  0.82548600  0.68305400  1
  Se  Se64  1  0.57523400  0.17451400  0.68305400  1
  Se  Se65  1  0.82011650  0.57496350  0.64726950  1
  Se  Se66  1  0.17988350  0.07496350  0.60273050  1
  Se  Se67  1  0.07756200  0.82710000  0.73378900  1
  Se  Se68  1  0.17988350  0.42503650  0.64726950  1
  Se  Se69  1  0.32710000  0.42243800  0.76621100  1
  Se  Se70  1  0.92243800  0.17290000  0.73378900  1
  Se  Se71  1  0.92503650  0.32011650  0.85273050  1
  Se  Se72  1  0.07496350  0.67988350  0.85273050  1
  Se  Se73  1  0.32548600  0.07523400  0.81694600  1
  Se  Se74  1  0.67290000  0.57756200  0.76621100  1
  Se  Se75  1  0.57496350  0.32011650  0.89726950  1
  Se  Se76  1  0.67451400  0.92476600  0.81694600  1
  Se  Se77  1  0.82548600  0.92476600  0.93305400  1
  Se  Se78  1  0.42503650  0.67988350  0.89726950  1
  Se  Se79  1  0.92243800  0.32710000  0.51621100  1
  Se  Se80  1  0.07756200  0.67290000  0.51621100  1
  Se  Se81  1  0.82710000  0.57756200  0.98378900  1
  Se  Se82  1  0.17451400  0.07523400  0.93305400  1
  Se  Se83  1  0.17290000  0.42243800  0.98378900  1
