# generated using pymatgen
data_Ba3Pb5
_symmetry_space_group_name_H-M   'P 1'
_cell_length_a   9.24773200
_cell_length_b   11.37421000
_cell_length_c   11.60385600
_cell_angle_alpha   90.00000000
_cell_angle_beta   90.00000000
_cell_angle_gamma   90.00000000
_symmetry_Int_Tables_number   1
_chemical_formula_structural   Ba3Pb5
_chemical_formula_sum   'Ba12 Pb20'
_cell_volume   1220.55908703
_cell_formula_units_Z   4
loop_
 _symmetry_equiv_pos_site_id
 _symmetry_equiv_pos_as_xyz
  1  'x, y, z'
loop_
 _atom_site_type_symbol
 _atom_site_label
 _atom_site_symmetry_multiplicity
 _atom_site_fract_x
 _atom_site_fract_y
 _atom_site_fract_z
 _atom_site_occupancy
  Ba  Ba0  1  0.86433300  0.00000000  0.75000000  1
  Ba  Ba1  1  0.50000000  0.79334300  0.50000000  1
  Ba  Ba2  1  0.50000000  0.20665700  0.50000000  1
  Ba  Ba3  1  0.50000000  0.20665700  0.00000000  1
  Ba  Ba4  1  0.13566700  0.00000000  0.25000000  1
  Ba  Ba5  1  0.50000000  0.79334300  0.00000000  1
  Ba  Ba6  1  0.36433300  0.50000000  0.75000000  1
  Ba  Ba7  1  0.00000000  0.29334300  0.50000000  1
  Ba  Ba8  1  0.00000000  0.70665700  0.50000000  1
  Ba  Ba9  1  0.00000000  0.70665700  0.00000000  1
  Ba  Ba10  1  0.63566700  0.50000000  0.25000000  1
  Ba  Ba11  1  0.00000000  0.29334300  0.00000000  1
  Pb  Pb12  1  0.21481400  0.79906900  0.75000000  1
  Pb  Pb13  1  0.78518600  0.79906900  0.25000000  1
  Pb  Pb14  1  0.19552800  0.00000000  0.55423000  1
  Pb  Pb15  1  0.19552800  0.00000000  0.94577000  1
  Pb  Pb16  1  0.53785300  0.00000000  0.25000000  1
  Pb  Pb17  1  0.80447200  0.00000000  0.44577000  1
  Pb  Pb18  1  0.46214700  0.00000000  0.75000000  1
  Pb  Pb19  1  0.78518600  0.20093100  0.25000000  1
  Pb  Pb20  1  0.21481400  0.20093100  0.75000000  1
  Pb  Pb21  1  0.80447200  0.00000000  0.05423000  1
  Pb  Pb22  1  0.71481400  0.29906900  0.75000000  1
  Pb  Pb23  1  0.28518600  0.29906900  0.25000000  1
  Pb  Pb24  1  0.69552800  0.50000000  0.55423000  1
  Pb  Pb25  1  0.69552800  0.50000000  0.94577000  1
  Pb  Pb26  1  0.03785300  0.50000000  0.25000000  1
  Pb  Pb27  1  0.30447200  0.50000000  0.44577000  1
  Pb  Pb28  1  0.96214700  0.50000000  0.75000000  1
  Pb  Pb29  1  0.28518600  0.70093100  0.25000000  1
  Pb  Pb30  1  0.71481400  0.70093100  0.75000000  1
  Pb  Pb31  1  0.30447200  0.50000000  0.05423000  1
