# generated using pymatgen
data_V2Cu3Pb(ClO4)2
_symmetry_space_group_name_H-M   'P 1'
_cell_length_a   9.70972000
_cell_length_b   10.17364200
_cell_length_c   10.70420200
_cell_angle_alpha   90.00000000
_cell_angle_beta   90.00000000
_cell_angle_gamma   90.00000000
_symmetry_Int_Tables_number   1
_chemical_formula_structural   V2Cu3Pb(ClO4)2
_chemical_formula_sum   'V8 Cu12 Pb4 Cl8 O32'
_cell_volume   1057.39548971
_cell_formula_units_Z   4
loop_
 _symmetry_equiv_pos_site_id
 _symmetry_equiv_pos_as_xyz
  1  'x, y, z'
loop_
 _atom_site_type_symbol
 _atom_site_label
 _atom_site_symmetry_multiplicity
 _atom_site_fract_x
 _atom_site_fract_y
 _atom_site_fract_z
 _atom_site_occupancy
  V  V0  1  0.75000000  0.50000000  0.31243200  1
  V  V1  1  0.25000000  0.50000000  0.31243200  1
  V  V2  1  0.75000000  0.00000000  0.18756800  1
  V  V3  1  0.25000000  0.00000000  0.18756800  1
  V  V4  1  0.25000000  0.00000000  0.81243200  1
  V  V5  1  0.75000000  0.00000000  0.81243200  1
  V  V6  1  0.25000000  0.50000000  0.68756800  1
  V  V7  1  0.75000000  0.50000000  0.68756800  1
  Cu  Cu8  1  0.00000000  0.00000000  0.00000000  1
  Cu  Cu9  1  0.50000000  0.20037900  0.24335000  1
  Cu  Cu10  1  0.00000000  0.29962100  0.25665000  1
  Cu  Cu11  1  0.00000000  0.20037900  0.75665000  1
  Cu  Cu12  1  0.50000000  0.00000000  0.00000000  1
  Cu  Cu13  1  0.50000000  0.29962100  0.74335000  1
  Cu  Cu14  1  0.50000000  0.50000000  0.50000000  1
  Cu  Cu15  1  0.00000000  0.70037900  0.74335000  1
  Cu  Cu16  1  0.50000000  0.79962100  0.75665000  1
  Cu  Cu17  1  0.50000000  0.70037900  0.25665000  1
  Cu  Cu18  1  0.00000000  0.50000000  0.50000000  1
  Cu  Cu19  1  0.00000000  0.79962100  0.24335000  1
  Pb  Pb20  1  0.25000000  0.00000000  0.50000000  1
  Pb  Pb21  1  0.25000000  0.50000000  0.00000000  1
  Pb  Pb22  1  0.75000000  0.50000000  0.00000000  1
  Pb  Pb23  1  0.75000000  0.00000000  0.50000000  1
  Cl  Cl24  1  0.00000000  0.66125100  0.08168900  1
  Cl  Cl25  1  0.50000000  0.33874900  0.08168900  1
  Cl  Cl26  1  0.50000000  0.83874900  0.41831100  1
  Cl  Cl27  1  0.00000000  0.16125100  0.41831100  1
  Cl  Cl28  1  0.50000000  0.16125100  0.58168900  1
  Cl  Cl29  1  0.00000000  0.83874900  0.58168900  1
  Cl  Cl30  1  0.00000000  0.33874900  0.91831100  1
  Cl  Cl31  1  0.50000000  0.66125100  0.91831100  1
  O  O32  1  0.33677150  0.10821250  0.28774850  1
  O  O33  1  0.63274450  0.41296650  0.40512450  1
  O  O34  1  0.36725550  0.41296650  0.40512450  1
  O  O35  1  0.16322850  0.39178750  0.21225150  1
  O  O36  1  0.16322850  0.89178750  0.28774850  1
  O  O37  1  0.86725550  0.08703350  0.09487550  1
  O  O38  1  0.83677150  0.39178750  0.21225150  1
  O  O39  1  0.13274450  0.58703350  0.40512450  1
  O  O40  1  0.33677150  0.39178750  0.78774850  1
  O  O41  1  0.63274450  0.91296650  0.09487550  1
  O  O42  1  0.33677150  0.60821250  0.21225150  1
  O  O43  1  0.16322850  0.10821250  0.71225150  1
  O  O44  1  0.86725550  0.58703350  0.40512450  1
  O  O45  1  0.66322850  0.10821250  0.28774850  1
  O  O46  1  0.13274450  0.08703350  0.09487550  1
  O  O47  1  0.36725550  0.91296650  0.09487550  1
  O  O48  1  0.83677150  0.60821250  0.78774850  1
  O  O49  1  0.13274450  0.91296650  0.90512450  1
  O  O50  1  0.86725550  0.91296650  0.90512450  1
  O  O51  1  0.66322850  0.89178750  0.71225150  1
  O  O52  1  0.66322850  0.39178750  0.78774850  1
  O  O53  1  0.36725550  0.58703350  0.59487550  1
  O  O54  1  0.33677150  0.89178750  0.71225150  1
  O  O55  1  0.63274450  0.08703350  0.90512450  1
  O  O56  1  0.83677150  0.89178750  0.28774850  1
  O  O57  1  0.13274450  0.41296650  0.59487550  1
  O  O58  1  0.83677150  0.10821250  0.71225150  1
  O  O59  1  0.66322850  0.60821250  0.21225150  1
  O  O60  1  0.36725550  0.08703350  0.90512450  1
  O  O61  1  0.16322850  0.60821250  0.78774850  1
  O  O62  1  0.63274450  0.58703350  0.59487550  1
  O  O63  1  0.86725550  0.41296650  0.59487550  1
