# generated using pymatgen
data_Cs2UTa6(Cl5O)3
_symmetry_space_group_name_H-M   'P 1'
_cell_length_a   9.24160637
_cell_length_b   9.24160637
_cell_length_c   17.30114700
_cell_angle_alpha   90.00000000
_cell_angle_beta   90.00000000
_cell_angle_gamma   120.00000000
_symmetry_Int_Tables_number   1
_chemical_formula_structural   Cs2UTa6(Cl5O)3
_chemical_formula_sum   'Cs4 U2 Ta12 Cl30 O6'
_cell_volume   1279.67728600
_cell_formula_units_Z   2
loop_
 _symmetry_equiv_pos_site_id
 _symmetry_equiv_pos_as_xyz
  1  'x, y, z'
loop_
 _atom_site_type_symbol
 _atom_site_label
 _atom_site_symmetry_multiplicity
 _atom_site_fract_x
 _atom_site_fract_y
 _atom_site_fract_z
 _atom_site_occupancy
  Cs  Cs0  1  0.33333333  0.66666667  0.45388600  1
  Cs  Cs1  1  0.66666667  0.33333333  0.95388600  1
  Cs  Cs2  1  0.33333333  0.66666667  0.04611400  1
  Cs  Cs3  1  0.66666667  0.33333333  0.54611400  1
  U  U4  1  0.33333333  0.66666667  0.75000000  1
  U  U5  1  0.66666667  0.33333333  0.25000000  1
  Ta  Ta6  1  0.19102733  0.01338967  0.18282600  1
  Ta  Ta7  1  0.98661033  0.17763767  0.18282600  1
  Ta  Ta8  1  0.80897267  0.82236233  0.68282600  1
  Ta  Ta9  1  0.17763767  0.19102733  0.81717400  1
  Ta  Ta10  1  0.82236233  0.01338967  0.31717400  1
  Ta  Ta11  1  0.19102733  0.17763767  0.31717400  1
  Ta  Ta12  1  0.01338967  0.82236233  0.81717400  1
  Ta  Ta13  1  0.80897267  0.98661033  0.81717400  1
  Ta  Ta14  1  0.98661033  0.80897267  0.31717400  1
  Ta  Ta15  1  0.01338967  0.19102733  0.68282600  1
  Ta  Ta16  1  0.82236233  0.80897267  0.18282600  1
  Ta  Ta17  1  0.17763767  0.98661033  0.68282600  1
  Cl  Cl18  1  0.92723533  0.53102167  0.38395400  1
  Cl  Cl19  1  0.53102167  0.92723533  0.88395400  1
  Cl  Cl20  1  0.53102167  0.60378633  0.61604600  1
  Cl  Cl21  1  0.39621367  0.46897833  0.88395400  1
  Cl  Cl22  1  0.20506433  0.98480767  0.41392900  1
  Cl  Cl23  1  0.07276467  0.46897833  0.61604600  1
  Cl  Cl24  1  0.77974333  0.98480767  0.08607100  1
  Cl  Cl25  1  0.98480767  0.20506433  0.91392900  1
  Cl  Cl26  1  0.20506433  0.22025667  0.08607100  1
  Cl  Cl27  1  0.98480767  0.77974333  0.58607100  1
  Cl  Cl28  1  0.22025667  0.20506433  0.58607100  1
  Cl  Cl29  1  0.01519233  0.79493567  0.08607100  1
  Cl  Cl30  1  0.21252533  0.42505067  0.25000000  1
  Cl  Cl31  1  0.60378633  0.53102167  0.11604600  1
  Cl  Cl32  1  0.22025667  0.01519233  0.91392900  1
  Cl  Cl33  1  0.60378633  0.07276467  0.38395400  1
  Cl  Cl34  1  0.57494933  0.78747467  0.25000000  1
  Cl  Cl35  1  0.39621367  0.92723533  0.61604600  1
  Cl  Cl36  1  0.77974333  0.79493567  0.41392900  1
  Cl  Cl37  1  0.79493567  0.01519233  0.58607100  1
  Cl  Cl38  1  0.07276467  0.60378633  0.88395400  1
  Cl  Cl39  1  0.46897833  0.07276467  0.11604600  1
  Cl  Cl40  1  0.42505067  0.21252533  0.75000000  1
  Cl  Cl41  1  0.01519233  0.22025667  0.41392900  1
  Cl  Cl42  1  0.78747467  0.57494933  0.75000000  1
  Cl  Cl43  1  0.92723533  0.39621367  0.11604600  1
  Cl  Cl44  1  0.21252533  0.78747467  0.25000000  1
  Cl  Cl45  1  0.78747467  0.21252533  0.75000000  1
  Cl  Cl46  1  0.79493567  0.77974333  0.91392900  1
  Cl  Cl47  1  0.46897833  0.39621367  0.38395400  1
  O  O48  1  0.81192933  0.18807067  0.25000000  1
  O  O49  1  0.37614133  0.18807067  0.25000000  1
  O  O50  1  0.18807067  0.37614133  0.75000000  1
  O  O51  1  0.81192933  0.62385867  0.25000000  1
  O  O52  1  0.62385867  0.81192933  0.75000000  1
  O  O53  1  0.18807067  0.81192933  0.75000000  1
