# generated using pymatgen
data_Ta10O9
_symmetry_space_group_name_H-M   'P 1'
_cell_length_a   32.20505200
_cell_length_b   2.74947800
_cell_length_c   5.23121636
_cell_angle_alpha   90.00000000
_cell_angle_beta   93.57685771
_cell_angle_gamma   90.00000000
_symmetry_Int_Tables_number   1
_chemical_formula_structural   Ta10O9
_chemical_formula_sum   'Ta20 O18'
_cell_volume   462.30661715
_cell_formula_units_Z   2
loop_
 _symmetry_equiv_pos_site_id
 _symmetry_equiv_pos_as_xyz
  1  'x, y, z'
loop_
 _atom_site_type_symbol
 _atom_site_label
 _atom_site_symmetry_multiplicity
 _atom_site_fract_x
 _atom_site_fract_y
 _atom_site_fract_z
 _atom_site_occupancy
  Ta  Ta0  1  0.99562600  0.00000000  0.01205900  1
  Ta  Ta1  1  0.99554500  0.50000000  0.51001500  1
  Ta  Ta2  1  0.89069900  0.50000000  0.78524500  1
  Ta  Ta3  1  0.88343900  0.00000000  0.29669100  1
  Ta  Ta4  1  0.80964100  0.00000000  0.60816600  1
  Ta  Ta5  1  0.69887100  0.00000000  0.90116300  1
  Ta  Ta6  1  0.59738400  0.00000000  0.19299600  1
  Ta  Ta7  1  0.79699200  0.50000000  0.11184000  1
  Ta  Ta8  1  0.69941700  0.50000000  0.40531700  1
  Ta  Ta9  1  0.59781800  0.50000000  0.69700700  1
  Ta  Ta10  1  0.49562600  0.50000000  0.01205900  1
  Ta  Ta11  1  0.49554500  0.00000000  0.51001500  1
  Ta  Ta12  1  0.39069900  0.00000000  0.78524500  1
  Ta  Ta13  1  0.38343900  0.50000000  0.29669100  1
  Ta  Ta14  1  0.30964100  0.50000000  0.60816600  1
  Ta  Ta15  1  0.19887100  0.50000000  0.90116300  1
  Ta  Ta16  1  0.09738400  0.50000000  0.19299600  1
  Ta  Ta17  1  0.29699200  0.00000000  0.11184000  1
  Ta  Ta18  1  0.19941700  0.00000000  0.40531700  1
  Ta  Ta19  1  0.09781800  0.00000000  0.69700700  1
  O  O20  1  0.92921300  0.50000000  0.48522200  1
  O  O21  1  0.74900800  0.00000000  0.25056000  1
  O  O22  1  0.84572100  0.00000000  0.94835900  1
  O  O23  1  0.93137300  0.00000000  0.98895400  1
  O  O24  1  0.64710500  0.50000000  0.04461800  1
  O  O25  1  0.74349700  0.50000000  0.72644700  1
  O  O26  1  0.54842800  0.00000000  0.85052200  1
  O  O27  1  0.65008200  0.00000000  0.56228600  1
  O  O28  1  0.54866400  0.50000000  0.35104700  1
  O  O29  1  0.42921300  0.00000000  0.48522200  1
  O  O30  1  0.24900800  0.50000000  0.25056000  1
  O  O31  1  0.34572100  0.50000000  0.94835900  1
  O  O32  1  0.43137300  0.50000000  0.98895400  1
  O  O33  1  0.14710500  0.00000000  0.04461800  1
  O  O34  1  0.24349700  0.00000000  0.72644700  1
  O  O35  1  0.04842800  0.50000000  0.85052200  1
  O  O36  1  0.15008200  0.50000000  0.56228600  1
  O  O37  1  0.04866400  0.00000000  0.35104700  1
