# generated using pymatgen
data_Ce8U2O21
_symmetry_space_group_name_H-M   'P 1'
_cell_length_a   5.44039400
_cell_length_b   27.20512600
_cell_length_c   5.44265700
_cell_angle_alpha   90.00000000
_cell_angle_beta   90.00000000
_cell_angle_gamma   90.00000000
_symmetry_Int_Tables_number   1
_chemical_formula_structural   Ce8U2O21
_chemical_formula_sum   'Ce16 U4 O42'
_cell_volume   805.54918072
_cell_formula_units_Z   2
loop_
 _symmetry_equiv_pos_site_id
 _symmetry_equiv_pos_as_xyz
  1  'x, y, z'
loop_
 _atom_site_type_symbol
 _atom_site_label
 _atom_site_symmetry_multiplicity
 _atom_site_fract_x
 _atom_site_fract_y
 _atom_site_fract_z
 _atom_site_occupancy
  Ce  Ce0  1  0.00000000  0.59664400  0.00000000  1
  Ce  Ce1  1  0.00000000  0.69999100  0.50000000  1
  Ce  Ce2  1  0.00000000  0.79998100  0.00000000  1
  Ce  Ce3  1  0.50000000  0.60282900  0.50000000  1
  Ce  Ce4  1  0.00000000  0.89717100  0.50000000  1
  Ce  Ce5  1  0.50000000  0.70001900  0.00000000  1
  Ce  Ce6  1  0.50000000  0.80000900  0.50000000  1
  Ce  Ce7  1  0.50000000  0.90335600  0.00000000  1
  Ce  Ce8  1  0.50000000  0.09664400  0.00000000  1
  Ce  Ce9  1  0.50000000  0.19999100  0.50000000  1
  Ce  Ce10  1  0.50000000  0.29998100  0.00000000  1
  Ce  Ce11  1  0.00000000  0.10282900  0.50000000  1
  Ce  Ce12  1  0.50000000  0.39717100  0.50000000  1
  Ce  Ce13  1  0.00000000  0.20001900  0.00000000  1
  Ce  Ce14  1  0.00000000  0.30000900  0.50000000  1
  Ce  Ce15  1  0.00000000  0.40335600  0.00000000  1
  U  U16  1  0.00000000  0.00000000  0.00000000  1
  U  U17  1  0.50000000  0.00000000  0.50000000  1
  U  U18  1  0.50000000  0.50000000  0.00000000  1
  U  U19  1  0.00000000  0.50000000  0.50000000  1
  O  O20  1  0.75214900  0.64951400  0.24783600  1
  O  O21  1  0.75000000  0.75000000  0.74973100  1
  O  O22  1  0.24785100  0.64951400  0.75216400  1
  O  O23  1  0.25000000  0.75000000  0.25026900  1
  O  O24  1  0.23613550  0.95127650  0.73623800  1
  O  O25  1  0.25214900  0.85048600  0.75216400  1
  O  O26  1  0.73613550  0.54872350  0.26376200  1
  O  O27  1  0.23613550  0.95127650  0.26376200  1
  O  O28  1  0.74785100  0.85048600  0.24783600  1
  O  O29  1  0.76386450  0.95127650  0.26376200  1
  O  O30  1  0.50000000  0.00000000  0.00000000  1
  O  O31  1  0.75214900  0.64951400  0.75216400  1
  O  O32  1  0.73613550  0.54872350  0.73623800  1
  O  O33  1  0.76386450  0.95127650  0.73623800  1
  O  O34  1  0.26386450  0.54872350  0.73623800  1
  O  O35  1  0.26386450  0.54872350  0.26376200  1
  O  O36  1  0.24785100  0.64951400  0.24783600  1
  O  O37  1  0.25000000  0.75000000  0.74973100  1
  O  O38  1  0.25214900  0.85048600  0.24783600  1
  O  O39  1  0.75000000  0.75000000  0.25026900  1
  O  O40  1  0.74785100  0.85048600  0.75216400  1
  O  O41  1  0.25214900  0.14951400  0.24783600  1
  O  O42  1  0.25000000  0.25000000  0.74973100  1
  O  O43  1  0.74785100  0.14951400  0.75216400  1
  O  O44  1  0.75000000  0.25000000  0.25026900  1
  O  O45  1  0.73613550  0.45127650  0.73623800  1
  O  O46  1  0.75214900  0.35048600  0.75216400  1
  O  O47  1  0.23613550  0.04872350  0.26376200  1
  O  O48  1  0.73613550  0.45127650  0.26376200  1
  O  O49  1  0.24785100  0.35048600  0.24783600  1
  O  O50  1  0.26386450  0.45127650  0.26376200  1
  O  O51  1  0.00000000  0.50000000  0.00000000  1
  O  O52  1  0.25214900  0.14951400  0.75216400  1
  O  O53  1  0.23613550  0.04872350  0.73623800  1
  O  O54  1  0.26386450  0.45127650  0.73623800  1
  O  O55  1  0.76386450  0.04872350  0.73623800  1
  O  O56  1  0.76386450  0.04872350  0.26376200  1
  O  O57  1  0.74785100  0.14951400  0.24783600  1
  O  O58  1  0.75000000  0.25000000  0.74973100  1
  O  O59  1  0.75214900  0.35048600  0.24783600  1
  O  O60  1  0.25000000  0.25000000  0.25026900  1
  O  O61  1  0.24785100  0.35048600  0.75216400  1
