# generated using pymatgen
data_Sr2Pr2MnCuO8
_symmetry_space_group_name_H-M   'P 1'
_cell_length_a   13.56313200
_cell_length_b   3.80843800
_cell_length_c   16.17483331
_cell_angle_alpha   90.00000000
_cell_angle_beta   107.24041017
_cell_angle_gamma   90.00000000
_symmetry_Int_Tables_number   1
_chemical_formula_structural   Sr2Pr2MnCuO8
_chemical_formula_sum   'Sr8 Pr8 Mn4 Cu4 O32'
_cell_volume   797.96105776
_cell_formula_units_Z   4
loop_
 _symmetry_equiv_pos_site_id
 _symmetry_equiv_pos_as_xyz
  1  'x, y, z'
loop_
 _atom_site_type_symbol
 _atom_site_label
 _atom_site_symmetry_multiplicity
 _atom_site_fract_x
 _atom_site_fract_y
 _atom_site_fract_z
 _atom_site_occupancy
  Sr  Sr0  1  0.36495600  0.00000000  0.74088100  1
  Sr  Sr1  1  0.14087900  0.50000000  0.79187900  1
  Sr  Sr2  1  0.85912100  0.50000000  0.20812100  1
  Sr  Sr3  1  0.63504400  0.00000000  0.25911900  1
  Sr  Sr4  1  0.86495600  0.50000000  0.74088100  1
  Sr  Sr5  1  0.64087900  0.00000000  0.79187900  1
  Sr  Sr6  1  0.35912100  0.00000000  0.20812100  1
  Sr  Sr7  1  0.13504400  0.50000000  0.25911900  1
  Pr  Pr8  1  0.82642700  0.00000000  0.44758600  1
  Pr  Pr9  1  0.64162000  0.00000000  0.03148500  1
  Pr  Pr10  1  0.17357300  0.00000000  0.55241400  1
  Pr  Pr11  1  0.35838000  0.00000000  0.96851500  1
  Pr  Pr12  1  0.32642700  0.50000000  0.44758600  1
  Pr  Pr13  1  0.14162000  0.50000000  0.03148500  1
  Pr  Pr14  1  0.67357300  0.50000000  0.55241400  1
  Pr  Pr15  1  0.85838000  0.50000000  0.96851500  1
  Mn  Mn16  1  0.00234700  0.00000000  0.36140600  1
  Mn  Mn17  1  0.99765300  0.00000000  0.63859400  1
  Mn  Mn18  1  0.50234700  0.50000000  0.36140600  1
  Mn  Mn19  1  0.49765300  0.50000000  0.63859400  1
  Cu  Cu20  1  0.00082200  0.00000000  0.11828100  1
  Cu  Cu21  1  0.99917800  0.00000000  0.88171900  1
  Cu  Cu22  1  0.50082200  0.50000000  0.11828100  1
  Cu  Cu23  1  0.49917800  0.50000000  0.88171900  1
  O  O24  1  0.66572900  0.50000000  0.14527500  1
  O  O25  1  0.72453800  0.50000000  0.41895600  1
  O  O26  1  0.16579800  0.00000000  0.69315900  1
  O  O27  1  0.17319300  0.00000000  0.93284000  1
  O  O28  1  0.99930100  0.50000000  0.11130200  1
  O  O29  1  0.02941500  0.50000000  0.36837100  1
  O  O30  1  0.97058500  0.50000000  0.63162900  1
  O  O31  1  0.00069900  0.50000000  0.88869800  1
  O  O32  1  0.83420200  0.00000000  0.30684100  1
  O  O33  1  0.27546200  0.50000000  0.58104400  1
  O  O34  1  0.33427100  0.50000000  0.85472500  1
  O  O35  1  0.82680700  0.00000000  0.06716000  1
  O  O36  1  0.01059800  0.00000000  0.24295700  1
  O  O37  1  0.00000000  0.00000000  0.50000000  1
  O  O38  1  0.98940200  0.00000000  0.75704300  1
  O  O39  1  0.00000000  0.00000000  0.00000000  1
  O  O40  1  0.16572900  0.00000000  0.14527500  1
  O  O41  1  0.22453800  0.00000000  0.41895600  1
  O  O42  1  0.66579800  0.50000000  0.69315900  1
  O  O43  1  0.67319300  0.50000000  0.93284000  1
  O  O44  1  0.49930100  0.00000000  0.11130200  1
  O  O45  1  0.52941500  0.00000000  0.36837100  1
  O  O46  1  0.47058500  0.00000000  0.63162900  1
  O  O47  1  0.50069900  0.00000000  0.88869800  1
  O  O48  1  0.33420200  0.50000000  0.30684100  1
  O  O49  1  0.77546200  0.00000000  0.58104400  1
  O  O50  1  0.83427100  0.00000000  0.85472500  1
  O  O51  1  0.32680700  0.50000000  0.06716000  1
  O  O52  1  0.51059800  0.50000000  0.24295700  1
  O  O53  1  0.50000000  0.50000000  0.50000000  1
  O  O54  1  0.48940200  0.50000000  0.75704300  1
  O  O55  1  0.50000000  0.50000000  0.00000000  1
