# generated using pymatgen
data_Pr3PtI3
_symmetry_space_group_name_H-M   'P 1'
_cell_length_a   12.66570200
_cell_length_b   12.66570200
_cell_length_c   12.66570200
_cell_angle_alpha   90.00000000
_cell_angle_beta   90.00000000
_cell_angle_gamma   90.00000000
_symmetry_Int_Tables_number   1
_chemical_formula_structural   Pr3PtI3
_chemical_formula_sum   'Pr24 Pt8 I24'
_cell_volume   2031.83200544
_cell_formula_units_Z   8
loop_
 _symmetry_equiv_pos_site_id
 _symmetry_equiv_pos_as_xyz
  1  'x, y, z'
loop_
 _atom_site_type_symbol
 _atom_site_label
 _atom_site_symmetry_multiplicity
 _atom_site_fract_x
 _atom_site_fract_y
 _atom_site_fract_z
 _atom_site_occupancy
  Pr  Pr0  1  0.12500000  0.89536350  0.14536350  1
  Pr  Pr1  1  0.87500000  0.60463650  0.14536350  1
  Pr  Pr2  1  0.35463650  0.87500000  0.39536350  1
  Pr  Pr3  1  0.14536350  0.87500000  0.60463650  1
  Pr  Pr4  1  0.87500000  0.39536350  0.35463650  1
  Pr  Pr5  1  0.60463650  0.14536350  0.87500000  1
  Pr  Pr6  1  0.39536350  0.35463650  0.87500000  1
  Pr  Pr7  1  0.10463650  0.35463650  0.12500000  1
  Pr  Pr8  1  0.12500000  0.10463650  0.35463650  1
  Pr  Pr9  1  0.89536350  0.14536350  0.12500000  1
  Pr  Pr10  1  0.14536350  0.12500000  0.89536350  1
  Pr  Pr11  1  0.35463650  0.12500000  0.10463650  1
  Pr  Pr12  1  0.62500000  0.39536350  0.64536350  1
  Pr  Pr13  1  0.37500000  0.10463650  0.64536350  1
  Pr  Pr14  1  0.85463650  0.37500000  0.89536350  1
  Pr  Pr15  1  0.64536350  0.37500000  0.10463650  1
  Pr  Pr16  1  0.37500000  0.89536350  0.85463650  1
  Pr  Pr17  1  0.10463650  0.64536350  0.37500000  1
  Pr  Pr18  1  0.89536350  0.85463650  0.37500000  1
  Pr  Pr19  1  0.60463650  0.85463650  0.62500000  1
  Pr  Pr20  1  0.62500000  0.60463650  0.85463650  1
  Pr  Pr21  1  0.39536350  0.64536350  0.62500000  1
  Pr  Pr22  1  0.64536350  0.62500000  0.39536350  1
  Pr  Pr23  1  0.85463650  0.62500000  0.60463650  1
  Pt  Pt24  1  0.87500000  0.37500000  0.12500000  1
  Pt  Pt25  1  0.12500000  0.87500000  0.37500000  1
  Pt  Pt26  1  0.12500000  0.12500000  0.12500000  1
  Pt  Pt27  1  0.37500000  0.12500000  0.87500000  1
  Pt  Pt28  1  0.37500000  0.87500000  0.62500000  1
  Pt  Pt29  1  0.62500000  0.37500000  0.87500000  1
  Pt  Pt30  1  0.62500000  0.62500000  0.62500000  1
  Pt  Pt31  1  0.87500000  0.62500000  0.37500000  1
  I  I32  1  0.11683200  0.13316800  0.62500000  1
  I  I33  1  0.88316800  0.36683200  0.62500000  1
  I  I34  1  0.62500000  0.11683200  0.13316800  1
  I  I35  1  0.13316800  0.37500000  0.38316800  1
  I  I36  1  0.36683200  0.62500000  0.88316800  1
  I  I37  1  0.61683200  0.36683200  0.37500000  1
  I  I38  1  0.36683200  0.37500000  0.61683200  1
  I  I39  1  0.37500000  0.38316800  0.13316800  1
  I  I40  1  0.62500000  0.88316800  0.36683200  1
  I  I41  1  0.13316800  0.62500000  0.11683200  1
  I  I42  1  0.38316800  0.13316800  0.37500000  1
  I  I43  1  0.37500000  0.61683200  0.36683200  1
  I  I44  1  0.61683200  0.63316800  0.12500000  1
  I  I45  1  0.38316800  0.86683200  0.12500000  1
  I  I46  1  0.12500000  0.61683200  0.63316800  1
  I  I47  1  0.63316800  0.87500000  0.88316800  1
  I  I48  1  0.86683200  0.12500000  0.38316800  1
  I  I49  1  0.11683200  0.86683200  0.87500000  1
  I  I50  1  0.86683200  0.87500000  0.11683200  1
  I  I51  1  0.87500000  0.88316800  0.63316800  1
  I  I52  1  0.12500000  0.38316800  0.86683200  1
  I  I53  1  0.63316800  0.12500000  0.61683200  1
  I  I54  1  0.88316800  0.63316800  0.87500000  1
  I  I55  1  0.87500000  0.11683200  0.86683200  1
