# generated using pymatgen
data_Te4WCl6
_symmetry_space_group_name_H-M   'P 1'
_cell_length_a   12.23434200
_cell_length_b   21.44438000
_cell_length_c   12.26834809
_cell_angle_alpha   90.00000000
_cell_angle_beta   117.52675679
_cell_angle_gamma   90.00000000
_symmetry_Int_Tables_number   1
_chemical_formula_structural   Te4WCl6
_chemical_formula_sum   'Te32 W8 Cl48'
_cell_volume   2854.32542941
_cell_formula_units_Z   8
loop_
 _symmetry_equiv_pos_site_id
 _symmetry_equiv_pos_as_xyz
  1  'x, y, z'
loop_
 _atom_site_type_symbol
 _atom_site_label
 _atom_site_symmetry_multiplicity
 _atom_site_fract_x
 _atom_site_fract_y
 _atom_site_fract_z
 _atom_site_occupancy
  Te  Te0  1  0.03466350  0.41454350  0.64310900  1
  Te  Te1  1  0.06603900  0.29201900  0.92271300  1
  Te  Te2  1  0.78864200  0.14961800  0.50212800  1
  Te  Te3  1  0.93396100  0.29201900  0.57728700  1
  Te  Te4  1  0.22035500  0.11528400  0.22515700  1
  Te  Te5  1  0.46533650  0.08545650  0.35689100  1
  Te  Te6  1  0.53466350  0.08545650  0.14310900  1
  Te  Te7  1  0.28864200  0.35038200  0.00212800  1
  Te  Te8  1  0.96533650  0.41454350  0.85689100  1
  Te  Te9  1  0.27964500  0.38471600  0.77484300  1
  Te  Te10  1  0.43396100  0.20798100  0.07728700  1
  Te  Te11  1  0.72035500  0.38471600  0.72515700  1
  Te  Te12  1  0.56603900  0.20798100  0.42271300  1
  Te  Te13  1  0.77964500  0.11528400  0.27484300  1
  Te  Te14  1  0.71135800  0.35038200  0.49787200  1
  Te  Te15  1  0.21135800  0.14961800  0.99787200  1
  Te  Te16  1  0.53466350  0.91454350  0.64310900  1
  Te  Te17  1  0.56603900  0.79201900  0.92271300  1
  Te  Te18  1  0.28864200  0.64961800  0.50212800  1
  Te  Te19  1  0.43396100  0.79201900  0.57728700  1
  Te  Te20  1  0.72035500  0.61528400  0.22515700  1
  Te  Te21  1  0.96533650  0.58545650  0.35689100  1
  Te  Te22  1  0.03466350  0.58545650  0.14310900  1
  Te  Te23  1  0.78864200  0.85038200  0.00212800  1
  Te  Te24  1  0.46533650  0.91454350  0.85689100  1
  Te  Te25  1  0.77964500  0.88471600  0.77484300  1
  Te  Te26  1  0.93396100  0.70798100  0.07728700  1
  Te  Te27  1  0.22035500  0.88471600  0.72515700  1
  Te  Te28  1  0.06603900  0.70798100  0.42271300  1
  Te  Te29  1  0.27964500  0.61528400  0.27484300  1
  Te  Te30  1  0.21135800  0.85038200  0.49787200  1
  Te  Te31  1  0.71135800  0.64961800  0.99787200  1
  W  W32  1  0.28057300  0.38448400  0.39029000  1
  W  W33  1  0.21942700  0.11551600  0.60971000  1
  W  W34  1  0.78057300  0.11551600  0.89029000  1
  W  W35  1  0.71942700  0.38448400  0.10971000  1
  W  W36  1  0.78057300  0.88448400  0.39029000  1
  W  W37  1  0.71942700  0.61551600  0.60971000  1
  W  W38  1  0.28057300  0.61551600  0.89029000  1
  W  W39  1  0.21942700  0.88448400  0.10971000  1
  Cl  Cl40  1  0.74837350  0.03430550  0.00003200  1
  Cl  Cl41  1  0.36608250  0.07199050  0.79467400  1
  Cl  Cl42  1  0.06541950  0.15755650  0.42232600  1
  Cl  Cl43  1  0.63553550  0.17575650  0.91078200  1
  Cl  Cl44  1  0.43458050  0.34244350  0.57767400  1
  Cl  Cl45  1  0.86608250  0.42800950  0.29467400  1
  Cl  Cl46  1  0.75162650  0.46569450  0.99996800  1
  Cl  Cl47  1  0.31132850  0.30089750  0.28025600  1
  Cl  Cl48  1  0.56556300  0.44019400  0.12813700  1
  Cl  Cl49  1  0.06556300  0.05980600  0.62813700  1
  Cl  Cl50  1  0.81132850  0.19910250  0.78025600  1
  Cl  Cl51  1  0.68867150  0.30089750  0.21974400  1
  Cl  Cl52  1  0.36446450  0.17575650  0.58921800  1
  Cl  Cl53  1  0.13553550  0.32424350  0.41078200  1
  Cl  Cl54  1  0.93458050  0.15755650  0.07767400  1
  Cl  Cl55  1  0.93443700  0.05980600  0.87186300  1
  Cl  Cl56  1  0.43443700  0.44019400  0.37186300  1
  Cl  Cl57  1  0.25162650  0.03430550  0.49996800  1
  Cl  Cl58  1  0.56541950  0.34244350  0.92232600  1
  Cl  Cl59  1  0.86446450  0.32424350  0.08921800  1
  Cl  Cl60  1  0.63391750  0.07199050  0.70532600  1
  Cl  Cl61  1  0.24837350  0.46569450  0.50003200  1
  Cl  Cl62  1  0.18867150  0.19910250  0.71974400  1
  Cl  Cl63  1  0.13391750  0.42800950  0.20532600  1
  Cl  Cl64  1  0.24837350  0.53430550  0.00003200  1
  Cl  Cl65  1  0.86608250  0.57199050  0.79467400  1
  Cl  Cl66  1  0.56541950  0.65755650  0.42232600  1
  Cl  Cl67  1  0.13553550  0.67575650  0.91078200  1
  Cl  Cl68  1  0.93458050  0.84244350  0.57767400  1
  Cl  Cl69  1  0.36608250  0.92800950  0.29467400  1
  Cl  Cl70  1  0.25162650  0.96569450  0.99996800  1
  Cl  Cl71  1  0.81132850  0.80089750  0.28025600  1
  Cl  Cl72  1  0.06556300  0.94019400  0.12813700  1
  Cl  Cl73  1  0.56556300  0.55980600  0.62813700  1
  Cl  Cl74  1  0.31132850  0.69910250  0.78025600  1
  Cl  Cl75  1  0.18867150  0.80089750  0.21974400  1
  Cl  Cl76  1  0.86446450  0.67575650  0.58921800  1
  Cl  Cl77  1  0.63553550  0.82424350  0.41078200  1
  Cl  Cl78  1  0.43458050  0.65755650  0.07767400  1
  Cl  Cl79  1  0.43443700  0.55980600  0.87186300  1
  Cl  Cl80  1  0.93443700  0.94019400  0.37186300  1
  Cl  Cl81  1  0.75162650  0.53430550  0.49996800  1
  Cl  Cl82  1  0.06541950  0.84244350  0.92232600  1
  Cl  Cl83  1  0.36446450  0.82424350  0.08921800  1
  Cl  Cl84  1  0.13391750  0.57199050  0.70532600  1
  Cl  Cl85  1  0.74837350  0.96569450  0.50003200  1
  Cl  Cl86  1  0.68867150  0.69910250  0.71974400  1
  Cl  Cl87  1  0.63391750  0.92800950  0.20532600  1
