# generated using pymatgen
data_Sr11Al4In3
_symmetry_space_group_name_H-M   'P 1'
_cell_length_a   17.57840200
_cell_length_b   17.57840200
_cell_length_c   17.57840200
_cell_angle_alpha   90.00000000
_cell_angle_beta   90.00000000
_cell_angle_gamma   90.00000000
_symmetry_Int_Tables_number   1
_chemical_formula_structural   Sr11Al4In3
_chemical_formula_sum   'Sr88 Al32 In24'
_cell_volume   5431.73003029
_cell_formula_units_Z   8
loop_
 _symmetry_equiv_pos_site_id
 _symmetry_equiv_pos_as_xyz
  1  'x, y, z'
loop_
 _atom_site_type_symbol
 _atom_site_label
 _atom_site_symmetry_multiplicity
 _atom_site_fract_x
 _atom_site_fract_y
 _atom_site_fract_z
 _atom_site_occupancy
  Sr  Sr0  1  0.13113767  0.86886233  0.86886233  1
  Sr  Sr1  1  0.13113767  0.13113767  0.86886233  1
  Sr  Sr2  1  0.13113767  0.63113767  0.63113767  1
  Sr  Sr3  1  0.13113767  0.36886233  0.63113767  1
  Sr  Sr4  1  0.36886233  0.36886233  0.86886233  1
  Sr  Sr5  1  0.66790600  0.83209400  0.00000000  1
  Sr  Sr6  1  0.00000000  0.16790600  0.66790600  1
  Sr  Sr7  1  0.33209400  0.16790600  0.00000000  1
  Sr  Sr8  1  0.36886233  0.63113767  0.86886233  1
  Sr  Sr9  1  0.66790600  0.00000000  0.83209400  1
  Sr  Sr10  1  0.50000000  0.16790600  0.83209400  1
  Sr  Sr11  1  0.36886233  0.86886233  0.63113767  1
  Sr  Sr12  1  0.00000000  0.00000000  0.00000000  1
  Sr  Sr13  1  0.50000000  0.83209400  0.83209400  1
  Sr  Sr14  1  0.36886233  0.13113767  0.63113767  1
  Sr  Sr15  1  0.83209400  0.00000000  0.66790600  1
  Sr  Sr16  1  0.00000000  0.83209400  0.66790600  1
  Sr  Sr17  1  0.16790600  0.00000000  0.66790600  1
  Sr  Sr18  1  0.33209400  0.83209400  0.00000000  1
  Sr  Sr19  1  0.50000000  0.00000000  0.00000000  1
  Sr  Sr20  1  0.66790600  0.16790600  0.00000000  1
  Sr  Sr21  1  0.33209400  0.00000000  0.83209400  1
  Sr  Sr22  1  0.13113767  0.36886233  0.36886233  1
  Sr  Sr23  1  0.13113767  0.63113767  0.36886233  1
  Sr  Sr24  1  0.13113767  0.13113767  0.13113767  1
  Sr  Sr25  1  0.13113767  0.86886233  0.13113767  1
  Sr  Sr26  1  0.36886233  0.86886233  0.36886233  1
  Sr  Sr27  1  0.66790600  0.33209400  0.50000000  1
  Sr  Sr28  1  0.00000000  0.66790600  0.16790600  1
  Sr  Sr29  1  0.33209400  0.66790600  0.50000000  1
  Sr  Sr30  1  0.36886233  0.13113767  0.36886233  1
  Sr  Sr31  1  0.66790600  0.50000000  0.33209400  1
  Sr  Sr32  1  0.50000000  0.66790600  0.33209400  1
  Sr  Sr33  1  0.36886233  0.36886233  0.13113767  1
  Sr  Sr34  1  0.00000000  0.50000000  0.50000000  1
  Sr  Sr35  1  0.50000000  0.33209400  0.33209400  1
  Sr  Sr36  1  0.36886233  0.63113767  0.13113767  1
  Sr  Sr37  1  0.83209400  0.50000000  0.16790600  1
  Sr  Sr38  1  0.00000000  0.33209400  0.16790600  1
  Sr  Sr39  1  0.16790600  0.50000000  0.16790600  1
  Sr  Sr40  1  0.33209400  0.33209400  0.50000000  1
  Sr  Sr41  1  0.50000000  0.50000000  0.50000000  1
  Sr  Sr42  1  0.66790600  0.66790600  0.50000000  1
  Sr  Sr43  1  0.33209400  0.50000000  0.33209400  1
  Sr  Sr44  1  0.63113767  0.86886233  0.36886233  1
  Sr  Sr45  1  0.63113767  0.13113767  0.36886233  1
  Sr  Sr46  1  0.63113767  0.63113767  0.13113767  1
  Sr  Sr47  1  0.63113767  0.36886233  0.13113767  1
  Sr  Sr48  1  0.86886233  0.36886233  0.36886233  1
  Sr  Sr49  1  0.16790600  0.83209400  0.50000000  1
  Sr  Sr50  1  0.50000000  0.16790600  0.16790600  1
  Sr  Sr51  1  0.83209400  0.16790600  0.50000000  1
  Sr  Sr52  1  0.86886233  0.63113767  0.36886233  1
  Sr  Sr53  1  0.16790600  0.00000000  0.33209400  1
  Sr  Sr54  1  0.00000000  0.16790600  0.33209400  1
  Sr  Sr55  1  0.86886233  0.86886233  0.13113767  1
  Sr  Sr56  1  0.50000000  0.00000000  0.50000000  1
  Sr  Sr57  1  0.00000000  0.83209400  0.33209400  1
  Sr  Sr58  1  0.86886233  0.13113767  0.13113767  1
  Sr  Sr59  1  0.33209400  0.00000000  0.16790600  1
  Sr  Sr60  1  0.50000000  0.83209400  0.16790600  1
  Sr  Sr61  1  0.66790600  0.00000000  0.16790600  1
  Sr  Sr62  1  0.83209400  0.83209400  0.50000000  1
  Sr  Sr63  1  0.00000000  0.00000000  0.50000000  1
  Sr  Sr64  1  0.16790600  0.16790600  0.50000000  1
  Sr  Sr65  1  0.83209400  0.00000000  0.33209400  1
  Sr  Sr66  1  0.63113767  0.36886233  0.86886233  1
  Sr  Sr67  1  0.63113767  0.63113767  0.86886233  1
  Sr  Sr68  1  0.63113767  0.13113767  0.63113767  1
  Sr  Sr69  1  0.63113767  0.86886233  0.63113767  1
  Sr  Sr70  1  0.86886233  0.86886233  0.86886233  1
  Sr  Sr71  1  0.16790600  0.33209400  0.00000000  1
  Sr  Sr72  1  0.50000000  0.66790600  0.66790600  1
  Sr  Sr73  1  0.83209400  0.66790600  0.00000000  1
  Sr  Sr74  1  0.86886233  0.13113767  0.86886233  1
  Sr  Sr75  1  0.16790600  0.50000000  0.83209400  1
  Sr  Sr76  1  0.00000000  0.66790600  0.83209400  1
  Sr  Sr77  1  0.86886233  0.36886233  0.63113767  1
  Sr  Sr78  1  0.50000000  0.50000000  0.00000000  1
  Sr  Sr79  1  0.00000000  0.33209400  0.83209400  1
  Sr  Sr80  1  0.86886233  0.63113767  0.63113767  1
  Sr  Sr81  1  0.33209400  0.50000000  0.66790600  1
  Sr  Sr82  1  0.50000000  0.33209400  0.66790600  1
  Sr  Sr83  1  0.66790600  0.50000000  0.66790600  1
  Sr  Sr84  1  0.83209400  0.33209400  0.00000000  1
  Sr  Sr85  1  0.00000000  0.50000000  0.00000000  1
  Sr  Sr86  1  0.16790600  0.66790600  0.00000000  1
  Sr  Sr87  1  0.83209400  0.50000000  0.83209400  1
  Al  Al88  1  0.19477533  0.30522467  0.80522467  1
  Al  Al89  1  0.30522467  0.80522467  0.80522467  1
  Al  Al90  1  0.19477533  0.19477533  0.69477533  1
  Al  Al91  1  0.30522467  0.19477533  0.80522467  1
  Al  Al92  1  0.30522467  0.30522467  0.69477533  1
  Al  Al93  1  0.19477533  0.80522467  0.69477533  1
  Al  Al94  1  0.19477533  0.69477533  0.80522467  1
  Al  Al95  1  0.30522467  0.69477533  0.69477533  1
  Al  Al96  1  0.19477533  0.80522467  0.30522467  1
  Al  Al97  1  0.30522467  0.30522467  0.30522467  1
  Al  Al98  1  0.19477533  0.69477533  0.19477533  1
  Al  Al99  1  0.30522467  0.69477533  0.30522467  1
  Al  Al100  1  0.30522467  0.80522467  0.19477533  1
  Al  Al101  1  0.19477533  0.30522467  0.19477533  1
  Al  Al102  1  0.19477533  0.19477533  0.30522467  1
  Al  Al103  1  0.30522467  0.19477533  0.19477533  1
  Al  Al104  1  0.69477533  0.30522467  0.30522467  1
  Al  Al105  1  0.80522467  0.80522467  0.30522467  1
  Al  Al106  1  0.69477533  0.19477533  0.19477533  1
  Al  Al107  1  0.80522467  0.19477533  0.30522467  1
  Al  Al108  1  0.80522467  0.30522467  0.19477533  1
  Al  Al109  1  0.69477533  0.80522467  0.19477533  1
  Al  Al110  1  0.69477533  0.69477533  0.30522467  1
  Al  Al111  1  0.80522467  0.69477533  0.19477533  1
  Al  Al112  1  0.69477533  0.80522467  0.80522467  1
  Al  Al113  1  0.80522467  0.30522467  0.80522467  1
  Al  Al114  1  0.69477533  0.69477533  0.69477533  1
  Al  Al115  1  0.80522467  0.69477533  0.80522467  1
  Al  Al116  1  0.80522467  0.80522467  0.69477533  1
  Al  Al117  1  0.69477533  0.30522467  0.69477533  1
  Al  Al118  1  0.69477533  0.19477533  0.80522467  1
  Al  Al119  1  0.80522467  0.19477533  0.69477533  1
  In  In120  1  0.50000000  0.28169200  0.00000000  1
  In  In121  1  0.21830800  0.00000000  0.00000000  1
  In  In122  1  0.00000000  0.00000000  0.78169200  1
  In  In123  1  0.78169200  0.00000000  0.00000000  1
  In  In124  1  0.50000000  0.71830800  0.00000000  1
  In  In125  1  0.50000000  0.00000000  0.71830800  1
  In  In126  1  0.50000000  0.78169200  0.50000000  1
  In  In127  1  0.21830800  0.50000000  0.50000000  1
  In  In128  1  0.00000000  0.50000000  0.28169200  1
  In  In129  1  0.78169200  0.50000000  0.50000000  1
  In  In130  1  0.50000000  0.21830800  0.50000000  1
  In  In131  1  0.50000000  0.50000000  0.21830800  1
  In  In132  1  0.00000000  0.28169200  0.50000000  1
  In  In133  1  0.71830800  0.00000000  0.50000000  1
  In  In134  1  0.50000000  0.00000000  0.28169200  1
  In  In135  1  0.28169200  0.00000000  0.50000000  1
  In  In136  1  0.00000000  0.71830800  0.50000000  1
  In  In137  1  0.00000000  0.00000000  0.21830800  1
  In  In138  1  0.00000000  0.78169200  0.00000000  1
  In  In139  1  0.71830800  0.50000000  0.00000000  1
  In  In140  1  0.50000000  0.50000000  0.78169200  1
  In  In141  1  0.28169200  0.50000000  0.00000000  1
  In  In142  1  0.00000000  0.21830800  0.00000000  1
  In  In143  1  0.00000000  0.50000000  0.71830800  1
