# generated using pymatgen
data_SrCd2
_symmetry_space_group_name_H-M   'P 1'
_cell_length_a   5.14952200
_cell_length_b   8.13148000
_cell_length_c   8.61967200
_cell_angle_alpha   90.00000000
_cell_angle_beta   90.00000000
_cell_angle_gamma   90.00000000
_symmetry_Int_Tables_number   1
_chemical_formula_structural   SrCd2
_chemical_formula_sum   'Sr4 Cd8'
_cell_volume   360.93355259
_cell_formula_units_Z   4
loop_
 _symmetry_equiv_pos_site_id
 _symmetry_equiv_pos_as_xyz
  1  'x, y, z'
loop_
 _atom_site_type_symbol
 _atom_site_label
 _atom_site_symmetry_multiplicity
 _atom_site_fract_x
 _atom_site_fract_y
 _atom_site_fract_z
 _atom_site_occupancy
  Sr  Sr0  1  0.00000000  0.25000000  0.54581300  1
  Sr  Sr1  1  0.00000000  0.75000000  0.45418700  1
  Sr  Sr2  1  0.50000000  0.75000000  0.04581300  1
  Sr  Sr3  1  0.50000000  0.25000000  0.95418700  1
  Cd  Cd4  1  0.50000000  0.94484750  0.66455650  1
  Cd  Cd5  1  0.50000000  0.05515250  0.33544350  1
  Cd  Cd6  1  0.00000000  0.94484750  0.83544350  1
  Cd  Cd7  1  0.00000000  0.05515250  0.16455650  1
  Cd  Cd8  1  0.00000000  0.44484750  0.16455650  1
  Cd  Cd9  1  0.00000000  0.55515250  0.83544350  1
  Cd  Cd10  1  0.50000000  0.44484750  0.33544350  1
  Cd  Cd11  1  0.50000000  0.55515250  0.66455650  1
