# generated using pymatgen
data_Pr4MgCo
_symmetry_space_group_name_H-M   'P 1'
_cell_length_a   14.21486000
_cell_length_b   14.21486000
_cell_length_c   14.21486000
_cell_angle_alpha   90.00000000
_cell_angle_beta   90.00000000
_cell_angle_gamma   90.00000000
_symmetry_Int_Tables_number   1
_chemical_formula_structural   Pr4MgCo
_chemical_formula_sum   'Pr64 Mg16 Co16'
_cell_volume   2872.28652140
_cell_formula_units_Z   16
loop_
 _symmetry_equiv_pos_site_id
 _symmetry_equiv_pos_as_xyz
  1  'x, y, z'
loop_
 _atom_site_type_symbol
 _atom_site_label
 _atom_site_symmetry_multiplicity
 _atom_site_fract_x
 _atom_site_fract_y
 _atom_site_fract_z
 _atom_site_occupancy
  Pr  Pr0  1  0.90495508  0.40495508  0.59504492  1
  Pr  Pr1  1  0.50000000  0.31123925  0.50000000  1
  Pr  Pr2  1  0.59504492  0.09504492  0.59504492  1
  Pr  Pr3  1  0.00000000  0.00000000  0.31123925  1
  Pr  Pr4  1  0.81123925  0.00000000  0.50000000  1
  Pr  Pr5  1  0.93822575  0.25000000  0.25000000  1
  Pr  Pr6  1  0.56177425  0.25000000  0.25000000  1
  Pr  Pr7  1  0.75000000  0.43822575  0.25000000  1
  Pr  Pr8  1  0.00000000  0.18876075  0.50000000  1
  Pr  Pr9  1  0.75000000  0.25000000  0.43822575  1
  Pr  Pr10  1  0.90495508  0.09504492  0.90495508  1
  Pr  Pr11  1  0.75000000  0.06177425  0.25000000  1
  Pr  Pr12  1  0.18876075  0.00000000  0.50000000  1
  Pr  Pr13  1  0.00000000  0.00000000  0.68876075  1
  Pr  Pr14  1  0.75000000  0.25000000  0.06177425  1
  Pr  Pr15  1  0.59504492  0.40495508  0.90495508  1
  Pr  Pr16  1  0.90495508  0.90495508  0.09504492  1
  Pr  Pr17  1  0.50000000  0.81123925  0.00000000  1
  Pr  Pr18  1  0.59504492  0.59504492  0.09504492  1
  Pr  Pr19  1  0.00000000  0.50000000  0.81123925  1
  Pr  Pr20  1  0.81123925  0.50000000  0.00000000  1
  Pr  Pr21  1  0.93822575  0.75000000  0.75000000  1
  Pr  Pr22  1  0.56177425  0.75000000  0.75000000  1
  Pr  Pr23  1  0.75000000  0.93822575  0.75000000  1
  Pr  Pr24  1  0.00000000  0.68876075  0.00000000  1
  Pr  Pr25  1  0.75000000  0.75000000  0.93822575  1
  Pr  Pr26  1  0.90495508  0.59504492  0.40495508  1
  Pr  Pr27  1  0.75000000  0.56177425  0.75000000  1
  Pr  Pr28  1  0.18876075  0.50000000  0.00000000  1
  Pr  Pr29  1  0.00000000  0.50000000  0.18876075  1
  Pr  Pr30  1  0.75000000  0.75000000  0.56177425  1
  Pr  Pr31  1  0.59504492  0.90495508  0.40495508  1
  Pr  Pr32  1  0.40495508  0.40495508  0.09504492  1
  Pr  Pr33  1  0.00000000  0.31123925  0.00000000  1
  Pr  Pr34  1  0.09504492  0.09504492  0.09504492  1
  Pr  Pr35  1  0.50000000  0.00000000  0.81123925  1
  Pr  Pr36  1  0.31123925  0.00000000  0.00000000  1
  Pr  Pr37  1  0.43822575  0.25000000  0.75000000  1
  Pr  Pr38  1  0.06177425  0.25000000  0.75000000  1
  Pr  Pr39  1  0.25000000  0.43822575  0.75000000  1
  Pr  Pr40  1  0.50000000  0.18876075  0.00000000  1
  Pr  Pr41  1  0.25000000  0.25000000  0.93822575  1
  Pr  Pr42  1  0.40495508  0.09504492  0.40495508  1
  Pr  Pr43  1  0.25000000  0.06177425  0.75000000  1
  Pr  Pr44  1  0.68876075  0.00000000  0.00000000  1
  Pr  Pr45  1  0.50000000  0.00000000  0.18876075  1
  Pr  Pr46  1  0.25000000  0.25000000  0.56177425  1
  Pr  Pr47  1  0.09504492  0.40495508  0.40495508  1
  Pr  Pr48  1  0.40495508  0.90495508  0.59504492  1
  Pr  Pr49  1  0.00000000  0.81123925  0.50000000  1
  Pr  Pr50  1  0.09504492  0.59504492  0.59504492  1
  Pr  Pr51  1  0.50000000  0.50000000  0.31123925  1
  Pr  Pr52  1  0.31123925  0.50000000  0.50000000  1
  Pr  Pr53  1  0.43822575  0.75000000  0.25000000  1
  Pr  Pr54  1  0.06177425  0.75000000  0.25000000  1
  Pr  Pr55  1  0.25000000  0.93822575  0.25000000  1
  Pr  Pr56  1  0.50000000  0.68876075  0.50000000  1
  Pr  Pr57  1  0.25000000  0.75000000  0.43822575  1
  Pr  Pr58  1  0.40495508  0.59504492  0.90495508  1
  Pr  Pr59  1  0.25000000  0.56177425  0.25000000  1
  Pr  Pr60  1  0.68876075  0.50000000  0.50000000  1
  Pr  Pr61  1  0.50000000  0.50000000  0.68876075  1
  Pr  Pr62  1  0.25000000  0.75000000  0.06177425  1
  Pr  Pr63  1  0.09504492  0.90495508  0.90495508  1
  Mg  Mg64  1  0.82865625  0.32865625  0.82865625  1
  Mg  Mg65  1  0.67134375  0.17134375  0.82865625  1
  Mg  Mg66  1  0.82865625  0.17134375  0.67134375  1
  Mg  Mg67  1  0.67134375  0.32865625  0.67134375  1
  Mg  Mg68  1  0.82865625  0.82865625  0.32865625  1
  Mg  Mg69  1  0.67134375  0.67134375  0.32865625  1
  Mg  Mg70  1  0.82865625  0.67134375  0.17134375  1
  Mg  Mg71  1  0.67134375  0.82865625  0.17134375  1
  Mg  Mg72  1  0.32865625  0.32865625  0.32865625  1
  Mg  Mg73  1  0.17134375  0.17134375  0.32865625  1
  Mg  Mg74  1  0.32865625  0.17134375  0.17134375  1
  Mg  Mg75  1  0.17134375  0.32865625  0.17134375  1
  Mg  Mg76  1  0.32865625  0.82865625  0.82865625  1
  Mg  Mg77  1  0.17134375  0.67134375  0.82865625  1
  Mg  Mg78  1  0.32865625  0.67134375  0.67134375  1
  Mg  Mg79  1  0.17134375  0.82865625  0.67134375  1
  Co  Co80  1  0.60946175  0.39053825  0.10946175  1
  Co  Co81  1  0.89053825  0.39053825  0.39053825  1
  Co  Co82  1  0.60946175  0.10946175  0.39053825  1
  Co  Co83  1  0.89053825  0.10946175  0.10946175  1
  Co  Co84  1  0.60946175  0.89053825  0.60946175  1
  Co  Co85  1  0.89053825  0.89053825  0.89053825  1
  Co  Co86  1  0.60946175  0.60946175  0.89053825  1
  Co  Co87  1  0.89053825  0.60946175  0.60946175  1
  Co  Co88  1  0.10946175  0.39053825  0.60946175  1
  Co  Co89  1  0.39053825  0.39053825  0.89053825  1
  Co  Co90  1  0.10946175  0.10946175  0.89053825  1
  Co  Co91  1  0.39053825  0.10946175  0.60946175  1
  Co  Co92  1  0.10946175  0.89053825  0.10946175  1
  Co  Co93  1  0.39053825  0.89053825  0.39053825  1
  Co  Co94  1  0.10946175  0.60946175  0.39053825  1
  Co  Co95  1  0.39053825  0.60946175  0.10946175  1
