# generated using pymatgen
data_Ce3Zn22
_symmetry_space_group_name_H-M   'P 1'
_cell_length_a   8.89563000
_cell_length_b   8.89563000
_cell_length_c   21.21223400
_cell_angle_alpha   90.00000000
_cell_angle_beta   90.00000000
_cell_angle_gamma   90.00000000
_symmetry_Int_Tables_number   1
_chemical_formula_structural   Ce3Zn22
_chemical_formula_sum   'Ce12 Zn88'
_cell_volume   1678.57144539
_cell_formula_units_Z   4
loop_
 _symmetry_equiv_pos_site_id
 _symmetry_equiv_pos_as_xyz
  1  'x, y, z'
loop_
 _atom_site_type_symbol
 _atom_site_label
 _atom_site_symmetry_multiplicity
 _atom_site_fract_x
 _atom_site_fract_y
 _atom_site_fract_z
 _atom_site_occupancy
  Ce  Ce0  1  0.50000000  0.50000000  0.12114200  1
  Ce  Ce1  1  0.50000000  0.00000000  0.37114200  1
  Ce  Ce2  1  0.50000000  0.00000000  0.12885800  1
  Ce  Ce3  1  0.00000000  0.00000000  0.37885800  1
  Ce  Ce4  1  0.00000000  0.50000000  0.25000000  1
  Ce  Ce5  1  0.00000000  0.00000000  0.00000000  1
  Ce  Ce6  1  0.00000000  0.00000000  0.62114200  1
  Ce  Ce7  1  0.00000000  0.50000000  0.87114200  1
  Ce  Ce8  1  0.00000000  0.50000000  0.62885800  1
  Ce  Ce9  1  0.50000000  0.50000000  0.87885800  1
  Ce  Ce10  1  0.50000000  0.00000000  0.75000000  1
  Ce  Ce11  1  0.50000000  0.50000000  0.50000000  1
  Zn  Zn12  1  0.25791900  0.73142100  0.18610300  1
  Zn  Zn13  1  0.25791900  0.26857900  0.18610300  1
  Zn  Zn14  1  0.73142100  0.75791900  0.43610300  1
  Zn  Zn15  1  0.73142100  0.24208100  0.43610300  1
  Zn  Zn16  1  0.74208100  0.73142100  0.18610300  1
  Zn  Zn17  1  0.74208100  0.26857900  0.18610300  1
  Zn  Zn18  1  0.26857900  0.75791900  0.43610300  1
  Zn  Zn19  1  0.26857900  0.24208100  0.43610300  1
  Zn  Zn20  1  0.74208100  0.76857900  0.06389700  1
  Zn  Zn21  1  0.74208100  0.23142100  0.06389700  1
  Zn  Zn22  1  0.76857900  0.24208100  0.31389700  1
  Zn  Zn23  1  0.76857900  0.75791900  0.31389700  1
  Zn  Zn24  1  0.25791900  0.76857900  0.06389700  1
  Zn  Zn25  1  0.25791900  0.23142100  0.06389700  1
  Zn  Zn26  1  0.23142100  0.24208100  0.31389700  1
  Zn  Zn27  1  0.23142100  0.75791900  0.31389700  1
  Zn  Zn28  1  0.77745600  0.00000000  0.49823900  1
  Zn  Zn29  1  0.50000000  0.77745600  0.24823900  1
  Zn  Zn30  1  0.50000000  0.22254400  0.24823900  1
  Zn  Zn31  1  0.22254400  0.00000000  0.49823900  1
  Zn  Zn32  1  0.72254400  0.00000000  0.25176100  1
  Zn  Zn33  1  0.50000000  0.72254400  0.00176100  1
  Zn  Zn34  1  0.50000000  0.27745600  0.00176100  1
  Zn  Zn35  1  0.27745600  0.00000000  0.25176100  1
  Zn  Zn36  1  0.35241300  0.50000000  0.25786000  1
  Zn  Zn37  1  0.00000000  0.35241300  0.00786000  1
  Zn  Zn38  1  0.00000000  0.64758700  0.00786000  1
  Zn  Zn39  1  0.64758700  0.50000000  0.25786000  1
  Zn  Zn40  1  0.14758700  0.50000000  0.49214000  1
  Zn  Zn41  1  0.00000000  0.14758700  0.24214000  1
  Zn  Zn42  1  0.00000000  0.85241300  0.24214000  1
  Zn  Zn43  1  0.85241300  0.50000000  0.49214000  1
  Zn  Zn44  1  0.84817600  0.50000000  0.11225900  1
  Zn  Zn45  1  0.50000000  0.34817600  0.36225900  1
  Zn  Zn46  1  0.50000000  0.65182400  0.36225900  1
  Zn  Zn47  1  0.15182400  0.50000000  0.11225900  1
  Zn  Zn48  1  0.15182400  0.00000000  0.13774100  1
  Zn  Zn49  1  0.00000000  0.65182400  0.38774100  1
  Zn  Zn50  1  0.00000000  0.34817600  0.38774100  1
  Zn  Zn51  1  0.84817600  0.00000000  0.13774100  1
  Zn  Zn52  1  0.25000000  0.50000000  0.37500000  1
  Zn  Zn53  1  0.00000000  0.25000000  0.12500000  1
  Zn  Zn54  1  0.00000000  0.75000000  0.12500000  1
  Zn  Zn55  1  0.75000000  0.50000000  0.37500000  1
  Zn  Zn56  1  0.75791900  0.23142100  0.68610300  1
  Zn  Zn57  1  0.75791900  0.76857900  0.68610300  1
  Zn  Zn58  1  0.23142100  0.25791900  0.93610300  1
  Zn  Zn59  1  0.23142100  0.74208100  0.93610300  1
  Zn  Zn60  1  0.24208100  0.23142100  0.68610300  1
  Zn  Zn61  1  0.24208100  0.76857900  0.68610300  1
  Zn  Zn62  1  0.76857900  0.25791900  0.93610300  1
  Zn  Zn63  1  0.76857900  0.74208100  0.93610300  1
  Zn  Zn64  1  0.24208100  0.26857900  0.56389700  1
  Zn  Zn65  1  0.24208100  0.73142100  0.56389700  1
  Zn  Zn66  1  0.26857900  0.74208100  0.81389700  1
  Zn  Zn67  1  0.26857900  0.25791900  0.81389700  1
  Zn  Zn68  1  0.75791900  0.26857900  0.56389700  1
  Zn  Zn69  1  0.75791900  0.73142100  0.56389700  1
  Zn  Zn70  1  0.73142100  0.74208100  0.81389700  1
  Zn  Zn71  1  0.73142100  0.25791900  0.81389700  1
  Zn  Zn72  1  0.27745600  0.50000000  0.99823900  1
  Zn  Zn73  1  0.00000000  0.27745600  0.74823900  1
  Zn  Zn74  1  0.00000000  0.72254400  0.74823900  1
  Zn  Zn75  1  0.72254400  0.50000000  0.99823900  1
  Zn  Zn76  1  0.22254400  0.50000000  0.75176100  1
  Zn  Zn77  1  0.00000000  0.22254400  0.50176100  1
  Zn  Zn78  1  0.00000000  0.77745600  0.50176100  1
  Zn  Zn79  1  0.77745600  0.50000000  0.75176100  1
  Zn  Zn80  1  0.85241300  0.00000000  0.75786000  1
  Zn  Zn81  1  0.50000000  0.85241300  0.50786000  1
  Zn  Zn82  1  0.50000000  0.14758700  0.50786000  1
  Zn  Zn83  1  0.14758700  0.00000000  0.75786000  1
  Zn  Zn84  1  0.64758700  0.00000000  0.99214000  1
  Zn  Zn85  1  0.50000000  0.64758700  0.74214000  1
  Zn  Zn86  1  0.50000000  0.35241300  0.74214000  1
  Zn  Zn87  1  0.35241300  0.00000000  0.99214000  1
  Zn  Zn88  1  0.34817600  0.00000000  0.61225900  1
  Zn  Zn89  1  0.00000000  0.84817600  0.86225900  1
  Zn  Zn90  1  0.00000000  0.15182400  0.86225900  1
  Zn  Zn91  1  0.65182400  0.00000000  0.61225900  1
  Zn  Zn92  1  0.65182400  0.50000000  0.63774100  1
  Zn  Zn93  1  0.50000000  0.15182400  0.88774100  1
  Zn  Zn94  1  0.50000000  0.84817600  0.88774100  1
  Zn  Zn95  1  0.34817600  0.50000000  0.63774100  1
  Zn  Zn96  1  0.75000000  0.00000000  0.87500000  1
  Zn  Zn97  1  0.50000000  0.75000000  0.62500000  1
  Zn  Zn98  1  0.50000000  0.25000000  0.62500000  1
  Zn  Zn99  1  0.25000000  0.00000000  0.87500000  1
