# generated using pymatgen
data_Y12Ni6Pb
_symmetry_space_group_name_H-M   'P 1'
_cell_length_a   9.79690600
_cell_length_b   9.79690600
_cell_length_c   9.79690600
_cell_angle_alpha   90.00000000
_cell_angle_beta   90.00000000
_cell_angle_gamma   90.00000000
_symmetry_Int_Tables_number   1
_chemical_formula_structural   Y12Ni6Pb
_chemical_formula_sum   'Y24 Ni12 Pb2'
_cell_volume   940.30083813
_cell_formula_units_Z   2
loop_
 _symmetry_equiv_pos_site_id
 _symmetry_equiv_pos_as_xyz
  1  'x, y, z'
loop_
 _atom_site_type_symbol
 _atom_site_label
 _atom_site_symmetry_multiplicity
 _atom_site_fract_x
 _atom_site_fract_y
 _atom_site_fract_z
 _atom_site_occupancy
  Y  Y0  1  0.19702250  0.50000000  0.31083850  1
  Y  Y1  1  0.18916150  0.69702250  0.00000000  1
  Y  Y2  1  0.69702250  0.00000000  0.18916150  1
  Y  Y3  1  0.18916150  0.30297750  0.00000000  1
  Y  Y4  1  0.31083850  0.19702250  0.50000000  1
  Y  Y5  1  0.00000000  0.18916150  0.30297750  1
  Y  Y6  1  0.80297750  0.50000000  0.31083850  1
  Y  Y7  1  0.00000000  0.18916150  0.69702250  1
  Y  Y8  1  0.50000000  0.31083850  0.80297750  1
  Y  Y9  1  0.31083850  0.80297750  0.50000000  1
  Y  Y10  1  0.50000000  0.31083850  0.19702250  1
  Y  Y11  1  0.30297750  0.00000000  0.18916150  1
  Y  Y12  1  0.69702250  0.00000000  0.81083850  1
  Y  Y13  1  0.68916150  0.19702250  0.50000000  1
  Y  Y14  1  0.19702250  0.50000000  0.68916150  1
  Y  Y15  1  0.68916150  0.80297750  0.50000000  1
  Y  Y16  1  0.81083850  0.69702250  0.00000000  1
  Y  Y17  1  0.50000000  0.68916150  0.80297750  1
  Y  Y18  1  0.30297750  0.00000000  0.81083850  1
  Y  Y19  1  0.50000000  0.68916150  0.19702250  1
  Y  Y20  1  0.00000000  0.81083850  0.30297750  1
  Y  Y21  1  0.81083850  0.30297750  0.00000000  1
  Y  Y22  1  0.00000000  0.81083850  0.69702250  1
  Y  Y23  1  0.80297750  0.50000000  0.68916150  1
  Ni  Ni24  1  0.00000000  0.50000000  0.12201200  1
  Ni  Ni25  1  0.12201200  0.00000000  0.50000000  1
  Ni  Ni26  1  0.37798800  0.50000000  0.00000000  1
  Ni  Ni27  1  0.50000000  0.00000000  0.37798800  1
  Ni  Ni28  1  0.50000000  0.12201200  0.00000000  1
  Ni  Ni29  1  0.00000000  0.37798800  0.50000000  1
  Ni  Ni30  1  0.50000000  0.00000000  0.62201200  1
  Ni  Ni31  1  0.62201200  0.50000000  0.00000000  1
  Ni  Ni32  1  0.87798800  0.00000000  0.50000000  1
  Ni  Ni33  1  0.00000000  0.50000000  0.87798800  1
  Ni  Ni34  1  0.00000000  0.62201200  0.50000000  1
  Ni  Ni35  1  0.50000000  0.87798800  0.00000000  1
  Pb  Pb36  1  0.00000000  0.00000000  0.00000000  1
  Pb  Pb37  1  0.50000000  0.50000000  0.50000000  1
