# generated using pymatgen
data_W9C4
_symmetry_space_group_name_H-M   'P 1'
_cell_length_a   9.03798867
_cell_length_b   9.03798867
_cell_length_c   14.34200724
_cell_angle_alpha   90.00000000
_cell_angle_beta   90.00000000
_cell_angle_gamma   120.00000000
_symmetry_Int_Tables_number   1
_chemical_formula_structural   W9C4
_chemical_formula_sum   'W54 C24'
_cell_volume   1014.57499428
_cell_formula_units_Z   6
loop_
 _symmetry_equiv_pos_site_id
 _symmetry_equiv_pos_as_xyz
  1  'x, y, z'
loop_
 _atom_site_type_symbol
 _atom_site_label
 _atom_site_symmetry_multiplicity
 _atom_site_fract_x
 _atom_site_fract_y
 _atom_site_fract_z
 _atom_site_occupancy
  W  W0  1  0.55646000  0.11150400  0.24823600  1
  W  W1  1  0.22596400  0.77309500  0.91679500  1
  W  W2  1  0.54713100  0.77403600  0.91679500  1
  W  W3  1  0.22187900  0.44545100  0.25138900  1
  W  W4  1  0.55504400  0.44354000  0.24823600  1
  W  W5  1  0.11162267  0.22182933  0.08509733  1
  W  W6  1  0.88849600  0.44495600  0.24823600  1
  W  W7  1  0.22690500  0.45286900  0.91679500  1
  W  W8  1  0.11953567  0.56023833  0.41653833  1
  W  W9  1  0.22357200  0.77812100  0.25138900  1
  W  W10  1  0.43976167  0.55929733  0.41653833  1
  W  W11  1  0.44070267  0.88046433  0.41653833  1
  W  W12  1  0.55454900  0.77642800  0.25138900  1
  W  W13  1  0.11211767  0.55521233  0.08194433  1
  W  W14  1  0.44478767  0.55690533  0.08194433  1
  W  W15  1  0.44309467  0.88788233  0.08194433  1
  W  W16  1  0.77817067  0.88979333  0.08509733  1
  W  W17  1  0.11020667  0.88837733  0.08509733  1
  W  W18  1  0.22312667  0.44483733  0.58156933  1
  W  W19  1  0.89263067  0.10642833  0.25012833  1
  W  W20  1  0.21379767  0.10736933  0.25012833  1
  W  W21  1  0.88854567  0.77878433  0.58472233  1
  W  W22  1  0.22171067  0.77687333  0.58156933  1
  W  W23  1  0.77828933  0.55516267  0.41843067  1
  W  W24  1  0.55516267  0.77828933  0.58156933  1
  W  W25  1  0.89357167  0.78620233  0.25012833  1
  W  W26  1  0.78620233  0.89357167  0.74987167  1
  W  W27  1  0.89023867  0.11145433  0.58472233  1
  W  W28  1  0.10642833  0.89263067  0.74987167  1
  W  W29  1  0.10736933  0.21379767  0.74987167  1
  W  W30  1  0.22121567  0.10976133  0.58472233  1
  W  W31  1  0.77878433  0.88854567  0.41527767  1
  W  W32  1  0.11145433  0.89023867  0.41527767  1
  W  W33  1  0.10976133  0.22121567  0.41527767  1
  W  W34  1  0.44483733  0.22312667  0.41843067  1
  W  W35  1  0.77687333  0.22171067  0.41843067  1
  W  W36  1  0.88979333  0.77817067  0.91490267  1
  W  W37  1  0.55929733  0.43976167  0.58346167  1
  W  W38  1  0.88046433  0.44070267  0.58346167  1
  W  W39  1  0.55521233  0.11211767  0.91805567  1
  W  W40  1  0.88837733  0.11020667  0.91490267  1
  W  W41  1  0.44495600  0.88849600  0.75176400  1
  W  W42  1  0.22182933  0.11162267  0.91490267  1
  W  W43  1  0.56023833  0.11953567  0.58346167  1
  W  W44  1  0.45286900  0.22690500  0.08320500  1
  W  W45  1  0.55690533  0.44478767  0.91805567  1
  W  W46  1  0.77309500  0.22596400  0.08320500  1
  W  W47  1  0.77403600  0.54713100  0.08320500  1
  W  W48  1  0.88788233  0.44309467  0.91805567  1
  W  W49  1  0.44545100  0.22187900  0.74861100  1
  W  W50  1  0.77812100  0.22357200  0.74861100  1
  W  W51  1  0.77642800  0.55454900  0.74861100  1
  W  W52  1  0.11150400  0.55646000  0.75176400  1
  W  W53  1  0.44354000  0.55504400  0.75176400  1
  C  C54  1  0.33333333  0.00099467  0.16666667  1
  C  C55  1  0.99900533  0.33233867  0.16666667  1
  C  C56  1  0.66771800  0.00000000  0.00000000  1
  C  C57  1  0.66766133  0.66666667  0.16666667  1
  C  C58  1  0.00000000  0.00000000  0.00000000  1
  C  C59  1  0.99894867  0.66561533  0.33333333  1
  C  C60  1  0.33333333  0.66666667  0.16666667  1
  C  C61  1  0.00000000  0.66771800  0.00000000  1
  C  C62  1  0.00000000  0.33432800  0.50000000  1
  C  C63  1  0.66567200  0.66567200  0.50000000  1
  C  C64  1  0.33438467  0.33333333  0.33333333  1
  C  C65  1  0.33432800  0.00000000  0.50000000  1
  C  C66  1  0.66666667  0.33333333  0.33333333  1
  C  C67  1  0.66561533  0.99894867  0.66666667  1
  C  C68  1  0.00000000  0.00000000  0.50000000  1
  C  C69  1  0.66666667  0.00105133  0.33333333  1
  C  C70  1  0.66666667  0.66766133  0.83333333  1
  C  C71  1  0.33233867  0.99900533  0.83333333  1
  C  C72  1  0.00105133  0.66666667  0.66666667  1
  C  C73  1  0.00099467  0.33333333  0.83333333  1
  C  C74  1  0.33333333  0.66666667  0.66666667  1
  C  C75  1  0.33228200  0.33228200  0.00000000  1
  C  C76  1  0.66666667  0.33333333  0.83333333  1
  C  C77  1  0.33333333  0.33438467  0.66666667  1
