# generated using pymatgen
data_Ge5(Te4As)2
_symmetry_space_group_name_H-M   'P 1'
_cell_length_a   13.19581600
_cell_length_b   5.94756400
_cell_length_c   11.84811293
_cell_angle_alpha   90.00000000
_cell_angle_beta   116.63875036
_cell_angle_gamma   90.00000000
_symmetry_Int_Tables_number   1
_chemical_formula_structural   Ge5(Te4As)2
_chemical_formula_sum   'Ge10 Te16 As4'
_cell_volume   831.16986577
_cell_formula_units_Z   2
loop_
 _symmetry_equiv_pos_site_id
 _symmetry_equiv_pos_as_xyz
  1  'x, y, z'
loop_
 _atom_site_type_symbol
 _atom_site_label
 _atom_site_symmetry_multiplicity
 _atom_site_fract_x
 _atom_site_fract_y
 _atom_site_fract_z
 _atom_site_occupancy
  Ge  Ge0  1  0.00000000  0.00000000  0.00000000  1
  Ge  Ge1  1  0.74960100  0.50000000  0.87436100  1
  Ge  Ge2  1  0.49689300  0.00000000  0.74686400  1
  Ge  Ge3  1  0.25039900  0.50000000  0.12563900  1
  Ge  Ge4  1  0.50310700  0.00000000  0.25313600  1
  Ge  Ge5  1  0.50000000  0.50000000  0.00000000  1
  Ge  Ge6  1  0.24960100  0.00000000  0.87436100  1
  Ge  Ge7  1  0.99689300  0.50000000  0.74686400  1
  Ge  Ge8  1  0.75039900  0.00000000  0.12563900  1
  Ge  Ge9  1  0.00310700  0.50000000  0.25313600  1
  Te  Te10  1  0.75070900  0.00000000  0.87472200  1
  Te  Te11  1  0.49920700  0.50000000  0.75008900  1
  Te  Te12  1  0.50000000  0.00000000  0.50000000  1
  Te  Te13  1  0.75081800  0.50000000  0.62458200  1
  Te  Te14  1  0.50079300  0.50000000  0.24991100  1
  Te  Te15  1  0.24918200  0.50000000  0.37541800  1
  Te  Te16  1  0.00000000  0.50000000  0.00000000  1
  Te  Te17  1  0.24929100  0.00000000  0.12527800  1
  Te  Te18  1  0.25070900  0.50000000  0.87472200  1
  Te  Te19  1  0.99920700  0.00000000  0.75008900  1
  Te  Te20  1  0.00000000  0.50000000  0.50000000  1
  Te  Te21  1  0.25081800  0.00000000  0.62458200  1
  Te  Te22  1  0.00079300  0.00000000  0.24991100  1
  Te  Te23  1  0.74918200  0.00000000  0.37541800  1
  Te  Te24  1  0.50000000  0.00000000  0.00000000  1
  Te  Te25  1  0.74929100  0.50000000  0.12527800  1
  As  As26  1  0.74991400  0.00000000  0.62460800  1
  As  As27  1  0.25008600  0.00000000  0.37539200  1
  As  As28  1  0.24991400  0.50000000  0.62460800  1
  As  As29  1  0.75008600  0.50000000  0.37539200  1
