# generated using pymatgen
data_Ni3(BiO2)10
_symmetry_space_group_name_H-M   'P 1'
_cell_length_a   14.31525400
_cell_length_b   10.01547400
_cell_length_c   10.02650980
_cell_angle_alpha   90.00000000
_cell_angle_beta   134.37406516
_cell_angle_gamma   90.00000000
_symmetry_Int_Tables_number   1
_chemical_formula_structural   Ni3(BiO2)10
_chemical_formula_sum   'Ni6 Bi20 O40'
_cell_volume   1027.53919364
_cell_formula_units_Z   2
loop_
 _symmetry_equiv_pos_site_id
 _symmetry_equiv_pos_as_xyz
  1  'x, y, z'
loop_
 _atom_site_type_symbol
 _atom_site_label
 _atom_site_symmetry_multiplicity
 _atom_site_fract_x
 _atom_site_fract_y
 _atom_site_fract_z
 _atom_site_occupancy
  Ni  Ni0  1  0.00000000  0.99958400  0.00000000  1
  Ni  Ni1  1  0.28652200  0.52257400  0.11512900  1
  Ni  Ni2  1  0.21347800  0.02257400  0.88487100  1
  Ni  Ni3  1  0.50000000  0.49958400  0.00000000  1
  Ni  Ni4  1  0.78652200  0.02257400  0.11512900  1
  Ni  Ni5  1  0.71347800  0.52257400  0.88487100  1
  Bi  Bi6  1  0.81507400  0.67394300  0.28884100  1
  Bi  Bi7  1  0.51835550  0.81229550  0.84146700  1
  Bi  Bi8  1  0.18492600  0.67394300  0.71115900  1
  Bi  Bi9  1  0.16692350  0.98860650  0.49874900  1
  Bi  Bi10  1  0.48320250  0.18010050  0.80828400  1
  Bi  Bi11  1  0.98164450  0.31229550  0.15853300  1
  Bi  Bi12  1  0.33307650  0.48860650  0.50125100  1
  Bi  Bi13  1  0.31428450  0.82601950  0.31935800  1
  Bi  Bi14  1  0.01679750  0.68010050  0.19171600  1
  Bi  Bi15  1  0.68571550  0.82601950  0.68064200  1
  Bi  Bi16  1  0.31507400  0.17394300  0.28884100  1
  Bi  Bi17  1  0.01835550  0.31229550  0.84146700  1
  Bi  Bi18  1  0.68492600  0.17394300  0.71115900  1
  Bi  Bi19  1  0.66692350  0.48860650  0.49874900  1
  Bi  Bi20  1  0.98320250  0.68010050  0.80828400  1
  Bi  Bi21  1  0.48164450  0.81229550  0.15853300  1
  Bi  Bi22  1  0.83307650  0.98860650  0.50125100  1
  Bi  Bi23  1  0.81428450  0.32601950  0.31935800  1
  Bi  Bi24  1  0.51679750  0.18010050  0.19171600  1
  Bi  Bi25  1  0.18571550  0.32601950  0.68064200  1
  O  O26  1  0.36190850  0.00756350  0.61814800  1
  O  O27  1  0.99514150  0.75181850  0.36543900  1
  O  O28  1  0.19453250  0.80657450  0.38795200  1
  O  O29  1  0.19119550  0.18258950  0.98404400  1
  O  O30  1  0.62419550  0.98915150  0.86238400  1
  O  O31  1  0.00485850  0.75181850  0.63456100  1
  O  O32  1  0.39332900  0.61590800  0.79256600  1
  O  O33  1  0.25555350  0.37688750  0.24289800  1
  O  O34  1  0.24444650  0.87688750  0.75710200  1
  O  O35  1  0.30880450  0.68258950  0.01595600  1
  O  O36  1  0.10667100  0.11590800  0.20743400  1
  O  O37  1  0.25053200  0.62762800  0.24006800  1
  O  O38  1  0.24946800  0.12762800  0.75993200  1
  O  O39  1  0.60366750  0.38987050  0.99601600  1
  O  O40  1  0.51622750  0.74867750  0.38914700  1
  O  O41  1  0.87580450  0.48915150  0.13761600  1
  O  O42  1  0.48377250  0.74867750  0.61085300  1
  O  O43  1  0.13809150  0.50756350  0.38185200  1
  O  O44  1  0.89633250  0.88987050  0.00398400  1
  O  O45  1  0.80546750  0.80657450  0.61204800  1
  O  O46  1  0.86190850  0.50756350  0.61814800  1
  O  O47  1  0.49514150  0.25181850  0.36543900  1
  O  O48  1  0.69453250  0.30657450  0.38795200  1
  O  O49  1  0.69119550  0.68258950  0.98404400  1
  O  O50  1  0.12419550  0.48915150  0.86238400  1
  O  O51  1  0.50485850  0.25181850  0.63456100  1
  O  O52  1  0.89332900  0.11590800  0.79256600  1
  O  O53  1  0.75555350  0.87688750  0.24289800  1
  O  O54  1  0.74444650  0.37688750  0.75710200  1
  O  O55  1  0.80880450  0.18258950  0.01595600  1
  O  O56  1  0.60667100  0.61590800  0.20743400  1
  O  O57  1  0.75053200  0.12762800  0.24006800  1
  O  O58  1  0.74946800  0.62762800  0.75993200  1
  O  O59  1  0.10366750  0.88987050  0.99601600  1
  O  O60  1  0.01622750  0.24867750  0.38914700  1
  O  O61  1  0.37580450  0.98915150  0.13761600  1
  O  O62  1  0.98377250  0.24867750  0.61085300  1
  O  O63  1  0.63809150  0.00756350  0.38185200  1
  O  O64  1  0.39633250  0.38987050  0.00398400  1
  O  O65  1  0.30546750  0.30657450  0.61204800  1
