# generated using pymatgen
data_Mg3Sn
_symmetry_space_group_name_H-M   'P 1'
_cell_length_a   6.32888220
_cell_length_b   6.32888220
_cell_length_c   5.26949301
_cell_angle_alpha   90.00000000
_cell_angle_beta   90.00000000
_cell_angle_gamma   120.00000000
_symmetry_Int_Tables_number   1
_chemical_formula_structural   Mg3Sn
_chemical_formula_sum   'Mg6 Sn2'
_cell_volume   182.79044454
_cell_formula_units_Z   2
loop_
 _symmetry_equiv_pos_site_id
 _symmetry_equiv_pos_as_xyz
  1  'x, y, z'
loop_
 _atom_site_type_symbol
 _atom_site_label
 _atom_site_symmetry_multiplicity
 _atom_site_fract_x
 _atom_site_fract_y
 _atom_site_fract_z
 _atom_site_occupancy
  Mg  Mg0  1  0.84211762  0.66874072  0.75000000  1
  Mg  Mg1  1  0.33125928  0.17337691  0.75000000  1
  Mg  Mg2  1  0.82662309  0.15788238  0.75000000  1
  Mg  Mg3  1  0.15788238  0.33125928  0.25000000  1
  Mg  Mg4  1  0.66874072  0.82662309  0.25000000  1
  Mg  Mg5  1  0.17337691  0.84211762  0.25000000  1
  Sn  Sn6  1  0.33333333  0.66666667  0.75000000  1
  Sn  Sn7  1  0.66666667  0.33333333  0.25000000  1
