# generated using pymatgen
data_CaCu3(RuO3)4
_symmetry_space_group_name_H-M   'P 1'
_cell_length_a   7.49932200
_cell_length_b   7.49932200
_cell_length_c   7.49932200
_cell_angle_alpha   90.00000000
_cell_angle_beta   90.00000000
_cell_angle_gamma   90.00000000
_symmetry_Int_Tables_number   1
_chemical_formula_structural   CaCu3(RuO3)4
_chemical_formula_sum   'Ca2 Cu6 Ru8 O24'
_cell_volume   421.76059784
_cell_formula_units_Z   2
loop_
 _symmetry_equiv_pos_site_id
 _symmetry_equiv_pos_as_xyz
  1  'x, y, z'
loop_
 _atom_site_type_symbol
 _atom_site_label
 _atom_site_symmetry_multiplicity
 _atom_site_fract_x
 _atom_site_fract_y
 _atom_site_fract_z
 _atom_site_occupancy
  Ca  Ca0  1  0.00000000  0.00000000  0.00000000  1
  Ca  Ca1  1  0.50000000  0.50000000  0.50000000  1
  Cu  Cu2  1  0.00000000  0.50000000  0.00000000  1
  Cu  Cu3  1  0.50000000  0.00000000  0.00000000  1
  Cu  Cu4  1  0.00000000  0.00000000  0.50000000  1
  Cu  Cu5  1  0.50000000  0.00000000  0.50000000  1
  Cu  Cu6  1  0.00000000  0.50000000  0.50000000  1
  Cu  Cu7  1  0.50000000  0.50000000  0.00000000  1
  Ru  Ru8  1  0.25000000  0.25000000  0.75000000  1
  Ru  Ru9  1  0.75000000  0.25000000  0.25000000  1
  Ru  Ru10  1  0.25000000  0.75000000  0.25000000  1
  Ru  Ru11  1  0.25000000  0.25000000  0.25000000  1
  Ru  Ru12  1  0.75000000  0.75000000  0.25000000  1
  Ru  Ru13  1  0.25000000  0.75000000  0.75000000  1
  Ru  Ru14  1  0.75000000  0.25000000  0.75000000  1
  Ru  Ru15  1  0.75000000  0.75000000  0.75000000  1
  O  O16  1  0.32771300  0.19363000  0.50000000  1
  O  O17  1  0.17228700  0.69363000  0.00000000  1
  O  O18  1  0.32771300  0.80637000  0.50000000  1
  O  O19  1  0.17228700  0.30637000  0.00000000  1
  O  O20  1  0.19363000  0.50000000  0.32771300  1
  O  O21  1  0.69363000  0.00000000  0.17228700  1
  O  O22  1  0.80637000  0.50000000  0.32771300  1
  O  O23  1  0.30637000  0.00000000  0.17228700  1
  O  O24  1  0.50000000  0.32771300  0.19363000  1
  O  O25  1  0.00000000  0.17228700  0.69363000  1
  O  O26  1  0.50000000  0.32771300  0.80637000  1
  O  O27  1  0.00000000  0.17228700  0.30637000  1
  O  O28  1  0.82771300  0.69363000  0.00000000  1
  O  O29  1  0.67228700  0.19363000  0.50000000  1
  O  O30  1  0.82771300  0.30637000  0.00000000  1
  O  O31  1  0.67228700  0.80637000  0.50000000  1
  O  O32  1  0.69363000  0.00000000  0.82771300  1
  O  O33  1  0.19363000  0.50000000  0.67228700  1
  O  O34  1  0.30637000  0.00000000  0.82771300  1
  O  O35  1  0.80637000  0.50000000  0.67228700  1
  O  O36  1  0.00000000  0.82771300  0.69363000  1
  O  O37  1  0.50000000  0.67228700  0.19363000  1
  O  O38  1  0.00000000  0.82771300  0.30637000  1
  O  O39  1  0.50000000  0.67228700  0.80637000  1
