# generated using pymatgen
data_Ca(CeTe2)2
_symmetry_space_group_name_H-M   'P 1'
_cell_length_a   9.55029800
_cell_length_b   9.55029800
_cell_length_c   9.65851200
_cell_angle_alpha   90.00000000
_cell_angle_beta   90.00000000
_cell_angle_gamma   90.00000000
_symmetry_Int_Tables_number   1
_chemical_formula_structural   Ca(CeTe2)2
_chemical_formula_sum   'Ca4 Ce8 Te16'
_cell_volume   880.93541586
_cell_formula_units_Z   4
loop_
 _symmetry_equiv_pos_site_id
 _symmetry_equiv_pos_as_xyz
  1  'x, y, z'
loop_
 _atom_site_type_symbol
 _atom_site_label
 _atom_site_symmetry_multiplicity
 _atom_site_fract_x
 _atom_site_fract_y
 _atom_site_fract_z
 _atom_site_occupancy
  Ca  Ca0  1  0.00000000  0.50000000  0.25000000  1
  Ca  Ca1  1  0.00000000  0.00000000  0.00000000  1
  Ca  Ca2  1  0.50000000  0.00000000  0.75000000  1
  Ca  Ca3  1  0.50000000  0.50000000  0.50000000  1
  Ce  Ce4  1  0.87328100  0.25000000  0.62500000  1
  Ce  Ce5  1  0.25000000  0.37328100  0.87500000  1
  Ce  Ce6  1  0.62671900  0.25000000  0.12500000  1
  Ce  Ce7  1  0.25000000  0.12671900  0.37500000  1
  Ce  Ce8  1  0.37328100  0.75000000  0.12500000  1
  Ce  Ce9  1  0.75000000  0.87328100  0.37500000  1
  Ce  Ce10  1  0.12671900  0.75000000  0.62500000  1
  Ce  Ce11  1  0.75000000  0.62671900  0.87500000  1
  Te  Te12  1  0.07483550  0.67729650  0.94715450  1
  Te  Te13  1  0.32270350  0.42516450  0.19715450  1
  Te  Te14  1  0.92516450  0.17729650  0.30284550  1
  Te  Te15  1  0.32270350  0.07483550  0.05284550  1
  Te  Te16  1  0.17729650  0.07483550  0.69715450  1
  Te  Te17  1  0.57483550  0.32270350  0.80284550  1
  Te  Te18  1  0.17729650  0.42516450  0.55284550  1
  Te  Te19  1  0.42516450  0.82270350  0.44715450  1
  Te  Te20  1  0.57483550  0.17729650  0.44715450  1
  Te  Te21  1  0.82270350  0.92516450  0.69715450  1
  Te  Te22  1  0.42516450  0.67729650  0.80284550  1
  Te  Te23  1  0.82270350  0.57483550  0.55284550  1
  Te  Te24  1  0.67729650  0.57483550  0.19715450  1
  Te  Te25  1  0.07483550  0.82270350  0.30284550  1
  Te  Te26  1  0.67729650  0.92516450  0.05284550  1
  Te  Te27  1  0.92516450  0.32270350  0.94715450  1
