# generated using pymatgen
data_CsCrI2
_symmetry_space_group_name_H-M   'P 1'
_cell_length_a   8.74949200
_cell_length_b   13.65987200
_cell_length_c   6.51495600
_cell_angle_alpha   90.00000000
_cell_angle_beta   90.00000000
_cell_angle_gamma   90.00000000
_symmetry_Int_Tables_number   1
_chemical_formula_structural   CsCrI2
_chemical_formula_sum   'Cs4 Cr4 I8'
_cell_volume   778.64761047
_cell_formula_units_Z   4
loop_
 _symmetry_equiv_pos_site_id
 _symmetry_equiv_pos_as_xyz
  1  'x, y, z'
loop_
 _atom_site_type_symbol
 _atom_site_label
 _atom_site_symmetry_multiplicity
 _atom_site_fract_x
 _atom_site_fract_y
 _atom_site_fract_z
 _atom_site_occupancy
  Cs  Cs0  1  0.50000000  0.15959300  0.75000000  1
  Cs  Cs1  1  0.50000000  0.84040700  0.25000000  1
  Cs  Cs2  1  0.00000000  0.65959300  0.75000000  1
  Cs  Cs3  1  0.00000000  0.34040700  0.25000000  1
  Cr  Cr4  1  0.00000000  0.00000000  0.50000000  1
  Cr  Cr5  1  0.00000000  0.00000000  0.00000000  1
  Cr  Cr6  1  0.50000000  0.50000000  0.50000000  1
  Cr  Cr7  1  0.50000000  0.50000000  0.00000000  1
  I  I8  1  0.23551050  0.09426050  0.25000000  1
  I  I9  1  0.76448950  0.09426050  0.25000000  1
  I  I10  1  0.23551050  0.90573950  0.75000000  1
  I  I11  1  0.76448950  0.90573950  0.75000000  1
  I  I12  1  0.73551050  0.59426050  0.25000000  1
  I  I13  1  0.26448950  0.59426050  0.25000000  1
  I  I14  1  0.73551050  0.40573950  0.75000000  1
  I  I15  1  0.26448950  0.40573950  0.75000000  1
