# generated using pymatgen
data_Cu6PbO8
_symmetry_space_group_name_H-M   'P 1'
_cell_length_a   5.94670000
_cell_length_b   6.18925000
_cell_length_c   8.92021600
_cell_angle_alpha   90.00000000
_cell_angle_beta   90.00000000
_cell_angle_gamma   90.00000000
_symmetry_Int_Tables_number   1
_chemical_formula_structural   Cu6PbO8
_chemical_formula_sum   'Cu12 Pb2 O16'
_cell_volume   328.31401775
_cell_formula_units_Z   2
loop_
 _symmetry_equiv_pos_site_id
 _symmetry_equiv_pos_as_xyz
  1  'x, y, z'
loop_
 _atom_site_type_symbol
 _atom_site_label
 _atom_site_symmetry_multiplicity
 _atom_site_fract_x
 _atom_site_fract_y
 _atom_site_fract_z
 _atom_site_occupancy
  Cu  Cu0  1  0.75000000  0.75000000  0.75000000  1
  Cu  Cu1  1  0.75000000  0.25000000  0.75000000  1
  Cu  Cu2  1  0.25000000  0.75000000  0.75000000  1
  Cu  Cu3  1  0.00000000  0.50000000  0.00000000  1
  Cu  Cu4  1  0.50000000  0.50000000  0.00000000  1
  Cu  Cu5  1  0.25000000  0.25000000  0.75000000  1
  Cu  Cu6  1  0.25000000  0.25000000  0.25000000  1
  Cu  Cu7  1  0.25000000  0.75000000  0.25000000  1
  Cu  Cu8  1  0.75000000  0.25000000  0.25000000  1
  Cu  Cu9  1  0.50000000  0.00000000  0.50000000  1
  Cu  Cu10  1  0.00000000  0.00000000  0.50000000  1
  Cu  Cu11  1  0.75000000  0.75000000  0.25000000  1
  Pb  Pb12  1  0.00000000  0.00000000  0.00000000  1
  Pb  Pb13  1  0.50000000  0.50000000  0.50000000  1
  O  O14  1  0.50000000  0.00000000  0.73124500  1
  O  O15  1  0.00000000  0.00000000  0.74024400  1
  O  O16  1  0.75280750  0.27952450  0.00000000  1
  O  O17  1  0.75280750  0.72047550  0.00000000  1
  O  O18  1  0.24719250  0.27952450  0.00000000  1
  O  O19  1  0.74719250  0.22047550  0.50000000  1
  O  O20  1  0.50000000  0.50000000  0.75975600  1
  O  O21  1  0.00000000  0.50000000  0.76875500  1
  O  O22  1  0.00000000  0.50000000  0.23124500  1
  O  O23  1  0.50000000  0.50000000  0.24024400  1
  O  O24  1  0.25280750  0.77952450  0.50000000  1
  O  O25  1  0.25280750  0.22047550  0.50000000  1
  O  O26  1  0.74719250  0.77952450  0.50000000  1
  O  O27  1  0.24719250  0.72047550  0.00000000  1
  O  O28  1  0.00000000  0.00000000  0.25975600  1
  O  O29  1  0.50000000  0.00000000  0.26875500  1
