# generated using pymatgen
data_V(FeO2)2
_symmetry_space_group_name_H-M   'P 1'
_cell_length_a   6.03563200
_cell_length_b   6.12033200
_cell_length_c   8.60343200
_cell_angle_alpha   90.00000000
_cell_angle_beta   90.00000000
_cell_angle_gamma   90.00000000
_symmetry_Int_Tables_number   1
_chemical_formula_structural   V(FeO2)2
_chemical_formula_sum   'V4 Fe8 O16'
_cell_volume   317.81139469
_cell_formula_units_Z   4
loop_
 _symmetry_equiv_pos_site_id
 _symmetry_equiv_pos_as_xyz
  1  'x, y, z'
loop_
 _atom_site_type_symbol
 _atom_site_label
 _atom_site_symmetry_multiplicity
 _atom_site_fract_x
 _atom_site_fract_y
 _atom_site_fract_z
 _atom_site_occupancy
  V  V0  1  0.50000000  0.00000000  0.00000000  1
  V  V1  1  0.00000000  0.00000000  0.50000000  1
  V  V2  1  0.00000000  0.50000000  0.50000000  1
  V  V3  1  0.50000000  0.50000000  0.00000000  1
  Fe  Fe4  1  0.50000000  0.25000000  0.37039500  1
  Fe  Fe5  1  0.50000000  0.75000000  0.62960500  1
  Fe  Fe6  1  0.75000000  0.75000000  0.25000000  1
  Fe  Fe7  1  0.25000000  0.75000000  0.25000000  1
  Fe  Fe8  1  0.00000000  0.75000000  0.87039500  1
  Fe  Fe9  1  0.00000000  0.25000000  0.12960500  1
  Fe  Fe10  1  0.25000000  0.25000000  0.75000000  1
  Fe  Fe11  1  0.75000000  0.25000000  0.75000000  1
  O  O12  1  0.76359300  0.75000000  0.50149600  1
  O  O13  1  0.23640700  0.75000000  0.50149600  1
  O  O14  1  0.50000000  0.00357700  0.76345000  1
  O  O15  1  0.00000000  0.99642300  0.26345000  1
  O  O16  1  0.00000000  0.00357700  0.73655000  1
  O  O17  1  0.76359300  0.25000000  0.49850400  1
  O  O18  1  0.50000000  0.99642300  0.23655000  1
  O  O19  1  0.23640700  0.25000000  0.49850400  1
  O  O20  1  0.26359300  0.25000000  0.00149600  1
  O  O21  1  0.73640700  0.25000000  0.00149600  1
  O  O22  1  0.00000000  0.50357700  0.26345000  1
  O  O23  1  0.50000000  0.49642300  0.76345000  1
  O  O24  1  0.50000000  0.50357700  0.23655000  1
  O  O25  1  0.26359300  0.75000000  0.99850400  1
  O  O26  1  0.00000000  0.49642300  0.73655000  1
  O  O27  1  0.73640700  0.75000000  0.99850400  1
