# generated using pymatgen
data_NaSr3IrO6
_symmetry_space_group_name_H-M   'P 1'
_cell_length_a   9.72798842
_cell_length_b   9.72798842
_cell_length_c   11.66981446
_cell_angle_alpha   90.00000000
_cell_angle_beta   90.00000000
_cell_angle_gamma   120.00000000
_symmetry_Int_Tables_number   1
_chemical_formula_structural   NaSr3IrO6
_chemical_formula_sum   'Na6 Sr18 Ir6 O36'
_cell_volume   956.40243457
_cell_formula_units_Z   6
loop_
 _symmetry_equiv_pos_site_id
 _symmetry_equiv_pos_as_xyz
  1  'x, y, z'
loop_
 _atom_site_type_symbol
 _atom_site_label
 _atom_site_symmetry_multiplicity
 _atom_site_fract_x
 _atom_site_fract_y
 _atom_site_fract_z
 _atom_site_occupancy
  Na  Na0  1  0.00000000  0.00000000  0.75000000  1
  Na  Na1  1  0.00000000  0.00000000  0.25000000  1
  Na  Na2  1  0.66666667  0.33333333  0.08333333  1
  Na  Na3  1  0.66666667  0.33333333  0.58333333  1
  Na  Na4  1  0.33333333  0.66666667  0.41666667  1
  Na  Na5  1  0.33333333  0.66666667  0.91666667  1
  Sr  Sr6  1  0.30880067  0.33333333  0.58333333  1
  Sr  Sr7  1  0.66666667  0.97546733  0.58333333  1
  Sr  Sr8  1  0.02453267  0.69119933  0.58333333  1
  Sr  Sr9  1  0.69119933  0.66666667  0.41666667  1
  Sr  Sr10  1  0.33333333  0.02453267  0.41666667  1
  Sr  Sr11  1  0.97546733  0.30880067  0.41666667  1
  Sr  Sr12  1  0.97546733  0.66666667  0.91666667  1
  Sr  Sr13  1  0.33333333  0.30880067  0.91666667  1
  Sr  Sr14  1  0.69119933  0.02453267  0.91666667  1
  Sr  Sr15  1  0.35786600  0.00000000  0.75000000  1
  Sr  Sr16  1  0.00000000  0.35786600  0.75000000  1
  Sr  Sr17  1  0.64213400  0.64213400  0.75000000  1
  Sr  Sr18  1  0.64213400  0.00000000  0.25000000  1
  Sr  Sr19  1  0.00000000  0.64213400  0.25000000  1
  Sr  Sr20  1  0.35786600  0.35786600  0.25000000  1
  Sr  Sr21  1  0.02453267  0.33333333  0.08333333  1
  Sr  Sr22  1  0.66666667  0.69119933  0.08333333  1
  Sr  Sr23  1  0.30880067  0.97546733  0.08333333  1
  Ir  Ir24  1  0.00000000  0.00000000  0.50000000  1
  Ir  Ir25  1  0.00000000  0.00000000  0.00000000  1
  Ir  Ir26  1  0.66666667  0.33333333  0.83333333  1
  Ir  Ir27  1  0.66666667  0.33333333  0.33333333  1
  Ir  Ir28  1  0.33333333  0.66666667  0.16666667  1
  Ir  Ir29  1  0.33333333  0.66666667  0.66666667  1
  O  O30  1  0.84586467  0.48915833  0.43348633  1
  O  O31  1  0.51084167  0.35670633  0.43348633  1
  O  O32  1  0.64329367  0.15413533  0.43348633  1
  O  O33  1  0.02337300  0.84417500  0.39984700  1
  O  O34  1  0.15582500  0.17919800  0.39984700  1
  O  O35  1  0.82080200  0.97662700  0.39984700  1
  O  O36  1  0.15413533  0.51084167  0.56651367  1
  O  O37  1  0.48915833  0.64329367  0.56651367  1
  O  O38  1  0.35670633  0.84586467  0.56651367  1
  O  O39  1  0.97662700  0.15582500  0.60015300  1
  O  O40  1  0.17919800  0.02337300  0.60015300  1
  O  O41  1  0.84417500  0.82080200  0.60015300  1
  O  O42  1  0.51253133  0.82249167  0.76681967  1
  O  O43  1  0.17750833  0.69003967  0.76681967  1
  O  O44  1  0.30996033  0.48746867  0.76681967  1
  O  O45  1  0.69003967  0.17750833  0.73318033  1
  O  O46  1  0.82249167  0.51253133  0.73318033  1
  O  O47  1  0.48746867  0.30996033  0.73318033  1
  O  O48  1  0.82080200  0.84417500  0.89984700  1
  O  O49  1  0.15582500  0.97662700  0.89984700  1
  O  O50  1  0.02337300  0.17919800  0.89984700  1
  O  O51  1  0.64329367  0.48915833  0.93348633  1
  O  O52  1  0.84586467  0.35670633  0.93348633  1
  O  O53  1  0.51084167  0.15413533  0.93348633  1
  O  O54  1  0.17919800  0.15582500  0.10015300  1
  O  O55  1  0.84417500  0.02337300  0.10015300  1
  O  O56  1  0.97662700  0.82080200  0.10015300  1
  O  O57  1  0.35670633  0.51084167  0.06651367  1
  O  O58  1  0.48915833  0.84586467  0.06651367  1
  O  O59  1  0.15413533  0.64329367  0.06651367  1
  O  O60  1  0.48746867  0.17750833  0.23318033  1
  O  O61  1  0.82249167  0.30996033  0.23318033  1
  O  O62  1  0.69003967  0.51253133  0.23318033  1
  O  O63  1  0.30996033  0.82249167  0.26681967  1
  O  O64  1  0.51253133  0.69003967  0.26681967  1
  O  O65  1  0.17750833  0.48746867  0.26681967  1
