# generated using pymatgen
data_Cs3MnH5
_symmetry_space_group_name_H-M   'P 1'
_cell_length_a   8.44087600
_cell_length_b   8.44087600
_cell_length_c   12.63775600
_cell_angle_alpha   90.00000000
_cell_angle_beta   90.00000000
_cell_angle_gamma   90.00000000
_symmetry_Int_Tables_number   1
_chemical_formula_structural   Cs3MnH5
_chemical_formula_sum   'Cs12 Mn4 H20'
_cell_volume   900.41973848
_cell_formula_units_Z   4
loop_
 _symmetry_equiv_pos_site_id
 _symmetry_equiv_pos_as_xyz
  1  'x, y, z'
loop_
 _atom_site_type_symbol
 _atom_site_label
 _atom_site_symmetry_multiplicity
 _atom_site_fract_x
 _atom_site_fract_y
 _atom_site_fract_z
 _atom_site_occupancy
  Cs  Cs0  1  0.00000000  0.00000000  0.25000000  1
  Cs  Cs1  1  0.50000000  0.50000000  0.25000000  1
  Cs  Cs2  1  0.68337550  0.18337550  0.00000000  1
  Cs  Cs3  1  0.81662450  0.31662450  0.50000000  1
  Cs  Cs4  1  0.81662450  0.68337550  0.00000000  1
  Cs  Cs5  1  0.18337550  0.31662450  0.00000000  1
  Cs  Cs6  1  0.50000000  0.50000000  0.75000000  1
  Cs  Cs7  1  0.00000000  0.00000000  0.75000000  1
  Cs  Cs8  1  0.18337550  0.68337550  0.50000000  1
  Cs  Cs9  1  0.31662450  0.81662450  0.00000000  1
  Cs  Cs10  1  0.31662450  0.18337550  0.50000000  1
  Cs  Cs11  1  0.68337550  0.81662450  0.50000000  1
  Mn  Mn12  1  0.50000000  0.00000000  0.25000000  1
  Mn  Mn13  1  0.00000000  0.50000000  0.25000000  1
  Mn  Mn14  1  0.00000000  0.50000000  0.75000000  1
  Mn  Mn15  1  0.50000000  0.00000000  0.75000000  1
  H  H16  1  0.61924900  0.11924900  0.33403700  1
  H  H17  1  0.38075100  0.88075100  0.33403700  1
  H  H18  1  0.88075100  0.61924900  0.33403700  1
  H  H19  1  0.11924900  0.38075100  0.33403700  1
  H  H20  1  0.88075100  0.38075100  0.16596300  1
  H  H21  1  0.11924900  0.61924900  0.16596300  1
  H  H22  1  0.61924900  0.88075100  0.16596300  1
  H  H23  1  0.38075100  0.11924900  0.16596300  1
  H  H24  1  0.50000000  0.50000000  0.00000000  1
  H  H25  1  0.00000000  0.00000000  0.00000000  1
  H  H26  1  0.11924900  0.61924900  0.83403700  1
  H  H27  1  0.88075100  0.38075100  0.83403700  1
  H  H28  1  0.38075100  0.11924900  0.83403700  1
  H  H29  1  0.61924900  0.88075100  0.83403700  1
  H  H30  1  0.38075100  0.88075100  0.66596300  1
  H  H31  1  0.61924900  0.11924900  0.66596300  1
  H  H32  1  0.11924900  0.38075100  0.66596300  1
  H  H33  1  0.88075100  0.61924900  0.66596300  1
  H  H34  1  0.00000000  0.00000000  0.50000000  1
  H  H35  1  0.50000000  0.50000000  0.50000000  1
