# generated using pymatgen
data_Li27As10
_symmetry_space_group_name_H-M   'P 1'
_cell_length_a   7.44117000
_cell_length_b   21.66098600
_cell_length_c   7.44709604
_cell_angle_alpha   90.00000000
_cell_angle_beta   108.83058110
_cell_angle_gamma   90.00000000
_symmetry_Int_Tables_number   1
_chemical_formula_structural   Li27As10
_chemical_formula_sum   'Li54 As20'
_cell_volume   1136.09990079
_cell_formula_units_Z   2
loop_
 _symmetry_equiv_pos_site_id
 _symmetry_equiv_pos_as_xyz
  1  'x, y, z'
loop_
 _atom_site_type_symbol
 _atom_site_label
 _atom_site_symmetry_multiplicity
 _atom_site_fract_x
 _atom_site_fract_y
 _atom_site_fract_z
 _atom_site_occupancy
  Li  Li0  1  0.88426350  0.29884550  0.65293000  1
  Li  Li1  1  0.50000000  0.30078400  0.50000000  1
  Li  Li2  1  0.38426350  0.20115450  0.65293000  1
  Li  Li3  1  0.00000000  0.19921600  0.50000000  1
  Li  Li4  1  0.36324600  0.29352000  0.11274000  1
  Li  Li5  1  0.11573650  0.29884550  0.34707000  1
  Li  Li6  1  0.87943350  0.09061150  0.61677900  1
  Li  Li7  1  0.86324600  0.20648000  0.11274000  1
  Li  Li8  1  0.35172400  0.00000000  0.61598700  1
  Li  Li9  1  0.61573650  0.20115450  0.34707000  1
  Li  Li10  1  0.50000000  0.10150100  0.50000000  1
  Li  Li11  1  0.37943350  0.40938850  0.61677900  1
  Li  Li12  1  0.63675400  0.29352000  0.88726000  1
  Li  Li13  1  0.38379000  0.10612600  0.11631000  1
  Li  Li14  1  0.12056650  0.09061150  0.38322100  1
  Li  Li15  1  0.88703700  0.00000000  0.15006500  1
  Li  Li16  1  0.00000000  0.09981900  0.00000000  1
  Li  Li17  1  0.13675400  0.20648000  0.88726000  1
  Li  Li18  1  0.64827600  0.00000000  0.38401300  1
  Li  Li19  1  0.00000000  0.39849900  0.50000000  1
  Li  Li20  1  0.88379000  0.39387400  0.11631000  1
  Li  Li21  1  0.61621000  0.10612600  0.88369000  1
  Li  Li22  1  0.62056650  0.40938850  0.38322100  1
  Li  Li23  1  0.50000000  0.00000000  0.00000000  1
  Li  Li24  1  0.50000000  0.40018100  0.00000000  1
  Li  Li25  1  0.11296300  0.00000000  0.84993500  1
  Li  Li26  1  0.11621000  0.39387400  0.88369000  1
  Li  Li27  1  0.38426350  0.79884550  0.65293000  1
  Li  Li28  1  0.00000000  0.80078400  0.50000000  1
  Li  Li29  1  0.88426350  0.70115450  0.65293000  1
  Li  Li30  1  0.50000000  0.69921600  0.50000000  1
  Li  Li31  1  0.86324600  0.79352000  0.11274000  1
  Li  Li32  1  0.61573650  0.79884550  0.34707000  1
  Li  Li33  1  0.37943350  0.59061150  0.61677900  1
  Li  Li34  1  0.36324600  0.70648000  0.11274000  1
  Li  Li35  1  0.85172400  0.50000000  0.61598700  1
  Li  Li36  1  0.11573650  0.70115450  0.34707000  1
  Li  Li37  1  0.00000000  0.60150100  0.50000000  1
  Li  Li38  1  0.87943350  0.90938850  0.61677900  1
  Li  Li39  1  0.13675400  0.79352000  0.88726000  1
  Li  Li40  1  0.88379000  0.60612600  0.11631000  1
  Li  Li41  1  0.62056650  0.59061150  0.38322100  1
  Li  Li42  1  0.38703700  0.50000000  0.15006500  1
  Li  Li43  1  0.50000000  0.59981900  0.00000000  1
  Li  Li44  1  0.63675400  0.70648000  0.88726000  1
  Li  Li45  1  0.14827600  0.50000000  0.38401300  1
  Li  Li46  1  0.50000000  0.89849900  0.50000000  1
  Li  Li47  1  0.38379000  0.89387400  0.11631000  1
  Li  Li48  1  0.11621000  0.60612600  0.88369000  1
  Li  Li49  1  0.12056650  0.90938850  0.38322100  1
  Li  Li50  1  0.00000000  0.50000000  0.00000000  1
  Li  Li51  1  0.00000000  0.90018100  0.00000000  1
  Li  Li52  1  0.61296300  0.50000000  0.84993500  1
  Li  Li53  1  0.61621000  0.89387400  0.88369000  1
  As  As54  1  0.25589750  0.30378350  0.73255400  1
  As  As55  1  0.75589750  0.19621650  0.73255400  1
  As  As56  1  0.24498600  0.10073300  0.75261900  1
  As  As57  1  0.24410250  0.19621650  0.26744600  1
  As  As58  1  0.73518800  0.00000000  0.76296600  1
  As  As59  1  0.75501400  0.10073300  0.24738100  1
  As  As60  1  0.74498600  0.39926700  0.75261900  1
  As  As61  1  0.26481200  0.00000000  0.23703400  1
  As  As62  1  0.25501400  0.39926700  0.24738100  1
  As  As63  1  0.74410250  0.30378350  0.26744600  1
  As  As64  1  0.75589750  0.80378350  0.73255400  1
  As  As65  1  0.25589750  0.69621650  0.73255400  1
  As  As66  1  0.74498600  0.60073300  0.75261900  1
  As  As67  1  0.74410250  0.69621650  0.26744600  1
  As  As68  1  0.23518800  0.50000000  0.76296600  1
  As  As69  1  0.25501400  0.60073300  0.24738100  1
  As  As70  1  0.24498600  0.89926700  0.75261900  1
  As  As71  1  0.76481200  0.50000000  0.23703400  1
  As  As72  1  0.75501400  0.89926700  0.24738100  1
  As  As73  1  0.24410250  0.80378350  0.26744600  1
