# generated using pymatgen
data_V8Ni2O15
_symmetry_space_group_name_H-M   'P 1'
_cell_length_a   9.79313800
_cell_length_b   5.09743800
_cell_length_c   21.02571952
_cell_angle_alpha   90.00000000
_cell_angle_beta   94.20291875
_cell_angle_gamma   90.00000000
_symmetry_Int_Tables_number   1
_chemical_formula_structural   V8Ni2O15
_chemical_formula_sum   'V32 Ni8 O60'
_cell_volume   1046.77945797
_cell_formula_units_Z   4
loop_
 _symmetry_equiv_pos_site_id
 _symmetry_equiv_pos_as_xyz
  1  'x, y, z'
loop_
 _atom_site_type_symbol
 _atom_site_label
 _atom_site_symmetry_multiplicity
 _atom_site_fract_x
 _atom_site_fract_y
 _atom_site_fract_z
 _atom_site_occupancy
  V  V0  1  0.74223950  0.24879050  0.07165000  1
  V  V1  1  0.96118300  0.73813400  0.02822100  1
  V  V2  1  0.56214900  0.75170400  0.83051900  1
  V  V3  1  0.53881700  0.76186600  0.97177900  1
  V  V4  1  0.93785100  0.25170400  0.66948100  1
  V  V5  1  0.75776050  0.25120950  0.92835000  1
  V  V6  1  0.63952650  0.24640750  0.76926200  1
  V  V7  1  0.53881700  0.23813400  0.47177900  1
  V  V8  1  0.86047350  0.74640750  0.73073800  1
  V  V9  1  0.75776050  0.74879050  0.42835000  1
  V  V10  1  0.74223950  0.75120950  0.57165000  1
  V  V11  1  0.63952650  0.75359250  0.26926200  1
  V  V12  1  0.96118300  0.26186600  0.52822100  1
  V  V13  1  0.86047350  0.25359250  0.23073800  1
  V  V14  1  0.56214900  0.24829600  0.33051900  1
  V  V15  1  0.93785100  0.74829600  0.16948100  1
  V  V16  1  0.24223950  0.74879050  0.07165000  1
  V  V17  1  0.46118300  0.23813400  0.02822100  1
  V  V18  1  0.06214900  0.25170400  0.83051900  1
  V  V19  1  0.03881700  0.26186600  0.97177900  1
  V  V20  1  0.43785100  0.75170400  0.66948100  1
  V  V21  1  0.25776050  0.75120950  0.92835000  1
  V  V22  1  0.13952650  0.74640750  0.76926200  1
  V  V23  1  0.03881700  0.73813400  0.47177900  1
  V  V24  1  0.36047350  0.24640750  0.73073800  1
  V  V25  1  0.25776050  0.24879050  0.42835000  1
  V  V26  1  0.24223950  0.25120950  0.57165000  1
  V  V27  1  0.13952650  0.25359250  0.26926200  1
  V  V28  1  0.46118300  0.76186600  0.52822100  1
  V  V29  1  0.36047350  0.75359250  0.23073800  1
  V  V30  1  0.06214900  0.74829600  0.33051900  1
  V  V31  1  0.43785100  0.24829600  0.16948100  1
  Ni  Ni32  1  0.84362000  0.75573400  0.86958200  1
  Ni  Ni33  1  0.65638000  0.25573400  0.63041800  1
  Ni  Ni34  1  0.84362000  0.24426600  0.36958200  1
  Ni  Ni35  1  0.65638000  0.74426600  0.13041800  1
  Ni  Ni36  1  0.34362000  0.25573400  0.86958200  1
  Ni  Ni37  1  0.15638000  0.75573400  0.63041800  1
  Ni  Ni38  1  0.34362000  0.74426600  0.36958200  1
  Ni  Ni39  1  0.15638000  0.24426600  0.13041800  1
  O  O40  1  0.87207800  0.09454200  0.01151700  1
  O  O41  1  0.89801100  0.56004900  0.95184300  1
  O  O42  1  0.83554450  0.59569850  0.08846200  1
  O  O43  1  0.66445550  0.90430150  0.91153800  1
  O  O44  1  0.60198900  0.93995100  0.04815700  1
  O  O45  1  0.97382650  0.59636850  0.80955800  1
  O  O46  1  0.62792200  0.40545800  0.98848300  1
  O  O47  1  0.00000000  0.05590400  0.75000000  1
  O  O48  1  0.93156400  0.10884100  0.89160500  1
  O  O49  1  0.76634750  0.40400250  0.71468800  1
  O  O50  1  0.69390950  0.43534250  0.84817800  1
  O  O51  1  0.56843600  0.60884100  0.60839500  1
  O  O52  1  0.73365250  0.90400250  0.78531200  1
  O  O53  1  0.60198900  0.06004900  0.54815700  1
  O  O54  1  0.52617350  0.09636850  0.69044200  1
  O  O55  1  0.87207800  0.90545800  0.51151700  1
  O  O56  1  0.80609050  0.93534250  0.65182200  1
  O  O57  1  0.66445550  0.09569850  0.41153800  1
  O  O58  1  0.83554450  0.40430150  0.58846200  1
  O  O59  1  0.69390950  0.56465750  0.34817800  1
  O  O60  1  0.62792200  0.59454200  0.48848300  1
  O  O61  1  0.97382650  0.40363150  0.30955800  1
  O  O62  1  0.89801100  0.43995100  0.45184300  1
  O  O63  1  0.76634750  0.59599750  0.21468800  1
  O  O64  1  0.93156400  0.89115900  0.39160500  1
  O  O65  1  0.80609050  0.06465750  0.15182200  1
  O  O66  1  0.73365250  0.09599750  0.28531200  1
  O  O67  1  0.56843600  0.39115900  0.10839500  1
  O  O68  1  0.00000000  0.94409600  0.25000000  1
  O  O69  1  0.52617350  0.90363150  0.19044200  1
  O  O70  1  0.37207800  0.59454200  0.01151700  1
  O  O71  1  0.39801100  0.06004900  0.95184300  1
  O  O72  1  0.33554450  0.09569850  0.08846200  1
  O  O73  1  0.16445550  0.40430150  0.91153800  1
  O  O74  1  0.10198900  0.43995100  0.04815700  1
  O  O75  1  0.47382650  0.09636850  0.80955800  1
  O  O76  1  0.12792200  0.90545800  0.98848300  1
  O  O77  1  0.50000000  0.55590400  0.75000000  1
  O  O78  1  0.43156400  0.60884100  0.89160500  1
  O  O79  1  0.26634750  0.90400250  0.71468800  1
  O  O80  1  0.19390950  0.93534250  0.84817800  1
  O  O81  1  0.06843600  0.10884100  0.60839500  1
  O  O82  1  0.23365250  0.40400250  0.78531200  1
  O  O83  1  0.10198900  0.56004900  0.54815700  1
  O  O84  1  0.02617350  0.59636850  0.69044200  1
  O  O85  1  0.37207800  0.40545800  0.51151700  1
  O  O86  1  0.30609050  0.43534250  0.65182200  1
  O  O87  1  0.16445550  0.59569850  0.41153800  1
  O  O88  1  0.33554450  0.90430150  0.58846200  1
  O  O89  1  0.19390950  0.06465750  0.34817800  1
  O  O90  1  0.12792200  0.09454200  0.48848300  1
  O  O91  1  0.47382650  0.90363150  0.30955800  1
  O  O92  1  0.39801100  0.93995100  0.45184300  1
  O  O93  1  0.26634750  0.09599750  0.21468800  1
  O  O94  1  0.43156400  0.39115900  0.39160500  1
  O  O95  1  0.30609050  0.56465750  0.15182200  1
  O  O96  1  0.23365250  0.59599750  0.28531200  1
  O  O97  1  0.06843600  0.89115900  0.10839500  1
  O  O98  1  0.50000000  0.44409600  0.25000000  1
  O  O99  1  0.02617350  0.40363150  0.19044200  1
