# generated using pymatgen
data_K2V8O21
_symmetry_space_group_name_H-M   'P 1'
_cell_length_a   15.35194200
_cell_length_b   3.63125200
_cell_length_c   15.09031420
_cell_angle_alpha   90.00000000
_cell_angle_beta   91.08691578
_cell_angle_gamma   90.00000000
_symmetry_Int_Tables_number   1
_chemical_formula_structural   K2V8O21
_chemical_formula_sum   'K4 V16 O42'
_cell_volume   841.08491268
_cell_formula_units_Z   2
loop_
 _symmetry_equiv_pos_site_id
 _symmetry_equiv_pos_as_xyz
  1  'x, y, z'
loop_
 _atom_site_type_symbol
 _atom_site_label
 _atom_site_symmetry_multiplicity
 _atom_site_fract_x
 _atom_site_fract_y
 _atom_site_fract_z
 _atom_site_occupancy
  K  K0  1  0.52639700  0.00000000  0.31188300  1
  K  K1  1  0.97360300  0.50000000  0.68811700  1
  K  K2  1  0.02639700  0.50000000  0.31188300  1
  K  K3  1  0.47360300  0.00000000  0.68811700  1
  V  V4  1  0.68844100  0.00000000  0.07093400  1
  V  V5  1  0.59107200  0.50000000  0.92544600  1
  V  V6  1  0.83058400  0.00000000  0.47881300  1
  V  V7  1  0.68983100  0.50000000  0.73032200  1
  V  V8  1  0.90892800  0.00000000  0.07455400  1
  V  V9  1  0.66941600  0.50000000  0.52118700  1
  V  V10  1  0.81155900  0.50000000  0.92906600  1
  V  V11  1  0.81016900  0.00000000  0.26967800  1
  V  V12  1  0.18844100  0.50000000  0.07093400  1
  V  V13  1  0.09107200  0.00000000  0.92544600  1
  V  V14  1  0.33058400  0.50000000  0.47881300  1
  V  V15  1  0.18983100  0.00000000  0.73032200  1
  V  V16  1  0.40892800  0.50000000  0.07455400  1
  V  V17  1  0.16941600  0.00000000  0.52118700  1
  V  V18  1  0.31155900  0.00000000  0.92906600  1
  V  V19  1  0.31016900  0.50000000  0.26967800  1
  O  O20  1  0.78737100  0.00000000  0.13989900  1
  O  O21  1  0.79124100  0.50000000  0.47355200  1
  O  O22  1  0.88302000  0.50000000  0.04739300  1
  O  O23  1  0.95470900  0.00000000  0.17413700  1
  O  O24  1  0.54529100  0.50000000  0.82586300  1
  O  O25  1  0.88499300  0.00000000  0.37664900  1
  O  O26  1  0.78688100  0.50000000  0.68897600  1
  O  O27  1  0.83636600  0.50000000  0.26045900  1
  O  O28  1  0.90610800  0.00000000  0.55682200  1
  O  O29  1  0.69421300  0.50000000  0.03342200  1
  O  O30  1  0.88691800  0.50000000  0.85560200  1
  O  O31  1  0.61500700  0.50000000  0.62335100  1
  O  O32  1  0.70875900  0.00000000  0.52644800  1
  O  O33  1  0.71311900  0.00000000  0.31102400  1
  O  O34  1  0.00000000  0.00000000  0.00000000  1
  O  O35  1  0.61698000  0.00000000  0.95260700  1
  O  O36  1  0.71262900  0.50000000  0.86010100  1
  O  O37  1  0.66363400  0.00000000  0.73954100  1
  O  O38  1  0.59389200  0.50000000  0.44317800  1
  O  O39  1  0.61308200  0.00000000  0.14439800  1
  O  O40  1  0.80578700  0.00000000  0.96657800  1
  O  O41  1  0.28737100  0.50000000  0.13989900  1
  O  O42  1  0.29124100  0.00000000  0.47355200  1
  O  O43  1  0.38302000  0.00000000  0.04739300  1
  O  O44  1  0.45470900  0.50000000  0.17413700  1
  O  O45  1  0.04529100  0.00000000  0.82586300  1
  O  O46  1  0.38499300  0.50000000  0.37664900  1
  O  O47  1  0.28688100  0.00000000  0.68897600  1
  O  O48  1  0.33636600  0.00000000  0.26045900  1
  O  O49  1  0.40610800  0.50000000  0.55682200  1
  O  O50  1  0.19421300  0.00000000  0.03342200  1
  O  O51  1  0.38691800  0.00000000  0.85560200  1
  O  O52  1  0.11500700  0.00000000  0.62335100  1
  O  O53  1  0.20875900  0.50000000  0.52644800  1
  O  O54  1  0.21311900  0.50000000  0.31102400  1
  O  O55  1  0.50000000  0.50000000  0.00000000  1
  O  O56  1  0.11698000  0.50000000  0.95260700  1
  O  O57  1  0.21262900  0.00000000  0.86010100  1
  O  O58  1  0.16363400  0.50000000  0.73954100  1
  O  O59  1  0.09389200  0.00000000  0.44317800  1
  O  O60  1  0.11308200  0.50000000  0.14439800  1
  O  O61  1  0.30578700  0.50000000  0.96657800  1
