# generated using pymatgen
data_Sr4Fe6O13
_symmetry_space_group_name_H-M   'P 1'
_cell_length_a   5.46047200
_cell_length_b   11.14360800
_cell_length_c   19.88321400
_cell_angle_alpha   90.00000000
_cell_angle_beta   90.00000000
_cell_angle_gamma   90.00000000
_symmetry_Int_Tables_number   1
_chemical_formula_structural   Sr4Fe6O13
_chemical_formula_sum   'Sr16 Fe24 O52'
_cell_volume   1209.88083597
_cell_formula_units_Z   4
loop_
 _symmetry_equiv_pos_site_id
 _symmetry_equiv_pos_as_xyz
  1  'x, y, z'
loop_
 _atom_site_type_symbol
 _atom_site_label
 _atom_site_symmetry_multiplicity
 _atom_site_fract_x
 _atom_site_fract_y
 _atom_site_fract_z
 _atom_site_occupancy
  Sr  Sr0  1  0.99114550  0.37202650  0.15558450  1
  Sr  Sr1  1  0.49114550  0.12797350  0.34441550  1
  Sr  Sr2  1  0.49114550  0.62797350  0.15558450  1
  Sr  Sr3  1  0.99114550  0.87202650  0.34441550  1
  Sr  Sr4  1  0.99811850  0.37244250  0.33676150  1
  Sr  Sr5  1  0.49811850  0.12755750  0.16323850  1
  Sr  Sr6  1  0.49811850  0.62755750  0.33676150  1
  Sr  Sr7  1  0.99811850  0.87244250  0.16323850  1
  Sr  Sr8  1  0.49114550  0.87202650  0.65558450  1
  Sr  Sr9  1  0.99114550  0.62797350  0.84441550  1
  Sr  Sr10  1  0.99114550  0.12797350  0.65558450  1
  Sr  Sr11  1  0.49114550  0.37202650  0.84441550  1
  Sr  Sr12  1  0.49811850  0.87244250  0.83676150  1
  Sr  Sr13  1  0.99811850  0.62755750  0.66323850  1
  Sr  Sr14  1  0.99811850  0.12755750  0.83676150  1
  Sr  Sr15  1  0.49811850  0.37244250  0.66323850  1
  Fe  Fe16  1  0.92400950  0.12891250  0.46584150  1
  Fe  Fe17  1  0.42400950  0.37108750  0.03415850  1
  Fe  Fe18  1  0.42400950  0.87108750  0.46584150  1
  Fe  Fe19  1  0.92400950  0.62891250  0.03415850  1
  Fe  Fe20  1  0.98825300  0.10379600  0.04818800  1
  Fe  Fe21  1  0.48825300  0.39620400  0.45181200  1
  Fe  Fe22  1  0.48825300  0.89620400  0.04818800  1
  Fe  Fe23  1  0.98825300  0.60379600  0.45181200  1
  Fe  Fe24  1  0.99718500  0.12323700  0.24814400  1
  Fe  Fe25  1  0.49718500  0.37676300  0.25185600  1
  Fe  Fe26  1  0.49718500  0.87676300  0.24814400  1
  Fe  Fe27  1  0.99718500  0.62323700  0.25185600  1
  Fe  Fe28  1  0.42400950  0.62891250  0.96584150  1
  Fe  Fe29  1  0.92400950  0.87108750  0.53415850  1
  Fe  Fe30  1  0.92400950  0.37108750  0.96584150  1
  Fe  Fe31  1  0.42400950  0.12891250  0.53415850  1
  Fe  Fe32  1  0.48825300  0.60379600  0.54818800  1
  Fe  Fe33  1  0.98825300  0.89620400  0.95181200  1
  Fe  Fe34  1  0.98825300  0.39620400  0.54818800  1
  Fe  Fe35  1  0.48825300  0.10379600  0.95181200  1
  Fe  Fe36  1  0.49718500  0.62323700  0.74814400  1
  Fe  Fe37  1  0.99718500  0.87676300  0.75185600  1
  Fe  Fe38  1  0.99718500  0.37676300  0.74814400  1
  Fe  Fe39  1  0.49718500  0.12323700  0.75185600  1
  O  O40  1  0.99696450  0.13280250  0.37418150  1
  O  O41  1  0.49696450  0.36719750  0.12581850  1
  O  O42  1  0.49696450  0.86719750  0.37418150  1
  O  O43  1  0.99696450  0.63280250  0.12581850  1
  O  O44  1  0.01260150  0.11419050  0.14442650  1
  O  O45  1  0.51260150  0.38580950  0.35557350  1
  O  O46  1  0.51260150  0.88580950  0.14442650  1
  O  O47  1  0.01260150  0.61419050  0.35557350  1
  O  O48  1  0.74286650  0.00240550  0.25953150  1
  O  O49  1  0.24286650  0.49759450  0.24046850  1
  O  O50  1  0.24286650  0.99759450  0.25953150  1
  O  O51  1  0.74286650  0.50240550  0.24046850  1
  O  O52  1  0.74836050  0.25089350  0.24767550  1
  O  O53  1  0.24836050  0.24910650  0.25232450  1
  O  O54  1  0.24836050  0.74910650  0.24767550  1
  O  O55  1  0.74836050  0.75089350  0.25232450  1
  O  O56  1  0.59158950  0.22248550  0.46381750  1
  O  O57  1  0.09158950  0.27751450  0.03618250  1
  O  O58  1  0.09158950  0.77751450  0.46381750  1
  O  O59  1  0.59158950  0.72248550  0.03618250  1
  O  O60  1  0.12329050  0.42373350  0.45365550  1
  O  O61  1  0.62329050  0.07626650  0.04634450  1
  O  O62  1  0.62329050  0.57626650  0.45365550  1
  O  O63  1  0.12329050  0.92373350  0.04634450  1
  O  O64  1  0.19938200  0.50000000  0.00000000  1
  O  O65  1  0.69938200  0.50000000  0.00000000  1
  O  O66  1  0.49696450  0.63280250  0.87418150  1
  O  O67  1  0.99696450  0.86719750  0.62581850  1
  O  O68  1  0.99696450  0.36719750  0.87418150  1
  O  O69  1  0.49696450  0.13280250  0.62581850  1
  O  O70  1  0.51260150  0.61419050  0.64442650  1
  O  O71  1  0.01260150  0.88580950  0.85557350  1
  O  O72  1  0.01260150  0.38580950  0.64442650  1
  O  O73  1  0.51260150  0.11419050  0.85557350  1
  O  O74  1  0.24286650  0.50240550  0.75953150  1
  O  O75  1  0.74286650  0.99759450  0.74046850  1
  O  O76  1  0.74286650  0.49759450  0.75953150  1
  O  O77  1  0.24286650  0.00240550  0.74046850  1
  O  O78  1  0.24836050  0.75089350  0.74767550  1
  O  O79  1  0.74836050  0.74910650  0.75232450  1
  O  O80  1  0.74836050  0.24910650  0.74767550  1
  O  O81  1  0.24836050  0.25089350  0.75232450  1
  O  O82  1  0.09158950  0.72248550  0.96381750  1
  O  O83  1  0.59158950  0.77751450  0.53618250  1
  O  O84  1  0.59158950  0.27751450  0.96381750  1
  O  O85  1  0.09158950  0.22248550  0.53618250  1
  O  O86  1  0.62329050  0.92373350  0.95365550  1
  O  O87  1  0.12329050  0.57626650  0.54634450  1
  O  O88  1  0.12329050  0.07626650  0.95365550  1
  O  O89  1  0.62329050  0.42373350  0.54634450  1
  O  O90  1  0.69938200  0.00000000  0.50000000  1
  O  O91  1  0.19938200  0.00000000  0.50000000  1
