# generated using pymatgen
data_La4FeSe6O
_symmetry_space_group_name_H-M   'P 1'
_cell_length_a   9.79436653
_cell_length_b   9.79436653
_cell_length_c   7.11446100
_cell_angle_alpha   90.00000000
_cell_angle_beta   90.00000000
_cell_angle_gamma   120.00000000
_symmetry_Int_Tables_number   1
_chemical_formula_structural   La4FeSe6O
_chemical_formula_sum   'La8 Fe2 Se12 O2'
_cell_volume   591.05152158
_cell_formula_units_Z   2
loop_
 _symmetry_equiv_pos_site_id
 _symmetry_equiv_pos_as_xyz
  1  'x, y, z'
loop_
 _atom_site_type_symbol
 _atom_site_label
 _atom_site_symmetry_multiplicity
 _atom_site_fract_x
 _atom_site_fract_y
 _atom_site_fract_z
 _atom_site_occupancy
  La  La0  1  0.60122700  0.80061350  0.66013100  1
  La  La1  1  0.66666667  0.33333333  0.70842600  1
  La  La2  1  0.19938650  0.80061350  0.66013100  1
  La  La3  1  0.80061350  0.60122700  0.16013100  1
  La  La4  1  0.80061350  0.19938650  0.16013100  1
  La  La5  1  0.39877300  0.19938650  0.16013100  1
  La  La6  1  0.33333333  0.66666667  0.20842600  1
  La  La7  1  0.19938650  0.39877300  0.66013100  1
  Fe  Fe8  1  0.00000000  0.00000000  0.49257000  1
  Fe  Fe9  1  0.00000000  0.00000000  0.99257000  1
  Se  Se10  1  0.24632300  0.12316150  0.76442600  1
  Se  Se11  1  0.87683850  0.75367700  0.76442600  1
  Se  Se12  1  0.47060200  0.94120400  0.94637800  1
  Se  Se13  1  0.47060200  0.52939800  0.94637800  1
  Se  Se14  1  0.12316150  0.24632300  0.26442600  1
  Se  Se15  1  0.87683850  0.12316150  0.76442600  1
  Se  Se16  1  0.05879600  0.52939800  0.94637800  1
  Se  Se17  1  0.12316150  0.87683850  0.26442600  1
  Se  Se18  1  0.52939800  0.47060200  0.44637800  1
  Se  Se19  1  0.94120400  0.47060200  0.44637800  1
  Se  Se20  1  0.52939800  0.05879600  0.44637800  1
  Se  Se21  1  0.75367700  0.87683850  0.26442600  1
  O  O22  1  0.33333333  0.66666667  0.54367500  1
  O  O23  1  0.66666667  0.33333333  0.04367500  1
