# generated using pymatgen
data_Ba2TlCuHgO5
_symmetry_space_group_name_H-M   'P 1'
_cell_length_a   3.91054000
_cell_length_b   3.91054000
_cell_length_c   24.05481800
_cell_angle_alpha   90.00000000
_cell_angle_beta   90.00000000
_cell_angle_gamma   90.00000000
_symmetry_Int_Tables_number   1
_chemical_formula_structural   Ba2TlCuHgO5
_chemical_formula_sum   'Ba4 Tl2 Cu2 Hg2 O10'
_cell_volume   367.85404877
_cell_formula_units_Z   2
loop_
 _symmetry_equiv_pos_site_id
 _symmetry_equiv_pos_as_xyz
  1  'x, y, z'
loop_
 _atom_site_type_symbol
 _atom_site_label
 _atom_site_symmetry_multiplicity
 _atom_site_fract_x
 _atom_site_fract_y
 _atom_site_fract_z
 _atom_site_occupancy
  Ba  Ba0  1  0.00000000  0.00000000  0.41906500  1
  Ba  Ba1  1  0.50000000  0.50000000  0.08493100  1
  Ba  Ba2  1  0.50000000  0.50000000  0.91906500  1
  Ba  Ba3  1  0.00000000  0.00000000  0.58493100  1
  Tl  Tl4  1  0.00000000  0.00000000  0.20078200  1
  Tl  Tl5  1  0.50000000  0.50000000  0.70078200  1
  Cu  Cu6  1  0.00000000  0.00000000  0.00600400  1
  Cu  Cu7  1  0.50000000  0.50000000  0.50600400  1
  Hg  Hg8  1  0.50000000  0.50000000  0.29543100  1
  Hg  Hg9  1  0.00000000  0.00000000  0.79543100  1
  O  O10  1  0.00000000  0.50000000  0.49831900  1
  O  O11  1  0.00000000  0.00000000  0.10863100  1
  O  O12  1  0.50000000  0.50000000  0.21061300  1
  O  O13  1  0.50000000  0.00000000  0.49831900  1
  O  O14  1  0.50000000  0.50000000  0.37892100  1
  O  O15  1  0.50000000  0.00000000  0.99831900  1
  O  O16  1  0.50000000  0.50000000  0.60863100  1
  O  O17  1  0.00000000  0.00000000  0.71061300  1
  O  O18  1  0.00000000  0.50000000  0.99831900  1
  O  O19  1  0.00000000  0.00000000  0.87892100  1
