# generated using pymatgen
data_Mo(HO2)2
_symmetry_space_group_name_H-M   'P 1'
_cell_length_a   3.76835077
_cell_length_b   6.51591236
_cell_length_c   7.74330788
_cell_angle_alpha   114.57769977
_cell_angle_beta   88.09468826
_cell_angle_gamma   106.53786510
_symmetry_Int_Tables_number   1
_chemical_formula_structural   Mo(HO2)2
_chemical_formula_sum   'Mo2 H4 O8'
_cell_volume   164.95960548
_cell_formula_units_Z   2
loop_
 _symmetry_equiv_pos_site_id
 _symmetry_equiv_pos_as_xyz
  1  'x, y, z'
loop_
 _atom_site_type_symbol
 _atom_site_label
 _atom_site_symmetry_multiplicity
 _atom_site_fract_x
 _atom_site_fract_y
 _atom_site_fract_z
 _atom_site_occupancy
  Mo  Mo0  1  0.26227129  0.84759956  0.20408861  1
  Mo  Mo1  1  0.72569619  0.12902592  0.79170367  1
  H  H2  1  0.95673387  0.52954073  0.87926633  1
  H  H3  1  0.46448501  0.36561711  0.10603814  1
  H  H4  1  0.52523056  0.23173858  0.32911409  1
  H  H5  1  0.50599431  0.78908569  0.68622474  1
  O  O6  1  0.32991563  0.76190408  0.44917460  1
  O  O7  1  0.66752843  0.24056426  0.54725130  1
  O  O8  1  0.23941270  0.08288216  0.87303210  1
  O  O9  1  0.77014281  0.93299518  0.12376733  1
  O  O10  1  0.11942618  0.58725949  0.17348582  1
  O  O11  1  0.88439856  0.41735997  0.81886086  1
  O  O12  1  0.43729593  0.21145521  0.20709090  1
  O  O13  1  0.58299253  0.80846105  0.80900351  1
