# generated using pymatgen
data_Sr3ZnIrO6
_symmetry_space_group_name_H-M   'P 1'
_cell_length_a   9.68596452
_cell_length_b   9.68596452
_cell_length_c   11.41977427
_cell_angle_alpha   90.00000000
_cell_angle_beta   90.00000000
_cell_angle_gamma   120.00000000
_symmetry_Int_Tables_number   1
_chemical_formula_structural   Sr3ZnIrO6
_chemical_formula_sum   'Sr18 Zn6 Ir6 O36'
_cell_volume   927.84172562
_cell_formula_units_Z   6
loop_
 _symmetry_equiv_pos_site_id
 _symmetry_equiv_pos_as_xyz
  1  'x, y, z'
loop_
 _atom_site_type_symbol
 _atom_site_label
 _atom_site_symmetry_multiplicity
 _atom_site_fract_x
 _atom_site_fract_y
 _atom_site_fract_z
 _atom_site_occupancy
  Sr  Sr0  1  0.02896167  0.33333333  0.58333333  1
  Sr  Sr1  1  0.66666667  0.69562833  0.58333333  1
  Sr  Sr2  1  0.30437167  0.97103833  0.58333333  1
  Sr  Sr3  1  0.97103833  0.66666667  0.41666667  1
  Sr  Sr4  1  0.33333333  0.30437167  0.41666667  1
  Sr  Sr5  1  0.69562833  0.02896167  0.41666667  1
  Sr  Sr6  1  0.69562833  0.66666667  0.91666667  1
  Sr  Sr7  1  0.33333333  0.02896167  0.91666667  1
  Sr  Sr8  1  0.97103833  0.30437167  0.91666667  1
  Sr  Sr9  1  0.63770500  0.00000000  0.75000000  1
  Sr  Sr10  1  0.00000000  0.63770500  0.75000000  1
  Sr  Sr11  1  0.36229500  0.36229500  0.75000000  1
  Sr  Sr12  1  0.36229500  0.00000000  0.25000000  1
  Sr  Sr13  1  0.00000000  0.36229500  0.25000000  1
  Sr  Sr14  1  0.63770500  0.63770500  0.25000000  1
  Sr  Sr15  1  0.30437167  0.33333333  0.08333333  1
  Sr  Sr16  1  0.66666667  0.97103833  0.08333333  1
  Sr  Sr17  1  0.02896167  0.69562833  0.08333333  1
  Zn  Zn18  1  0.00000000  0.00000000  0.75000000  1
  Zn  Zn19  1  0.00000000  0.00000000  0.25000000  1
  Zn  Zn20  1  0.66666667  0.33333333  0.08333333  1
  Zn  Zn21  1  0.66666667  0.33333333  0.58333333  1
  Zn  Zn22  1  0.33333333  0.66666667  0.41666667  1
  Zn  Zn23  1  0.33333333  0.66666667  0.91666667  1
  Ir  Ir24  1  0.00000000  0.00000000  0.50000000  1
  Ir  Ir25  1  0.00000000  0.00000000  0.00000000  1
  Ir  Ir26  1  0.66666667  0.33333333  0.83333333  1
  Ir  Ir27  1  0.66666667  0.33333333  0.33333333  1
  Ir  Ir28  1  0.33333333  0.66666667  0.16666667  1
  Ir  Ir29  1  0.33333333  0.66666667  0.66666667  1
  O  O30  1  0.83854200  0.35198000  0.44613500  1
  O  O31  1  0.64802000  0.48656200  0.44613500  1
  O  O32  1  0.51343800  0.16145800  0.44613500  1
  O  O33  1  0.15322867  0.98135333  0.38719833  1
  O  O34  1  0.01864667  0.17187533  0.38719833  1
  O  O35  1  0.82812467  0.84677133  0.38719833  1
  O  O36  1  0.16145800  0.64802000  0.55386500  1
  O  O37  1  0.35198000  0.51343800  0.55386500  1
  O  O38  1  0.48656200  0.83854200  0.55386500  1
  O  O39  1  0.84677133  0.01864667  0.61280167  1
  O  O40  1  0.17187533  0.15322867  0.61280167  1
  O  O41  1  0.98135333  0.82812467  0.61280167  1
  O  O42  1  0.50520867  0.68531333  0.77946833  1
  O  O43  1  0.31468667  0.81989533  0.77946833  1
  O  O44  1  0.18010467  0.49479133  0.77946833  1
  O  O45  1  0.81989533  0.31468667  0.72053167  1
  O  O46  1  0.68531333  0.50520867  0.72053167  1
  O  O47  1  0.49479133  0.18010467  0.72053167  1
  O  O48  1  0.82812467  0.98135333  0.88719833  1
  O  O49  1  0.01864667  0.84677133  0.88719833  1
  O  O50  1  0.15322867  0.17187533  0.88719833  1
  O  O51  1  0.51343800  0.35198000  0.94613500  1
  O  O52  1  0.83854200  0.48656200  0.94613500  1
  O  O53  1  0.64802000  0.16145800  0.94613500  1
  O  O54  1  0.17187533  0.01864667  0.11280167  1
  O  O55  1  0.98135333  0.15322867  0.11280167  1
  O  O56  1  0.84677133  0.82812467  0.11280167  1
  O  O57  1  0.48656200  0.64802000  0.05386500  1
  O  O58  1  0.35198000  0.83854200  0.05386500  1
  O  O59  1  0.16145800  0.51343800  0.05386500  1
  O  O60  1  0.49479133  0.31468667  0.22053167  1
  O  O61  1  0.68531333  0.18010467  0.22053167  1
  O  O62  1  0.81989533  0.50520867  0.22053167  1
  O  O63  1  0.18010467  0.68531333  0.27946833  1
  O  O64  1  0.50520867  0.81989533  0.27946833  1
  O  O65  1  0.31468667  0.49479133  0.27946833  1
