# generated using pymatgen
data_CaCu(GeO3)2
_symmetry_space_group_name_H-M   'P 1'
_cell_length_a   10.39079200
_cell_length_b   9.19524800
_cell_length_c   5.44908892
_cell_angle_alpha   90.00000000
_cell_angle_beta   107.17757506
_cell_angle_gamma   90.00000000
_symmetry_Int_Tables_number   1
_chemical_formula_structural   CaCu(GeO3)2
_chemical_formula_sum   'Ca4 Cu4 Ge8 O24'
_cell_volume   497.41458385
_cell_formula_units_Z   4
loop_
 _symmetry_equiv_pos_site_id
 _symmetry_equiv_pos_as_xyz
  1  'x, y, z'
loop_
 _atom_site_type_symbol
 _atom_site_label
 _atom_site_symmetry_multiplicity
 _atom_site_fract_x
 _atom_site_fract_y
 _atom_site_fract_z
 _atom_site_occupancy
  Ca  Ca0  1  0.00000000  0.30080500  0.75000000  1
  Ca  Ca1  1  0.00000000  0.69919500  0.25000000  1
  Ca  Ca2  1  0.50000000  0.80080500  0.75000000  1
  Ca  Ca3  1  0.50000000  0.19919500  0.25000000  1
  Cu  Cu4  1  0.00000000  0.90238900  0.75000000  1
  Cu  Cu5  1  0.00000000  0.09761100  0.25000000  1
  Cu  Cu6  1  0.50000000  0.40238900  0.75000000  1
  Cu  Cu7  1  0.50000000  0.59761100  0.25000000  1
  Ge  Ge8  1  0.21761550  0.59815550  0.78824900  1
  Ge  Ge9  1  0.78238450  0.59815550  0.71175100  1
  Ge  Ge10  1  0.78238450  0.40184450  0.21175100  1
  Ge  Ge11  1  0.21761550  0.40184450  0.28824900  1
  Ge  Ge12  1  0.71761550  0.09815550  0.78824900  1
  Ge  Ge13  1  0.28238450  0.09815550  0.71175100  1
  Ge  Ge14  1  0.28238450  0.90184450  0.21175100  1
  Ge  Ge15  1  0.71761550  0.90184450  0.28824900  1
  O  O16  1  0.14233400  0.47052700  0.52493200  1
  O  O17  1  0.85766600  0.47052700  0.97506800  1
  O  O18  1  0.85766600  0.52947300  0.47506800  1
  O  O19  1  0.14233400  0.52947300  0.02493200  1
  O  O20  1  0.14072300  0.23966200  0.16140000  1
  O  O21  1  0.85927700  0.23966200  0.33860000  1
  O  O22  1  0.85927700  0.76033800  0.83860000  1
  O  O23  1  0.14072300  0.76033800  0.66140000  1
  O  O24  1  0.39477000  0.59327300  0.88106900  1
  O  O25  1  0.60523000  0.59327300  0.61893100  1
  O  O26  1  0.60523000  0.40672700  0.11893100  1
  O  O27  1  0.39477000  0.40672700  0.38106900  1
  O  O28  1  0.64233400  0.97052700  0.52493200  1
  O  O29  1  0.35766600  0.97052700  0.97506800  1
  O  O30  1  0.35766600  0.02947300  0.47506800  1
  O  O31  1  0.64233400  0.02947300  0.02493200  1
  O  O32  1  0.64072300  0.73966200  0.16140000  1
  O  O33  1  0.35927700  0.73966200  0.33860000  1
  O  O34  1  0.35927700  0.26033800  0.83860000  1
  O  O35  1  0.64072300  0.26033800  0.66140000  1
  O  O36  1  0.89477000  0.09327300  0.88106900  1
  O  O37  1  0.10523000  0.09327300  0.61893100  1
  O  O38  1  0.10523000  0.90672700  0.11893100  1
  O  O39  1  0.89477000  0.90672700  0.38106900  1
