# generated using pymatgen
data_SrMnRe2
_symmetry_space_group_name_H-M   'P 1'
_cell_length_a   6.44817800
_cell_length_b   6.44817800
_cell_length_c   6.44817800
_cell_angle_alpha   90.00000000
_cell_angle_beta   90.00000000
_cell_angle_gamma   90.00000000
_symmetry_Int_Tables_number   1
_chemical_formula_structural   SrMnRe2
_chemical_formula_sum   'Sr4 Mn4 Re8'
_cell_volume   268.10878996
_cell_formula_units_Z   4
loop_
 _symmetry_equiv_pos_site_id
 _symmetry_equiv_pos_as_xyz
  1  'x, y, z'
loop_
 _atom_site_type_symbol
 _atom_site_label
 _atom_site_symmetry_multiplicity
 _atom_site_fract_x
 _atom_site_fract_y
 _atom_site_fract_z
 _atom_site_occupancy
  Sr  Sr0  1  0.25000000  0.25000000  0.75000000  1
  Sr  Sr1  1  0.25000000  0.75000000  0.25000000  1
  Sr  Sr2  1  0.75000000  0.25000000  0.25000000  1
  Sr  Sr3  1  0.75000000  0.75000000  0.75000000  1
  Mn  Mn4  1  0.50000000  0.00000000  0.00000000  1
  Mn  Mn5  1  0.50000000  0.50000000  0.50000000  1
  Mn  Mn6  1  0.00000000  0.00000000  0.50000000  1
  Mn  Mn7  1  0.00000000  0.50000000  0.00000000  1
  Re  Re8  1  0.00000000  0.00000000  0.00000000  1
  Re  Re9  1  0.25000000  0.25000000  0.25000000  1
  Re  Re10  1  0.00000000  0.50000000  0.50000000  1
  Re  Re11  1  0.25000000  0.75000000  0.75000000  1
  Re  Re12  1  0.50000000  0.00000000  0.50000000  1
  Re  Re13  1  0.75000000  0.25000000  0.75000000  1
  Re  Re14  1  0.50000000  0.50000000  0.00000000  1
  Re  Re15  1  0.75000000  0.75000000  0.25000000  1
