# generated using pymatgen
data_Ce4FeSe6O
_symmetry_space_group_name_H-M   'P 1'
_cell_length_a   9.49440186
_cell_length_b   9.49440186
_cell_length_c   7.07191200
_cell_angle_alpha   90.00000000
_cell_angle_beta   90.00000000
_cell_angle_gamma   120.00000000
_symmetry_Int_Tables_number   1
_chemical_formula_structural   Ce4FeSe6O
_chemical_formula_sum   'Ce8 Fe2 Se12 O2'
_cell_volume   552.08087013
_cell_formula_units_Z   2
loop_
 _symmetry_equiv_pos_site_id
 _symmetry_equiv_pos_as_xyz
  1  'x, y, z'
loop_
 _atom_site_type_symbol
 _atom_site_label
 _atom_site_symmetry_multiplicity
 _atom_site_fract_x
 _atom_site_fract_y
 _atom_site_fract_z
 _atom_site_occupancy
  Ce  Ce0  1  0.80263700  0.60527400  0.34265900  1
  Ce  Ce1  1  0.19736300  0.39472600  0.84265900  1
  Ce  Ce2  1  0.19736300  0.80263700  0.84265900  1
  Ce  Ce3  1  0.60527400  0.80263700  0.84265900  1
  Ce  Ce4  1  0.80263700  0.19736300  0.34265900  1
  Ce  Ce5  1  0.66666667  0.33333333  0.78544500  1
  Ce  Ce6  1  0.33333333  0.66666667  0.28544500  1
  Ce  Ce7  1  0.39472600  0.19736300  0.34265900  1
  Fe  Fe8  1  0.00000000  0.00000000  0.00020200  1
  Fe  Fe9  1  0.00000000  0.00000000  0.50020200  1
  Se  Se10  1  0.25798700  0.12899350  0.73575800  1
  Se  Se11  1  0.74201300  0.87100650  0.23575800  1
  Se  Se12  1  0.12899350  0.87100650  0.23575800  1
  Se  Se13  1  0.52994500  0.47005500  0.05596200  1
  Se  Se14  1  0.87100650  0.74201300  0.73575800  1
  Se  Se15  1  0.05989000  0.52994500  0.55596200  1
  Se  Se16  1  0.47005500  0.94011000  0.55596200  1
  Se  Se17  1  0.47005500  0.52994500  0.55596200  1
  Se  Se18  1  0.94011000  0.47005500  0.05596200  1
  Se  Se19  1  0.87100650  0.12899350  0.73575800  1
  Se  Se20  1  0.52994500  0.05989000  0.05596200  1
  Se  Se21  1  0.12899350  0.25798700  0.23575800  1
  O  O22  1  0.66666667  0.33333333  0.45219500  1
  O  O23  1  0.33333333  0.66666667  0.95219500  1
