# generated using pymatgen
data_Ba3NdRu2O9
_symmetry_space_group_name_H-M   'P 1'
_cell_length_a   6.01102600
_cell_length_b   10.41329400
_cell_length_c   14.91353468
_cell_angle_alpha   90.00000000
_cell_angle_beta   90.56794445
_cell_angle_gamma   90.00000000
_symmetry_Int_Tables_number   1
_chemical_formula_structural   Ba3NdRu2O9
_chemical_formula_sum   'Ba12 Nd4 Ru8 O36'
_cell_volume   933.46059242
_cell_formula_units_Z   4
loop_
 _symmetry_equiv_pos_site_id
 _symmetry_equiv_pos_as_xyz
  1  'x, y, z'
loop_
 _atom_site_type_symbol
 _atom_site_label
 _atom_site_symmetry_multiplicity
 _atom_site_fract_x
 _atom_site_fract_y
 _atom_site_fract_z
 _atom_site_occupancy
  Ba  Ba0  1  0.00175650  0.66643850  0.10217500  1
  Ba  Ba1  1  0.00000000  0.99959600  0.75000000  1
  Ba  Ba2  1  0.49824350  0.83356150  0.89782500  1
  Ba  Ba3  1  0.99824350  0.66643850  0.39782500  1
  Ba  Ba4  1  0.50175650  0.83356150  0.60217500  1
  Ba  Ba5  1  0.50000000  0.50040400  0.25000000  1
  Ba  Ba6  1  0.50175650  0.16643850  0.10217500  1
  Ba  Ba7  1  0.50000000  0.49959600  0.75000000  1
  Ba  Ba8  1  0.99824350  0.33356150  0.89782500  1
  Ba  Ba9  1  0.49824350  0.16643850  0.39782500  1
  Ba  Ba10  1  0.00175650  0.33356150  0.60217500  1
  Ba  Ba11  1  0.00000000  0.00040400  0.25000000  1
  Nd  Nd12  1  0.00000000  0.00000000  0.00000000  1
  Nd  Nd13  1  0.00000000  0.00000000  0.50000000  1
  Nd  Nd14  1  0.50000000  0.50000000  0.00000000  1
  Nd  Nd15  1  0.50000000  0.50000000  0.50000000  1
  Ru  Ru16  1  0.99456450  0.66675850  0.83371200  1
  Ru  Ru17  1  0.00543550  0.66675850  0.66628800  1
  Ru  Ru18  1  0.50543550  0.83324150  0.16628800  1
  Ru  Ru19  1  0.49456450  0.83324150  0.33371200  1
  Ru  Ru20  1  0.49456450  0.16675850  0.83371200  1
  Ru  Ru21  1  0.50543550  0.16675850  0.66628800  1
  Ru  Ru22  1  0.00543550  0.33324150  0.16628800  1
  Ru  Ru23  1  0.99456450  0.33324150  0.33371200  1
  O  O24  1  0.74445500  0.91015200  0.09626400  1
  O  O25  1  0.25554500  0.91015200  0.40373600  1
  O  O26  1  0.75554500  0.58984800  0.90373600  1
  O  O27  1  0.24445500  0.58984800  0.59626400  1
  O  O28  1  0.27983650  0.91021350  0.08775200  1
  O  O29  1  0.72016350  0.91021350  0.41224800  1
  O  O30  1  0.22016350  0.58978650  0.91224800  1
  O  O31  1  0.77983650  0.58978650  0.58775200  1
  O  O32  1  0.51175800  0.67729700  0.09321200  1
  O  O33  1  0.48824200  0.67729700  0.40678800  1
  O  O34  1  0.98824200  0.82270300  0.90678800  1
  O  O35  1  0.01175800  0.82270300  0.59321200  1
  O  O36  1  0.00000000  0.50912000  0.75000000  1
  O  O37  1  0.50000000  0.99088000  0.25000000  1
  O  O38  1  0.76367500  0.74462700  0.74638700  1
  O  O39  1  0.23632500  0.74462700  0.75361300  1
  O  O40  1  0.73632500  0.75537300  0.25361300  1
  O  O41  1  0.26367500  0.75537300  0.24638700  1
  O  O42  1  0.24445500  0.41015200  0.09626400  1
  O  O43  1  0.75554500  0.41015200  0.40373600  1
  O  O44  1  0.25554500  0.08984800  0.90373600  1
  O  O45  1  0.74445500  0.08984800  0.59626400  1
  O  O46  1  0.77983650  0.41021350  0.08775200  1
  O  O47  1  0.22016350  0.41021350  0.41224800  1
  O  O48  1  0.72016350  0.08978650  0.91224800  1
  O  O49  1  0.27983650  0.08978650  0.58775200  1
  O  O50  1  0.01175800  0.17729700  0.09321200  1
  O  O51  1  0.98824200  0.17729700  0.40678800  1
  O  O52  1  0.48824200  0.32270300  0.90678800  1
  O  O53  1  0.51175800  0.32270300  0.59321200  1
  O  O54  1  0.50000000  0.00912000  0.75000000  1
  O  O55  1  0.00000000  0.49088000  0.25000000  1
  O  O56  1  0.26367500  0.24462700  0.74638700  1
  O  O57  1  0.73632500  0.24462700  0.75361300  1
  O  O58  1  0.23632500  0.25537300  0.25361300  1
  O  O59  1  0.76367500  0.25537300  0.24638700  1
