# generated using pymatgen
data_Na2SrFe
_symmetry_space_group_name_H-M   'P 1'
_cell_length_a   7.64491400
_cell_length_b   7.64491400
_cell_length_c   7.64491400
_cell_angle_alpha   90.00000000
_cell_angle_beta   90.00000000
_cell_angle_gamma   90.00000000
_symmetry_Int_Tables_number   1
_chemical_formula_structural   Na2SrFe
_chemical_formula_sum   'Na8 Sr4 Fe4'
_cell_volume   446.80478222
_cell_formula_units_Z   4
loop_
 _symmetry_equiv_pos_site_id
 _symmetry_equiv_pos_as_xyz
  1  'x, y, z'
loop_
 _atom_site_type_symbol
 _atom_site_label
 _atom_site_symmetry_multiplicity
 _atom_site_fract_x
 _atom_site_fract_y
 _atom_site_fract_z
 _atom_site_occupancy
  Na  Na0  1  0.25000000  0.75000000  0.75000000  1
  Na  Na1  1  0.25000000  0.25000000  0.75000000  1
  Na  Na2  1  0.25000000  0.25000000  0.25000000  1
  Na  Na3  1  0.25000000  0.75000000  0.25000000  1
  Na  Na4  1  0.75000000  0.75000000  0.25000000  1
  Na  Na5  1  0.75000000  0.25000000  0.25000000  1
  Na  Na6  1  0.75000000  0.25000000  0.75000000  1
  Na  Na7  1  0.75000000  0.75000000  0.75000000  1
  Sr  Sr8  1  0.50000000  0.00000000  0.00000000  1
  Sr  Sr9  1  0.50000000  0.50000000  0.50000000  1
  Sr  Sr10  1  0.00000000  0.00000000  0.50000000  1
  Sr  Sr11  1  0.00000000  0.50000000  0.00000000  1
  Fe  Fe12  1  0.00000000  0.00000000  0.00000000  1
  Fe  Fe13  1  0.00000000  0.50000000  0.50000000  1
  Fe  Fe14  1  0.50000000  0.00000000  0.50000000  1
  Fe  Fe15  1  0.50000000  0.50000000  0.00000000  1
