# generated using pymatgen
data_Co2RhS4
_symmetry_space_group_name_H-M   'P 1'
_cell_length_a   6.70609600
_cell_length_b   6.76422400
_cell_length_c   9.53148800
_cell_angle_alpha   90.00000000
_cell_angle_beta   90.00000000
_cell_angle_gamma   90.00000000
_symmetry_Int_Tables_number   1
_chemical_formula_structural   Co2RhS4
_chemical_formula_sum   'Co8 Rh4 S16'
_cell_volume   432.36293137
_cell_formula_units_Z   4
loop_
 _symmetry_equiv_pos_site_id
 _symmetry_equiv_pos_as_xyz
  1  'x, y, z'
loop_
 _atom_site_type_symbol
 _atom_site_label
 _atom_site_symmetry_multiplicity
 _atom_site_fract_x
 _atom_site_fract_y
 _atom_site_fract_z
 _atom_site_occupancy
  Co  Co0  1  0.50000000  0.25000000  0.37375900  1
  Co  Co1  1  0.50000000  0.75000000  0.62624100  1
  Co  Co2  1  0.75000000  0.75000000  0.25000000  1
  Co  Co3  1  0.25000000  0.75000000  0.25000000  1
  Co  Co4  1  0.00000000  0.75000000  0.87375900  1
  Co  Co5  1  0.00000000  0.25000000  0.12624100  1
  Co  Co6  1  0.25000000  0.25000000  0.75000000  1
  Co  Co7  1  0.75000000  0.25000000  0.75000000  1
  Rh  Rh8  1  0.50000000  0.00000000  0.00000000  1
  Rh  Rh9  1  0.00000000  0.00000000  0.50000000  1
  Rh  Rh10  1  0.00000000  0.50000000  0.50000000  1
  Rh  Rh11  1  0.50000000  0.50000000  0.00000000  1
  S  S12  1  0.75234600  0.75000000  0.49001800  1
  S  S13  1  0.50000000  0.01637400  0.74933800  1
  S  S14  1  0.24765400  0.75000000  0.49001800  1
  S  S15  1  0.00000000  0.98362600  0.24933800  1
  S  S16  1  0.00000000  0.01637400  0.75066200  1
  S  S17  1  0.75234600  0.25000000  0.50998200  1
  S  S18  1  0.50000000  0.98362600  0.25066200  1
  S  S19  1  0.24765400  0.25000000  0.50998200  1
  S  S20  1  0.25234600  0.25000000  0.99001800  1
  S  S21  1  0.00000000  0.51637400  0.24933800  1
  S  S22  1  0.74765400  0.25000000  0.99001800  1
  S  S23  1  0.50000000  0.48362600  0.74933800  1
  S  S24  1  0.50000000  0.51637400  0.25066200  1
  S  S25  1  0.25234600  0.75000000  0.00998200  1
  S  S26  1  0.00000000  0.48362600  0.75066200  1
  S  S27  1  0.74765400  0.75000000  0.00998200  1
