# generated using pymatgen
data_Hf8PbO24
_symmetry_space_group_name_H-M   'P 1'
_cell_length_a   16.55073800
_cell_length_b   8.27069600
_cell_length_c   9.24047742
_cell_angle_alpha   90.00000000
_cell_angle_beta   116.35974373
_cell_angle_gamma   90.00000000
_symmetry_Int_Tables_number   1
_chemical_formula_structural   Hf8PbO24
_chemical_formula_sum   'Hf16 Pb2 O48'
_cell_volume   1133.37452333
_cell_formula_units_Z   2
loop_
 _symmetry_equiv_pos_site_id
 _symmetry_equiv_pos_as_xyz
  1  'x, y, z'
loop_
 _atom_site_type_symbol
 _atom_site_label
 _atom_site_symmetry_multiplicity
 _atom_site_fract_x
 _atom_site_fract_y
 _atom_site_fract_z
 _atom_site_occupancy
  Hf  Hf0  1  0.06378750  0.24539250  0.24584200  1
  Hf  Hf1  1  0.43621250  0.74539250  0.75415800  1
  Hf  Hf2  1  0.06378750  0.75460750  0.24584200  1
  Hf  Hf3  1  0.30919000  0.25432900  0.24604600  1
  Hf  Hf4  1  0.43621250  0.25460750  0.75415800  1
  Hf  Hf5  1  0.19081000  0.24567100  0.75395400  1
  Hf  Hf6  1  0.30919000  0.74567100  0.24604600  1
  Hf  Hf7  1  0.19081000  0.75432900  0.75395400  1
  Hf  Hf8  1  0.56378750  0.74539250  0.24584200  1
  Hf  Hf9  1  0.93621250  0.24539250  0.75415800  1
  Hf  Hf10  1  0.56378750  0.25460750  0.24584200  1
  Hf  Hf11  1  0.80919000  0.75432900  0.24604600  1
  Hf  Hf12  1  0.93621250  0.75460750  0.75415800  1
  Hf  Hf13  1  0.69081000  0.74567100  0.75395400  1
  Hf  Hf14  1  0.80919000  0.24567100  0.24604600  1
  Hf  Hf15  1  0.69081000  0.25432900  0.75395400  1
  Pb  Pb16  1  0.00000000  0.50000000  0.50000000  1
  Pb  Pb17  1  0.50000000  0.00000000  0.50000000  1
  O  O18  1  0.00000000  0.25180900  0.00000000  1
  O  O19  1  0.44062550  0.76254250  0.26274300  1
  O  O20  1  0.05937450  0.26254250  0.73725700  1
  O  O21  1  0.05915000  0.50000000  0.26292700  1
  O  O22  1  0.32186200  0.00000000  0.26180900  1
  O  O23  1  0.44085000  0.00000000  0.73707300  1
  O  O24  1  0.18601100  0.00000000  0.74776000  1
  O  O25  1  0.00000000  0.74819100  0.00000000  1
  O  O26  1  0.44062550  0.23745750  0.26274300  1
  O  O27  1  0.25000000  0.25000000  0.00000000  1
  O  O28  1  0.38156750  0.23778650  0.50008800  1
  O  O29  1  0.05937450  0.73745750  0.73725700  1
  O  O30  1  0.18812600  0.24995300  0.25251600  1
  O  O31  1  0.11843250  0.26221350  0.49991200  1
  O  O32  1  0.31187400  0.25004700  0.74748400  1
  O  O33  1  0.31398900  0.50000000  0.25224000  1
  O  O34  1  0.43812200  0.50000000  0.74875400  1
  O  O35  1  0.17813800  0.50000000  0.73819100  1
  O  O36  1  0.06187800  0.00000000  0.25124600  1
  O  O37  1  0.25000000  0.75000000  0.00000000  1
  O  O38  1  0.18812600  0.75004700  0.25251600  1
  O  O39  1  0.31187400  0.74995300  0.74748400  1
  O  O40  1  0.11843250  0.73778650  0.49991200  1
  O  O41  1  0.38156750  0.76221350  0.50008800  1
  O  O42  1  0.50000000  0.75180900  0.00000000  1
  O  O43  1  0.94062550  0.26254250  0.26274300  1
  O  O44  1  0.55937450  0.76254250  0.73725700  1
  O  O45  1  0.55915000  0.00000000  0.26292700  1
  O  O46  1  0.82186200  0.50000000  0.26180900  1
  O  O47  1  0.94085000  0.50000000  0.73707300  1
  O  O48  1  0.68601100  0.50000000  0.74776000  1
  O  O49  1  0.50000000  0.24819100  0.00000000  1
  O  O50  1  0.94062550  0.73745750  0.26274300  1
  O  O51  1  0.75000000  0.75000000  0.00000000  1
  O  O52  1  0.88156750  0.73778650  0.50008800  1
  O  O53  1  0.55937450  0.23745750  0.73725700  1
  O  O54  1  0.68812600  0.74995300  0.25251600  1
  O  O55  1  0.61843250  0.76221350  0.49991200  1
  O  O56  1  0.81187400  0.75004700  0.74748400  1
  O  O57  1  0.81398900  0.00000000  0.25224000  1
  O  O58  1  0.93812200  0.00000000  0.74875400  1
  O  O59  1  0.67813800  0.00000000  0.73819100  1
  O  O60  1  0.56187800  0.50000000  0.25124600  1
  O  O61  1  0.75000000  0.25000000  0.00000000  1
  O  O62  1  0.68812600  0.25004700  0.25251600  1
  O  O63  1  0.81187400  0.24995300  0.74748400  1
  O  O64  1  0.61843250  0.23778650  0.49991200  1
  O  O65  1  0.88156750  0.26221350  0.50008800  1
