# generated using pymatgen
data_Hg(Mo3S4)2
_symmetry_space_group_name_H-M   'P 1'
_cell_length_a   9.55348378
_cell_length_b   9.55348378
_cell_length_c   10.81335665
_cell_angle_alpha   90.00000000
_cell_angle_beta   90.00000000
_cell_angle_gamma   120.00000000
_symmetry_Int_Tables_number   1
_chemical_formula_structural   Hg(Mo3S4)2
_chemical_formula_sum   'Hg3 Mo18 S24'
_cell_volume   854.70196006
_cell_formula_units_Z   3
loop_
 _symmetry_equiv_pos_site_id
 _symmetry_equiv_pos_as_xyz
  1  'x, y, z'
loop_
 _atom_site_type_symbol
 _atom_site_label
 _atom_site_symmetry_multiplicity
 _atom_site_fract_x
 _atom_site_fract_y
 _atom_site_fract_z
 _atom_site_occupancy
  Hg  Hg0  1  0.00000000  0.00000000  0.00000000  1
  Hg  Hg1  1  0.66666667  0.33333333  0.33333333  1
  Hg  Hg2  1  0.33333333  0.66666667  0.66666667  1
  Mo  Mo3  1  0.82588100  0.98596400  0.39358300  1
  Mo  Mo4  1  0.16008300  0.17411900  0.39358300  1
  Mo  Mo5  1  0.01403600  0.83991700  0.39358300  1
  Mo  Mo6  1  0.17411900  0.01403600  0.60641700  1
  Mo  Mo7  1  0.83991700  0.82588100  0.60641700  1
  Mo  Mo8  1  0.98596400  0.16008300  0.60641700  1
  Mo  Mo9  1  0.49254767  0.31929733  0.72691633  1
  Mo  Mo10  1  0.82674967  0.50745233  0.72691633  1
  Mo  Mo11  1  0.68070267  0.17325033  0.72691633  1
  Mo  Mo12  1  0.84078567  0.34736933  0.93975033  1
  Mo  Mo13  1  0.50658367  0.15921433  0.93975033  1
  Mo  Mo14  1  0.65263067  0.49341633  0.93975033  1
  Mo  Mo15  1  0.15921433  0.65263067  0.06024967  1
  Mo  Mo16  1  0.49341633  0.84078567  0.06024967  1
  Mo  Mo17  1  0.34736933  0.50658367  0.06024967  1
  Mo  Mo18  1  0.50745233  0.68070267  0.27308367  1
  Mo  Mo19  1  0.17325033  0.49254767  0.27308367  1
  Mo  Mo20  1  0.31929733  0.82674967  0.27308367  1
  S  S21  1  0.00000000  0.00000000  0.22692800  1
  S  S22  1  0.00000000  0.00000000  0.77307200  1
  S  S23  1  0.31003333  0.03031267  0.41193467  1
  S  S24  1  0.72027933  0.68996667  0.41193467  1
  S  S25  1  0.96968733  0.27972067  0.41193467  1
  S  S26  1  0.68996667  0.96968733  0.58806533  1
  S  S27  1  0.27972067  0.31003333  0.58806533  1
  S  S28  1  0.03031267  0.72027933  0.58806533  1
  S  S29  1  0.66666667  0.33333333  0.56026133  1
  S  S30  1  0.66666667  0.33333333  0.10640533  1
  S  S31  1  0.97670000  0.36364600  0.74526800  1
  S  S32  1  0.38694600  0.02330000  0.74526800  1
  S  S33  1  0.63635400  0.61305400  0.74526800  1
  S  S34  1  0.35663333  0.30302067  0.92139867  1
  S  S35  1  0.94638733  0.64336667  0.92139867  1
  S  S36  1  0.69697933  0.05361267  0.92139867  1
  S  S37  1  0.33333333  0.66666667  0.89359467  1
  S  S38  1  0.33333333  0.66666667  0.43973867  1
  S  S39  1  0.64336667  0.69697933  0.07860133  1
  S  S40  1  0.05361267  0.35663333  0.07860133  1
  S  S41  1  0.30302067  0.94638733  0.07860133  1
  S  S42  1  0.02330000  0.63635400  0.25473200  1
  S  S43  1  0.61305400  0.97670000  0.25473200  1
  S  S44  1  0.36364600  0.38694600  0.25473200  1
