# generated using pymatgen
data_Ca5Ge3H
_symmetry_space_group_name_H-M   'P 1'
_cell_length_a   7.73904600
_cell_length_b   7.73904600
_cell_length_c   14.59204000
_cell_angle_alpha   90.00000000
_cell_angle_beta   90.00000000
_cell_angle_gamma   90.00000000
_symmetry_Int_Tables_number   1
_chemical_formula_structural   Ca5Ge3H
_chemical_formula_sum   'Ca20 Ge12 H4'
_cell_volume   873.95861471
_cell_formula_units_Z   4
loop_
 _symmetry_equiv_pos_site_id
 _symmetry_equiv_pos_as_xyz
  1  'x, y, z'
loop_
 _atom_site_type_symbol
 _atom_site_label
 _atom_site_symmetry_multiplicity
 _atom_site_fract_x
 _atom_site_fract_y
 _atom_site_fract_z
 _atom_site_occupancy
  Ca  Ca0  1  0.50000000  0.50000000  0.00000000  1
  Ca  Ca1  1  0.00000000  0.00000000  0.00000000  1
  Ca  Ca2  1  0.66735150  0.16735150  0.35088050  1
  Ca  Ca3  1  0.33264850  0.83264850  0.35088050  1
  Ca  Ca4  1  0.83264850  0.66735150  0.35088050  1
  Ca  Ca5  1  0.16735150  0.33264850  0.35088050  1
  Ca  Ca6  1  0.83264850  0.33264850  0.14911950  1
  Ca  Ca7  1  0.16735150  0.66735150  0.14911950  1
  Ca  Ca8  1  0.66735150  0.83264850  0.14911950  1
  Ca  Ca9  1  0.33264850  0.16735150  0.14911950  1
  Ca  Ca10  1  0.00000000  0.00000000  0.50000000  1
  Ca  Ca11  1  0.50000000  0.50000000  0.50000000  1
  Ca  Ca12  1  0.16735150  0.66735150  0.85088050  1
  Ca  Ca13  1  0.83264850  0.33264850  0.85088050  1
  Ca  Ca14  1  0.33264850  0.16735150  0.85088050  1
  Ca  Ca15  1  0.66735150  0.83264850  0.85088050  1
  Ca  Ca16  1  0.33264850  0.83264850  0.64911950  1
  Ca  Ca17  1  0.66735150  0.16735150  0.64911950  1
  Ca  Ca18  1  0.16735150  0.33264850  0.64911950  1
  Ca  Ca19  1  0.83264850  0.66735150  0.64911950  1
  Ge  Ge20  1  0.00000000  0.00000000  0.25000000  1
  Ge  Ge21  1  0.50000000  0.50000000  0.25000000  1
  Ge  Ge22  1  0.88269650  0.38269650  0.50000000  1
  Ge  Ge23  1  0.61730350  0.11730350  0.00000000  1
  Ge  Ge24  1  0.11730350  0.38269650  0.00000000  1
  Ge  Ge25  1  0.88269650  0.61730350  0.00000000  1
  Ge  Ge26  1  0.50000000  0.50000000  0.75000000  1
  Ge  Ge27  1  0.00000000  0.00000000  0.75000000  1
  Ge  Ge28  1  0.38269650  0.88269650  0.00000000  1
  Ge  Ge29  1  0.11730350  0.61730350  0.50000000  1
  Ge  Ge30  1  0.61730350  0.88269650  0.50000000  1
  Ge  Ge31  1  0.38269650  0.11730350  0.50000000  1
  H  H32  1  0.50000000  0.00000000  0.25000000  1
  H  H33  1  0.00000000  0.50000000  0.25000000  1
  H  H34  1  0.00000000  0.50000000  0.75000000  1
  H  H35  1  0.50000000  0.00000000  0.75000000  1
