# generated using pymatgen
data_NaFe2O3
_symmetry_space_group_name_H-M   'P 1'
_cell_length_a   5.42549400
_cell_length_b   9.48016200
_cell_length_c   10.26570992
_cell_angle_alpha   90.00000000
_cell_angle_beta   97.24593218
_cell_angle_gamma   90.00000000
_symmetry_Int_Tables_number   1
_chemical_formula_structural   NaFe2O3
_chemical_formula_sum   'Na8 Fe16 O24'
_cell_volume   523.79553828
_cell_formula_units_Z   8
loop_
 _symmetry_equiv_pos_site_id
 _symmetry_equiv_pos_as_xyz
  1  'x, y, z'
loop_
 _atom_site_type_symbol
 _atom_site_label
 _atom_site_symmetry_multiplicity
 _atom_site_fract_x
 _atom_site_fract_y
 _atom_site_fract_z
 _atom_site_occupancy
  Na  Na0  1  0.12673150  0.67412450  0.37110500  1
  Na  Na1  1  0.62673150  0.82587550  0.37110500  1
  Na  Na2  1  0.87326850  0.67412450  0.62889500  1
  Na  Na3  1  0.37326850  0.82587550  0.62889500  1
  Na  Na4  1  0.62673150  0.17412450  0.37110500  1
  Na  Na5  1  0.12673150  0.32587550  0.37110500  1
  Na  Na6  1  0.37326850  0.17412450  0.62889500  1
  Na  Na7  1  0.87326850  0.32587550  0.62889500  1
  Fe  Fe8  1  0.12604250  0.83463950  0.87288900  1
  Fe  Fe9  1  0.37395750  0.66536050  0.12711100  1
  Fe  Fe10  1  0.16514100  0.00000000  0.39563100  1
  Fe  Fe11  1  0.62604250  0.66536050  0.87288900  1
  Fe  Fe12  1  0.37011300  0.00000000  0.12688200  1
  Fe  Fe13  1  0.62988700  0.00000000  0.87311800  1
  Fe  Fe14  1  0.87395750  0.83463950  0.12711100  1
  Fe  Fe15  1  0.83485900  0.00000000  0.60436900  1
  Fe  Fe16  1  0.62604250  0.33463950  0.87288900  1
  Fe  Fe17  1  0.87395750  0.16536050  0.12711100  1
  Fe  Fe18  1  0.66514100  0.50000000  0.39563100  1
  Fe  Fe19  1  0.12604250  0.16536050  0.87288900  1
  Fe  Fe20  1  0.87011300  0.50000000  0.12688200  1
  Fe  Fe21  1  0.12988700  0.50000000  0.87311800  1
  Fe  Fe22  1  0.37395750  0.33463950  0.12711100  1
  Fe  Fe23  1  0.33485900  0.50000000  0.60436900  1
  O  O24  1  0.50000000  0.83758400  0.00000000  1
  O  O25  1  0.00000000  0.66241600  0.00000000  1
  O  O26  1  0.26347400  0.64522700  0.75903300  1
  O  O27  1  0.00000000  0.00000000  0.00000000  1
  O  O28  1  0.23652600  0.85477300  0.24096700  1
  O  O29  1  0.50000000  0.63807300  0.50000000  1
  O  O30  1  0.27959200  0.00000000  0.78032600  1
  O  O31  1  0.73652600  0.64522700  0.24096700  1
  O  O32  1  0.50000000  0.00000000  0.50000000  1
  O  O33  1  0.76347400  0.85477300  0.75903300  1
  O  O34  1  0.72040800  0.00000000  0.21967400  1
  O  O35  1  0.00000000  0.86192700  0.50000000  1
  O  O36  1  0.00000000  0.33758400  0.00000000  1
  O  O37  1  0.50000000  0.16241600  0.00000000  1
  O  O38  1  0.76347400  0.14522700  0.75903300  1
  O  O39  1  0.50000000  0.50000000  0.00000000  1
  O  O40  1  0.73652600  0.35477300  0.24096700  1
  O  O41  1  0.00000000  0.13807300  0.50000000  1
  O  O42  1  0.77959200  0.50000000  0.78032600  1
  O  O43  1  0.23652600  0.14522700  0.24096700  1
  O  O44  1  0.00000000  0.50000000  0.50000000  1
  O  O45  1  0.26347400  0.35477300  0.75903300  1
  O  O46  1  0.22040800  0.50000000  0.21967400  1
  O  O47  1  0.50000000  0.36192700  0.50000000  1
