# generated using pymatgen
data_Mo4O5
_symmetry_space_group_name_H-M   'P 1'
_cell_length_a   6.18107400
_cell_length_b   6.18107400
_cell_length_c   25.44619600
_cell_angle_alpha   90.00000000
_cell_angle_beta   90.00000000
_cell_angle_gamma   90.00000000
_symmetry_Int_Tables_number   1
_chemical_formula_structural   Mo4O5
_chemical_formula_sum   'Mo32 O40'
_cell_volume   972.18911455
_cell_formula_units_Z   8
loop_
 _symmetry_equiv_pos_site_id
 _symmetry_equiv_pos_as_xyz
  1  'x, y, z'
loop_
 _atom_site_type_symbol
 _atom_site_label
 _atom_site_symmetry_multiplicity
 _atom_site_fract_x
 _atom_site_fract_y
 _atom_site_fract_z
 _atom_site_occupancy
  Mo  Mo0  1  0.50000000  0.24472600  0.00419700  1
  Mo  Mo1  1  0.74024250  0.50000000  0.24938550  1
  Mo  Mo2  1  0.74472600  0.50000000  0.75419700  1
  Mo  Mo3  1  0.25527400  0.50000000  0.75419700  1
  Mo  Mo4  1  0.00000000  0.74024250  0.99938550  1
  Mo  Mo5  1  0.50000000  0.75527400  0.00419700  1
  Mo  Mo6  1  0.00000000  0.25975750  0.99938550  1
  Mo  Mo7  1  0.25975750  0.50000000  0.24938550  1
  Mo  Mo8  1  0.50000000  0.23013000  0.17318200  1
  Mo  Mo9  1  0.26987000  0.50000000  0.92318200  1
  Mo  Mo10  1  0.73013000  0.50000000  0.92318200  1
  Mo  Mo11  1  0.50000000  0.76987000  0.17318200  1
  Mo  Mo12  1  0.75128950  0.50000000  0.07962150  1
  Mo  Mo13  1  0.00000000  0.75128950  0.82962150  1
  Mo  Mo14  1  0.24871050  0.50000000  0.07962150  1
  Mo  Mo15  1  0.00000000  0.24871050  0.82962150  1
  Mo  Mo16  1  0.00000000  0.74472600  0.50419700  1
  Mo  Mo17  1  0.24024250  0.00000000  0.74938550  1
  Mo  Mo18  1  0.24472600  0.00000000  0.25419700  1
  Mo  Mo19  1  0.75527400  0.00000000  0.25419700  1
  Mo  Mo20  1  0.50000000  0.24024250  0.49938550  1
  Mo  Mo21  1  0.00000000  0.25527400  0.50419700  1
  Mo  Mo22  1  0.50000000  0.75975750  0.49938550  1
  Mo  Mo23  1  0.75975750  0.00000000  0.74938550  1
  Mo  Mo24  1  0.00000000  0.73013000  0.67318200  1
  Mo  Mo25  1  0.76987000  0.00000000  0.42318200  1
  Mo  Mo26  1  0.23013000  0.00000000  0.42318200  1
  Mo  Mo27  1  0.00000000  0.26987000  0.67318200  1
  Mo  Mo28  1  0.25128950  0.00000000  0.57962150  1
  Mo  Mo29  1  0.50000000  0.25128950  0.32962150  1
  Mo  Mo30  1  0.74871050  0.00000000  0.57962150  1
  Mo  Mo31  1  0.50000000  0.74871050  0.32962150  1
  O  O32  1  0.50000000  0.26283700  0.08944100  1
  O  O33  1  0.76283700  0.50000000  0.83944100  1
  O  O34  1  0.22717950  0.00000000  0.82802650  1
  O  O35  1  0.71866250  0.50000000  0.16498050  1
  O  O36  1  0.23716300  0.50000000  0.83944100  1
  O  O37  1  0.50000000  0.26121850  0.92166450  1
  O  O38  1  0.00000000  0.71866250  0.91498050  1
  O  O39  1  0.00000000  0.72717950  0.07802650  1
  O  O40  1  0.50000000  0.73716300  0.08944100  1
  O  O41  1  0.50000000  0.24338350  0.75072650  1
  O  O42  1  0.50000000  0.75661650  0.75072650  1
  O  O43  1  0.00000000  0.27282050  0.07802650  1
  O  O44  1  0.50000000  0.73878150  0.92166450  1
  O  O45  1  0.28133750  0.50000000  0.16498050  1
  O  O46  1  0.77282050  0.00000000  0.82802650  1
  O  O47  1  0.73878150  0.00000000  0.17166450  1
  O  O48  1  0.26121850  0.00000000  0.17166450  1
  O  O49  1  0.75661650  0.00000000  0.00072650  1
  O  O50  1  0.24338350  0.00000000  0.00072650  1
  O  O51  1  0.00000000  0.28133750  0.91498050  1
  O  O52  1  0.00000000  0.76283700  0.58944100  1
  O  O53  1  0.26283700  0.00000000  0.33944100  1
  O  O54  1  0.72717950  0.50000000  0.32802650  1
  O  O55  1  0.21866250  0.00000000  0.66498050  1
  O  O56  1  0.73716300  0.00000000  0.33944100  1
  O  O57  1  0.00000000  0.76121850  0.42166450  1
  O  O58  1  0.50000000  0.21866250  0.41498050  1
  O  O59  1  0.50000000  0.22717950  0.57802650  1
  O  O60  1  0.00000000  0.23716300  0.58944100  1
  O  O61  1  0.00000000  0.74338350  0.25072650  1
  O  O62  1  0.00000000  0.25661650  0.25072650  1
  O  O63  1  0.50000000  0.77282050  0.57802650  1
  O  O64  1  0.00000000  0.23878150  0.42166450  1
  O  O65  1  0.78133750  0.00000000  0.66498050  1
  O  O66  1  0.27282050  0.50000000  0.32802650  1
  O  O67  1  0.23878150  0.50000000  0.67166450  1
  O  O68  1  0.76121850  0.50000000  0.67166450  1
  O  O69  1  0.25661650  0.50000000  0.50072650  1
  O  O70  1  0.74338350  0.50000000  0.50072650  1
  O  O71  1  0.50000000  0.78133750  0.41498050  1
