# generated using pymatgen
data_Ti2Co(PO5)2
_symmetry_space_group_name_H-M   'P 1'
_cell_length_a   7.43409078
_cell_length_b   7.45652061
_cell_length_c   7.43697806
_cell_angle_alpha   90.00000000
_cell_angle_beta   119.46854380
_cell_angle_gamma   90.00000000
_symmetry_Int_Tables_number   1
_chemical_formula_structural   Ti2Co(PO5)2
_chemical_formula_sum   'Ti4 Co2 P4 O20'
_cell_volume   358.91546478
_cell_formula_units_Z   2
loop_
 _symmetry_equiv_pos_site_id
 _symmetry_equiv_pos_as_xyz
  1  'x, y, z'
loop_
 _atom_site_type_symbol
 _atom_site_label
 _atom_site_symmetry_multiplicity
 _atom_site_fract_x
 _atom_site_fract_y
 _atom_site_fract_z
 _atom_site_occupancy
  Ti  Ti0  1  0.23474400  0.27743800  0.70768800  1
  Ti  Ti1  1  0.23474400  0.22256200  0.20768800  1
  Ti  Ti2  1  0.76525600  0.77743800  0.79231200  1
  Ti  Ti3  1  0.76525600  0.72256200  0.29231200  1
  Co  Co4  1  0.50000000  0.50000000  0.50000000  1
  Co  Co5  1  0.50000000  0.00000000  0.00000000  1
  P  P6  1  0.25352150  0.62146300  0.00397150  1
  P  P7  1  0.74647850  0.37853700  0.99602850  1
  P  P8  1  0.25352150  0.87853700  0.50397150  1
  P  P9  1  0.74647850  0.12146300  0.49602850  1
  O  O10  1  0.26921500  0.15900600  0.00047100  1
  O  O11  1  0.26921500  0.34099400  0.50047100  1
  O  O12  1  0.73078500  0.84099400  0.99952900  1
  O  O13  1  0.73078500  0.65900600  0.49952900  1
  O  O14  1  0.05666450  0.73500100  0.92664950  1
  O  O15  1  0.94333550  0.23500100  0.57335050  1
  O  O16  1  0.05666450  0.76499900  0.42664950  1
  O  O17  1  0.94333550  0.26499900  0.07335050  1
  O  O18  1  0.71824700  0.99596500  0.31655700  1
  O  O19  1  0.28175300  0.00403500  0.68344300  1
  O  O20  1  0.71824700  0.50403500  0.81655700  1
  O  O21  1  0.28175300  0.49596500  0.18344300  1
  O  O22  1  0.44094000  0.74999150  0.08780350  1
  O  O23  1  0.44094000  0.75000850  0.58780350  1
  O  O24  1  0.55906000  0.24999150  0.41219650  1
  O  O25  1  0.55906000  0.25000850  0.91219650  1
  O  O26  1  0.23959600  0.50749300  0.82419300  1
  O  O27  1  0.23959600  0.99250700  0.32419300  1
  O  O28  1  0.76040400  0.49250700  0.17580700  1
  O  O29  1  0.76040400  0.00749300  0.67580700  1
