# generated using pymatgen
data_Ca3Co(SeO3)4
_symmetry_space_group_name_H-M   'P 1'
_cell_length_a   7.70424800
_cell_length_b   7.70424800
_cell_length_c   22.82763800
_cell_angle_alpha   90.00000000
_cell_angle_beta   90.00000000
_cell_angle_gamma   90.00000000
_symmetry_Int_Tables_number   1
_chemical_formula_structural   Ca3Co(SeO3)4
_chemical_formula_sum   'Ca12 Co4 Se16 O48'
_cell_volume   1354.94443477
_cell_formula_units_Z   4
loop_
 _symmetry_equiv_pos_site_id
 _symmetry_equiv_pos_as_xyz
  1  'x, y, z'
loop_
 _atom_site_type_symbol
 _atom_site_label
 _atom_site_symmetry_multiplicity
 _atom_site_fract_x
 _atom_site_fract_y
 _atom_site_fract_z
 _atom_site_occupancy
  Ca  Ca0  1  0.50000000  0.00000000  0.07360200  1
  Ca  Ca1  1  0.50000000  0.50000000  0.00000000  1
  Ca  Ca2  1  0.50000000  0.50000000  0.17639800  1
  Ca  Ca3  1  0.50000000  0.00000000  0.42639800  1
  Ca  Ca4  1  0.00000000  0.00000000  0.32360200  1
  Ca  Ca5  1  0.50000000  0.00000000  0.25000000  1
  Ca  Ca6  1  0.00000000  0.50000000  0.57360200  1
  Ca  Ca7  1  0.00000000  0.00000000  0.50000000  1
  Ca  Ca8  1  0.00000000  0.00000000  0.67639800  1
  Ca  Ca9  1  0.00000000  0.50000000  0.92639800  1
  Ca  Ca10  1  0.50000000  0.50000000  0.82360200  1
  Ca  Ca11  1  0.00000000  0.50000000  0.75000000  1
  Co  Co12  1  0.00000000  0.50000000  0.25000000  1
  Co  Co13  1  0.00000000  0.00000000  0.00000000  1
  Co  Co14  1  0.50000000  0.00000000  0.75000000  1
  Co  Co15  1  0.50000000  0.50000000  0.50000000  1
  Se  Se16  1  0.16898600  0.32083100  0.06663900  1
  Se  Se17  1  0.82083100  0.33101400  0.43336100  1
  Se  Se18  1  0.67916900  0.66898600  0.31663900  1
  Se  Se19  1  0.17916900  0.66898600  0.43336100  1
  Se  Se20  1  0.32083100  0.33101400  0.31663900  1
  Se  Se21  1  0.16898600  0.82083100  0.18336100  1
  Se  Se22  1  0.83101400  0.67916900  0.06663900  1
  Se  Se23  1  0.83101400  0.17916900  0.18336100  1
  Se  Se24  1  0.66898600  0.82083100  0.56663900  1
  Se  Se25  1  0.32083100  0.83101400  0.93336100  1
  Se  Se26  1  0.17916900  0.16898600  0.81663900  1
  Se  Se27  1  0.67916900  0.16898600  0.93336100  1
  Se  Se28  1  0.82083100  0.83101400  0.81663900  1
  Se  Se29  1  0.66898600  0.32083100  0.68336100  1
  Se  Se30  1  0.33101400  0.17916900  0.56663900  1
  Se  Se31  1  0.33101400  0.67916900  0.68336100  1
  O  O32  1  0.37181800  0.85451700  0.15498200  1
  O  O33  1  0.59908850  0.31162350  0.45049750  1
  O  O34  1  0.85451700  0.12818200  0.40498200  1
  O  O35  1  0.57957950  0.69647450  0.25008750  1
  O  O36  1  0.81162350  0.40091150  0.20049750  1
  O  O37  1  0.62818200  0.14548300  0.15498200  1
  O  O38  1  0.42042050  0.30352550  0.25008750  1
  O  O39  1  0.90091150  0.68837650  0.29950250  1
  O  O40  1  0.64548300  0.87181800  0.34501800  1
  O  O41  1  0.19647450  0.42042050  0.00008750  1
  O  O42  1  0.80352550  0.57957950  0.00008750  1
  O  O43  1  0.37181800  0.35451700  0.09501800  1
  O  O44  1  0.19647450  0.92042050  0.24991250  1
  O  O45  1  0.35451700  0.12818200  0.34501800  1
  O  O46  1  0.18837650  0.59908850  0.20049750  1
  O  O47  1  0.81162350  0.90091150  0.04950250  1
  O  O48  1  0.80352550  0.07957950  0.24991250  1
  O  O49  1  0.92042050  0.30352550  0.49991250  1
  O  O50  1  0.09908850  0.31162350  0.29950250  1
  O  O51  1  0.40091150  0.68837650  0.45049750  1
  O  O52  1  0.62818200  0.64548300  0.09501800  1
  O  O53  1  0.18837650  0.09908850  0.04950250  1
  O  O54  1  0.07957950  0.69647450  0.49991250  1
  O  O55  1  0.14548300  0.87181800  0.40498200  1
  O  O56  1  0.87181800  0.35451700  0.65498200  1
  O  O57  1  0.09908850  0.81162350  0.95049750  1
  O  O58  1  0.35451700  0.62818200  0.90498200  1
  O  O59  1  0.07957950  0.19647450  0.75008750  1
  O  O60  1  0.31162350  0.90091150  0.70049750  1
  O  O61  1  0.12818200  0.64548300  0.65498200  1
  O  O62  1  0.92042050  0.80352550  0.75008750  1
  O  O63  1  0.40091150  0.18837650  0.79950250  1
  O  O64  1  0.14548300  0.37181800  0.84501800  1
  O  O65  1  0.69647450  0.92042050  0.50008750  1
  O  O66  1  0.30352550  0.07957950  0.50008750  1
  O  O67  1  0.87181800  0.85451700  0.59501800  1
  O  O68  1  0.69647450  0.42042050  0.74991250  1
  O  O69  1  0.85451700  0.62818200  0.84501800  1
  O  O70  1  0.68837650  0.09908850  0.70049750  1
  O  O71  1  0.31162350  0.40091150  0.54950250  1
  O  O72  1  0.30352550  0.57957950  0.74991250  1
  O  O73  1  0.42042050  0.80352550  0.99991250  1
  O  O74  1  0.59908850  0.81162350  0.79950250  1
  O  O75  1  0.90091150  0.18837650  0.95049750  1
  O  O76  1  0.12818200  0.14548300  0.59501800  1
  O  O77  1  0.68837650  0.59908850  0.54950250  1
  O  O78  1  0.57957950  0.19647450  0.99991250  1
  O  O79  1  0.64548300  0.37181800  0.90498200  1
