# generated using pymatgen
data_Ba24In19N11
_symmetry_space_group_name_H-M   'P 1'
_cell_length_a   18.84770600
_cell_length_b   10.66369000
_cell_length_c   18.59667707
_cell_angle_alpha   90.00000000
_cell_angle_beta   109.08504951
_cell_angle_gamma   90.00000000
_symmetry_Int_Tables_number   1
_chemical_formula_structural   Ba24In19N11
_chemical_formula_sum   'Ba48 In38 N22'
_cell_volume   3532.22950596
_cell_formula_units_Z   2
loop_
 _symmetry_equiv_pos_site_id
 _symmetry_equiv_pos_as_xyz
  1  'x, y, z'
loop_
 _atom_site_type_symbol
 _atom_site_label
 _atom_site_symmetry_multiplicity
 _atom_site_fract_x
 _atom_site_fract_y
 _atom_site_fract_z
 _atom_site_occupancy
  Ba  Ba0  1  0.77383400  0.31893900  0.65058600  1
  Ba  Ba1  1  0.77534700  0.00000000  0.97265900  1
  Ba  Ba2  1  0.59647800  0.81965100  0.97335300  1
  Ba  Ba3  1  0.77383400  0.68106100  0.65058600  1
  Ba  Ba4  1  0.77383250  0.82252350  0.15279600  1
  Ba  Ba5  1  0.90552000  0.50000000  0.84178100  1
  Ba  Ba6  1  0.89998050  0.82053550  0.52413200  1
  Ba  Ba7  1  0.77316300  0.50000000  0.47085000  1
  Ba  Ba8  1  0.59514700  0.50000000  0.65040100  1
  Ba  Ba9  1  0.59647800  0.18034900  0.97335300  1
  Ba  Ba10  1  0.59641700  0.32163100  0.47173000  1
  Ba  Ba11  1  0.71697200  0.30414600  0.84057200  1
  Ba  Ba12  1  0.77383250  0.17747650  0.15279600  1
  Ba  Ba13  1  0.89998050  0.17946450  0.52413200  1
  Ba  Ba14  1  0.90770200  0.30868200  0.03667600  1
  Ba  Ba15  1  0.89903800  0.00000000  0.34756000  1
  Ba  Ba16  1  0.59888400  0.00000000  0.15431900  1
  Ba  Ba17  1  0.59641700  0.67836900  0.47173000  1
  Ba  Ba18  1  0.72140700  0.00000000  0.52564000  1
  Ba  Ba19  1  0.71697200  0.69585400  0.84057200  1
  Ba  Ba20  1  0.72246100  0.82093100  0.34727200  1
  Ba  Ba21  1  0.90770200  0.69131800  0.03667600  1
  Ba  Ba22  1  0.71952800  0.50000000  0.03657200  1
  Ba  Ba23  1  0.72246100  0.17906900  0.34727200  1
  Ba  Ba24  1  0.27383400  0.81893900  0.65058600  1
  Ba  Ba25  1  0.27534700  0.50000000  0.97265900  1
  Ba  Ba26  1  0.09647800  0.31965100  0.97335300  1
  Ba  Ba27  1  0.27383400  0.18106100  0.65058600  1
  Ba  Ba28  1  0.27383250  0.32252350  0.15279600  1
  Ba  Ba29  1  0.40552000  0.00000000  0.84178100  1
  Ba  Ba30  1  0.39998050  0.32053550  0.52413200  1
  Ba  Ba31  1  0.27316300  0.00000000  0.47085000  1
  Ba  Ba32  1  0.09514700  0.00000000  0.65040100  1
  Ba  Ba33  1  0.09647800  0.68034900  0.97335300  1
  Ba  Ba34  1  0.09641700  0.82163100  0.47173000  1
  Ba  Ba35  1  0.21697200  0.80414600  0.84057200  1
  Ba  Ba36  1  0.27383250  0.67747650  0.15279600  1
  Ba  Ba37  1  0.39998050  0.67946450  0.52413200  1
  Ba  Ba38  1  0.40770200  0.80868200  0.03667600  1
  Ba  Ba39  1  0.39903800  0.50000000  0.34756000  1
  Ba  Ba40  1  0.09888400  0.50000000  0.15431900  1
  Ba  Ba41  1  0.09641700  0.17836900  0.47173000  1
  Ba  Ba42  1  0.22140700  0.50000000  0.52564000  1
  Ba  Ba43  1  0.21697200  0.19585400  0.84057200  1
  Ba  Ba44  1  0.22246100  0.32093100  0.34727200  1
  Ba  Ba45  1  0.40770200  0.19131800  0.03667600  1
  Ba  Ba46  1  0.21952800  0.00000000  0.03657200  1
  Ba  Ba47  1  0.22246100  0.67906900  0.34727200  1
  In  In48  1  0.90298450  0.14499650  0.84906900  1
  In  In49  1  0.90283400  0.00000000  0.70329400  1
  In  In50  1  0.50272700  0.50000000  0.00443000  1
  In  In51  1  0.50007850  0.75281750  0.75019100  1
  In  In52  1  0.90298450  0.85500350  0.84906900  1
  In  In53  1  0.55483600  0.50000000  0.85166500  1
  In  In54  1  0.50007850  0.24718250  0.75019100  1
  In  In55  1  0.90145500  0.64365800  0.34707900  1
  In  In56  1  0.94759100  0.50000000  0.64813100  1
  In  In57  1  0.59494450  0.13951050  0.65152600  1
  In  In58  1  0.90192800  0.50000000  0.20522600  1
  In  In59  1  0.90145500  0.35634200  0.34707900  1
  In  In60  1  0.59849300  0.00000000  0.80217600  1
  In  In61  1  0.59494450  0.86048950  0.65152600  1
  In  In62  1  0.54388700  0.00000000  0.34771900  1
  In  In63  1  0.95051600  0.00000000  0.15092800  1
  In  In64  1  0.59829950  0.64814050  0.14892200  1
  In  In65  1  0.59351600  0.50000000  0.28524300  1
  In  In66  1  0.59829950  0.35185950  0.14892200  1
  In  In67  1  0.40298450  0.64499650  0.84906900  1
  In  In68  1  0.40283400  0.50000000  0.70329400  1
  In  In69  1  0.00272700  0.00000000  0.00443000  1
  In  In70  1  0.00007850  0.25281750  0.75019100  1
  In  In71  1  0.40298450  0.35500350  0.84906900  1
  In  In72  1  0.05483600  0.00000000  0.85166500  1
  In  In73  1  0.00007850  0.74718250  0.75019100  1
  In  In74  1  0.40145500  0.14365800  0.34707900  1
  In  In75  1  0.44759100  0.00000000  0.64813100  1
  In  In76  1  0.09494450  0.63951050  0.65152600  1
  In  In77  1  0.40192800  0.00000000  0.20522600  1
  In  In78  1  0.40145500  0.85634200  0.34707900  1
  In  In79  1  0.09849300  0.50000000  0.80217600  1
  In  In80  1  0.09494450  0.36048950  0.65152600  1
  In  In81  1  0.04388700  0.50000000  0.34771900  1
  In  In82  1  0.45051600  0.50000000  0.15092800  1
  In  In83  1  0.09829950  0.14814050  0.14892200  1
  In  In84  1  0.09351600  0.00000000  0.28524300  1
  In  In85  1  0.09829950  0.85185950  0.14892200  1
  N  N86  1  0.97587600  0.50000000  0.99226900  1
  N  N87  1  0.80843100  0.00000000  0.43711200  1
  N  N88  1  0.99876600  0.00000000  0.50062800  1
  N  N89  1  0.68769900  0.50000000  0.56235600  1
  N  N90  1  0.75504200  0.50000000  0.77133800  1
  N  N91  1  0.74700000  0.74924000  0.50072500  1
  N  N92  1  0.74700000  0.25076000  0.50072500  1
  N  N93  1  0.68489200  0.00000000  0.05906500  1
  N  N94  1  0.74715100  0.00000000  0.24773000  1
  N  N95  1  0.75690200  0.27759700  0.99097300  1
  N  N96  1  0.75690200  0.72240300  0.99097300  1
  N  N97  1  0.47587600  0.00000000  0.99226900  1
  N  N98  1  0.30843100  0.50000000  0.43711200  1
  N  N99  1  0.49876600  0.50000000  0.50062800  1
  N  N100  1  0.18769900  0.00000000  0.56235600  1
  N  N101  1  0.25504200  0.00000000  0.77133800  1
  N  N102  1  0.24700000  0.24924000  0.50072500  1
  N  N103  1  0.24700000  0.75076000  0.50072500  1
  N  N104  1  0.18489200  0.50000000  0.05906500  1
  N  N105  1  0.24715100  0.50000000  0.24773000  1
  N  N106  1  0.25690200  0.77759700  0.99097300  1
  N  N107  1  0.25690200  0.22240300  0.99097300  1
