# generated using pymatgen
data_Cr4Cu3Se8
_symmetry_space_group_name_H-M   'P 1'
_cell_length_a   7.44655600
_cell_length_b   7.50119000
_cell_length_c   10.63400800
_cell_angle_alpha   90.00000000
_cell_angle_beta   90.00000000
_cell_angle_gamma   90.00000000
_symmetry_Int_Tables_number   1
_chemical_formula_structural   Cr4Cu3Se8
_chemical_formula_sum   'Cr8 Cu6 Se16'
_cell_volume   593.99475279
_cell_formula_units_Z   2
loop_
 _symmetry_equiv_pos_site_id
 _symmetry_equiv_pos_as_xyz
  1  'x, y, z'
loop_
 _atom_site_type_symbol
 _atom_site_label
 _atom_site_symmetry_multiplicity
 _atom_site_fract_x
 _atom_site_fract_y
 _atom_site_fract_z
 _atom_site_occupancy
  Cr  Cr0  1  0.75934850  0.50000000  0.25425150  1
  Cr  Cr1  1  0.24065150  0.50000000  0.25425150  1
  Cr  Cr2  1  0.00000000  0.76004500  0.00905700  1
  Cr  Cr3  1  0.00000000  0.23995500  0.00905700  1
  Cr  Cr4  1  0.25934850  0.00000000  0.75425150  1
  Cr  Cr5  1  0.74065150  0.00000000  0.75425150  1
  Cr  Cr6  1  0.50000000  0.26004500  0.50905700  1
  Cr  Cr7  1  0.50000000  0.73995500  0.50905700  1
  Cu  Cu8  1  0.00000000  0.50000000  0.61860300  1
  Cu  Cu9  1  0.00000000  0.50000000  0.85138700  1
  Cu  Cu10  1  0.50000000  0.50000000  0.87468700  1
  Cu  Cu11  1  0.50000000  0.00000000  0.11860300  1
  Cu  Cu12  1  0.50000000  0.00000000  0.35138700  1
  Cu  Cu13  1  0.00000000  0.00000000  0.37468700  1
  Se  Se14  1  0.73503200  0.50000000  0.49190300  1
  Se  Se15  1  0.50000000  0.72084050  0.25076750  1
  Se  Se16  1  0.26496800  0.50000000  0.49190300  1
  Se  Se17  1  0.50000000  0.27915950  0.25076750  1
  Se  Se18  1  0.00000000  0.73647700  0.24448000  1
  Se  Se19  1  0.00000000  0.26352300  0.24448000  1
  Se  Se20  1  0.23832650  0.50000000  0.01220250  1
  Se  Se21  1  0.76167350  0.50000000  0.01220250  1
  Se  Se22  1  0.23503200  0.00000000  0.99190300  1
  Se  Se23  1  0.00000000  0.22084050  0.75076750  1
  Se  Se24  1  0.76496800  0.00000000  0.99190300  1
  Se  Se25  1  0.00000000  0.77915950  0.75076750  1
  Se  Se26  1  0.50000000  0.23647700  0.74448000  1
  Se  Se27  1  0.50000000  0.76352300  0.74448000  1
  Se  Se28  1  0.73832650  0.00000000  0.51220250  1
  Se  Se29  1  0.26167350  0.00000000  0.51220250  1
