# generated using pymatgen
data_Mn(SbO3)2
_symmetry_space_group_name_H-M   'P 1'
_cell_length_a   9.23554262
_cell_length_b   6.94825785
_cell_length_c   7.40708566
_cell_angle_alpha   90.00000000
_cell_angle_beta   110.70453806
_cell_angle_gamma   90.00000000
_symmetry_Int_Tables_number   1
_chemical_formula_structural   Mn(SbO3)2
_chemical_formula_sum   'Mn4 Sb8 O24'
_cell_volume   444.62156158
_cell_formula_units_Z   4
loop_
 _symmetry_equiv_pos_site_id
 _symmetry_equiv_pos_as_xyz
  1  'x, y, z'
loop_
 _atom_site_type_symbol
 _atom_site_label
 _atom_site_symmetry_multiplicity
 _atom_site_fract_x
 _atom_site_fract_y
 _atom_site_fract_z
 _atom_site_occupancy
  Mn  Mn0  1  0.33900625  0.50000000  0.33874800  1
  Mn  Mn1  1  0.66099375  0.50000000  0.66125200  1
  Mn  Mn2  1  0.83900625  0.00000000  0.33874800  1
  Mn  Mn3  1  0.16099375  0.00000000  0.66125200  1
  Sb  Sb4  1  0.00000000  0.50000000  0.50000000  1
  Sb  Sb5  1  0.00000000  0.50000000  0.00000000  1
  Sb  Sb6  1  0.67212975  0.50000000  0.17919400  1
  Sb  Sb7  1  0.32787025  0.50000000  0.82080600  1
  Sb  Sb8  1  0.50000000  0.00000000  0.50000000  1
  Sb  Sb9  1  0.50000000  0.00000000  0.00000000  1
  Sb  Sb10  1  0.17212975  0.00000000  0.17919400  1
  Sb  Sb11  1  0.82787025  0.00000000  0.82080600  1
  O  O12  1  0.22555475  0.50000000  0.02455350  1
  O  O13  1  0.77444525  0.50000000  0.97544650  1
  O  O14  1  0.56734625  0.50000000  0.36187700  1
  O  O15  1  0.43265375  0.50000000  0.63812300  1
  O  O16  1  0.90527775  0.50000000  0.71293200  1
  O  O17  1  0.09472225  0.50000000  0.28706800  1
  O  O18  1  0.00000000  0.80759500  0.00000000  1
  O  O19  1  0.00000000  0.19240500  0.00000000  1
  O  O20  1  0.33721875  0.18661800  0.33998150  1
  O  O21  1  0.33721875  0.81338200  0.33998150  1
  O  O22  1  0.16278125  0.31338200  0.66001850  1
  O  O23  1  0.16278125  0.68661800  0.66001850  1
  O  O24  1  0.72555475  0.00000000  0.02455350  1
  O  O25  1  0.27444525  0.00000000  0.97544650  1
  O  O26  1  0.06734625  0.00000000  0.36187700  1
  O  O27  1  0.93265375  0.00000000  0.63812300  1
  O  O28  1  0.40527775  0.00000000  0.71293200  1
  O  O29  1  0.59472225  0.00000000  0.28706800  1
  O  O30  1  0.50000000  0.30759500  0.00000000  1
  O  O31  1  0.50000000  0.69240500  0.00000000  1
  O  O32  1  0.83721875  0.68661800  0.33998150  1
  O  O33  1  0.83721875  0.31338200  0.33998150  1
  O  O34  1  0.66278125  0.81338200  0.66001850  1
  O  O35  1  0.66278125  0.18661800  0.66001850  1
