# generated using pymatgen
data_La2Ge5Ir3
_symmetry_space_group_name_H-M   'P 1'
_cell_length_a   6.16346000
_cell_length_b   10.32701200
_cell_length_c   12.15926000
_cell_angle_alpha   90.00000000
_cell_angle_beta   90.00000000
_cell_angle_gamma   90.00000000
_symmetry_Int_Tables_number   1
_chemical_formula_structural   La2Ge5Ir3
_chemical_formula_sum   'La8 Ge20 Ir12'
_cell_volume   773.93842355
_cell_formula_units_Z   4
loop_
 _symmetry_equiv_pos_site_id
 _symmetry_equiv_pos_as_xyz
  1  'x, y, z'
loop_
 _atom_site_type_symbol
 _atom_site_label
 _atom_site_symmetry_multiplicity
 _atom_site_fract_x
 _atom_site_fract_y
 _atom_site_fract_z
 _atom_site_occupancy
  La  La0  1  0.00000000  0.26890000  0.63177200  1
  La  La1  1  0.50000000  0.73110000  0.63177200  1
  La  La2  1  0.00000000  0.73110000  0.36822800  1
  La  La3  1  0.50000000  0.26890000  0.36822800  1
  La  La4  1  0.50000000  0.76890000  0.13177200  1
  La  La5  1  0.00000000  0.23110000  0.13177200  1
  La  La6  1  0.50000000  0.23110000  0.86822800  1
  La  La7  1  0.00000000  0.76890000  0.86822800  1
  Ge  Ge8  1  0.25000000  0.00000000  0.72708150  1
  Ge  Ge9  1  0.75000000  0.00000000  0.72708150  1
  Ge  Ge10  1  0.25000000  0.50000000  0.50000000  1
  Ge  Ge11  1  0.50000000  0.15725050  0.60151050  1
  Ge  Ge12  1  0.50000000  0.84274950  0.39848950  1
  Ge  Ge13  1  0.25000000  0.00000000  0.27291850  1
  Ge  Ge14  1  0.00000000  0.84274950  0.60151050  1
  Ge  Ge15  1  0.75000000  0.00000000  0.27291850  1
  Ge  Ge16  1  0.00000000  0.15725050  0.39848950  1
  Ge  Ge17  1  0.75000000  0.50000000  0.50000000  1
  Ge  Ge18  1  0.75000000  0.50000000  0.22708150  1
  Ge  Ge19  1  0.25000000  0.50000000  0.22708150  1
  Ge  Ge20  1  0.75000000  0.00000000  0.00000000  1
  Ge  Ge21  1  0.00000000  0.65725050  0.10151050  1
  Ge  Ge22  1  0.00000000  0.34274950  0.89848950  1
  Ge  Ge23  1  0.75000000  0.50000000  0.77291850  1
  Ge  Ge24  1  0.50000000  0.34274950  0.10151050  1
  Ge  Ge25  1  0.25000000  0.50000000  0.77291850  1
  Ge  Ge26  1  0.50000000  0.65725050  0.89848950  1
  Ge  Ge27  1  0.25000000  0.00000000  0.00000000  1
  Ir  Ir28  1  0.00000000  0.11018350  0.85974150  1
  Ir  Ir29  1  0.50000000  0.11018350  0.14025850  1
  Ir  Ir30  1  0.00000000  0.88981650  0.14025850  1
  Ir  Ir31  1  0.50000000  0.88981650  0.85974150  1
  Ir  Ir32  1  0.75000000  0.00000000  0.50000000  1
  Ir  Ir33  1  0.25000000  0.00000000  0.50000000  1
  Ir  Ir34  1  0.50000000  0.61018350  0.35974150  1
  Ir  Ir35  1  0.00000000  0.61018350  0.64025850  1
  Ir  Ir36  1  0.50000000  0.38981650  0.64025850  1
  Ir  Ir37  1  0.00000000  0.38981650  0.35974150  1
  Ir  Ir38  1  0.25000000  0.50000000  0.00000000  1
  Ir  Ir39  1  0.75000000  0.50000000  0.00000000  1
