# generated using pymatgen
data_Li2NiO3
_symmetry_space_group_name_H-M   'P 1'
_cell_length_a   4.92695600
_cell_length_b   8.53372600
_cell_length_c   9.56880834
_cell_angle_alpha   90.00000000
_cell_angle_beta   99.94189045
_cell_angle_gamma   90.00000000
_symmetry_Int_Tables_number   1
_chemical_formula_structural   Li2NiO3
_chemical_formula_sum   'Li16 Ni8 O24'
_cell_volume   396.28180128
_cell_formula_units_Z   8
loop_
 _symmetry_equiv_pos_site_id
 _symmetry_equiv_pos_as_xyz
  1  'x, y, z'
loop_
 _atom_site_type_symbol
 _atom_site_label
 _atom_site_symmetry_multiplicity
 _atom_site_fract_x
 _atom_site_fract_y
 _atom_site_fract_z
 _atom_site_occupancy
  Li  Li0  1  0.23907650  0.91925950  0.50025800  1
  Li  Li1  1  0.23907650  0.08074050  0.00025800  1
  Li  Li2  1  0.75000000  0.75000000  0.50000000  1
  Li  Li3  1  0.50000000  0.41589300  0.75000000  1
  Li  Li4  1  0.50000000  0.58410700  0.25000000  1
  Li  Li5  1  0.76092350  0.91925950  0.99974200  1
  Li  Li6  1  0.75000000  0.25000000  0.00000000  1
  Li  Li7  1  0.76092350  0.08074050  0.49974200  1
  Li  Li8  1  0.73907650  0.41925950  0.50025800  1
  Li  Li9  1  0.73907650  0.58074050  0.00025800  1
  Li  Li10  1  0.25000000  0.25000000  0.50000000  1
  Li  Li11  1  0.00000000  0.91589300  0.75000000  1
  Li  Li12  1  0.00000000  0.08410700  0.25000000  1
  Li  Li13  1  0.26092350  0.41925950  0.99974200  1
  Li  Li14  1  0.25000000  0.75000000  0.00000000  1
  Li  Li15  1  0.26092350  0.58074050  0.49974200  1
  Ni  Ni16  1  0.50000000  0.74996100  0.75000000  1
  Ni  Ni17  1  0.50000000  0.08305700  0.75000000  1
  Ni  Ni18  1  0.50000000  0.91694300  0.25000000  1
  Ni  Ni19  1  0.50000000  0.25003900  0.25000000  1
  Ni  Ni20  1  0.00000000  0.24996100  0.75000000  1
  Ni  Ni21  1  0.00000000  0.58305700  0.75000000  1
  Ni  Ni22  1  0.00000000  0.41694300  0.25000000  1
  Ni  Ni23  1  0.00000000  0.75003900  0.25000000  1
  O  O24  1  0.85786150  0.90457350  0.36283000  1
  O  O25  1  0.64280450  0.76331550  0.13861500  1
  O  O26  1  0.60314900  0.91618700  0.63863600  1
  O  O27  1  0.35719550  0.76331550  0.36138500  1
  O  O28  1  0.39685100  0.91618700  0.86136400  1
  O  O29  1  0.85786150  0.09542650  0.86283000  1
  O  O30  1  0.14213850  0.90457350  0.13717000  1
  O  O31  1  0.60314900  0.08381300  0.13863600  1
  O  O32  1  0.64280450  0.23668450  0.63861500  1
  O  O33  1  0.39685100  0.08381300  0.36136400  1
  O  O34  1  0.35719550  0.23668450  0.86138500  1
  O  O35  1  0.14213850  0.09542650  0.63717000  1
  O  O36  1  0.35786150  0.40457350  0.36283000  1
  O  O37  1  0.14280450  0.26331550  0.13861500  1
  O  O38  1  0.10314900  0.41618700  0.63863600  1
  O  O39  1  0.85719550  0.26331550  0.36138500  1
  O  O40  1  0.89685100  0.41618700  0.86136400  1
  O  O41  1  0.35786150  0.59542650  0.86283000  1
  O  O42  1  0.64213850  0.40457350  0.13717000  1
  O  O43  1  0.10314900  0.58381300  0.13863600  1
  O  O44  1  0.14280450  0.73668450  0.63861500  1
  O  O45  1  0.89685100  0.58381300  0.36136400  1
  O  O46  1  0.85719550  0.73668450  0.86138500  1
  O  O47  1  0.64213850  0.59542650  0.63717000  1
