# generated using pymatgen
data_Hg2AsF6
_symmetry_space_group_name_H-M   'P 1'
_cell_length_a   6.82695800
_cell_length_b   6.82695800
_cell_length_c   14.03186400
_cell_angle_alpha   90.00000000
_cell_angle_beta   90.00000000
_cell_angle_gamma   90.00000000
_symmetry_Int_Tables_number   1
_chemical_formula_structural   Hg2AsF6
_chemical_formula_sum   'Hg8 As4 F24'
_cell_volume   653.98807425
_cell_formula_units_Z   4
loop_
 _symmetry_equiv_pos_site_id
 _symmetry_equiv_pos_as_xyz
  1  'x, y, z'
loop_
 _atom_site_type_symbol
 _atom_site_label
 _atom_site_symmetry_multiplicity
 _atom_site_fract_x
 _atom_site_fract_y
 _atom_site_fract_z
 _atom_site_occupancy
  Hg  Hg0  1  0.75000000  0.50000000  0.37500000  1
  Hg  Hg1  1  0.00000000  0.75000000  0.12500000  1
  Hg  Hg2  1  0.25000000  0.50000000  0.37500000  1
  Hg  Hg3  1  0.00000000  0.25000000  0.12500000  1
  Hg  Hg4  1  0.25000000  0.00000000  0.87500000  1
  Hg  Hg5  1  0.50000000  0.25000000  0.62500000  1
  Hg  Hg6  1  0.75000000  0.00000000  0.87500000  1
  Hg  Hg7  1  0.50000000  0.75000000  0.62500000  1
  As  As8  1  0.50000000  0.50000000  0.00000000  1
  As  As9  1  0.50000000  0.00000000  0.25000000  1
  As  As10  1  0.00000000  0.00000000  0.50000000  1
  As  As11  1  0.00000000  0.50000000  0.75000000  1
  F  F12  1  0.31529000  0.68471000  0.00000000  1
  F  F13  1  0.81529000  0.81529000  0.50000000  1
  F  F14  1  0.00000000  0.00000000  0.37429000  1
  F  F15  1  0.50000000  0.00000000  0.12429000  1
  F  F16  1  0.68471000  0.31529000  0.00000000  1
  F  F17  1  0.68471000  0.68471000  0.00000000  1
  F  F18  1  0.31529000  0.81529000  0.25000000  1
  F  F19  1  0.31529000  0.18471000  0.25000000  1
  F  F20  1  0.50000000  0.50000000  0.12571000  1
  F  F21  1  0.50000000  0.00000000  0.37571000  1
  F  F22  1  0.68471000  0.18471000  0.25000000  1
  F  F23  1  0.68471000  0.81529000  0.25000000  1
  F  F24  1  0.81529000  0.18471000  0.50000000  1
  F  F25  1  0.31529000  0.31529000  0.00000000  1
  F  F26  1  0.50000000  0.50000000  0.87429000  1
  F  F27  1  0.00000000  0.50000000  0.62429000  1
  F  F28  1  0.18471000  0.81529000  0.50000000  1
  F  F29  1  0.18471000  0.18471000  0.50000000  1
  F  F30  1  0.81529000  0.31529000  0.75000000  1
  F  F31  1  0.81529000  0.68471000  0.75000000  1
  F  F32  1  0.00000000  0.00000000  0.62571000  1
  F  F33  1  0.00000000  0.50000000  0.87571000  1
  F  F34  1  0.18471000  0.68471000  0.75000000  1
  F  F35  1  0.18471000  0.31529000  0.75000000  1
