# generated using pymatgen
data_ZnCoPHO5
_symmetry_space_group_name_H-M   'P 1'
_cell_length_a   5.29573338
_cell_length_b   5.63405191
_cell_length_c   7.53504288
_cell_angle_alpha   94.35320442
_cell_angle_beta   99.66907065
_cell_angle_gamma   93.42410711
_symmetry_Int_Tables_number   1
_chemical_formula_structural   ZnCoPHO5
_chemical_formula_sum   'Zn2 Co2 P2 H2 O10'
_cell_volume   220.38423922
_cell_formula_units_Z   2
loop_
 _symmetry_equiv_pos_site_id
 _symmetry_equiv_pos_as_xyz
  1  'x, y, z'
loop_
 _atom_site_type_symbol
 _atom_site_label
 _atom_site_symmetry_multiplicity
 _atom_site_fract_x
 _atom_site_fract_y
 _atom_site_fract_z
 _atom_site_occupancy
  Zn  Zn0  1  0.61805500  0.20750600  0.63364100  1
  Zn  Zn1  1  0.38194500  0.79249400  0.36635900  1
  Co  Co2  1  0.00000000  0.00000000  0.00000000  1
  Co  Co3  1  0.00000000  0.50000000  0.00000000  1
  P  P4  1  0.55429050  0.30018150  0.21764350  1
  P  P5  1  0.44570950  0.69981850  0.78235650  1
  H  H6  1  0.09979150  0.26653950  0.72780950  1
  H  H7  1  0.90020850  0.73346050  0.27219050  1
  O  O8  1  0.38127850  0.44564800  0.68367350  1
  O  O9  1  0.61872150  0.55435200  0.31632650  1
  O  O10  1  0.95069700  0.22854800  0.78657000  1
  O  O11  1  0.04930300  0.77145200  0.21343000  1
  O  O12  1  0.27357600  0.27308000  0.11540400  1
  O  O13  1  0.72642400  0.72692000  0.88459600  1
  O  O14  1  0.58217550  0.11538500  0.36576850  1
  O  O15  1  0.41782450  0.88461500  0.63423150  1
  O  O16  1  0.74690050  0.25083750  0.08916350  1
  O  O17  1  0.25309950  0.74916250  0.91083650  1
