# generated using pymatgen
data_Rb5LiSi2NiO8
_symmetry_space_group_name_H-M   'P 1'
_cell_length_a   8.76400400
_cell_length_b   10.42098200
_cell_length_c   13.94309626
_cell_angle_alpha   90.00000000
_cell_angle_beta   101.44306592
_cell_angle_gamma   90.00000000
_symmetry_Int_Tables_number   1
_chemical_formula_structural   Rb5LiSi2NiO8
_chemical_formula_sum   'Rb20 Li4 Si8 Ni4 O32'
_cell_volume   1248.10384895
_cell_formula_units_Z   4
loop_
 _symmetry_equiv_pos_site_id
 _symmetry_equiv_pos_as_xyz
  1  'x, y, z'
loop_
 _atom_site_type_symbol
 _atom_site_label
 _atom_site_symmetry_multiplicity
 _atom_site_fract_x
 _atom_site_fract_y
 _atom_site_fract_z
 _atom_site_occupancy
  Rb  Rb0  1  0.50000000  0.13356000  0.25000000  1
  Rb  Rb1  1  0.27688650  0.18325050  0.64956500  1
  Rb  Rb2  1  0.50000000  0.86644000  0.75000000  1
  Rb  Rb3  1  0.72311350  0.81674950  0.35043500  1
  Rb  Rb4  1  0.39245700  0.35121900  0.92780200  1
  Rb  Rb5  1  0.27688650  0.81674950  0.14956500  1
  Rb  Rb6  1  0.60754300  0.35121900  0.57219800  1
  Rb  Rb7  1  0.39245700  0.64878100  0.42780200  1
  Rb  Rb8  1  0.72311350  0.18325050  0.85043500  1
  Rb  Rb9  1  0.60754300  0.64878100  0.07219800  1
  Rb  Rb10  1  0.00000000  0.63356000  0.25000000  1
  Rb  Rb11  1  0.77688650  0.68325050  0.64956500  1
  Rb  Rb12  1  0.00000000  0.36644000  0.75000000  1
  Rb  Rb13  1  0.22311350  0.31674950  0.35043500  1
  Rb  Rb14  1  0.89245700  0.85121900  0.92780200  1
  Rb  Rb15  1  0.77688650  0.31674950  0.14956500  1
  Rb  Rb16  1  0.10754300  0.85121900  0.57219800  1
  Rb  Rb17  1  0.89245700  0.14878100  0.42780200  1
  Rb  Rb18  1  0.22311350  0.68325050  0.85043500  1
  Rb  Rb19  1  0.10754300  0.14878100  0.07219800  1
  Li  Li20  1  0.50000000  0.53989000  0.75000000  1
  Li  Li21  1  0.50000000  0.46011000  0.25000000  1
  Li  Li22  1  0.00000000  0.03989000  0.75000000  1
  Li  Li23  1  0.00000000  0.96011000  0.25000000  1
  Si  Si24  1  0.24913300  0.96973300  0.37017400  1
  Si  Si25  1  0.75086700  0.96973300  0.12982600  1
  Si  Si26  1  0.75086700  0.03026700  0.62982600  1
  Si  Si27  1  0.24913300  0.03026700  0.87017400  1
  Si  Si28  1  0.74913300  0.46973300  0.37017400  1
  Si  Si29  1  0.25086700  0.46973300  0.12982600  1
  Si  Si30  1  0.25086700  0.53026700  0.62982600  1
  Si  Si31  1  0.74913300  0.53026700  0.87017400  1
  Ni  Ni32  1  0.50000000  0.00000000  0.50000000  1
  Ni  Ni33  1  0.50000000  0.00000000  0.00000000  1
  Ni  Ni34  1  0.00000000  0.50000000  0.50000000  1
  Ni  Ni35  1  0.00000000  0.50000000  0.00000000  1
  O  O36  1  0.42924750  0.90936950  0.37949300  1
  O  O37  1  0.80242200  0.05703300  0.22912900  1
  O  O38  1  0.80242200  0.94296700  0.72912900  1
  O  O39  1  0.71483950  0.94422750  0.52604200  1
  O  O40  1  0.28516050  0.05577250  0.47395800  1
  O  O41  1  0.19757800  0.05703300  0.27087100  1
  O  O42  1  0.42924750  0.09063050  0.87949300  1
  O  O43  1  0.38830350  0.63814750  0.63218200  1
  O  O44  1  0.61169650  0.63814750  0.86781800  1
  O  O45  1  0.57075250  0.09063050  0.62050700  1
  O  O46  1  0.19757800  0.94296700  0.77087100  1
  O  O47  1  0.38830350  0.36185250  0.13218200  1
  O  O48  1  0.71483950  0.05577250  0.02604200  1
  O  O49  1  0.61169650  0.36185250  0.36781800  1
  O  O50  1  0.57075250  0.90936950  0.12050700  1
  O  O51  1  0.28516050  0.94422750  0.97395800  1
  O  O52  1  0.92924750  0.40936950  0.37949300  1
  O  O53  1  0.30242200  0.55703300  0.22912900  1
  O  O54  1  0.30242200  0.44296700  0.72912900  1
  O  O55  1  0.21483950  0.44422750  0.52604200  1
  O  O56  1  0.78516050  0.55577250  0.47395800  1
  O  O57  1  0.69757800  0.55703300  0.27087100  1
  O  O58  1  0.92924750  0.59063050  0.87949300  1
  O  O59  1  0.88830350  0.13814750  0.63218200  1
  O  O60  1  0.11169650  0.13814750  0.86781800  1
  O  O61  1  0.07075250  0.59063050  0.62050700  1
  O  O62  1  0.69757800  0.44296700  0.77087100  1
  O  O63  1  0.88830350  0.86185250  0.13218200  1
  O  O64  1  0.21483950  0.55577250  0.02604200  1
  O  O65  1  0.11169650  0.86185250  0.36781800  1
  O  O66  1  0.07075250  0.40936950  0.12050700  1
  O  O67  1  0.78516050  0.44422750  0.97395800  1
