# generated using pymatgen
data_Ba2Er(CuO2)4
_symmetry_space_group_name_H-M   'P 1'
_cell_length_a   3.89120400
_cell_length_b   27.46396600
_cell_length_c   3.87346400
_cell_angle_alpha   90.00000000
_cell_angle_beta   90.00000000
_cell_angle_gamma   90.00000000
_symmetry_Int_Tables_number   1
_chemical_formula_structural   Ba2Er(CuO2)4
_chemical_formula_sum   'Ba4 Er2 Cu8 O16'
_cell_volume   413.94894154
_cell_formula_units_Z   2
loop_
 _symmetry_equiv_pos_site_id
 _symmetry_equiv_pos_as_xyz
  1  'x, y, z'
loop_
 _atom_site_type_symbol
 _atom_site_label
 _atom_site_symmetry_multiplicity
 _atom_site_fract_x
 _atom_site_fract_y
 _atom_site_fract_z
 _atom_site_occupancy
  Ba  Ba0  1  0.00000000  0.36459500  0.50000000  1
  Ba  Ba1  1  0.50000000  0.13540500  0.50000000  1
  Ba  Ba2  1  0.50000000  0.86459500  0.50000000  1
  Ba  Ba3  1  0.00000000  0.63540500  0.50000000  1
  Er  Er4  1  0.50000000  0.00000000  0.50000000  1
  Er  Er5  1  0.00000000  0.50000000  0.50000000  1
  Cu  Cu6  1  0.50000000  0.43942500  0.00000000  1
  Cu  Cu7  1  0.00000000  0.06057500  0.00000000  1
  Cu  Cu8  1  0.50000000  0.28743800  0.00000000  1
  Cu  Cu9  1  0.00000000  0.21256200  0.00000000  1
  Cu  Cu10  1  0.00000000  0.93942500  0.00000000  1
  Cu  Cu11  1  0.50000000  0.56057500  0.00000000  1
  Cu  Cu12  1  0.00000000  0.78743800  0.00000000  1
  Cu  Cu13  1  0.50000000  0.71256200  0.00000000  1
  O  O14  1  0.00000000  0.28153800  0.00000000  1
  O  O15  1  0.50000000  0.21846200  0.00000000  1
  O  O16  1  0.00000000  0.44888800  0.00000000  1
  O  O17  1  0.50000000  0.05111200  0.00000000  1
  O  O18  1  0.50000000  0.44879300  0.50000000  1
  O  O19  1  0.00000000  0.05120700  0.50000000  1
  O  O20  1  0.50000000  0.35482100  0.00000000  1
  O  O21  1  0.00000000  0.14517900  0.00000000  1
  O  O22  1  0.50000000  0.78153800  0.00000000  1
  O  O23  1  0.00000000  0.71846200  0.00000000  1
  O  O24  1  0.50000000  0.94888800  0.00000000  1
  O  O25  1  0.00000000  0.55111200  0.00000000  1
  O  O26  1  0.00000000  0.94879300  0.50000000  1
  O  O27  1  0.50000000  0.55120700  0.50000000  1
  O  O28  1  0.00000000  0.85482100  0.00000000  1
  O  O29  1  0.50000000  0.64517900  0.00000000  1
