# generated using pymatgen
data_CoCuP2O7
_symmetry_space_group_name_H-M   'P 1'
_cell_length_a   4.59361225
_cell_length_b   5.37343506
_cell_length_c   5.39013212
_cell_angle_alpha   101.32333947
_cell_angle_beta   101.00133764
_cell_angle_gamma   101.02882272
_symmetry_Int_Tables_number   1
_chemical_formula_structural   CoCuP2O7
_chemical_formula_sum   'Co1 Cu1 P2 O7'
_cell_volume   124.39016909
_cell_formula_units_Z   1
loop_
 _symmetry_equiv_pos_site_id
 _symmetry_equiv_pos_as_xyz
  1  'x, y, z'
loop_
 _atom_site_type_symbol
 _atom_site_label
 _atom_site_symmetry_multiplicity
 _atom_site_fract_x
 _atom_site_fract_y
 _atom_site_fract_z
 _atom_site_occupancy
  Co  Co0  1  0.27318900  0.72013400  0.90284300  1
  Cu  Cu1  1  0.27153100  0.09242200  0.51866700  1
  P  P2  1  0.68521700  0.59813700  0.41738700  1
  P  P3  1  0.86898100  0.19058900  0.00586500  1
  O  O4  1  0.49572100  0.46118500  0.58064200  1
  O  O5  1  0.04292600  0.35185800  0.85693200  1
  O  O6  1  0.51006800  0.74695500  0.25626400  1
  O  O7  1  0.99261500  0.78126900  0.58593400  1
  O  O8  1  0.55690200  0.02547900  0.82890600  1
  O  O9  1  0.05923600  0.02444600  0.14060300  1
  O  O10  1  0.78351400  0.37132600  0.23885800  1
