# generated using pymatgen
data_Cu2Se
_symmetry_space_group_name_H-M   'P 1'
_cell_length_a   7.29767000
_cell_length_b   4.20435400
_cell_length_c   13.64327192
_cell_angle_alpha   90.00000000
_cell_angle_beta   101.43687189
_cell_angle_gamma   90.00000000
_symmetry_Int_Tables_number   1
_chemical_formula_structural   Cu2Se
_chemical_formula_sum   'Cu16 Se8'
_cell_volume   410.29083525
_cell_formula_units_Z   8
loop_
 _symmetry_equiv_pos_site_id
 _symmetry_equiv_pos_as_xyz
  1  'x, y, z'
loop_
 _atom_site_type_symbol
 _atom_site_label
 _atom_site_symmetry_multiplicity
 _atom_site_fract_x
 _atom_site_fract_y
 _atom_site_fract_z
 _atom_site_occupancy
  Cu  Cu0  1  0.18480700  0.50000000  0.05384100  1
  Cu  Cu1  1  0.44785100  0.00000000  0.31119100  1
  Cu  Cu2  1  0.69830000  0.50000000  0.56761400  1
  Cu  Cu3  1  0.17582900  0.00000000  0.16247500  1
  Cu  Cu4  1  0.45020300  0.50000000  0.81506500  1
  Cu  Cu5  1  0.42738300  0.50000000  0.41560200  1
  Cu  Cu6  1  0.62411000  0.00000000  0.87144600  1
  Cu  Cu7  1  0.66647800  0.00000000  0.66924800  1
  Cu  Cu8  1  0.68480700  0.00000000  0.05384100  1
  Cu  Cu9  1  0.94785100  0.50000000  0.31119100  1
  Cu  Cu10  1  0.19830000  0.00000000  0.56761400  1
  Cu  Cu11  1  0.67582900  0.50000000  0.16247500  1
  Cu  Cu12  1  0.95020300  0.00000000  0.81506500  1
  Cu  Cu13  1  0.92738300  0.00000000  0.41560200  1
  Cu  Cu14  1  0.12411000  0.50000000  0.87144600  1
  Cu  Cu15  1  0.16647800  0.50000000  0.66924800  1
  Se  Se16  1  0.98757100  0.00000000  0.99754000  1
  Se  Se17  1  0.23349600  0.50000000  0.25130500  1
  Se  Se18  1  0.47976200  0.00000000  0.50274400  1
  Se  Se19  1  0.74908500  0.50000000  0.75695400  1
  Se  Se20  1  0.48757100  0.50000000  0.99754000  1
  Se  Se21  1  0.73349600  0.00000000  0.25130500  1
  Se  Se22  1  0.97976200  0.50000000  0.50274400  1
  Se  Se23  1  0.24908500  0.00000000  0.75695400  1
