# generated using pymatgen
data_Yb2TiO5
_symmetry_space_group_name_H-M   'P 1'
_cell_length_a   12.82200600
_cell_length_b   7.30581600
_cell_length_c   18.06191939
_cell_angle_alpha   90.00000000
_cell_angle_beta   93.27046340
_cell_angle_gamma   90.00000000
_symmetry_Int_Tables_number   1
_chemical_formula_structural   Yb2TiO5
_chemical_formula_sum   'Yb32 Ti16 O80'
_cell_volume   1689.19862413
_cell_formula_units_Z   16
loop_
 _symmetry_equiv_pos_site_id
 _symmetry_equiv_pos_as_xyz
  1  'x, y, z'
loop_
 _atom_site_type_symbol
 _atom_site_label
 _atom_site_symmetry_multiplicity
 _atom_site_fract_x
 _atom_site_fract_y
 _atom_site_fract_z
 _atom_site_occupancy
  Yb  Yb0  1  0.98329600  0.00000000  0.00150600  1
  Yb  Yb1  1  0.66237600  0.50000000  0.83383700  1
  Yb  Yb2  1  0.73578750  0.75006050  0.00432200  1
  Yb  Yb3  1  0.85457200  0.50000000  0.65953500  1
  Yb  Yb4  1  0.91380550  0.23834150  0.83199300  1
  Yb  Yb5  1  0.91380550  0.76165850  0.83199300  1
  Yb  Yb6  1  0.50930700  0.00000000  0.48884600  1
  Yb  Yb7  1  0.59762550  0.27122950  0.66166700  1
  Yb  Yb8  1  0.76200000  0.73965100  0.49414800  1
  Yb  Yb9  1  0.73578750  0.24993950  0.00432200  1
  Yb  Yb10  1  0.76200000  0.26034900  0.49414800  1
  Yb  Yb11  1  0.90807550  0.76872850  0.32747000  1
  Yb  Yb12  1  0.90807550  0.23127150  0.32747000  1
  Yb  Yb13  1  0.57269450  0.26066850  0.16877600  1
  Yb  Yb14  1  0.59762550  0.72877050  0.66166700  1
  Yb  Yb15  1  0.57269450  0.73933150  0.16877600  1
  Yb  Yb16  1  0.48329600  0.50000000  0.00150600  1
  Yb  Yb17  1  0.16237600  0.00000000  0.83383700  1
  Yb  Yb18  1  0.23578750  0.25006050  0.00432200  1
  Yb  Yb19  1  0.35457200  0.00000000  0.65953500  1
  Yb  Yb20  1  0.41380550  0.73834150  0.83199300  1
  Yb  Yb21  1  0.41380550  0.26165850  0.83199300  1
  Yb  Yb22  1  0.00930700  0.50000000  0.48884600  1
  Yb  Yb23  1  0.09762550  0.77122950  0.66166700  1
  Yb  Yb24  1  0.26200000  0.23965100  0.49414800  1
  Yb  Yb25  1  0.23578750  0.74993950  0.00432200  1
  Yb  Yb26  1  0.26200000  0.76034900  0.49414800  1
  Yb  Yb27  1  0.40807550  0.26872850  0.32747000  1
  Yb  Yb28  1  0.40807550  0.73127150  0.32747000  1
  Yb  Yb29  1  0.07269450  0.76066850  0.16877600  1
  Yb  Yb30  1  0.09762550  0.22877050  0.66166700  1
  Yb  Yb31  1  0.07269450  0.23933150  0.16877600  1
  Ti  Ti32  1  0.96284100  0.50000000  0.03514300  1
  Ti  Ti33  1  0.68956100  0.00000000  0.34568900  1
  Ti  Ti34  1  0.67426000  0.00000000  0.81658500  1
  Ti  Ti35  1  0.85395200  0.00000000  0.17789400  1
  Ti  Ti36  1  0.78891400  0.00000000  0.67140000  1
  Ti  Ti37  1  0.53634200  0.50000000  0.46562400  1
  Ti  Ti38  1  0.68871600  0.50000000  0.32943800  1
  Ti  Ti39  1  0.85399700  0.50000000  0.18656100  1
  Ti  Ti40  1  0.46284100  0.00000000  0.03514300  1
  Ti  Ti41  1  0.18956100  0.50000000  0.34568900  1
  Ti  Ti42  1  0.17426000  0.50000000  0.81658500  1
  Ti  Ti43  1  0.35395200  0.50000000  0.17789400  1
  Ti  Ti44  1  0.28891400  0.50000000  0.67140000  1
  Ti  Ti45  1  0.03634200  0.00000000  0.46562400  1
  Ti  Ti46  1  0.18871600  0.00000000  0.32943800  1
  Ti  Ti47  1  0.35399700  0.00000000  0.18656100  1
  O  O48  1  0.81912600  0.50000000  0.77882600  1
  O  O49  1  0.90889500  0.29679800  0.97326200  1
  O  O50  1  0.59159450  0.78884250  0.79767100  1
  O  O51  1  0.90889500  0.70320200  0.97326200  1
  O  O52  1  0.74803150  0.75227650  0.88009100  1
  O  O53  1  0.64240000  0.00000000  0.69342400  1
  O  O54  1  0.75976400  0.78477300  0.62087900  1
  O  O55  1  0.67513500  0.00000000  0.44582400  1
  O  O56  1  0.59159450  0.21115750  0.79767100  1
  O  O57  1  0.67938900  0.00000000  0.92820100  1
  O  O58  1  0.74803150  0.24772350  0.88009100  1
  O  O59  1  0.93704400  0.77365400  0.70140400  1
  O  O60  1  0.93227150  0.79976850  0.45303700  1
  O  O61  1  0.80865400  0.00000000  0.77854700  1
  O  O62  1  0.75976400  0.21522700  0.62087900  1
  O  O63  1  0.97427600  0.00000000  0.12576800  1
  O  O64  1  0.53732900  0.50000000  0.34637500  1
  O  O65  1  0.56543500  0.29293400  0.53715900  1
  O  O66  1  0.56433200  0.10260300  0.29334800  1
  O  O67  1  0.93704400  0.22634600  0.70140400  1
  O  O68  1  0.50888700  0.50000000  0.88317300  1
  O  O69  1  0.93227150  0.20023150  0.45303700  1
  O  O70  1  0.95585900  0.00000000  0.67086700  1
  O  O71  1  0.73501300  0.10210500  0.11678600  1
  O  O72  1  0.73530850  0.25987950  0.35875100  1
  O  O73  1  0.56543500  0.70706600  0.53715900  1
  O  O74  1  0.66891700  0.50000000  0.22426000  1
  O  O75  1  0.67594700  0.50000000  0.44982300  1
  O  O76  1  0.56433200  0.89739700  0.29334800  1
  O  O77  1  0.80228500  0.50000000  0.07857900  1
  O  O78  1  0.89610100  0.24943900  0.20181000  1
  O  O79  1  0.73530850  0.74012050  0.35875100  1
  O  O80  1  0.73501300  0.89789500  0.11678600  1
  O  O81  1  0.86086100  0.50000000  0.54123700  1
  O  O82  1  0.84671600  0.50000000  0.29250200  1
  O  O83  1  0.56516750  0.78619050  0.03585100  1
  O  O84  1  0.89610100  0.75056100  0.20181000  1
  O  O85  1  0.98946600  0.50000000  0.13857700  1
  O  O86  1  0.56516750  0.21380950  0.03585100  1
  O  O87  1  0.80539600  0.00000000  0.27844400  1
  O  O88  1  0.31912600  0.00000000  0.77882600  1
  O  O89  1  0.40889500  0.79679800  0.97326200  1
  O  O90  1  0.09159450  0.28884250  0.79767100  1
  O  O91  1  0.40889500  0.20320200  0.97326200  1
  O  O92  1  0.24803150  0.25227650  0.88009100  1
  O  O93  1  0.14240000  0.50000000  0.69342400  1
  O  O94  1  0.25976400  0.28477300  0.62087900  1
  O  O95  1  0.17513500  0.50000000  0.44582400  1
  O  O96  1  0.09159450  0.71115750  0.79767100  1
  O  O97  1  0.17938900  0.50000000  0.92820100  1
  O  O98  1  0.24803150  0.74772350  0.88009100  1
  O  O99  1  0.43704400  0.27365400  0.70140400  1
  O  O100  1  0.43227150  0.29976850  0.45303700  1
  O  O101  1  0.30865400  0.50000000  0.77854700  1
  O  O102  1  0.25976400  0.71522700  0.62087900  1
  O  O103  1  0.47427600  0.50000000  0.12576800  1
  O  O104  1  0.03732900  0.00000000  0.34637500  1
  O  O105  1  0.06543500  0.79293400  0.53715900  1
  O  O106  1  0.06433200  0.60260300  0.29334800  1
  O  O107  1  0.43704400  0.72634600  0.70140400  1
  O  O108  1  0.00888700  0.00000000  0.88317300  1
  O  O109  1  0.43227150  0.70023150  0.45303700  1
  O  O110  1  0.45585900  0.50000000  0.67086700  1
  O  O111  1  0.23501300  0.60210500  0.11678600  1
  O  O112  1  0.23530850  0.75987950  0.35875100  1
  O  O113  1  0.06543500  0.20706600  0.53715900  1
  O  O114  1  0.16891700  0.00000000  0.22426000  1
  O  O115  1  0.17594700  0.00000000  0.44982300  1
  O  O116  1  0.06433200  0.39739700  0.29334800  1
  O  O117  1  0.30228500  0.00000000  0.07857900  1
  O  O118  1  0.39610100  0.74943900  0.20181000  1
  O  O119  1  0.23530850  0.24012050  0.35875100  1
  O  O120  1  0.23501300  0.39789500  0.11678600  1
  O  O121  1  0.36086100  0.00000000  0.54123700  1
  O  O122  1  0.34671600  0.00000000  0.29250200  1
  O  O123  1  0.06516750  0.28619050  0.03585100  1
  O  O124  1  0.39610100  0.25056100  0.20181000  1
  O  O125  1  0.48946600  0.00000000  0.13857700  1
  O  O126  1  0.06516750  0.71380950  0.03585100  1
  O  O127  1  0.30539600  0.50000000  0.27844400  1
