# generated using pymatgen
data_Ce3(AlI)2
_symmetry_space_group_name_H-M   'P 1'
_cell_length_a   19.50354000
_cell_length_b   4.21671600
_cell_length_c   12.14969780
_cell_angle_alpha   90.00000000
_cell_angle_beta   121.61792199
_cell_angle_gamma   90.00000000
_symmetry_Int_Tables_number   1
_chemical_formula_structural   Ce3(AlI)2
_chemical_formula_sum   'Ce12 Al8 I8'
_cell_volume   850.88340153
_cell_formula_units_Z   4
loop_
 _symmetry_equiv_pos_site_id
 _symmetry_equiv_pos_as_xyz
  1  'x, y, z'
loop_
 _atom_site_type_symbol
 _atom_site_label
 _atom_site_symmetry_multiplicity
 _atom_site_fract_x
 _atom_site_fract_y
 _atom_site_fract_z
 _atom_site_occupancy
  Ce  Ce0  1  0.82804800  0.00000000  0.60233000  1
  Ce  Ce1  1  0.03461800  0.50000000  0.69093800  1
  Ce  Ce2  1  0.75490600  0.00000000  0.19485800  1
  Ce  Ce3  1  0.24509400  0.00000000  0.80514200  1
  Ce  Ce4  1  0.96538200  0.50000000  0.30906200  1
  Ce  Ce5  1  0.17195200  0.00000000  0.39767000  1
  Ce  Ce6  1  0.32804800  0.50000000  0.60233000  1
  Ce  Ce7  1  0.53461800  0.00000000  0.69093800  1
  Ce  Ce8  1  0.25490600  0.50000000  0.19485800  1
  Ce  Ce9  1  0.74509400  0.50000000  0.80514200  1
  Ce  Ce10  1  0.46538200  0.00000000  0.30906200  1
  Ce  Ce11  1  0.67195200  0.50000000  0.39767000  1
  Al  Al12  1  0.07380100  0.00000000  0.53251900  1
  Al  Al13  1  0.92619900  0.00000000  0.46748100  1
  Al  Al14  1  0.84042800  0.50000000  0.41563900  1
  Al  Al15  1  0.15957200  0.50000000  0.58436100  1
  Al  Al16  1  0.57380100  0.50000000  0.53251900  1
  Al  Al17  1  0.42619900  0.50000000  0.46748100  1
  Al  Al18  1  0.34042800  0.00000000  0.41563900  1
  Al  Al19  1  0.65957200  0.00000000  0.58436100  1
  I  I20  1  0.14146000  0.00000000  0.93990600  1
  I  I21  1  0.92359300  0.50000000  0.82907700  1
  I  I22  1  0.85854000  0.00000000  0.06009400  1
  I  I23  1  0.07640700  0.50000000  0.17092300  1
  I  I24  1  0.64146000  0.50000000  0.93990600  1
  I  I25  1  0.42359300  0.00000000  0.82907700  1
  I  I26  1  0.35854000  0.50000000  0.06009400  1
  I  I27  1  0.57640700  0.00000000  0.17092300  1
