# generated using pymatgen
data_La5YbS8
_symmetry_space_group_name_H-M   'P 1'
_cell_length_a   8.68618200
_cell_length_b   8.68618200
_cell_length_c   8.69892600
_cell_angle_alpha   90.00000000
_cell_angle_beta   90.00000000
_cell_angle_gamma   90.00000000
_symmetry_Int_Tables_number   1
_chemical_formula_structural   La5YbS8
_chemical_formula_sum   'La10 Yb2 S16'
_cell_volume   656.33185927
_cell_formula_units_Z   2
loop_
 _symmetry_equiv_pos_site_id
 _symmetry_equiv_pos_as_xyz
  1  'x, y, z'
loop_
 _atom_site_type_symbol
 _atom_site_label
 _atom_site_symmetry_multiplicity
 _atom_site_fract_x
 _atom_site_fract_y
 _atom_site_fract_z
 _atom_site_occupancy
  La  La0  1  0.87335950  0.24931550  0.62776250  1
  La  La1  1  0.00000000  0.50000000  0.25000000  1
  La  La2  1  0.62664050  0.25068450  0.12776250  1
  La  La3  1  0.24931550  0.12664050  0.37223750  1
  La  La4  1  0.25068450  0.37335950  0.87223750  1
  La  La5  1  0.37335950  0.74931550  0.12776250  1
  La  La6  1  0.50000000  0.00000000  0.75000000  1
  La  La7  1  0.12664050  0.75068450  0.62776250  1
  La  La8  1  0.74931550  0.62664050  0.87223750  1
  La  La9  1  0.75068450  0.87335950  0.37223750  1
  Yb  Yb10  1  0.00000000  0.00000000  0.00000000  1
  Yb  Yb11  1  0.50000000  0.50000000  0.50000000  1
  S  S12  1  0.32146700  0.07259700  0.04840800  1
  S  S13  1  0.17853300  0.42740300  0.54840800  1
  S  S14  1  0.17501150  0.07526350  0.69949250  1
  S  S15  1  0.92473650  0.17501150  0.30050750  1
  S  S16  1  0.07259700  0.67853300  0.95159200  1
  S  S17  1  0.32498850  0.42473650  0.19949250  1
  S  S18  1  0.57526350  0.32498850  0.80050750  1
  S  S19  1  0.42740300  0.82146700  0.45159200  1
  S  S20  1  0.82146700  0.57259700  0.54840800  1
  S  S21  1  0.67853300  0.92740300  0.04840800  1
  S  S22  1  0.67501150  0.57526350  0.19949250  1
  S  S23  1  0.42473650  0.67501150  0.80050750  1
  S  S24  1  0.57259700  0.17853300  0.45159200  1
  S  S25  1  0.82498850  0.92473650  0.69949250  1
  S  S26  1  0.07526350  0.82498850  0.30050750  1
  S  S27  1  0.92740300  0.32146700  0.95159200  1
