# generated using pymatgen
data_Dy2(GePt3)3
_symmetry_space_group_name_H-M   'P 1'
_cell_length_a   13.51969800
_cell_length_b   7.83290000
_cell_length_c   10.13256700
_cell_angle_alpha   90.00000000
_cell_angle_beta   116.75429587
_cell_angle_gamma   90.00000000
_symmetry_Int_Tables_number   1
_chemical_formula_structural   Dy2(GePt3)3
_chemical_formula_sum   'Dy8 Ge12 Pt36'
_cell_volume   958.15078699
_cell_formula_units_Z   4
loop_
 _symmetry_equiv_pos_site_id
 _symmetry_equiv_pos_as_xyz
  1  'x, y, z'
loop_
 _atom_site_type_symbol
 _atom_site_label
 _atom_site_symmetry_multiplicity
 _atom_site_fract_x
 _atom_site_fract_y
 _atom_site_fract_z
 _atom_site_occupancy
  Dy  Dy0  1  0.16963900  0.58540700  0.25075600  1
  Dy  Dy1  1  0.83036100  0.58540700  0.24924400  1
  Dy  Dy2  1  0.33036100  0.91459300  0.74924400  1
  Dy  Dy3  1  0.66963900  0.91459300  0.75075600  1
  Dy  Dy4  1  0.66963900  0.08540700  0.25075600  1
  Dy  Dy5  1  0.33036100  0.08540700  0.24924400  1
  Dy  Dy6  1  0.83036100  0.41459300  0.74924400  1
  Dy  Dy7  1  0.16963900  0.41459300  0.75075600  1
  Ge  Ge8  1  0.41083050  0.77014650  0.50227800  1
  Ge  Ge9  1  0.58916950  0.77014650  0.99772200  1
  Ge  Ge10  1  0.91083050  0.72985350  0.00227800  1
  Ge  Ge11  1  0.08916950  0.72985350  0.49772200  1
  Ge  Ge12  1  0.25000000  0.75000000  0.00000000  1
  Ge  Ge13  1  0.25000000  0.25000000  0.50000000  1
  Ge  Ge14  1  0.91083050  0.27014650  0.50227800  1
  Ge  Ge15  1  0.08916950  0.27014650  0.99772200  1
  Ge  Ge16  1  0.41083050  0.22985350  0.00227800  1
  Ge  Ge17  1  0.58916950  0.22985350  0.49772200  1
  Ge  Ge18  1  0.75000000  0.25000000  0.00000000  1
  Ge  Ge19  1  0.75000000  0.75000000  0.50000000  1
  Pt  Pt20  1  0.39093400  0.41192300  0.42952900  1
  Pt  Pt21  1  0.27652900  0.41699000  0.07865700  1
  Pt  Pt22  1  0.94114000  0.41883100  0.07770800  1
  Pt  Pt23  1  0.05886000  0.41883100  0.42229200  1
  Pt  Pt24  1  0.22347100  0.91699000  0.42134300  1
  Pt  Pt25  1  0.39441250  0.69015750  0.25688700  1
  Pt  Pt26  1  0.10558750  0.19015750  0.24311300  1
  Pt  Pt27  1  0.10906600  0.08807700  0.57047100  1
  Pt  Pt28  1  0.44114000  0.08116900  0.57770800  1
  Pt  Pt29  1  0.50000000  0.63316500  0.75000000  1
  Pt  Pt30  1  0.10906600  0.91192300  0.07047100  1
  Pt  Pt31  1  0.39441250  0.30984250  0.75688700  1
  Pt  Pt32  1  0.55886000  0.08116900  0.92229200  1
  Pt  Pt33  1  0.00000000  0.86683500  0.25000000  1
  Pt  Pt34  1  0.22347100  0.08301000  0.92134300  1
  Pt  Pt35  1  0.10558750  0.80984250  0.74311300  1
  Pt  Pt36  1  0.39093400  0.58807700  0.92952900  1
  Pt  Pt37  1  0.27652900  0.58301000  0.57865700  1
  Pt  Pt38  1  0.89093400  0.91192300  0.42952900  1
  Pt  Pt39  1  0.77652900  0.91699000  0.07865700  1
  Pt  Pt40  1  0.44114000  0.91883100  0.07770800  1
  Pt  Pt41  1  0.55886000  0.91883100  0.42229200  1
  Pt  Pt42  1  0.72347100  0.41699000  0.42134300  1
  Pt  Pt43  1  0.89441250  0.19015750  0.25688700  1
  Pt  Pt44  1  0.60558750  0.69015750  0.24311300  1
  Pt  Pt45  1  0.60906600  0.58807700  0.57047100  1
  Pt  Pt46  1  0.94114000  0.58116900  0.57770800  1
  Pt  Pt47  1  0.00000000  0.13316500  0.75000000  1
  Pt  Pt48  1  0.60906600  0.41192300  0.07047100  1
  Pt  Pt49  1  0.89441250  0.80984250  0.75688700  1
  Pt  Pt50  1  0.05886000  0.58116900  0.92229200  1
  Pt  Pt51  1  0.50000000  0.36683500  0.25000000  1
  Pt  Pt52  1  0.72347100  0.58301000  0.92134300  1
  Pt  Pt53  1  0.60558750  0.30984250  0.74311300  1
  Pt  Pt54  1  0.89093400  0.08807700  0.92952900  1
  Pt  Pt55  1  0.77652900  0.08301000  0.57865700  1
