# generated using pymatgen
data_V5CoO15
_symmetry_space_group_name_H-M   'P 1'
_cell_length_a   17.44349800
_cell_length_b   9.22100600
_cell_length_c   9.40463775
_cell_angle_alpha   90.00000000
_cell_angle_beta   122.55902735
_cell_angle_gamma   90.00000000
_symmetry_Int_Tables_number   1
_chemical_formula_structural   V5CoO15
_chemical_formula_sum   'V20 Co4 O60'
_cell_volume   1274.96360125
_cell_formula_units_Z   4
loop_
 _symmetry_equiv_pos_site_id
 _symmetry_equiv_pos_as_xyz
  1  'x, y, z'
loop_
 _atom_site_type_symbol
 _atom_site_label
 _atom_site_symmetry_multiplicity
 _atom_site_fract_x
 _atom_site_fract_y
 _atom_site_fract_z
 _atom_site_occupancy
  V  V0  1  0.01646700  0.98546100  0.34480900  1
  V  V1  1  0.20272900  0.02373600  0.76996500  1
  V  V2  1  0.29965900  0.97949200  0.36183400  1
  V  V3  1  0.47518850  0.00789250  0.30734800  1
  V  V4  1  0.02481150  0.50789250  0.69265200  1
  V  V5  1  0.20034100  0.47949200  0.63816600  1
  V  V6  1  0.34423700  0.19681900  0.65255800  1
  V  V7  1  0.15576300  0.69681900  0.34744200  1
  V  V8  1  0.29727100  0.52373600  0.23003500  1
  V  V9  1  0.48353300  0.48546100  0.65519100  1
  V  V10  1  0.51646700  0.48546100  0.34480900  1
  V  V11  1  0.70272900  0.52373600  0.76996500  1
  V  V12  1  0.79965900  0.47949200  0.36183400  1
  V  V13  1  0.97518850  0.50789250  0.30734800  1
  V  V14  1  0.52481150  0.00789250  0.69265200  1
  V  V15  1  0.70034100  0.97949200  0.63816600  1
  V  V16  1  0.84423700  0.69681900  0.65255800  1
  V  V17  1  0.65576300  0.19681900  0.34744200  1
  V  V18  1  0.79727100  0.02373600  0.23003500  1
  V  V19  1  0.98353300  0.98546100  0.65519100  1
  Co  Co20  1  0.33797000  0.30183200  0.01802100  1
  Co  Co21  1  0.16203000  0.80183200  0.98197900  1
  Co  Co22  1  0.83797000  0.80183200  0.01802100  1
  Co  Co23  1  0.66203000  0.30183200  0.98197900  1
  O  O24  1  0.22457100  0.85774500  0.87696900  1
  O  O25  1  0.08054650  0.01222650  0.59840400  1
  O  O26  1  0.07972800  0.94163600  0.86714600  1
  O  O27  1  0.26700250  0.03470250  0.68752800  1
  O  O28  1  0.44886200  0.63305000  0.69092200  1
  O  O29  1  0.05113800  0.13305000  0.30907800  1
  O  O30  1  0.23855500  0.17450400  0.90164400  1
  O  O31  1  0.37641300  0.25595600  0.88878200  1
  O  O32  1  0.26308950  0.82816950  0.41291700  1
  O  O33  1  0.43307200  0.86871000  0.18451600  1
  O  O34  1  0.06692800  0.36871000  0.81548400  1
  O  O35  1  0.23691050  0.32816950  0.58708300  1
  O  O36  1  0.24254350  0.98261350  0.15351500  1
  O  O37  1  0.42604550  0.06222250  0.71973400  1
  O  O38  1  0.42211650  0.97629750  0.44785400  1
  O  O39  1  0.07788350  0.47629750  0.55214600  1
  O  O40  1  0.07395450  0.56222250  0.28026600  1
  O  O41  1  0.25745650  0.48261350  0.84648500  1
  O  O42  1  0.27628400  0.14571800  0.43338400  1
  O  O43  1  0.41400800  0.16159500  0.20662600  1
  O  O44  1  0.08599200  0.66159500  0.79337400  1
  O  O45  1  0.22371600  0.64571800  0.56661600  1
  O  O46  1  0.27542900  0.35774500  0.12303100  1
  O  O47  1  0.40845850  0.33973550  0.63712000  1
  O  O48  1  0.09154150  0.83973550  0.36288000  1
  O  O49  1  0.23299750  0.53470250  0.31247200  1
  O  O50  1  0.42027200  0.44163600  0.13285400  1
  O  O51  1  0.41945350  0.51222650  0.40159600  1
  O  O52  1  0.26144500  0.67450400  0.09835600  1
  O  O53  1  0.12358700  0.75595600  0.11121800  1
  O  O54  1  0.72457100  0.35774500  0.87696900  1
  O  O55  1  0.58054650  0.51222650  0.59840400  1
  O  O56  1  0.57972800  0.44163600  0.86714600  1
  O  O57  1  0.76700250  0.53470250  0.68752800  1
  O  O58  1  0.94886200  0.13305000  0.69092200  1
  O  O59  1  0.55113800  0.63305000  0.30907800  1
  O  O60  1  0.73855500  0.67450400  0.90164400  1
  O  O61  1  0.87641300  0.75595600  0.88878200  1
  O  O62  1  0.76308950  0.32816950  0.41291700  1
  O  O63  1  0.93307200  0.36871000  0.18451600  1
  O  O64  1  0.56692800  0.86871000  0.81548400  1
  O  O65  1  0.73691050  0.82816950  0.58708300  1
  O  O66  1  0.74254350  0.48261350  0.15351500  1
  O  O67  1  0.92604550  0.56222250  0.71973400  1
  O  O68  1  0.92211650  0.47629750  0.44785400  1
  O  O69  1  0.57788350  0.97629750  0.55214600  1
  O  O70  1  0.57395450  0.06222250  0.28026600  1
  O  O71  1  0.75745650  0.98261350  0.84648500  1
  O  O72  1  0.77628400  0.64571800  0.43338400  1
  O  O73  1  0.91400800  0.66159500  0.20662600  1
  O  O74  1  0.58599200  0.16159500  0.79337400  1
  O  O75  1  0.72371600  0.14571800  0.56661600  1
  O  O76  1  0.77542900  0.85774500  0.12303100  1
  O  O77  1  0.90845850  0.83973550  0.63712000  1
  O  O78  1  0.59154150  0.33973550  0.36288000  1
  O  O79  1  0.73299750  0.03470250  0.31247200  1
  O  O80  1  0.92027200  0.94163600  0.13285400  1
  O  O81  1  0.91945350  0.01222650  0.40159600  1
  O  O82  1  0.76144500  0.17450400  0.09835600  1
  O  O83  1  0.62358700  0.25595600  0.11121800  1
