# generated using pymatgen
data_Te3Pd13
_symmetry_space_group_name_H-M   'P 1'
_cell_length_a   12.89712200
_cell_length_b   12.89712200
_cell_length_c   12.89712200
_cell_angle_alpha   90.00000000
_cell_angle_beta   90.00000000
_cell_angle_gamma   90.00000000
_symmetry_Int_Tables_number   1
_chemical_formula_structural   Te3Pd13
_chemical_formula_sum   'Te24 Pd104'
_cell_volume   2145.25253658
_cell_formula_units_Z   8
loop_
 _symmetry_equiv_pos_site_id
 _symmetry_equiv_pos_as_xyz
  1  'x, y, z'
loop_
 _atom_site_type_symbol
 _atom_site_label
 _atom_site_symmetry_multiplicity
 _atom_site_fract_x
 _atom_site_fract_y
 _atom_site_fract_z
 _atom_site_occupancy
  Te  Te0  1  0.50000000  0.00000000  0.50000000  1
  Te  Te1  1  0.12500000  0.87500000  0.37500000  1
  Te  Te2  1  0.12500000  0.62500000  0.12500000  1
  Te  Te3  1  0.37500000  0.87500000  0.12500000  1
  Te  Te4  1  0.37500000  0.62500000  0.37500000  1
  Te  Te5  1  0.25000000  0.25000000  0.25000000  1
  Te  Te6  1  0.50000000  0.50000000  0.00000000  1
  Te  Te7  1  0.12500000  0.37500000  0.87500000  1
  Te  Te8  1  0.12500000  0.12500000  0.62500000  1
  Te  Te9  1  0.37500000  0.37500000  0.62500000  1
  Te  Te10  1  0.37500000  0.12500000  0.87500000  1
  Te  Te11  1  0.25000000  0.75000000  0.75000000  1
  Te  Te12  1  0.00000000  0.00000000  0.00000000  1
  Te  Te13  1  0.62500000  0.87500000  0.87500000  1
  Te  Te14  1  0.62500000  0.62500000  0.62500000  1
  Te  Te15  1  0.87500000  0.87500000  0.62500000  1
  Te  Te16  1  0.87500000  0.62500000  0.87500000  1
  Te  Te17  1  0.75000000  0.25000000  0.75000000  1
  Te  Te18  1  0.00000000  0.50000000  0.50000000  1
  Te  Te19  1  0.62500000  0.37500000  0.37500000  1
  Te  Te20  1  0.62500000  0.12500000  0.12500000  1
  Te  Te21  1  0.87500000  0.37500000  0.12500000  1
  Te  Te22  1  0.87500000  0.12500000  0.37500000  1
  Te  Te23  1  0.75000000  0.75000000  0.25000000  1
  Pd  Pd24  1  0.38471100  0.88471100  0.38471100  1
  Pd  Pd25  1  0.00000000  0.00000000  0.50000000  1
  Pd  Pd26  1  0.00000000  0.00000000  0.26195600  1
  Pd  Pd27  1  0.61528900  0.11528900  0.38471100  1
  Pd  Pd28  1  0.12500000  0.12500000  0.12500000  1
  Pd  Pd29  1  0.13471100  0.36528900  0.13471100  1
  Pd  Pd30  1  0.50000000  0.26195600  0.50000000  1
  Pd  Pd31  1  0.88471100  0.11528900  0.11528900  1
  Pd  Pd32  1  0.50000000  0.00000000  0.23804400  1
  Pd  Pd33  1  0.25000000  0.75000000  0.48804400  1
  Pd  Pd34  1  0.50000000  0.73804400  0.50000000  1
  Pd  Pd35  1  0.36528900  0.36528900  0.36528900  1
  Pd  Pd36  1  0.13471100  0.13471100  0.36528900  1
  Pd  Pd37  1  0.23804400  0.00000000  0.50000000  1
  Pd  Pd38  1  0.62500000  0.87500000  0.37500000  1
  Pd  Pd39  1  0.48804400  0.75000000  0.25000000  1
  Pd  Pd40  1  0.25000000  0.75000000  0.25000000  1
  Pd  Pd41  1  0.25000000  0.75000000  0.01195600  1
  Pd  Pd42  1  0.25000000  0.51195600  0.25000000  1
  Pd  Pd43  1  0.87500000  0.87500000  0.12500000  1
  Pd  Pd44  1  0.01195600  0.75000000  0.25000000  1
  Pd  Pd45  1  0.25000000  0.98804400  0.25000000  1
  Pd  Pd46  1  0.36528900  0.13471100  0.13471100  1
  Pd  Pd47  1  0.11528900  0.88471100  0.11528900  1
  Pd  Pd48  1  0.76195600  0.00000000  0.50000000  1
  Pd  Pd49  1  0.37500000  0.12500000  0.37500000  1
  Pd  Pd50  1  0.38471100  0.38471100  0.88471100  1
  Pd  Pd51  1  0.00000000  0.50000000  0.00000000  1
  Pd  Pd52  1  0.00000000  0.50000000  0.76195600  1
  Pd  Pd53  1  0.61528900  0.61528900  0.88471100  1
  Pd  Pd54  1  0.12500000  0.62500000  0.62500000  1
  Pd  Pd55  1  0.13471100  0.86528900  0.63471100  1
  Pd  Pd56  1  0.50000000  0.76195600  0.00000000  1
  Pd  Pd57  1  0.88471100  0.61528900  0.61528900  1
  Pd  Pd58  1  0.50000000  0.50000000  0.73804400  1
  Pd  Pd59  1  0.25000000  0.25000000  0.98804400  1
  Pd  Pd60  1  0.50000000  0.23804400  0.00000000  1
  Pd  Pd61  1  0.36528900  0.86528900  0.86528900  1
  Pd  Pd62  1  0.13471100  0.63471100  0.86528900  1
  Pd  Pd63  1  0.23804400  0.50000000  0.00000000  1
  Pd  Pd64  1  0.62500000  0.37500000  0.87500000  1
  Pd  Pd65  1  0.48804400  0.25000000  0.75000000  1
  Pd  Pd66  1  0.25000000  0.25000000  0.75000000  1
  Pd  Pd67  1  0.25000000  0.25000000  0.51195600  1
  Pd  Pd68  1  0.25000000  0.01195600  0.75000000  1
  Pd  Pd69  1  0.87500000  0.37500000  0.62500000  1
  Pd  Pd70  1  0.01195600  0.25000000  0.75000000  1
  Pd  Pd71  1  0.25000000  0.48804400  0.75000000  1
  Pd  Pd72  1  0.36528900  0.63471100  0.63471100  1
  Pd  Pd73  1  0.11528900  0.38471100  0.61528900  1
  Pd  Pd74  1  0.76195600  0.50000000  0.00000000  1
  Pd  Pd75  1  0.37500000  0.62500000  0.87500000  1
  Pd  Pd76  1  0.88471100  0.88471100  0.88471100  1
  Pd  Pd77  1  0.50000000  0.00000000  0.00000000  1
  Pd  Pd78  1  0.50000000  0.00000000  0.76195600  1
  Pd  Pd79  1  0.11528900  0.11528900  0.88471100  1
  Pd  Pd80  1  0.62500000  0.12500000  0.62500000  1
  Pd  Pd81  1  0.63471100  0.36528900  0.63471100  1
  Pd  Pd82  1  0.00000000  0.26195600  0.00000000  1
  Pd  Pd83  1  0.38471100  0.11528900  0.61528900  1
  Pd  Pd84  1  0.00000000  0.00000000  0.73804400  1
  Pd  Pd85  1  0.75000000  0.75000000  0.98804400  1
  Pd  Pd86  1  0.00000000  0.73804400  0.00000000  1
  Pd  Pd87  1  0.86528900  0.36528900  0.86528900  1
  Pd  Pd88  1  0.63471100  0.13471100  0.86528900  1
  Pd  Pd89  1  0.73804400  0.00000000  0.00000000  1
  Pd  Pd90  1  0.12500000  0.87500000  0.87500000  1
  Pd  Pd91  1  0.98804400  0.75000000  0.75000000  1
  Pd  Pd92  1  0.75000000  0.75000000  0.75000000  1
  Pd  Pd93  1  0.75000000  0.75000000  0.51195600  1
  Pd  Pd94  1  0.75000000  0.51195600  0.75000000  1
  Pd  Pd95  1  0.37500000  0.87500000  0.62500000  1
  Pd  Pd96  1  0.51195600  0.75000000  0.75000000  1
  Pd  Pd97  1  0.75000000  0.98804400  0.75000000  1
  Pd  Pd98  1  0.86528900  0.13471100  0.63471100  1
  Pd  Pd99  1  0.61528900  0.88471100  0.61528900  1
  Pd  Pd100  1  0.26195600  0.00000000  0.00000000  1
  Pd  Pd101  1  0.87500000  0.12500000  0.87500000  1
  Pd  Pd102  1  0.88471100  0.38471100  0.38471100  1
  Pd  Pd103  1  0.50000000  0.50000000  0.50000000  1
  Pd  Pd104  1  0.50000000  0.50000000  0.26195600  1
  Pd  Pd105  1  0.11528900  0.61528900  0.38471100  1
  Pd  Pd106  1  0.62500000  0.62500000  0.12500000  1
  Pd  Pd107  1  0.63471100  0.86528900  0.13471100  1
  Pd  Pd108  1  0.00000000  0.76195600  0.50000000  1
  Pd  Pd109  1  0.38471100  0.61528900  0.11528900  1
  Pd  Pd110  1  0.00000000  0.50000000  0.23804400  1
  Pd  Pd111  1  0.75000000  0.25000000  0.48804400  1
  Pd  Pd112  1  0.00000000  0.23804400  0.50000000  1
  Pd  Pd113  1  0.86528900  0.86528900  0.36528900  1
  Pd  Pd114  1  0.63471100  0.63471100  0.36528900  1
  Pd  Pd115  1  0.73804400  0.50000000  0.50000000  1
  Pd  Pd116  1  0.12500000  0.37500000  0.37500000  1
  Pd  Pd117  1  0.98804400  0.25000000  0.25000000  1
  Pd  Pd118  1  0.75000000  0.25000000  0.25000000  1
  Pd  Pd119  1  0.75000000  0.25000000  0.01195600  1
  Pd  Pd120  1  0.75000000  0.01195600  0.25000000  1
  Pd  Pd121  1  0.37500000  0.37500000  0.12500000  1
  Pd  Pd122  1  0.51195600  0.25000000  0.25000000  1
  Pd  Pd123  1  0.75000000  0.48804400  0.25000000  1
  Pd  Pd124  1  0.86528900  0.63471100  0.13471100  1
  Pd  Pd125  1  0.61528900  0.38471100  0.11528900  1
  Pd  Pd126  1  0.26195600  0.50000000  0.50000000  1
  Pd  Pd127  1  0.87500000  0.62500000  0.37500000  1
