# generated using pymatgen
data_FeO2
_symmetry_space_group_name_H-M   'P 1'
_cell_length_a   8.15660000
_cell_length_b   8.15660000
_cell_length_c   8.15660000
_cell_angle_alpha   90.00000000
_cell_angle_beta   90.00000000
_cell_angle_gamma   90.00000000
_symmetry_Int_Tables_number   1
_chemical_formula_structural   FeO2
_chemical_formula_sum   'Fe16 O32'
_cell_volume   542.65960583
_cell_formula_units_Z   16
loop_
 _symmetry_equiv_pos_site_id
 _symmetry_equiv_pos_as_xyz
  1  'x, y, z'
loop_
 _atom_site_type_symbol
 _atom_site_label
 _atom_site_symmetry_multiplicity
 _atom_site_fract_x
 _atom_site_fract_y
 _atom_site_fract_z
 _atom_site_occupancy
  Fe  Fe0  1  0.12500000  0.62500000  0.12500000  1
  Fe  Fe1  1  0.37500000  0.87500000  0.12500000  1
  Fe  Fe2  1  0.37500000  0.62500000  0.37500000  1
  Fe  Fe3  1  0.12500000  0.87500000  0.37500000  1
  Fe  Fe4  1  0.12500000  0.12500000  0.62500000  1
  Fe  Fe5  1  0.37500000  0.37500000  0.62500000  1
  Fe  Fe6  1  0.37500000  0.12500000  0.87500000  1
  Fe  Fe7  1  0.12500000  0.37500000  0.87500000  1
  Fe  Fe8  1  0.62500000  0.62500000  0.62500000  1
  Fe  Fe9  1  0.87500000  0.87500000  0.62500000  1
  Fe  Fe10  1  0.87500000  0.62500000  0.87500000  1
  Fe  Fe11  1  0.62500000  0.87500000  0.87500000  1
  Fe  Fe12  1  0.62500000  0.12500000  0.12500000  1
  Fe  Fe13  1  0.87500000  0.37500000  0.12500000  1
  Fe  Fe14  1  0.87500000  0.12500000  0.37500000  1
  Fe  Fe15  1  0.62500000  0.37500000  0.37500000  1
  O  O16  1  0.86178033  0.13821967  0.13821967  1
  O  O17  1  0.36178033  0.86178033  0.36178033  1
  O  O18  1  0.38821967  0.11178033  0.11178033  1
  O  O19  1  0.11178033  0.11178033  0.38821967  1
  O  O20  1  0.38821967  0.38821967  0.38821967  1
  O  O21  1  0.11178033  0.38821967  0.11178033  1
  O  O22  1  0.63821967  0.13821967  0.36178033  1
  O  O23  1  0.13821967  0.86178033  0.13821967  1
  O  O24  1  0.86178033  0.63821967  0.63821967  1
  O  O25  1  0.36178033  0.36178033  0.86178033  1
  O  O26  1  0.38821967  0.61178033  0.61178033  1
  O  O27  1  0.11178033  0.61178033  0.88821967  1
  O  O28  1  0.38821967  0.88821967  0.88821967  1
  O  O29  1  0.11178033  0.88821967  0.61178033  1
  O  O30  1  0.63821967  0.63821967  0.86178033  1
  O  O31  1  0.13821967  0.36178033  0.63821967  1
  O  O32  1  0.36178033  0.13821967  0.63821967  1
  O  O33  1  0.86178033  0.86178033  0.86178033  1
  O  O34  1  0.88821967  0.11178033  0.61178033  1
  O  O35  1  0.61178033  0.11178033  0.88821967  1
  O  O36  1  0.88821967  0.38821967  0.88821967  1
  O  O37  1  0.61178033  0.38821967  0.61178033  1
  O  O38  1  0.13821967  0.13821967  0.86178033  1
  O  O39  1  0.63821967  0.86178033  0.63821967  1
  O  O40  1  0.36178033  0.63821967  0.13821967  1
  O  O41  1  0.86178033  0.36178033  0.36178033  1
  O  O42  1  0.88821967  0.61178033  0.11178033  1
  O  O43  1  0.61178033  0.61178033  0.38821967  1
  O  O44  1  0.88821967  0.88821967  0.38821967  1
  O  O45  1  0.61178033  0.88821967  0.11178033  1
  O  O46  1  0.13821967  0.63821967  0.36178033  1
  O  O47  1  0.63821967  0.36178033  0.13821967  1
