# generated using pymatgen
data_Li13(Mn3As4)2
_symmetry_space_group_name_H-M   'P 1'
_cell_length_a   8.60410500
_cell_length_b   6.03869500
_cell_length_c   8.61995631
_cell_angle_alpha   90.00000000
_cell_angle_beta   90.87593283
_cell_angle_gamma   90.00000000
_symmetry_Int_Tables_number   1
_chemical_formula_structural   Li13(Mn3As4)2
_chemical_formula_sum   'Li13 Mn6 As8'
_cell_volume   447.81961016
_cell_formula_units_Z   1
loop_
 _symmetry_equiv_pos_site_id
 _symmetry_equiv_pos_as_xyz
  1  'x, y, z'
loop_
 _atom_site_type_symbol
 _atom_site_label
 _atom_site_symmetry_multiplicity
 _atom_site_fract_x
 _atom_site_fract_y
 _atom_site_fract_z
 _atom_site_occupancy
  Li  Li0  1  0.99725400  0.73198700  0.01473800  1
  Li  Li1  1  0.75202600  0.73577800  0.26019600  1
  Li  Li2  1  0.99754600  0.76476200  0.49115800  1
  Li  Li3  1  0.00669200  0.50000000  0.75555200  1
  Li  Li4  1  0.49828900  0.27614900  0.00063800  1
  Li  Li5  1  0.99754600  0.23523800  0.49115800  1
  Li  Li6  1  0.26209800  0.24828000  0.73955200  1
  Li  Li7  1  0.75202600  0.26422200  0.26019600  1
  Li  Li8  1  0.99725400  0.26801300  0.01473800  1
  Li  Li9  1  0.23994700  0.00000000  0.99645000  1
  Li  Li10  1  0.75388800  0.00000000  0.00753400  1
  Li  Li11  1  0.26209800  0.75172000  0.73955200  1
  Li  Li12  1  0.49828900  0.72385100  0.00063800  1
  Mn  Mn13  1  0.24733100  0.25758000  0.25667900  1
  Mn  Mn14  1  0.74164700  0.24818900  0.74246700  1
  Mn  Mn15  1  0.50017500  0.24618500  0.50044600  1
  Mn  Mn16  1  0.24733100  0.74242000  0.25667900  1
  Mn  Mn17  1  0.50017500  0.75381500  0.50044600  1
  Mn  Mn18  1  0.74164700  0.75181100  0.74246700  1
  As  As19  1  0.24382000  0.50000000  0.00096600  1
  As  As20  1  0.74074900  0.50000000  0.50961200  1
  As  As21  1  0.25514500  0.50000000  0.49935100  1
  As  As22  1  0.75177900  0.50000000  0.98679300  1
  As  As23  1  0.00471800  0.00000000  0.23996800  1
  As  As24  1  0.50291900  0.00000000  0.74605400  1
  As  As25  1  0.99121500  0.00000000  0.76114100  1
  As  As26  1  0.49353000  0.00000000  0.25362200  1
