# generated using pymatgen
data_Cs3Li2Ga(MoO4)4
_symmetry_space_group_name_H-M   'P 1'
_cell_length_a   12.51746800
_cell_length_b   12.51746800
_cell_length_c   12.46177400
_cell_angle_alpha   90.00000000
_cell_angle_beta   90.00000000
_cell_angle_gamma   90.00000000
_symmetry_Int_Tables_number   1
_chemical_formula_structural   Cs3Li2Ga(MoO4)4
_chemical_formula_sum   'Cs12 Li8 Ga4 Mo16 O64'
_cell_volume   1952.59804668
_cell_formula_units_Z   4
loop_
 _symmetry_equiv_pos_site_id
 _symmetry_equiv_pos_as_xyz
  1  'x, y, z'
loop_
 _atom_site_type_symbol
 _atom_site_label
 _atom_site_symmetry_multiplicity
 _atom_site_fract_x
 _atom_site_fract_y
 _atom_site_fract_z
 _atom_site_occupancy
  Cs  Cs0  1  0.75000000  0.64043800  0.12500000  1
  Cs  Cs1  1  0.75000000  0.85956200  0.62500000  1
  Cs  Cs2  1  0.85956200  0.25000000  0.37500000  1
  Cs  Cs3  1  0.64043800  0.25000000  0.87500000  1
  Cs  Cs4  1  0.50000000  0.50000000  0.50000000  1
  Cs  Cs5  1  0.50000000  0.00000000  0.25000000  1
  Cs  Cs6  1  0.25000000  0.14043800  0.62500000  1
  Cs  Cs7  1  0.25000000  0.35956200  0.12500000  1
  Cs  Cs8  1  0.35956200  0.75000000  0.87500000  1
  Cs  Cs9  1  0.14043800  0.75000000  0.37500000  1
  Cs  Cs10  1  0.00000000  0.00000000  0.00000000  1
  Cs  Cs11  1  0.00000000  0.50000000  0.75000000  1
  Li  Li12  1  0.75000000  0.37565500  0.62500000  1
  Li  Li13  1  0.62434500  0.75000000  0.37500000  1
  Li  Li14  1  0.25000000  0.62434500  0.62500000  1
  Li  Li15  1  0.37565500  0.25000000  0.37500000  1
  Li  Li16  1  0.25000000  0.87565500  0.12500000  1
  Li  Li17  1  0.12434500  0.25000000  0.87500000  1
  Li  Li18  1  0.75000000  0.12434500  0.12500000  1
  Li  Li19  1  0.87565500  0.75000000  0.87500000  1
  Ga  Ga20  1  0.00000000  0.00000000  0.50000000  1
  Ga  Ga21  1  0.50000000  0.00000000  0.75000000  1
  Ga  Ga22  1  0.50000000  0.50000000  0.00000000  1
  Ga  Ga23  1  0.00000000  0.50000000  0.25000000  1
  Mo  Mo24  1  0.15131700  0.09584000  0.28010200  1
  Mo  Mo25  1  0.59584000  0.34868300  0.21989800  1
  Mo  Mo26  1  0.65131700  0.90416000  0.96989800  1
  Mo  Mo27  1  0.34868300  0.40416000  0.78010200  1
  Mo  Mo28  1  0.90416000  0.15131700  0.71989800  1
  Mo  Mo29  1  0.84868300  0.59584000  0.46989800  1
  Mo  Mo30  1  0.90416000  0.34868300  0.03010200  1
  Mo  Mo31  1  0.59584000  0.15131700  0.53010200  1
  Mo  Mo32  1  0.65131700  0.59584000  0.78010200  1
  Mo  Mo33  1  0.09584000  0.84868300  0.71989800  1
  Mo  Mo34  1  0.15131700  0.40416000  0.46989800  1
  Mo  Mo35  1  0.84868300  0.90416000  0.28010200  1
  Mo  Mo36  1  0.40416000  0.65131700  0.21989800  1
  Mo  Mo37  1  0.34868300  0.09584000  0.96989800  1
  Mo  Mo38  1  0.40416000  0.84868300  0.53010200  1
  Mo  Mo39  1  0.09584000  0.65131700  0.03010200  1
  O  O40  1  0.72061350  0.65704150  0.45873850  1
  O  O41  1  0.03131300  0.33798800  0.96684400  1
  O  O42  1  0.91344850  0.41591050  0.16526350  1
  O  O43  1  0.91344850  0.08408950  0.58473650  1
  O  O44  1  0.82180550  0.42692250  0.94717950  1
  O  O45  1  0.42692250  0.32180550  0.69717950  1
  O  O46  1  0.67819450  0.42692250  0.30282050  1
  O  O47  1  0.41591050  0.08655150  0.83473650  1
  O  O48  1  0.33798800  0.53131300  0.71684400  1
  O  O49  1  0.22061350  0.34295850  0.79126150  1
  O  O50  1  0.66201200  0.03131300  0.03315600  1
  O  O51  1  0.27938650  0.15704150  0.29126150  1
  O  O52  1  0.82180550  0.07307750  0.80282050  1
  O  O53  1  0.84295850  0.27938650  0.70873850  1
  O  O54  1  0.08408950  0.08655150  0.41526350  1
  O  O55  1  0.07307750  0.32180550  0.55282050  1
  O  O56  1  0.84295850  0.22061350  0.04126150  1
  O  O57  1  0.83798800  0.46868700  0.53315600  1
  O  O58  1  0.67819450  0.07307750  0.44717950  1
  O  O59  1  0.65704150  0.27938650  0.54126150  1
  O  O60  1  0.66201200  0.46868700  0.71684400  1
  O  O61  1  0.91591050  0.91344850  0.41526350  1
  O  O62  1  0.65704150  0.22061350  0.20873850  1
  O  O63  1  0.53131300  0.66201200  0.28315600  1
  O  O64  1  0.07307750  0.17819450  0.19717950  1
  O  O65  1  0.08408950  0.41344850  0.33473650  1
  O  O66  1  0.77938650  0.84295850  0.95873850  1
  O  O67  1  0.46868700  0.33798800  0.28315600  1
  O  O68  1  0.08655150  0.91591050  0.58473650  1
  O  O69  1  0.58655150  0.08408950  0.66526350  1
  O  O70  1  0.46868700  0.16201200  0.46684400  1
  O  O71  1  0.42692250  0.17819450  0.05282050  1
  O  O72  1  0.22061350  0.15704150  0.95873850  1
  O  O73  1  0.53131300  0.83798800  0.46684400  1
  O  O74  1  0.41344850  0.91591050  0.66526350  1
  O  O75  1  0.41344850  0.58408950  0.08473650  1
  O  O76  1  0.32180550  0.92692250  0.44717950  1
  O  O77  1  0.92692250  0.82180550  0.19717950  1
  O  O78  1  0.17819450  0.92692250  0.80282050  1
  O  O79  1  0.91591050  0.58655150  0.33473650  1
  O  O80  1  0.83798800  0.03131300  0.21684400  1
  O  O81  1  0.72061350  0.84295850  0.29126150  1
  O  O82  1  0.16201200  0.53131300  0.53315600  1
  O  O83  1  0.77938650  0.65704150  0.79126150  1
  O  O84  1  0.32180550  0.57307750  0.30282050  1
  O  O85  1  0.34295850  0.77938650  0.20873850  1
  O  O86  1  0.58408950  0.58655150  0.91526350  1
  O  O87  1  0.57307750  0.82180550  0.05282050  1
  O  O88  1  0.34295850  0.72061350  0.54126150  1
  O  O89  1  0.33798800  0.96868700  0.03315600  1
  O  O90  1  0.17819450  0.57307750  0.94717950  1
  O  O91  1  0.15704150  0.77938650  0.04126150  1
  O  O92  1  0.16201200  0.96868700  0.21684400  1
  O  O93  1  0.41591050  0.41344850  0.91526350  1
  O  O94  1  0.15704150  0.72061350  0.70873850  1
  O  O95  1  0.03131300  0.16201200  0.78315600  1
  O  O96  1  0.57307750  0.67819450  0.69717950  1
  O  O97  1  0.58408950  0.91344850  0.83473650  1
  O  O98  1  0.27938650  0.34295850  0.45873850  1
  O  O99  1  0.96868700  0.83798800  0.78315600  1
  O  O100  1  0.58655150  0.41591050  0.08473650  1
  O  O101  1  0.08655150  0.58408950  0.16526350  1
  O  O102  1  0.96868700  0.66201200  0.96684400  1
  O  O103  1  0.92692250  0.67819450  0.55282050  1
