# generated using pymatgen
data_Cu2BiPO6
_symmetry_space_group_name_H-M   'P 1'
_cell_length_a   5.17404900
_cell_length_b   7.88532369
_cell_length_c   12.03175502
_cell_angle_alpha   90.00000000
_cell_angle_beta   90.00000000
_cell_angle_gamma   90.00000000
_symmetry_Int_Tables_number   1
_chemical_formula_structural   Cu2BiPO6
_chemical_formula_sum   'Cu8 Bi4 P4 O24'
_cell_volume   490.88418817
_cell_formula_units_Z   4
loop_
 _symmetry_equiv_pos_site_id
 _symmetry_equiv_pos_as_xyz
  1  'x, y, z'
loop_
 _atom_site_type_symbol
 _atom_site_label
 _atom_site_symmetry_multiplicity
 _atom_site_fract_x
 _atom_site_fract_y
 _atom_site_fract_z
 _atom_site_occupancy
  Cu  Cu0  1  0.75000000  0.18349950  0.43072750  1
  Cu  Cu1  1  0.25000000  0.31212850  0.08849950  1
  Cu  Cu2  1  0.25000000  0.68349950  0.06927250  1
  Cu  Cu3  1  0.25000000  0.18787150  0.58849950  1
  Cu  Cu4  1  0.75000000  0.81212850  0.41150050  1
  Cu  Cu5  1  0.75000000  0.68787150  0.91150050  1
  Cu  Cu6  1  0.75000000  0.31650050  0.93072750  1
  Cu  Cu7  1  0.25000000  0.81650050  0.56927250  1
  Bi  Bi8  1  0.25000000  0.02752150  0.88879350  1
  Bi  Bi9  1  0.75000000  0.97247850  0.11120650  1
  Bi  Bi10  1  0.25000000  0.47247850  0.38879350  1
  Bi  Bi11  1  0.75000000  0.52752150  0.61120650  1
  P  P12  1  0.75000000  0.53739750  0.19709050  1
  P  P13  1  0.25000000  0.46260250  0.80290950  1
  P  P14  1  0.75000000  0.96260250  0.69709050  1
  P  P15  1  0.25000000  0.03739750  0.30290950  1
  O  O16  1  0.25000000  0.91964650  0.20183450  1
  O  O17  1  0.49999050  0.00680150  0.37468750  1
  O  O18  1  0.75000000  0.77472050  0.73293150  1
  O  O19  1  0.49999050  0.49319850  0.87468750  1
  O  O20  1  0.25000000  0.27472050  0.76706850  1
  O  O21  1  0.49766050  0.32301650  0.50632550  1
  O  O22  1  0.99999050  0.99319850  0.62531250  1
  O  O23  1  0.00000950  0.00680150  0.37468750  1
  O  O24  1  0.50233950  0.82301650  0.99367450  1
  O  O25  1  0.25000000  0.22527950  0.26706850  1
  O  O26  1  0.75000000  0.72527950  0.23293150  1
  O  O27  1  0.50000950  0.99319850  0.62531250  1
  O  O28  1  0.25000000  0.58035350  0.70183450  1
  O  O29  1  0.99766050  0.82301650  0.99367450  1
  O  O30  1  0.99999050  0.50680150  0.12531250  1
  O  O31  1  0.99766050  0.67698350  0.49367450  1
  O  O32  1  0.00233950  0.32301650  0.50632550  1
  O  O33  1  0.00233950  0.17698350  0.00632550  1
  O  O34  1  0.75000000  0.41964650  0.29816550  1
  O  O35  1  0.50233950  0.67698350  0.49367450  1
  O  O36  1  0.75000000  0.08035350  0.79816550  1
  O  O37  1  0.50000950  0.50680150  0.12531250  1
  O  O38  1  0.49766050  0.17698350  0.00632550  1
  O  O39  1  0.00000950  0.49319850  0.87468750  1
