# generated using pymatgen
data_Yb14Ti10O41
_symmetry_space_group_name_H-M   'P 1'
_cell_length_a   12.16384200
_cell_length_b   7.49238800
_cell_length_c   18.07168136
_cell_angle_alpha   90.00000000
_cell_angle_beta   90.06699845
_cell_angle_gamma   90.00000000
_symmetry_Int_Tables_number   1
_chemical_formula_structural   Yb14Ti10O41
_chemical_formula_sum   'Yb28 Ti20 O82'
_cell_volume   1646.98367105
_cell_formula_units_Z   2
loop_
 _symmetry_equiv_pos_site_id
 _symmetry_equiv_pos_as_xyz
  1  'x, y, z'
loop_
 _atom_site_type_symbol
 _atom_site_label
 _atom_site_symmetry_multiplicity
 _atom_site_fract_x
 _atom_site_fract_y
 _atom_site_fract_z
 _atom_site_occupancy
  Yb  Yb0  1  0.96560300  0.00000000  0.01810300  1
  Yb  Yb1  1  0.39844350  0.25514250  0.81651800  1
  Yb  Yb2  1  0.48852900  0.00000000  0.01774700  1
  Yb  Yb3  1  0.66862000  0.00000000  0.84142600  1
  Yb  Yb4  1  0.64938600  0.00000000  0.33428900  1
  Yb  Yb5  1  0.25072600  0.21731900  0.49268600  1
  Yb  Yb6  1  0.15639200  0.00000000  0.83033100  1
  Yb  Yb7  1  0.25072600  0.78268100  0.49268600  1
  Yb  Yb8  1  0.84552200  0.00000000  0.66155700  1
  Yb  Yb9  1  0.00329700  0.00000000  0.48922000  1
  Yb  Yb10  1  0.39844350  0.74485750  0.81651800  1
  Yb  Yb11  1  0.60232750  0.25277050  0.16771100  1
  Yb  Yb12  1  0.60232750  0.74722950  0.16771100  1
  Yb  Yb13  1  0.16260200  0.00000000  0.32808600  1
  Yb  Yb14  1  0.46560300  0.50000000  0.01810300  1
  Yb  Yb15  1  0.89844350  0.75514250  0.81651800  1
  Yb  Yb16  1  0.98852900  0.50000000  0.01774700  1
  Yb  Yb17  1  0.16862000  0.50000000  0.84142600  1
  Yb  Yb18  1  0.14938600  0.50000000  0.33428900  1
  Yb  Yb19  1  0.75072600  0.71731900  0.49268600  1
  Yb  Yb20  1  0.65639200  0.50000000  0.83033100  1
  Yb  Yb21  1  0.75072600  0.28268100  0.49268600  1
  Yb  Yb22  1  0.34552200  0.50000000  0.66155700  1
  Yb  Yb23  1  0.50329700  0.50000000  0.48922000  1
  Yb  Yb24  1  0.89844350  0.24485750  0.81651800  1
  Yb  Yb25  1  0.10232750  0.75277050  0.16771100  1
  Yb  Yb26  1  0.10232750  0.24722950  0.16771100  1
  Yb  Yb27  1  0.66260200  0.50000000  0.32808600  1
  Ti  Ti28  1  0.72845900  0.75529900  0.99976800  1
  Ti  Ti29  1  0.34971500  0.00000000  0.66726500  1
  Ti  Ti30  1  0.57859600  0.22757700  0.68014700  1
  Ti  Ti31  1  0.72845900  0.24470100  0.99976800  1
  Ti  Ti32  1  0.41223500  0.26110800  0.34204400  1
  Ti  Ti33  1  0.41223500  0.73889200  0.34204400  1
  Ti  Ti34  1  0.49721900  0.00000000  0.51770900  1
  Ti  Ti35  1  0.57859600  0.77242300  0.68014700  1
  Ti  Ti36  1  0.36799900  0.00000000  0.21100600  1
  Ti  Ti37  1  0.84336800  0.00000000  0.16477700  1
  Ti  Ti38  1  0.22845900  0.25529900  0.99976800  1
  Ti  Ti39  1  0.84971500  0.50000000  0.66726500  1
  Ti  Ti40  1  0.07859600  0.72757700  0.68014700  1
  Ti  Ti41  1  0.22845900  0.74470100  0.99976800  1
  Ti  Ti42  1  0.91223500  0.76110800  0.34204400  1
  Ti  Ti43  1  0.91223500  0.23889200  0.34204400  1
  Ti  Ti44  1  0.99721900  0.50000000  0.51770900  1
  Ti  Ti45  1  0.07859600  0.27242300  0.68014700  1
  Ti  Ti46  1  0.86799900  0.50000000  0.21100600  1
  Ti  Ti47  1  0.34336800  0.50000000  0.16477700  1
  O  O48  1  0.31973900  0.00000000  0.76789500  1
  O  O49  1  0.41208500  0.75715400  0.94518600  1
  O  O50  1  0.58071150  0.75850650  0.78060800  1
  O  O51  1  0.52463200  0.00000000  0.63091600  1
  O  O52  1  0.41208500  0.24284600  0.94518600  1
  O  O53  1  0.68556400  0.00000000  0.47087200  1
  O  O54  1  0.67452900  0.00000000  0.69728900  1
  O  O55  1  0.24209050  0.22436750  0.89374500  1
  O  O56  1  0.21678000  0.17658300  0.64100100  1
  O  O57  1  0.68473700  0.00000000  0.97129700  1
  O  O58  1  0.58071150  0.24149350  0.78060800  1
  O  O59  1  0.24209050  0.77563250  0.89374500  1
  O  O60  1  0.82003600  0.00000000  0.77904600  1
  O  O61  1  0.44916900  0.18698900  0.44274400  1
  O  O62  1  0.41637450  0.23682250  0.68262900  1
  O  O63  1  0.21678000  0.82341700  0.64100100  1
  O  O64  1  0.94452300  0.00000000  0.36926900  1
  O  O65  1  0.56457650  0.23363450  0.53726900  1
  O  O66  1  0.99430000  0.00000000  0.14844500  1
  O  O67  1  0.55561150  0.24939250  0.29209800  1
  O  O68  1  0.05266700  0.00000000  0.65676400  1
  O  O69  1  0.44916900  0.81301100  0.44274400  1
  O  O70  1  0.98353700  0.00000000  0.88743400  1
  O  O71  1  0.41637450  0.76317750  0.68262900  1
  O  O72  1  0.56457650  0.76636550  0.53726900  1
  O  O73  1  0.16126100  0.00000000  0.44909300  1
  O  O74  1  0.80974850  0.16449050  0.08324900  1
  O  O75  1  0.76153850  0.22925450  0.36638600  1
  O  O76  1  0.22125000  0.00000000  0.19786500  1
  O  O77  1  0.55561150  0.75060750  0.29209800  1
  O  O78  1  0.28041300  0.00000000  0.01259500  1
  O  O79  1  0.37523050  0.72652050  0.23130700  1
  O  O80  1  0.38945200  0.00000000  0.31647800  1
  O  O81  1  0.76153850  0.77074550  0.36638600  1
  O  O82  1  0.35503900  0.00000000  0.55256600  1
  O  O83  1  0.80974850  0.83550950  0.08324900  1
  O  O84  1  0.37523050  0.27347950  0.23130700  1
  O  O85  1  0.48007700  0.00000000  0.14306000  1
  O  O86  1  0.59137650  0.72612150  0.03722700  1
  O  O87  1  0.70447400  0.00000000  0.21188400  1
  O  O88  1  0.59137650  0.27387850  0.03722700  1
  O  O89  1  0.81973900  0.50000000  0.76789500  1
  O  O90  1  0.91208500  0.25715400  0.94518600  1
  O  O91  1  0.08071150  0.25850650  0.78060800  1
  O  O92  1  0.02463200  0.50000000  0.63091600  1
  O  O93  1  0.91208500  0.74284600  0.94518600  1
  O  O94  1  0.18556400  0.50000000  0.47087200  1
  O  O95  1  0.17452900  0.50000000  0.69728900  1
  O  O96  1  0.74209050  0.72436750  0.89374500  1
  O  O97  1  0.71678000  0.67658300  0.64100100  1
  O  O98  1  0.18473700  0.50000000  0.97129700  1
  O  O99  1  0.08071150  0.74149350  0.78060800  1
  O  O100  1  0.74209050  0.27563250  0.89374500  1
  O  O101  1  0.32003600  0.50000000  0.77904600  1
  O  O102  1  0.94916900  0.68698900  0.44274400  1
  O  O103  1  0.91637450  0.73682250  0.68262900  1
  O  O104  1  0.71678000  0.32341700  0.64100100  1
  O  O105  1  0.44452300  0.50000000  0.36926900  1
  O  O106  1  0.06457650  0.73363450  0.53726900  1
  O  O107  1  0.49430000  0.50000000  0.14844500  1
  O  O108  1  0.05561150  0.74939250  0.29209800  1
  O  O109  1  0.55266700  0.50000000  0.65676400  1
  O  O110  1  0.94916900  0.31301100  0.44274400  1
  O  O111  1  0.48353700  0.50000000  0.88743400  1
  O  O112  1  0.91637450  0.26317750  0.68262900  1
  O  O113  1  0.06457650  0.26636550  0.53726900  1
  O  O114  1  0.66126100  0.50000000  0.44909300  1
  O  O115  1  0.30974850  0.66449050  0.08324900  1
  O  O116  1  0.26153850  0.72925450  0.36638600  1
  O  O117  1  0.72125000  0.50000000  0.19786500  1
  O  O118  1  0.05561150  0.25060750  0.29209800  1
  O  O119  1  0.78041300  0.50000000  0.01259500  1
  O  O120  1  0.87523050  0.22652050  0.23130700  1
  O  O121  1  0.88945200  0.50000000  0.31647800  1
  O  O122  1  0.26153850  0.27074550  0.36638600  1
  O  O123  1  0.85503900  0.50000000  0.55256600  1
  O  O124  1  0.30974850  0.33550950  0.08324900  1
  O  O125  1  0.87523050  0.77347950  0.23130700  1
  O  O126  1  0.98007700  0.50000000  0.14306000  1
  O  O127  1  0.09137650  0.22612150  0.03722700  1
  O  O128  1  0.20447400  0.50000000  0.21188400  1
  O  O129  1  0.09137650  0.77387850  0.03722700  1
