# generated using pymatgen
data_Ce5AgSe8
_symmetry_space_group_name_H-M   'P 1'
_cell_length_a   8.84790600
_cell_length_b   8.84790600
_cell_length_c   9.02397600
_cell_angle_alpha   90.00000000
_cell_angle_beta   90.00000000
_cell_angle_gamma   90.00000000
_symmetry_Int_Tables_number   1
_chemical_formula_structural   Ce5AgSe8
_chemical_formula_sum   'Ce10 Ag2 Se16'
_cell_volume   706.44593699
_cell_formula_units_Z   2
loop_
 _symmetry_equiv_pos_site_id
 _symmetry_equiv_pos_as_xyz
  1  'x, y, z'
loop_
 _atom_site_type_symbol
 _atom_site_label
 _atom_site_symmetry_multiplicity
 _atom_site_fract_x
 _atom_site_fract_y
 _atom_site_fract_z
 _atom_site_occupancy
  Ce  Ce0  1  0.75040500  0.12972100  0.88239900  1
  Ce  Ce1  1  0.37027900  0.25040500  0.61760100  1
  Ce  Ce2  1  0.74959500  0.37027900  0.38239900  1
  Ce  Ce3  1  0.00000000  0.00000000  0.50000000  1
  Ce  Ce4  1  0.12972100  0.24959500  0.11760100  1
  Ce  Ce5  1  0.25040500  0.62972100  0.38239900  1
  Ce  Ce6  1  0.87027900  0.75040500  0.11760100  1
  Ce  Ce7  1  0.24959500  0.87027900  0.88239900  1
  Ce  Ce8  1  0.50000000  0.50000000  0.00000000  1
  Ce  Ce9  1  0.62972100  0.74959500  0.61760100  1
  Ag  Ag10  1  0.50000000  0.00000000  0.25000000  1
  Ag  Ag11  1  0.00000000  0.50000000  0.75000000  1
  Se  Se12  1  0.18013950  0.93151550  0.20485850  1
  Se  Se13  1  0.18132550  0.57897350  0.06435550  1
  Se  Se14  1  0.06848450  0.18013950  0.79514150  1
  Se  Se15  1  0.07897350  0.31867450  0.43564450  1
  Se  Se16  1  0.31867450  0.92102650  0.56435550  1
  Se  Se17  1  0.43151550  0.31986050  0.29514150  1
  Se  Se18  1  0.31986050  0.56848450  0.70485850  1
  Se  Se19  1  0.42102650  0.18132550  0.93564450  1
  Se  Se20  1  0.68013950  0.43151550  0.70485850  1
  Se  Se21  1  0.68132550  0.07897350  0.56435550  1
  Se  Se22  1  0.56848450  0.68013950  0.29514150  1
  Se  Se23  1  0.57897350  0.81867450  0.93564450  1
  Se  Se24  1  0.81867450  0.42102650  0.06435550  1
  Se  Se25  1  0.93151550  0.81986050  0.79514150  1
  Se  Se26  1  0.81986050  0.06848450  0.20485850  1
  Se  Se27  1  0.92102650  0.68132550  0.43564450  1
