# generated using pymatgen
data_Ni3(PO4)4
_symmetry_space_group_name_H-M   'P 1'
_cell_length_a   18.83301583
_cell_length_b   6.37143287
_cell_length_c   10.65030636
_cell_angle_alpha   90.00000000
_cell_angle_beta   91.49758501
_cell_angle_gamma   90.00000000
_symmetry_Int_Tables_number   1
_chemical_formula_structural   Ni3(PO4)4
_chemical_formula_sum   'Ni12 P16 O64'
_cell_volume   1277.52884598
_cell_formula_units_Z   4
loop_
 _symmetry_equiv_pos_site_id
 _symmetry_equiv_pos_as_xyz
  1  'x, y, z'
loop_
 _atom_site_type_symbol
 _atom_site_label
 _atom_site_symmetry_multiplicity
 _atom_site_fract_x
 _atom_site_fract_y
 _atom_site_fract_z
 _atom_site_occupancy
  Ni  Ni0  1  0.34640550  0.01920950  0.74843950  1
  Ni  Ni1  1  0.15359450  0.51920950  0.75156050  1
  Ni  Ni2  1  0.34640550  0.98079050  0.24843950  1
  Ni  Ni3  1  0.15359450  0.48079050  0.25156050  1
  Ni  Ni4  1  0.25000000  0.25000000  0.00000000  1
  Ni  Ni5  1  0.25000000  0.75000000  0.50000000  1
  Ni  Ni6  1  0.84640550  0.51920950  0.74843950  1
  Ni  Ni7  1  0.65359450  0.01920950  0.75156050  1
  Ni  Ni8  1  0.84640550  0.48079050  0.24843950  1
  Ni  Ni9  1  0.65359450  0.98079050  0.25156050  1
  Ni  Ni10  1  0.75000000  0.75000000  0.00000000  1
  Ni  Ni11  1  0.75000000  0.25000000  0.50000000  1
  P  P12  1  0.20148000  0.98226900  0.24577850  1
  P  P13  1  0.29852000  0.51773100  0.75422150  1
  P  P14  1  0.41618750  0.83089150  0.50630150  1
  P  P15  1  0.41618750  0.16910850  0.00630150  1
  P  P16  1  0.20148000  0.01773100  0.74577850  1
  P  P17  1  0.08381250  0.66910850  0.49369850  1
  P  P18  1  0.29852000  0.48226900  0.25422150  1
  P  P19  1  0.08381250  0.33089150  0.99369850  1
  P  P20  1  0.70148000  0.48226900  0.24577850  1
  P  P21  1  0.79852000  0.01773100  0.75422150  1
  P  P22  1  0.91618750  0.33089150  0.50630150  1
  P  P23  1  0.91618750  0.66910850  0.00630150  1
  P  P24  1  0.70148000  0.51773100  0.74577850  1
  P  P25  1  0.58381250  0.16910850  0.49369850  1
  P  P26  1  0.79852000  0.98226900  0.25422150  1
  P  P27  1  0.58381250  0.83089150  0.99369850  1
  O  O28  1  0.35150000  0.68283700  0.50710450  1
  O  O29  1  0.24048000  0.54802100  0.64388350  1
  O  O30  1  0.07975450  0.44564250  0.12112450  1
  O  O31  1  0.15319150  0.83274750  0.77516350  1
  O  O32  1  0.48544750  0.29018850  0.03581150  1
  O  O33  1  0.07975450  0.55435750  0.62112450  1
  O  O34  1  0.35150000  0.31716300  0.00710450  1
  O  O35  1  0.08742750  0.50117050  0.38748650  1
  O  O36  1  0.34680850  0.66725250  0.22483650  1
  O  O37  1  0.24365600  0.51792700  0.36238150  1
  O  O38  1  0.24365600  0.48207300  0.86238150  1
  O  O39  1  0.14850000  0.81716300  0.49289550  1
  O  O40  1  0.34679600  0.70619000  0.78142850  1
  O  O41  1  0.48544750  0.70981150  0.53581150  1
  O  O42  1  0.08742750  0.49882950  0.88748650  1
  O  O43  1  0.42024550  0.05435750  0.87887550  1
  O  O44  1  0.24048000  0.45197900  0.14388350  1
  O  O45  1  0.34679600  0.29381000  0.28142850  1
  O  O46  1  0.15320400  0.20619000  0.71857150  1
  O  O47  1  0.25634400  0.01792700  0.13761850  1
  O  O48  1  0.15319150  0.16725250  0.27516350  1
  O  O49  1  0.41257250  0.99882950  0.61251350  1
  O  O50  1  0.34680850  0.33274750  0.72483650  1
  O  O51  1  0.25634400  0.98207300  0.63761850  1
  O  O52  1  0.42024550  0.94564250  0.37887550  1
  O  O53  1  0.41257250  0.00117050  0.11251350  1
  O  O54  1  0.25952000  0.95197900  0.35611650  1
  O  O55  1  0.15320400  0.79381000  0.21857150  1
  O  O56  1  0.14850000  0.18283700  0.99289550  1
  O  O57  1  0.01455250  0.20981150  0.96418850  1
  O  O58  1  0.01455250  0.79018850  0.46418850  1
  O  O59  1  0.25952000  0.04802100  0.85611650  1
  O  O60  1  0.85150000  0.18283700  0.50710450  1
  O  O61  1  0.74048000  0.04802100  0.64388350  1
  O  O62  1  0.57975450  0.94564250  0.12112450  1
  O  O63  1  0.65319150  0.33274750  0.77516350  1
  O  O64  1  0.98544750  0.79018850  0.03581150  1
  O  O65  1  0.57975450  0.05435750  0.62112450  1
  O  O66  1  0.85150000  0.81716300  0.00710450  1
  O  O67  1  0.58742750  0.00117050  0.38748650  1
  O  O68  1  0.84680850  0.16725250  0.22483650  1
  O  O69  1  0.74365600  0.01792700  0.36238150  1
  O  O70  1  0.74365600  0.98207300  0.86238150  1
  O  O71  1  0.64850000  0.31716300  0.49289550  1
  O  O72  1  0.84679600  0.20619000  0.78142850  1
  O  O73  1  0.98544750  0.20981150  0.53581150  1
  O  O74  1  0.58742750  0.99882950  0.88748650  1
  O  O75  1  0.92024550  0.55435750  0.87887550  1
  O  O76  1  0.74048000  0.95197900  0.14388350  1
  O  O77  1  0.84679600  0.79381000  0.28142850  1
  O  O78  1  0.65320400  0.70619000  0.71857150  1
  O  O79  1  0.75634400  0.51792700  0.13761850  1
  O  O80  1  0.65319150  0.66725250  0.27516350  1
  O  O81  1  0.91257250  0.49882950  0.61251350  1
  O  O82  1  0.84680850  0.83274750  0.72483650  1
  O  O83  1  0.75634400  0.48207300  0.63761850  1
  O  O84  1  0.92024550  0.44564250  0.37887550  1
  O  O85  1  0.91257250  0.50117050  0.11251350  1
  O  O86  1  0.75952000  0.45197900  0.35611650  1
  O  O87  1  0.65320400  0.29381000  0.21857150  1
  O  O88  1  0.64850000  0.68283700  0.99289550  1
  O  O89  1  0.51455250  0.70981150  0.96418850  1
  O  O90  1  0.51455250  0.29018850  0.46418850  1
  O  O91  1  0.75952000  0.54802100  0.85611650  1
