# generated using pymatgen
data_Cr4(Ga2Se5)3
_symmetry_space_group_name_H-M   'P 1'
_cell_length_a   6.73128800
_cell_length_b   11.30385600
_cell_length_c   15.91802215
_cell_angle_alpha   90.00000000
_cell_angle_beta   98.02453382
_cell_angle_gamma   90.00000000
_symmetry_Int_Tables_number   1
_chemical_formula_structural   Cr4(Ga2Se5)3
_chemical_formula_sum   'Cr8 Ga12 Se30'
_cell_volume   1199.33495874
_cell_formula_units_Z   2
loop_
 _symmetry_equiv_pos_site_id
 _symmetry_equiv_pos_as_xyz
  1  'x, y, z'
loop_
 _atom_site_type_symbol
 _atom_site_label
 _atom_site_symmetry_multiplicity
 _atom_site_fract_x
 _atom_site_fract_y
 _atom_site_fract_z
 _atom_site_occupancy
  Cr  Cr0  1  0.56452400  0.00000000  0.68986400  1
  Cr  Cr1  1  0.56429250  0.34319650  0.68844300  1
  Cr  Cr2  1  0.56429250  0.65680350  0.68844300  1
  Cr  Cr3  1  0.69412100  0.00000000  0.08757100  1
  Cr  Cr4  1  0.06452400  0.50000000  0.68986400  1
  Cr  Cr5  1  0.06429250  0.84319650  0.68844300  1
  Cr  Cr6  1  0.06429250  0.15680350  0.68844300  1
  Cr  Cr7  1  0.19412100  0.50000000  0.08757100  1
  Ga  Ga8  1  0.31092750  0.84005050  0.45058400  1
  Ga  Ga9  1  0.31092750  0.15994950  0.45058400  1
  Ga  Ga10  1  0.80798750  0.83150250  0.92845300  1
  Ga  Ga11  1  0.58228700  0.83029200  0.24702900  1
  Ga  Ga12  1  0.80798750  0.16849750  0.92845300  1
  Ga  Ga13  1  0.58228700  0.16970800  0.24702900  1
  Ga  Ga14  1  0.81092750  0.34005050  0.45058400  1
  Ga  Ga15  1  0.81092750  0.65994950  0.45058400  1
  Ga  Ga16  1  0.30798750  0.33150250  0.92845300  1
  Ga  Ga17  1  0.08228700  0.33029200  0.24702900  1
  Ga  Ga18  1  0.30798750  0.66849750  0.92845300  1
  Ga  Ga19  1  0.08228700  0.66970800  0.24702900  1
  Se  Se20  1  0.86472300  0.00000000  0.60552200  1
  Se  Se21  1  0.49344800  0.84756100  0.98046700  1
  Se  Se22  1  0.37077150  0.83148350  0.60725600  1
  Se  Se23  1  0.49344800  0.15243900  0.98046700  1
  Se  Se24  1  0.26100700  0.00000000  0.77175800  1
  Se  Se25  1  0.37077150  0.16851650  0.60725600  1
  Se  Se26  1  0.11454000  0.00000000  0.39431700  1
  Se  Se27  1  0.39593450  0.34694750  0.19416200  1
  Se  Se28  1  0.98550500  0.00000000  0.99557500  1
  Se  Se29  1  0.76118950  0.83067050  0.77073600  1
  Se  Se30  1  0.64586000  0.84795200  0.40464700  1
  Se  Se31  1  0.39593450  0.65305250  0.19416200  1
  Se  Se32  1  0.76118950  0.16932950  0.77073600  1
  Se  Se33  1  0.64586000  0.15204800  0.40464700  1
  Se  Se34  1  0.40616100  0.00000000  0.18052000  1
  Se  Se35  1  0.36472300  0.50000000  0.60552200  1
  Se  Se36  1  0.99344800  0.34756100  0.98046700  1
  Se  Se37  1  0.87077150  0.33148350  0.60725600  1
  Se  Se38  1  0.99344800  0.65243900  0.98046700  1
  Se  Se39  1  0.76100700  0.50000000  0.77175800  1
  Se  Se40  1  0.87077150  0.66851650  0.60725600  1
  Se  Se41  1  0.61454000  0.50000000  0.39431700  1
  Se  Se42  1  0.89593450  0.84694750  0.19416200  1
  Se  Se43  1  0.48550500  0.50000000  0.99557500  1
  Se  Se44  1  0.26118950  0.33067050  0.77073600  1
  Se  Se45  1  0.14586000  0.34795200  0.40464700  1
  Se  Se46  1  0.89593450  0.15305250  0.19416200  1
  Se  Se47  1  0.26118950  0.66932950  0.77073600  1
  Se  Se48  1  0.14586000  0.65204800  0.40464700  1
  Se  Se49  1  0.90616100  0.50000000  0.18052000  1
