# generated using pymatgen
data_CsNiF3
_symmetry_space_group_name_H-M   'P 1'
_cell_length_a   6.22704601
_cell_length_b   6.22704601
_cell_length_c   22.60888956
_cell_angle_alpha   90.00000000
_cell_angle_beta   90.00000000
_cell_angle_gamma   120.00000000
_symmetry_Int_Tables_number   1
_chemical_formula_structural   CsNiF3
_chemical_formula_sum   'Cs9 Ni9 F27'
_cell_volume   759.23114127
_cell_formula_units_Z   9
loop_
 _symmetry_equiv_pos_site_id
 _symmetry_equiv_pos_as_xyz
  1  'x, y, z'
loop_
 _atom_site_type_symbol
 _atom_site_label
 _atom_site_symmetry_multiplicity
 _atom_site_fract_x
 _atom_site_fract_y
 _atom_site_fract_z
 _atom_site_occupancy
  Cs  Cs0  1  0.00000000  0.00000000  0.00000000  1
  Cs  Cs1  1  0.66666667  0.33333333  0.11873033  1
  Cs  Cs2  1  0.00000000  0.00000000  0.21460300  1
  Cs  Cs3  1  0.66666667  0.33333333  0.33333333  1
  Cs  Cs4  1  0.33333333  0.66666667  0.45206367  1
  Cs  Cs5  1  0.66666667  0.33333333  0.54793633  1
  Cs  Cs6  1  0.33333333  0.66666667  0.66666667  1
  Cs  Cs7  1  0.00000000  0.00000000  0.78539700  1
  Cs  Cs8  1  0.33333333  0.66666667  0.88126967  1
  Ni  Ni9  1  0.33333333  0.66666667  0.16666667  1
  Ni  Ni10  1  0.33333333  0.66666667  0.28720067  1
  Ni  Ni11  1  0.33333333  0.66666667  0.04613267  1
  Ni  Ni12  1  1.00000000  1.00000000  0.50000000  1
  Ni  Ni13  1  0.00000000  0.00000000  0.62053400  1
  Ni  Ni14  1  0.00000000  0.00000000  0.37946600  1
  Ni  Ni15  1  0.66666667  0.33333333  0.83333333  1
  Ni  Ni16  1  0.66666667  0.33333333  0.95386733  1
  Ni  Ni17  1  0.66666667  0.33333333  0.71279933  1
  F  F18  1  0.00000000  0.50000000  0.00000000  1
  F  F19  1  0.50000000  0.50000000  0.00000000  1
  F  F20  1  0.50000000  0.00000000  0.00000000  1
  F  F21  1  0.19155467  0.38310933  0.10737333  1
  F  F22  1  0.61689067  0.80844533  0.10737333  1
  F  F23  1  0.19155467  0.80844533  0.10737333  1
  F  F24  1  0.47511200  0.52488800  0.22596000  1
  F  F25  1  0.47511200  0.95022400  0.22596000  1
  F  F26  1  0.04977600  0.52488800  0.22596000  1
  F  F27  1  0.66666667  0.83333333  0.33333333  1
  F  F28  1  0.16666667  0.83333333  0.33333333  1
  F  F29  1  0.16666667  0.33333333  0.33333333  1
  F  F30  1  0.85822133  0.71644267  0.44070667  1
  F  F31  1  0.28355733  0.14177867  0.44070667  1
  F  F32  1  0.85822133  0.14177867  0.44070667  1
  F  F33  1  0.14177867  0.85822133  0.55929333  1
  F  F34  1  0.14177867  0.28355733  0.55929333  1
  F  F35  1  0.71644267  0.85822133  0.55929333  1
  F  F36  1  0.33333333  0.16666667  0.66666667  1
  F  F37  1  0.83333333  0.16666667  0.66666667  1
  F  F38  1  0.83333333  0.66666667  0.66666667  1
  F  F39  1  0.52488800  0.04977600  0.77404000  1
  F  F40  1  0.95022400  0.47511200  0.77404000  1
  F  F41  1  0.52488800  0.47511200  0.77404000  1
  F  F42  1  0.80844533  0.19155467  0.89262667  1
  F  F43  1  0.80844533  0.61689067  0.89262667  1
  F  F44  1  0.38310933  0.19155467  0.89262667  1
