# generated using pymatgen
data_Ta5AuS
_symmetry_space_group_name_H-M   'P 1'
_cell_length_a   12.62032000
_cell_length_b   12.62032000
_cell_length_c   12.62032000
_cell_angle_alpha   90.00000000
_cell_angle_beta   90.00000000
_cell_angle_gamma   90.00000000
_symmetry_Int_Tables_number   1
_chemical_formula_structural   Ta5AuS
_chemical_formula_sum   'Ta80 Au16 S16'
_cell_volume   2010.06962570
_cell_formula_units_Z   16
loop_
 _symmetry_equiv_pos_site_id
 _symmetry_equiv_pos_as_xyz
  1  'x, y, z'
loop_
 _atom_site_type_symbol
 _atom_site_label
 _atom_site_symmetry_multiplicity
 _atom_site_fract_x
 _atom_site_fract_y
 _atom_site_fract_z
 _atom_site_occupancy
  Ta  Ta0  1  0.80219375  0.00000000  0.50000000  1
  Ta  Ta1  1  0.52722675  0.25000000  0.25000000  1
  Ta  Ta2  1  0.83195592  0.33195592  0.83195592  1
  Ta  Ta3  1  0.50000000  0.30219375  0.50000000  1
  Ta  Ta4  1  0.61802258  0.11802258  0.61802258  1
  Ta  Ta5  1  0.75000000  0.25000000  0.47277325  1
  Ta  Ta6  1  0.00000000  0.00000000  0.30219375  1
  Ta  Ta7  1  0.83195592  0.16804408  0.66804408  1
  Ta  Ta8  1  0.75000000  0.02722675  0.25000000  1
  Ta  Ta9  1  0.88197742  0.38197742  0.61802258  1
  Ta  Ta10  1  0.66804408  0.16804408  0.83195592  1
  Ta  Ta11  1  0.61802258  0.38197742  0.88197742  1
  Ta  Ta12  1  0.66804408  0.33195592  0.66804408  1
  Ta  Ta13  1  0.19780625  0.00000000  0.50000000  1
  Ta  Ta14  1  0.97277325  0.25000000  0.25000000  1
  Ta  Ta15  1  0.75000000  0.25000000  0.02722675  1
  Ta  Ta16  1  0.00000000  0.19780625  0.50000000  1
  Ta  Ta17  1  0.00000000  0.00000000  0.69780625  1
  Ta  Ta18  1  0.88197742  0.11802258  0.88197742  1
  Ta  Ta19  1  0.75000000  0.47277325  0.25000000  1
  Ta  Ta20  1  0.80219375  0.50000000  0.00000000  1
  Ta  Ta21  1  0.52722675  0.75000000  0.75000000  1
  Ta  Ta22  1  0.83195592  0.83195592  0.33195592  1
  Ta  Ta23  1  0.50000000  0.80219375  0.00000000  1
  Ta  Ta24  1  0.61802258  0.61802258  0.11802258  1
  Ta  Ta25  1  0.75000000  0.75000000  0.97277325  1
  Ta  Ta26  1  0.00000000  0.50000000  0.80219375  1
  Ta  Ta27  1  0.83195592  0.66804408  0.16804408  1
  Ta  Ta28  1  0.75000000  0.52722675  0.75000000  1
  Ta  Ta29  1  0.88197742  0.88197742  0.11802258  1
  Ta  Ta30  1  0.66804408  0.66804408  0.33195592  1
  Ta  Ta31  1  0.61802258  0.88197742  0.38197742  1
  Ta  Ta32  1  0.66804408  0.83195592  0.16804408  1
  Ta  Ta33  1  0.19780625  0.50000000  0.00000000  1
  Ta  Ta34  1  0.97277325  0.75000000  0.75000000  1
  Ta  Ta35  1  0.75000000  0.75000000  0.52722675  1
  Ta  Ta36  1  0.00000000  0.69780625  0.00000000  1
  Ta  Ta37  1  0.00000000  0.50000000  0.19780625  1
  Ta  Ta38  1  0.88197742  0.61802258  0.38197742  1
  Ta  Ta39  1  0.75000000  0.97277325  0.75000000  1
  Ta  Ta40  1  0.30219375  0.00000000  0.00000000  1
  Ta  Ta41  1  0.02722675  0.25000000  0.75000000  1
  Ta  Ta42  1  0.33195592  0.33195592  0.33195592  1
  Ta  Ta43  1  0.00000000  0.30219375  0.00000000  1
  Ta  Ta44  1  0.11802258  0.11802258  0.11802258  1
  Ta  Ta45  1  0.25000000  0.25000000  0.97277325  1
  Ta  Ta46  1  0.50000000  0.00000000  0.80219375  1
  Ta  Ta47  1  0.33195592  0.16804408  0.16804408  1
  Ta  Ta48  1  0.25000000  0.02722675  0.75000000  1
  Ta  Ta49  1  0.38197742  0.38197742  0.11802258  1
  Ta  Ta50  1  0.16804408  0.16804408  0.33195592  1
  Ta  Ta51  1  0.11802258  0.38197742  0.38197742  1
  Ta  Ta52  1  0.16804408  0.33195592  0.16804408  1
  Ta  Ta53  1  0.69780625  0.00000000  0.00000000  1
  Ta  Ta54  1  0.47277325  0.25000000  0.75000000  1
  Ta  Ta55  1  0.25000000  0.25000000  0.52722675  1
  Ta  Ta56  1  0.50000000  0.19780625  0.00000000  1
  Ta  Ta57  1  0.50000000  0.00000000  0.19780625  1
  Ta  Ta58  1  0.38197742  0.11802258  0.38197742  1
  Ta  Ta59  1  0.25000000  0.47277325  0.75000000  1
  Ta  Ta60  1  0.30219375  0.50000000  0.50000000  1
  Ta  Ta61  1  0.02722675  0.75000000  0.25000000  1
  Ta  Ta62  1  0.33195592  0.83195592  0.83195592  1
  Ta  Ta63  1  0.00000000  0.80219375  0.50000000  1
  Ta  Ta64  1  0.11802258  0.61802258  0.61802258  1
  Ta  Ta65  1  0.25000000  0.75000000  0.47277325  1
  Ta  Ta66  1  0.50000000  0.50000000  0.30219375  1
  Ta  Ta67  1  0.33195592  0.66804408  0.66804408  1
  Ta  Ta68  1  0.25000000  0.52722675  0.25000000  1
  Ta  Ta69  1  0.38197742  0.88197742  0.61802258  1
  Ta  Ta70  1  0.16804408  0.66804408  0.83195592  1
  Ta  Ta71  1  0.11802258  0.88197742  0.88197742  1
  Ta  Ta72  1  0.16804408  0.83195592  0.66804408  1
  Ta  Ta73  1  0.69780625  0.50000000  0.50000000  1
  Ta  Ta74  1  0.47277325  0.75000000  0.25000000  1
  Ta  Ta75  1  0.25000000  0.75000000  0.02722675  1
  Ta  Ta76  1  0.50000000  0.69780625  0.50000000  1
  Ta  Ta77  1  0.50000000  0.50000000  0.69780625  1
  Ta  Ta78  1  0.38197742  0.61802258  0.88197742  1
  Ta  Ta79  1  0.25000000  0.97277325  0.25000000  1
  Au  Au80  1  0.60028575  0.39971425  0.10028575  1
  Au  Au81  1  0.60028575  0.10028575  0.39971425  1
  Au  Au82  1  0.89971425  0.39971425  0.39971425  1
  Au  Au83  1  0.89971425  0.10028575  0.10028575  1
  Au  Au84  1  0.60028575  0.89971425  0.60028575  1
  Au  Au85  1  0.60028575  0.60028575  0.89971425  1
  Au  Au86  1  0.89971425  0.89971425  0.89971425  1
  Au  Au87  1  0.89971425  0.60028575  0.60028575  1
  Au  Au88  1  0.10028575  0.39971425  0.60028575  1
  Au  Au89  1  0.10028575  0.10028575  0.89971425  1
  Au  Au90  1  0.39971425  0.39971425  0.89971425  1
  Au  Au91  1  0.39971425  0.10028575  0.60028575  1
  Au  Au92  1  0.10028575  0.89971425  0.10028575  1
  Au  Au93  1  0.10028575  0.60028575  0.39971425  1
  Au  Au94  1  0.39971425  0.89971425  0.39971425  1
  Au  Au95  1  0.39971425  0.60028575  0.10028575  1
  S  S96  1  0.13092792  0.13092792  0.63092792  1
  S  S97  1  0.63092792  0.36907208  0.36907208  1
  S  S98  1  0.86907208  0.13092792  0.36907208  1
  S  S99  1  0.36907208  0.36907208  0.63092792  1
  S  S100  1  0.13092792  0.63092792  0.13092792  1
  S  S101  1  0.63092792  0.86907208  0.86907208  1
  S  S102  1  0.86907208  0.63092792  0.86907208  1
  S  S103  1  0.36907208  0.86907208  0.13092792  1
  S  S104  1  0.63092792  0.13092792  0.13092792  1
  S  S105  1  0.13092792  0.36907208  0.86907208  1
  S  S106  1  0.36907208  0.13092792  0.86907208  1
  S  S107  1  0.86907208  0.36907208  0.13092792  1
  S  S108  1  0.63092792  0.63092792  0.63092792  1
  S  S109  1  0.13092792  0.86907208  0.36907208  1
  S  S110  1  0.36907208  0.63092792  0.36907208  1
  S  S111  1  0.86907208  0.86907208  0.63092792  1
