# generated using pymatgen
data_Co3(PO4)2
_symmetry_space_group_name_H-M   'P 1'
_cell_length_a   6.01113349
_cell_length_b   4.80278400
_cell_length_c   10.37085324
_cell_angle_alpha   90.00000000
_cell_angle_beta   90.73295173
_cell_angle_gamma   90.00000000
_symmetry_Int_Tables_number   1
_chemical_formula_structural   Co3(PO4)2
_chemical_formula_sum   'Co6 P4 O16'
_cell_volume   299.38385763
_cell_formula_units_Z   2
loop_
 _symmetry_equiv_pos_site_id
 _symmetry_equiv_pos_as_xyz
  1  'x, y, z'
loop_
 _atom_site_type_symbol
 _atom_site_label
 _atom_site_symmetry_multiplicity
 _atom_site_fract_x
 _atom_site_fract_y
 _atom_site_fract_z
 _atom_site_occupancy
  Co  Co0  1  0.50000000  0.50000000  0.00000000  1
  Co  Co1  1  0.23663350  0.01669900  0.77555200  1
  Co  Co2  1  0.23663350  0.48330100  0.27555200  1
  Co  Co3  1  0.50000000  0.00000000  0.50000000  1
  Co  Co4  1  0.76336650  0.51669900  0.72444800  1
  Co  Co5  1  0.76336650  0.98330100  0.22444800  1
  P  P6  1  0.74278450  0.07430900  0.90304100  1
  P  P7  1  0.74278450  0.42569100  0.40304100  1
  P  P8  1  0.25721550  0.57430900  0.59695900  1
  P  P9  1  0.25721550  0.92569100  0.09695900  1
  O  O10  1  0.46739950  0.72854400  0.66035700  1
  O  O11  1  0.53260050  0.22854400  0.83964300  1
  O  O12  1  0.53260050  0.27145600  0.33964300  1
  O  O13  1  0.46739950  0.77145600  0.16035700  1
  O  O14  1  0.74626050  0.18576000  0.04346400  1
  O  O15  1  0.25373950  0.68576000  0.45653600  1
  O  O16  1  0.74626050  0.31424000  0.54346400  1
  O  O17  1  0.25373950  0.81424000  0.95653600  1
  O  O18  1  0.27416250  0.24645400  0.10362300  1
  O  O19  1  0.72583750  0.75354600  0.89637700  1
  O  O20  1  0.27416250  0.25354600  0.60362300  1
  O  O21  1  0.72583750  0.74645400  0.39637700  1
  O  O22  1  0.06270850  0.68735600  0.67905000  1
  O  O23  1  0.06270850  0.81264400  0.17905000  1
  O  O24  1  0.93729150  0.31264400  0.32095000  1
  O  O25  1  0.93729150  0.18735600  0.82095000  1
