# generated using pymatgen
data_Hg2BCl
_symmetry_space_group_name_H-M   'P 1'
_cell_length_a   7.13716600
_cell_length_b   7.13716600
_cell_length_c   7.13716600
_cell_angle_alpha   90.00000000
_cell_angle_beta   90.00000000
_cell_angle_gamma   90.00000000
_symmetry_Int_Tables_number   1
_chemical_formula_structural   Hg2BCl
_chemical_formula_sum   'Hg8 B4 Cl4'
_cell_volume   363.56108745
_cell_formula_units_Z   4
loop_
 _symmetry_equiv_pos_site_id
 _symmetry_equiv_pos_as_xyz
  1  'x, y, z'
loop_
 _atom_site_type_symbol
 _atom_site_label
 _atom_site_symmetry_multiplicity
 _atom_site_fract_x
 _atom_site_fract_y
 _atom_site_fract_z
 _atom_site_occupancy
  Hg  Hg0  1  0.00000000  0.00000000  0.00000000  1
  Hg  Hg1  1  0.25000000  0.25000000  0.25000000  1
  Hg  Hg2  1  0.00000000  0.50000000  0.50000000  1
  Hg  Hg3  1  0.25000000  0.75000000  0.75000000  1
  Hg  Hg4  1  0.50000000  0.00000000  0.50000000  1
  Hg  Hg5  1  0.75000000  0.25000000  0.75000000  1
  Hg  Hg6  1  0.50000000  0.50000000  0.00000000  1
  Hg  Hg7  1  0.75000000  0.75000000  0.25000000  1
  B  B8  1  0.50000000  0.00000000  0.00000000  1
  B  B9  1  0.50000000  0.50000000  0.50000000  1
  B  B10  1  0.00000000  0.00000000  0.50000000  1
  B  B11  1  0.00000000  0.50000000  0.00000000  1
  Cl  Cl12  1  0.25000000  0.25000000  0.75000000  1
  Cl  Cl13  1  0.25000000  0.75000000  0.25000000  1
  Cl  Cl14  1  0.75000000  0.25000000  0.25000000  1
  Cl  Cl15  1  0.75000000  0.75000000  0.75000000  1
