# generated using pymatgen
data_In9Ni13
_symmetry_space_group_name_H-M   'P 1'
_cell_length_a   10.52669000
_cell_length_b   8.45796600
_cell_length_c   9.08199035
_cell_angle_alpha   90.00000000
_cell_angle_beta   125.29287814
_cell_angle_gamma   90.00000000
_symmetry_Int_Tables_number   1
_chemical_formula_structural   In9Ni13
_chemical_formula_sum   'In18 Ni26'
_cell_volume   659.99463158
_cell_formula_units_Z   2
loop_
 _symmetry_equiv_pos_site_id
 _symmetry_equiv_pos_as_xyz
  1  'x, y, z'
loop_
 _atom_site_type_symbol
 _atom_site_label
 _atom_site_symmetry_multiplicity
 _atom_site_fract_x
 _atom_site_fract_y
 _atom_site_fract_z
 _atom_site_occupancy
  In  In0  1  0.04152400  0.78949800  0.80989100  1
  In  In1  1  0.17219300  0.00000000  0.61428100  1
  In  In2  1  0.28518000  0.00000000  0.33225000  1
  In  In3  1  0.54152400  0.71050200  0.80989100  1
  In  In4  1  0.21482000  0.50000000  0.66775000  1
  In  In5  1  0.00000000  0.50000000  0.00000000  1
  In  In6  1  0.45847600  0.71050200  0.19010900  1
  In  In7  1  0.95847600  0.78949800  0.19010900  1
  In  In8  1  0.32780700  0.50000000  0.38571900  1
  In  In9  1  0.54152400  0.28949800  0.80989100  1
  In  In10  1  0.67219300  0.50000000  0.61428100  1
  In  In11  1  0.78518000  0.50000000  0.33225000  1
  In  In12  1  0.04152400  0.21050200  0.80989100  1
  In  In13  1  0.71482000  0.00000000  0.66775000  1
  In  In14  1  0.50000000  0.00000000  0.00000000  1
  In  In15  1  0.95847600  0.21050200  0.19010900  1
  In  In16  1  0.45847600  0.28949800  0.19010900  1
  In  In17  1  0.82780700  0.00000000  0.38571900  1
  Ni  Ni18  1  0.30548850  0.75945450  0.84081800  1
  Ni  Ni19  1  0.25000000  0.75000000  0.50000000  1
  Ni  Ni20  1  0.04469600  0.50000000  0.32290400  1
  Ni  Ni21  1  0.30548850  0.24054550  0.84081800  1
  Ni  Ni22  1  0.45530400  0.00000000  0.67709600  1
  Ni  Ni23  1  0.00000000  0.73358600  0.50000000  1
  Ni  Ni24  1  0.75863700  0.50000000  0.02047900  1
  Ni  Ni25  1  0.19451150  0.25945450  0.15918200  1
  Ni  Ni26  1  0.74136300  0.00000000  0.97952100  1
  Ni  Ni27  1  0.19451150  0.74054550  0.15918200  1
  Ni  Ni28  1  0.50000000  0.76641400  0.50000000  1
  Ni  Ni29  1  0.00000000  0.00000000  0.00000000  1
  Ni  Ni30  1  0.25000000  0.25000000  0.50000000  1
  Ni  Ni31  1  0.80548850  0.25945450  0.84081800  1
  Ni  Ni32  1  0.75000000  0.25000000  0.50000000  1
  Ni  Ni33  1  0.54469600  0.00000000  0.32290400  1
  Ni  Ni34  1  0.80548850  0.74054550  0.84081800  1
  Ni  Ni35  1  0.95530400  0.50000000  0.67709600  1
  Ni  Ni36  1  0.50000000  0.23358600  0.50000000  1
  Ni  Ni37  1  0.25863700  0.00000000  0.02047900  1
  Ni  Ni38  1  0.69451150  0.75945450  0.15918200  1
  Ni  Ni39  1  0.24136300  0.50000000  0.97952100  1
  Ni  Ni40  1  0.69451150  0.24054550  0.15918200  1
  Ni  Ni41  1  0.00000000  0.26641400  0.50000000  1
  Ni  Ni42  1  0.50000000  0.50000000  0.00000000  1
  Ni  Ni43  1  0.75000000  0.75000000  0.50000000  1
