# generated using pymatgen
data_Tb4Ga6FeGe6
_symmetry_space_group_name_H-M   'P 1'
_cell_length_a   8.60337800
_cell_length_b   8.60337800
_cell_length_c   8.60337800
_cell_angle_alpha   90.00000000
_cell_angle_beta   90.00000000
_cell_angle_gamma   90.00000000
_symmetry_Int_Tables_number   1
_chemical_formula_structural   Tb4Ga6FeGe6
_chemical_formula_sum   'Tb8 Ga12 Fe2 Ge12'
_cell_volume   636.80580508
_cell_formula_units_Z   2
loop_
 _symmetry_equiv_pos_site_id
 _symmetry_equiv_pos_as_xyz
  1  'x, y, z'
loop_
 _atom_site_type_symbol
 _atom_site_label
 _atom_site_symmetry_multiplicity
 _atom_site_fract_x
 _atom_site_fract_y
 _atom_site_fract_z
 _atom_site_occupancy
  Tb  Tb0  1  0.25000000  0.25000000  0.75000000  1
  Tb  Tb1  1  0.25000000  0.25000000  0.25000000  1
  Tb  Tb2  1  0.25000000  0.75000000  0.25000000  1
  Tb  Tb3  1  0.75000000  0.25000000  0.25000000  1
  Tb  Tb4  1  0.75000000  0.75000000  0.25000000  1
  Tb  Tb5  1  0.75000000  0.75000000  0.75000000  1
  Tb  Tb6  1  0.75000000  0.25000000  0.75000000  1
  Tb  Tb7  1  0.25000000  0.75000000  0.75000000  1
  Ga  Ga8  1  0.00000000  0.25000000  0.50000000  1
  Ga  Ga9  1  0.25000000  0.00000000  0.50000000  1
  Ga  Ga10  1  0.00000000  0.50000000  0.25000000  1
  Ga  Ga11  1  0.50000000  0.00000000  0.25000000  1
  Ga  Ga12  1  0.50000000  0.25000000  0.00000000  1
  Ga  Ga13  1  0.25000000  0.50000000  0.00000000  1
  Ga  Ga14  1  0.50000000  0.75000000  0.00000000  1
  Ga  Ga15  1  0.75000000  0.50000000  0.00000000  1
  Ga  Ga16  1  0.50000000  0.00000000  0.75000000  1
  Ga  Ga17  1  0.00000000  0.50000000  0.75000000  1
  Ga  Ga18  1  0.00000000  0.75000000  0.50000000  1
  Ga  Ga19  1  0.75000000  0.00000000  0.50000000  1
  Fe  Fe20  1  0.00000000  0.00000000  0.00000000  1
  Fe  Fe21  1  0.50000000  0.50000000  0.50000000  1
  Ge  Ge22  1  0.00000000  0.00000000  0.28788800  1
  Ge  Ge23  1  0.28788800  0.00000000  0.00000000  1
  Ge  Ge24  1  0.71211200  0.00000000  0.00000000  1
  Ge  Ge25  1  0.00000000  0.00000000  0.71211200  1
  Ge  Ge26  1  0.00000000  0.28788800  0.00000000  1
  Ge  Ge27  1  0.00000000  0.71211200  0.00000000  1
  Ge  Ge28  1  0.50000000  0.50000000  0.78788800  1
  Ge  Ge29  1  0.78788800  0.50000000  0.50000000  1
  Ge  Ge30  1  0.21211200  0.50000000  0.50000000  1
  Ge  Ge31  1  0.50000000  0.50000000  0.21211200  1
  Ge  Ge32  1  0.50000000  0.78788800  0.50000000  1
  Ge  Ge33  1  0.50000000  0.21211200  0.50000000  1
