# generated using pymatgen
data_SrTa2Mn
_symmetry_space_group_name_H-M   'P 1'
_cell_length_a   6.68789000
_cell_length_b   6.68789000
_cell_length_c   6.68789000
_cell_angle_alpha   90.00000000
_cell_angle_beta   90.00000000
_cell_angle_gamma   90.00000000
_symmetry_Int_Tables_number   1
_chemical_formula_structural   SrTa2Mn
_chemical_formula_sum   'Sr4 Ta8 Mn4'
_cell_volume   299.13509223
_cell_formula_units_Z   4
loop_
 _symmetry_equiv_pos_site_id
 _symmetry_equiv_pos_as_xyz
  1  'x, y, z'
loop_
 _atom_site_type_symbol
 _atom_site_label
 _atom_site_symmetry_multiplicity
 _atom_site_fract_x
 _atom_site_fract_y
 _atom_site_fract_z
 _atom_site_occupancy
  Sr  Sr0  1  0.50000000  0.00000000  0.00000000  1
  Sr  Sr1  1  0.50000000  0.50000000  0.50000000  1
  Sr  Sr2  1  0.00000000  0.00000000  0.50000000  1
  Sr  Sr3  1  0.00000000  0.50000000  0.00000000  1
  Ta  Ta4  1  0.25000000  0.25000000  0.75000000  1
  Ta  Ta5  1  0.25000000  0.75000000  0.75000000  1
  Ta  Ta6  1  0.25000000  0.75000000  0.25000000  1
  Ta  Ta7  1  0.25000000  0.25000000  0.25000000  1
  Ta  Ta8  1  0.75000000  0.25000000  0.25000000  1
  Ta  Ta9  1  0.75000000  0.75000000  0.25000000  1
  Ta  Ta10  1  0.75000000  0.75000000  0.75000000  1
  Ta  Ta11  1  0.75000000  0.25000000  0.75000000  1
  Mn  Mn12  1  0.00000000  0.00000000  0.00000000  1
  Mn  Mn13  1  0.00000000  0.50000000  0.50000000  1
  Mn  Mn14  1  0.50000000  0.00000000  0.50000000  1
  Mn  Mn15  1  0.50000000  0.50000000  0.00000000  1
