# generated using pymatgen
data_Ca2(Fe2O3)11
_symmetry_space_group_name_H-M   'P 1'
_cell_length_a   6.00419986
_cell_length_b   6.00419986
_cell_length_c   62.98701917
_cell_angle_alpha   90.00000000
_cell_angle_beta   90.00000000
_cell_angle_gamma   120.00000000
_symmetry_Int_Tables_number   1
_chemical_formula_structural   Ca2(Fe2O3)11
_chemical_formula_sum   'Ca6 Fe66 O99'
_cell_volume   1966.49101810
_cell_formula_units_Z   3
loop_
 _symmetry_equiv_pos_site_id
 _symmetry_equiv_pos_as_xyz
  1  'x, y, z'
loop_
 _atom_site_type_symbol
 _atom_site_label
 _atom_site_symmetry_multiplicity
 _atom_site_fract_x
 _atom_site_fract_y
 _atom_site_fract_z
 _atom_site_occupancy
  Ca  Ca0  1  0.66666667  0.33333333  0.28468533  1
  Ca  Ca1  1  0.00000000  0.00000000  0.04864800  1
  Ca  Ca2  1  0.33333333  0.66666667  0.61801867  1
  Ca  Ca3  1  0.66666667  0.33333333  0.38198133  1
  Ca  Ca4  1  0.00000000  0.00000000  0.95135200  1
  Ca  Ca5  1  0.33333333  0.66666667  0.71531467  1
  Fe  Fe6  1  0.83366133  0.66666667  0.16666667  1
  Fe  Fe7  1  0.17724667  0.33703433  0.24643133  1
  Fe  Fe8  1  0.00000000  0.00000000  0.20586900  1
  Fe  Fe9  1  0.66666667  0.33333333  0.12746433  1
  Fe  Fe10  1  0.48942000  0.49312100  0.08690200  1
  Fe  Fe11  1  0.83300533  0.16633867  0.16666667  1
  Fe  Fe12  1  0.00000000  0.00000000  0.11727200  1
  Fe  Fe13  1  0.33333333  0.66666667  0.19680467  1
  Fe  Fe14  1  0.00370100  0.51058000  0.08690200  1
  Fe  Fe15  1  0.00000000  0.66532300  0.00000000  1
  Fe  Fe16  1  0.33333333  0.66666667  0.13652867  1
  Fe  Fe17  1  0.33333333  0.66666667  0.04692967  1
  Fe  Fe18  1  0.33467700  0.33467700  0.00000000  1
  Fe  Fe19  1  0.33333333  0.66666667  0.28640367  1
  Fe  Fe20  1  0.66666667  0.33333333  0.03694633  1
  Fe  Fe21  1  0.66296567  0.84021233  0.24643133  1
  Fe  Fe22  1  0.66532300  0.00000000  0.00000000  1
  Fe  Fe23  1  0.00000000  0.00000000  0.29638700  1
  Fe  Fe24  1  0.66666667  0.33333333  0.21606133  1
  Fe  Fe25  1  0.15978767  0.82275333  0.24643133  1
  Fe  Fe26  1  0.33333333  0.16699467  0.16666667  1
  Fe  Fe27  1  0.50687900  0.99629900  0.08690200  1
  Fe  Fe28  1  0.50032800  0.00000000  0.50000000  1
  Fe  Fe29  1  0.84391333  0.67036767  0.57976467  1
  Fe  Fe30  1  0.66666667  0.33333333  0.53920233  1
  Fe  Fe31  1  0.33333333  0.66666667  0.46079767  1
  Fe  Fe32  1  0.15608667  0.82645433  0.42023533  1
  Fe  Fe33  1  0.49967200  0.49967200  0.50000000  1
  Fe  Fe34  1  0.66666667  0.33333333  0.45060533  1
  Fe  Fe35  1  0.00000000  0.00000000  0.53013800  1
  Fe  Fe36  1  0.67036767  0.84391333  0.42023533  1
  Fe  Fe37  1  0.66666667  0.99865633  0.33333333  1
  Fe  Fe38  1  1.00000000  0.00000000  0.46986200  1
  Fe  Fe39  1  0.00000000  0.00000000  0.38026300  1
  Fe  Fe40  1  0.00134367  0.66801033  0.33333333  1
  Fe  Fe41  1  1.00000000  0.00000000  0.61973700  1
  Fe  Fe42  1  0.33333333  0.66666667  0.37027967  1
  Fe  Fe43  1  0.32963233  0.17354567  0.57976467  1
  Fe  Fe44  1  0.33198967  0.33333333  0.33333333  1
  Fe  Fe45  1  0.66666667  0.33333333  0.62972033  1
  Fe  Fe46  1  0.33333333  0.66666667  0.54939467  1
  Fe  Fe47  1  0.82645433  0.15608667  0.57976467  1
  Fe  Fe48  1  0.00000000  0.50032800  0.50000000  1
  Fe  Fe49  1  0.17354567  0.32963233  0.42023533  1
  Fe  Fe50  1  0.16699467  0.33333333  0.83333333  1
  Fe  Fe51  1  0.51058000  0.00370100  0.91309800  1
  Fe  Fe52  1  0.33333333  0.66666667  0.87253567  1
  Fe  Fe53  1  0.00000000  0.00000000  0.79413100  1
  Fe  Fe54  1  0.82275333  0.15978767  0.75356867  1
  Fe  Fe55  1  0.16633867  0.83300533  0.83333333  1
  Fe  Fe56  1  0.33333333  0.66666667  0.78393867  1
  Fe  Fe57  1  0.66666667  0.33333333  0.86347133  1
  Fe  Fe58  1  0.33703433  0.17724667  0.75356867  1
  Fe  Fe59  1  0.33333333  0.33198967  0.66666667  1
  Fe  Fe60  1  0.66666667  0.33333333  0.80319533  1
  Fe  Fe61  1  0.66666667  0.33333333  0.71359633  1
  Fe  Fe62  1  0.66801033  0.00134367  0.66666667  1
  Fe  Fe63  1  0.66666667  0.33333333  0.95307033  1
  Fe  Fe64  1  0.00000000  0.00000000  0.70361300  1
  Fe  Fe65  1  0.99629900  0.50687900  0.91309800  1
  Fe  Fe66  1  0.99865633  0.66666667  0.66666667  1
  Fe  Fe67  1  0.33333333  0.66666667  0.96305367  1
  Fe  Fe68  1  0.00000000  0.00000000  0.88272800  1
  Fe  Fe69  1  0.49312100  0.48942000  0.91309800  1
  Fe  Fe70  1  0.66666667  0.83366133  0.83333333  1
  Fe  Fe71  1  0.84021233  0.66296567  0.75356867  1
  O  O72  1  0.66666667  0.33333333  0.18681333  1
  O  O73  1  0.00000000  0.00000000  0.33012500  1
  O  O74  1  0.19745733  0.82924667  0.06937467  1
  O  O75  1  0.00000000  0.00000000  0.14652000  1
  O  O76  1  0.50813900  0.01695200  0.14580200  1
  O  O77  1  0.05332867  0.70791833  0.30124233  1
  O  O78  1  0.98304800  0.49118700  0.14580200  1
  O  O79  1  0.03487733  0.50408667  0.26395867  1
  O  O80  1  0.65458967  0.94667133  0.30124233  1
  O  O81  1  0.61333800  0.98792300  0.03209100  1
  O  O82  1  0.84373367  0.69012433  0.22695733  1
  O  O83  1  0.35679100  0.17706700  0.10637600  1
  O  O84  1  0.37458500  0.38666200  0.03209100  1
  O  O85  1  0.30987567  0.15360933  0.22695733  1
  O  O86  1  0.82027600  0.64320900  0.10637600  1
  O  O87  1  0.63178933  0.80254267  0.06937467  1
  O  O88  1  0.49591333  0.53079067  0.26395867  1
  O  O89  1  0.82293300  0.17972400  0.10637600  1
  O  O90  1  0.00000000  0.00000000  0.00000000  1
  O  O91  1  0.29208167  0.34541033  0.30124233  1
  O  O92  1  0.17075333  0.36821067  0.06937467  1
  O  O93  1  0.66666667  0.33333333  0.00320833  1
  O  O94  1  0.01207700  0.62541500  0.03209100  1
  O  O95  1  0.00000000  0.00000000  0.26380300  1
  O  O96  1  0.15852767  0.84214633  0.18753133  1
  O  O97  1  0.84639067  0.15626633  0.22695733  1
  O  O98  1  0.50881300  0.49186100  0.14580200  1
  O  O99  1  0.33333333  0.66666667  0.22747467  1
  O  O100  1  0.15785367  0.31638133  0.18753133  1
  O  O101  1  0.68361867  0.84147233  0.18753133  1
  O  O102  1  0.46920933  0.96512267  0.26395867  1
  O  O103  1  0.66666667  0.33333333  0.06953033  1
  O  O104  1  0.33333333  0.66666667  0.10585867  1
  O  O105  1  0.33333333  0.66666667  0.52014667  1
  O  O106  1  0.66666667  0.33333333  0.66345833  1
  O  O107  1  0.86412400  0.16258000  0.40270800  1
  O  O108  1  0.66666667  0.33333333  0.47985333  1
  O  O109  1  0.17480567  0.35028533  0.47913533  1
  O  O110  1  0.71999533  0.04125167  0.63457567  1
  O  O111  1  0.64971467  0.82452033  0.47913533  1
  O  O112  1  0.70154400  0.83742000  0.59729200  1
  O  O113  1  0.32125633  0.28000467  0.63457567  1
  O  O114  1  0.28000467  0.32125633  0.36542433  1
  O  O115  1  0.51040033  0.02345767  0.56029067  1
  O  O116  1  0.02345767  0.51040033  0.43970933  1
  O  O117  1  0.04125167  0.71999533  0.36542433  1
  O  O118  1  0.97654233  0.48694267  0.56029067  1
  O  O119  1  0.48694267  0.97654233  0.43970933  1
  O  O120  1  0.29845600  0.13587600  0.40270800  1
  O  O121  1  0.16258000  0.86412400  0.59729200  1
  O  O122  1  0.48959967  0.51305733  0.43970933  1
  O  O123  1  0.66666667  0.33333333  0.33333333  1
  O  O124  1  0.95874833  0.67874367  0.63457567  1
  O  O125  1  0.83742000  0.70154400  0.40270800  1
  O  O126  1  0.33333333  0.66666667  0.33654167  1
  O  O127  1  0.67874367  0.95874833  0.36542433  1
  O  O128  1  0.66666667  0.33333333  0.59713633  1
  O  O129  1  0.82519433  0.17547967  0.52086467  1
  O  O130  1  0.51305733  0.48959967  0.56029067  1
  O  O131  1  0.17547967  0.82519433  0.47913533  1
  O  O132  1  0.00000000  0.00000000  0.56080800  1
  O  O133  1  0.82452033  0.64971467  0.52086467  1
  O  O134  1  0.35028533  0.17480567  0.52086467  1
  O  O135  1  0.13587600  0.29845600  0.59729200  1
  O  O136  1  0.33333333  0.66666667  0.40286367  1
  O  O137  1  1.00000000  0.00000000  0.43919200  1
  O  O138  1  0.00000000  0.00000000  0.85348000  1
  O  O139  1  0.33333333  0.66666667  0.99679167  1
  O  O140  1  0.53079067  0.49591333  0.73604133  1
  O  O141  1  0.33333333  0.66666667  0.81318667  1
  O  O142  1  0.84147233  0.68361867  0.81246867  1
  O  O143  1  0.38666200  0.37458500  0.96790900  1
  O  O144  1  0.31638133  0.15785367  0.81246867  1
  O  O145  1  0.36821067  0.17075333  0.93062533  1
  O  O146  1  0.98792300  0.61333800  0.96790900  1
  O  O147  1  0.94667133  0.65458967  0.69875767  1
  O  O148  1  0.17706700  0.35679100  0.89362400  1
  O  O149  1  0.69012433  0.84373367  0.77304267  1
  O  O150  1  0.70791833  0.05332867  0.69875767  1
  O  O151  1  0.64320900  0.82027600  0.89362400  1
  O  O152  1  0.15360933  0.30987567  0.77304267  1
  O  O153  1  0.96512267  0.46920933  0.73604133  1
  O  O154  1  0.82924667  0.19745733  0.93062533  1
  O  O155  1  0.15626633  0.84639067  0.77304267  1
  O  O156  1  0.33333333  0.66666667  0.66666667  1
  O  O157  1  0.62541500  0.01207700  0.96790900  1
  O  O158  1  0.50408667  0.03487733  0.73604133  1
  O  O159  1  0.00000000  0.00000000  0.66987500  1
  O  O160  1  0.34541033  0.29208167  0.69875767  1
  O  O161  1  0.33333333  0.66666667  0.93046967  1
  O  O162  1  0.49186100  0.50881300  0.85419800  1
  O  O163  1  0.17972400  0.82293300  0.89362400  1
  O  O164  1  0.84214633  0.15852767  0.81246867  1
  O  O165  1  0.66666667  0.33333333  0.89414133  1
  O  O166  1  0.49118700  0.98304800  0.85419800  1
  O  O167  1  0.01695200  0.50813900  0.85419800  1
  O  O168  1  0.80254267  0.63178933  0.93062533  1
  O  O169  1  0.00000000  0.00000000  0.73619700  1
  O  O170  1  0.66666667  0.33333333  0.77252533  1
