# generated using pymatgen
data_Na3Cr11Se20
_symmetry_space_group_name_H-M   'P 1'
_cell_length_a   25.66019200
_cell_length_b   3.68102800
_cell_length_c   19.46777889
_cell_angle_alpha   90.00000000
_cell_angle_beta   125.99343999
_cell_angle_gamma   90.00000000
_symmetry_Int_Tables_number   1
_chemical_formula_structural   Na3Cr11Se20
_chemical_formula_sum   'Na6 Cr22 Se40'
_cell_volume   1487.78163811
_cell_formula_units_Z   2
loop_
 _symmetry_equiv_pos_site_id
 _symmetry_equiv_pos_as_xyz
  1  'x, y, z'
loop_
 _atom_site_type_symbol
 _atom_site_label
 _atom_site_symmetry_multiplicity
 _atom_site_fract_x
 _atom_site_fract_y
 _atom_site_fract_z
 _atom_site_occupancy
  Na  Na0  1  0.23527200  0.50000000  0.47506400  1
  Na  Na1  1  0.12695900  0.00000000  0.26500000  1
  Na  Na2  1  0.02801600  0.50000000  0.06054700  1
  Na  Na3  1  0.73527200  0.00000000  0.47506400  1
  Na  Na4  1  0.62695900  0.50000000  0.26500000  1
  Na  Na5  1  0.52801600  0.00000000  0.06054700  1
  Cr  Cr6  1  0.09428100  0.50000000  0.91227700  1
  Cr  Cr7  1  0.30695300  0.50000000  0.88946800  1
  Cr  Cr8  1  0.99296000  0.00000000  0.72484500  1
  Cr  Cr9  1  0.09926400  0.00000000  0.69836800  1
  Cr  Cr10  1  0.20900700  0.00000000  0.68126000  1
  Cr  Cr11  1  0.89540300  0.50000000  0.51199500  1
  Cr  Cr12  1  0.10506300  0.50000000  0.48631200  1
  Cr  Cr13  1  0.79349400  0.00000000  0.31830800  1
  Cr  Cr14  1  0.90832500  0.00000000  0.29976000  1
  Cr  Cr15  1  0.69436000  0.50000000  0.10813600  1
  Cr  Cr16  1  0.90508400  0.50000000  0.09151500  1
  Cr  Cr17  1  0.59428100  0.00000000  0.91227700  1
  Cr  Cr18  1  0.80695300  0.00000000  0.88946800  1
  Cr  Cr19  1  0.49296000  0.50000000  0.72484500  1
  Cr  Cr20  1  0.59926400  0.50000000  0.69836800  1
  Cr  Cr21  1  0.70900700  0.50000000  0.68126000  1
  Cr  Cr22  1  0.39540300  0.00000000  0.51199500  1
  Cr  Cr23  1  0.60506300  0.00000000  0.48631200  1
  Cr  Cr24  1  0.29349400  0.50000000  0.31830800  1
  Cr  Cr25  1  0.40832500  0.50000000  0.29976000  1
  Cr  Cr26  1  0.19436000  0.00000000  0.10813600  1
  Cr  Cr27  1  0.40508400  0.00000000  0.09151500  1
  Se  Se28  1  0.07738000  0.00000000  0.98682300  1
  Se  Se29  1  0.28887800  0.00000000  0.96112500  1
  Se  Se30  1  0.97549100  0.50000000  0.79210500  1
  Se  Se31  1  0.18495100  0.50000000  0.75871200  1
  Se  Se32  1  0.88114100  0.00000000  0.58921600  1
  Se  Se33  1  0.11411400  0.00000000  0.84080800  1
  Se  Se34  1  0.08637600  0.00000000  0.55888200  1
  Se  Se35  1  0.32020700  0.00000000  0.81040000  1
  Se  Se36  1  0.77672800  0.50000000  0.39132500  1
  Se  Se37  1  0.01447800  0.50000000  0.64224100  1
  Se  Se38  1  0.98520300  0.50000000  0.35103600  1
  Se  Se39  1  0.22286800  0.50000000  0.61107400  1
  Se  Se40  1  0.67755300  0.00000000  0.18739500  1
  Se  Se41  1  0.91223600  0.00000000  0.43683000  1
  Se  Se42  1  0.88101800  0.00000000  0.15510600  1
  Se  Se43  1  0.12411000  0.00000000  0.41680900  1
  Se  Se44  1  0.81508600  0.50000000  0.24257100  1
  Se  Se45  1  0.01605400  0.50000000  0.20795300  1
  Se  Se46  1  0.71377400  0.00000000  0.04046900  1
  Se  Se47  1  0.92017500  0.00000000  0.01308700  1
  Se  Se48  1  0.57738000  0.50000000  0.98682300  1
  Se  Se49  1  0.78887800  0.50000000  0.96112500  1
  Se  Se50  1  0.47549100  0.00000000  0.79210500  1
  Se  Se51  1  0.68495100  0.00000000  0.75871200  1
  Se  Se52  1  0.38114100  0.50000000  0.58921600  1
  Se  Se53  1  0.61411400  0.50000000  0.84080800  1
  Se  Se54  1  0.58637600  0.50000000  0.55888200  1
  Se  Se55  1  0.82020700  0.50000000  0.81040000  1
  Se  Se56  1  0.27672800  0.00000000  0.39132500  1
  Se  Se57  1  0.51447800  0.00000000  0.64224100  1
  Se  Se58  1  0.48520300  0.00000000  0.35103600  1
  Se  Se59  1  0.72286800  0.00000000  0.61107400  1
  Se  Se60  1  0.17755300  0.50000000  0.18739500  1
  Se  Se61  1  0.41223600  0.50000000  0.43683000  1
  Se  Se62  1  0.38101800  0.50000000  0.15510600  1
  Se  Se63  1  0.62411000  0.50000000  0.41680900  1
  Se  Se64  1  0.31508600  0.00000000  0.24257100  1
  Se  Se65  1  0.51605400  0.00000000  0.20795300  1
  Se  Se66  1  0.21377400  0.50000000  0.04046900  1
  Se  Se67  1  0.42017500  0.50000000  0.01308700  1
