# generated using pymatgen
data_FeSbO4
_symmetry_space_group_name_H-M   'P 1'
_cell_length_a   6.53024957
_cell_length_b   6.78385200
_cell_length_c   3.12282150
_cell_angle_alpha   90.00000000
_cell_angle_beta   90.00000000
_cell_angle_gamma   90.00000000
_symmetry_Int_Tables_number   1
_chemical_formula_structural   FeSbO4
_chemical_formula_sum   'Fe2 Sb2 O8'
_cell_volume   138.34176267
_cell_formula_units_Z   2
loop_
 _symmetry_equiv_pos_site_id
 _symmetry_equiv_pos_as_xyz
  1  'x, y, z'
loop_
 _atom_site_type_symbol
 _atom_site_label
 _atom_site_symmetry_multiplicity
 _atom_site_fract_x
 _atom_site_fract_y
 _atom_site_fract_z
 _atom_site_occupancy
  Fe  Fe0  1  0.00000000  0.50000000  0.00000000  1
  Fe  Fe1  1  0.50000000  0.00000000  0.00000000  1
  Sb  Sb2  1  0.00000000  0.00000000  0.50000000  1
  Sb  Sb3  1  0.50000000  0.50000000  0.50000000  1
  O  O4  1  0.19565800  0.50000000  0.50000000  1
  O  O5  1  0.80434200  0.50000000  0.50000000  1
  O  O6  1  0.00000000  0.19284525  0.00000000  1
  O  O7  1  0.00000000  0.80715475  0.00000000  1
  O  O8  1  0.69565800  0.00000000  0.50000000  1
  O  O9  1  0.30434200  0.00000000  0.50000000  1
  O  O10  1  0.50000000  0.69284525  0.00000000  1
  O  O11  1  0.50000000  0.30715475  0.00000000  1
