# generated using pymatgen
data_VCl2O
_symmetry_space_group_name_H-M   'P 1'
_cell_length_a   13.50565273
_cell_length_b   3.73468789
_cell_length_c   6.98782331
_cell_angle_alpha   90.00000000
_cell_angle_beta   105.02277671
_cell_angle_gamma   90.00000000
_symmetry_Int_Tables_number   1
_chemical_formula_structural   VCl2O
_chemical_formula_sum   'V4 Cl8 O4'
_cell_volume   340.41547055
_cell_formula_units_Z   4
loop_
 _symmetry_equiv_pos_site_id
 _symmetry_equiv_pos_as_xyz
  1  'x, y, z'
loop_
 _atom_site_type_symbol
 _atom_site_label
 _atom_site_symmetry_multiplicity
 _atom_site_fract_x
 _atom_site_fract_y
 _atom_site_fract_z
 _atom_site_occupancy
  V  V0  1  0.50000000  0.44226000  0.25000000  1
  V  V1  1  0.00000000  0.05774000  0.75000000  1
  V  V2  1  0.00000000  0.94226000  0.25000000  1
  V  V3  1  0.50000000  0.55774000  0.75000000  1
  Cl  Cl4  1  0.37316850  0.49972350  0.43679000  1
  Cl  Cl5  1  0.12683150  0.00027650  0.56321000  1
  Cl  Cl6  1  0.37316850  0.50027650  0.93679000  1
  Cl  Cl7  1  0.12683150  0.99972350  0.06321000  1
  Cl  Cl8  1  0.87316850  0.99972350  0.43679000  1
  Cl  Cl9  1  0.62683150  0.50027650  0.56321000  1
  Cl  Cl10  1  0.87316850  0.00027650  0.93679000  1
  Cl  Cl11  1  0.62683150  0.49972350  0.06321000  1
  O  O12  1  0.00000000  0.51032450  0.75000000  1
  O  O13  1  0.50000000  0.98967550  0.25000000  1
  O  O14  1  0.50000000  0.01032450  0.75000000  1
  O  O15  1  0.00000000  0.48967550  0.25000000  1
