# generated using pymatgen
data_Y(Zn10Ru)2
_symmetry_space_group_name_H-M   'P 1'
_cell_length_a   14.28216200
_cell_length_b   14.28216200
_cell_length_c   14.28216200
_cell_angle_alpha   90.00000000
_cell_angle_beta   90.00000000
_cell_angle_gamma   90.00000000
_symmetry_Int_Tables_number   1
_chemical_formula_structural   Y(Zn10Ru)2
_chemical_formula_sum   'Y8 Zn160 Ru16'
_cell_volume   2913.27756700
_cell_formula_units_Z   8
loop_
 _symmetry_equiv_pos_site_id
 _symmetry_equiv_pos_as_xyz
  1  'x, y, z'
loop_
 _atom_site_type_symbol
 _atom_site_label
 _atom_site_symmetry_multiplicity
 _atom_site_fract_x
 _atom_site_fract_y
 _atom_site_fract_z
 _atom_site_occupancy
  Y  Y0  1  0.50000000  0.00000000  0.50000000  1
  Y  Y1  1  0.25000000  0.25000000  0.25000000  1
  Y  Y2  1  0.50000000  0.50000000  0.00000000  1
  Y  Y3  1  0.25000000  0.75000000  0.75000000  1
  Y  Y4  1  0.00000000  0.00000000  0.00000000  1
  Y  Y5  1  0.75000000  0.25000000  0.75000000  1
  Y  Y6  1  0.00000000  0.50000000  0.50000000  1
  Y  Y7  1  0.75000000  0.75000000  0.25000000  1
  Zn  Zn8  1  0.56587000  0.06587000  0.29962500  1
  Zn  Zn9  1  0.70037500  0.06587000  0.43413000  1
  Zn  Zn10  1  0.31587000  0.45037500  0.31587000  1
  Zn  Zn11  1  0.18413000  0.45037500  0.18413000  1
  Zn  Zn12  1  0.43413000  0.93413000  0.29962500  1
  Zn  Zn13  1  0.18413000  0.18413000  0.45037500  1
  Zn  Zn14  1  0.62500000  0.87500000  0.37500000  1
  Zn  Zn15  1  0.11361600  0.75000000  0.25000000  1
  Zn  Zn16  1  0.37500000  0.12500000  0.37500000  1
  Zn  Zn17  1  0.56587000  0.20037500  0.43413000  1
  Zn  Zn18  1  0.04962500  0.31587000  0.18413000  1
  Zn  Zn19  1  0.25000000  0.61361600  0.25000000  1
  Zn  Zn20  1  0.20037500  0.93413000  0.06587000  1
  Zn  Zn21  1  0.31587000  0.18413000  0.04962500  1
  Zn  Zn22  1  0.25000000  0.75000000  0.38638400  1
  Zn  Zn23  1  0.86361600  0.00000000  0.50000000  1
  Zn  Zn24  1  0.93413000  0.06587000  0.20037500  1
  Zn  Zn25  1  0.29962500  0.93413000  0.43413000  1
  Zn  Zn26  1  0.06587000  0.93413000  0.20037500  1
  Zn  Zn27  1  0.25000000  0.88638400  0.25000000  1
  Zn  Zn28  1  0.93413000  0.20037500  0.06587000  1
  Zn  Zn29  1  0.43413000  0.79962500  0.43413000  1
  Zn  Zn30  1  0.45037500  0.31587000  0.31587000  1
  Zn  Zn31  1  0.00000000  0.00000000  0.36361600  1
  Zn  Zn32  1  0.87500000  0.87500000  0.12500000  1
  Zn  Zn33  1  0.25000000  0.75000000  0.11361600  1
  Zn  Zn34  1  0.13638400  0.00000000  0.50000000  1
  Zn  Zn35  1  0.31587000  0.31587000  0.45037500  1
  Zn  Zn36  1  0.18413000  0.31587000  0.04962500  1
  Zn  Zn37  1  0.50000000  0.00000000  0.13638400  1
  Zn  Zn38  1  0.12500000  0.12500000  0.12500000  1
  Zn  Zn39  1  0.04962500  0.18413000  0.31587000  1
  Zn  Zn40  1  0.18413000  0.04962500  0.31587000  1
  Zn  Zn41  1  0.38638400  0.75000000  0.25000000  1
  Zn  Zn42  1  0.50000000  0.36361600  0.50000000  1
  Zn  Zn43  1  0.79962500  0.06587000  0.06587000  1
  Zn  Zn44  1  0.50000000  0.63638400  0.50000000  1
  Zn  Zn45  1  0.31587000  0.04962500  0.18413000  1
  Zn  Zn46  1  0.06587000  0.79962500  0.06587000  1
  Zn  Zn47  1  0.45037500  0.18413000  0.18413000  1
  Zn  Zn48  1  0.56587000  0.56587000  0.79962500  1
  Zn  Zn49  1  0.70037500  0.56587000  0.93413000  1
  Zn  Zn50  1  0.31587000  0.95037500  0.81587000  1
  Zn  Zn51  1  0.18413000  0.95037500  0.68413000  1
  Zn  Zn52  1  0.43413000  0.43413000  0.79962500  1
  Zn  Zn53  1  0.18413000  0.68413000  0.95037500  1
  Zn  Zn54  1  0.62500000  0.37500000  0.87500000  1
  Zn  Zn55  1  0.11361600  0.25000000  0.75000000  1
  Zn  Zn56  1  0.37500000  0.62500000  0.87500000  1
  Zn  Zn57  1  0.56587000  0.70037500  0.93413000  1
  Zn  Zn58  1  0.04962500  0.81587000  0.68413000  1
  Zn  Zn59  1  0.25000000  0.11361600  0.75000000  1
  Zn  Zn60  1  0.20037500  0.43413000  0.56587000  1
  Zn  Zn61  1  0.31587000  0.68413000  0.54962500  1
  Zn  Zn62  1  0.25000000  0.25000000  0.88638400  1
  Zn  Zn63  1  0.86361600  0.50000000  0.00000000  1
  Zn  Zn64  1  0.93413000  0.56587000  0.70037500  1
  Zn  Zn65  1  0.29962500  0.43413000  0.93413000  1
  Zn  Zn66  1  0.06587000  0.43413000  0.70037500  1
  Zn  Zn67  1  0.25000000  0.38638400  0.75000000  1
  Zn  Zn68  1  0.93413000  0.70037500  0.56587000  1
  Zn  Zn69  1  0.43413000  0.29962500  0.93413000  1
  Zn  Zn70  1  0.45037500  0.81587000  0.81587000  1
  Zn  Zn71  1  0.00000000  0.50000000  0.86361600  1
  Zn  Zn72  1  0.87500000  0.37500000  0.62500000  1
  Zn  Zn73  1  0.25000000  0.25000000  0.61361600  1
  Zn  Zn74  1  0.13638400  0.50000000  0.00000000  1
  Zn  Zn75  1  0.31587000  0.81587000  0.95037500  1
  Zn  Zn76  1  0.18413000  0.81587000  0.54962500  1
  Zn  Zn77  1  0.50000000  0.50000000  0.63638400  1
  Zn  Zn78  1  0.12500000  0.62500000  0.62500000  1
  Zn  Zn79  1  0.04962500  0.68413000  0.81587000  1
  Zn  Zn80  1  0.18413000  0.54962500  0.81587000  1
  Zn  Zn81  1  0.38638400  0.25000000  0.75000000  1
  Zn  Zn82  1  0.50000000  0.86361600  0.00000000  1
  Zn  Zn83  1  0.79962500  0.56587000  0.56587000  1
  Zn  Zn84  1  0.50000000  0.13638400  0.00000000  1
  Zn  Zn85  1  0.31587000  0.54962500  0.68413000  1
  Zn  Zn86  1  0.06587000  0.29962500  0.56587000  1
  Zn  Zn87  1  0.45037500  0.68413000  0.68413000  1
  Zn  Zn88  1  0.06587000  0.06587000  0.79962500  1
  Zn  Zn89  1  0.20037500  0.06587000  0.93413000  1
  Zn  Zn90  1  0.81587000  0.45037500  0.81587000  1
  Zn  Zn91  1  0.68413000  0.45037500  0.68413000  1
  Zn  Zn92  1  0.93413000  0.93413000  0.79962500  1
  Zn  Zn93  1  0.68413000  0.18413000  0.95037500  1
  Zn  Zn94  1  0.12500000  0.87500000  0.87500000  1
  Zn  Zn95  1  0.61361600  0.75000000  0.75000000  1
  Zn  Zn96  1  0.87500000  0.12500000  0.87500000  1
  Zn  Zn97  1  0.06587000  0.20037500  0.93413000  1
  Zn  Zn98  1  0.54962500  0.31587000  0.68413000  1
  Zn  Zn99  1  0.75000000  0.61361600  0.75000000  1
  Zn  Zn100  1  0.70037500  0.93413000  0.56587000  1
  Zn  Zn101  1  0.81587000  0.18413000  0.54962500  1
  Zn  Zn102  1  0.75000000  0.75000000  0.88638400  1
  Zn  Zn103  1  0.36361600  0.00000000  0.00000000  1
  Zn  Zn104  1  0.43413000  0.06587000  0.70037500  1
  Zn  Zn105  1  0.79962500  0.93413000  0.93413000  1
  Zn  Zn106  1  0.56587000  0.93413000  0.70037500  1
  Zn  Zn107  1  0.75000000  0.88638400  0.75000000  1
  Zn  Zn108  1  0.43413000  0.20037500  0.56587000  1
  Zn  Zn109  1  0.93413000  0.79962500  0.93413000  1
  Zn  Zn110  1  0.95037500  0.31587000  0.81587000  1
  Zn  Zn111  1  0.50000000  0.00000000  0.86361600  1
  Zn  Zn112  1  0.37500000  0.87500000  0.62500000  1
  Zn  Zn113  1  0.75000000  0.75000000  0.61361600  1
  Zn  Zn114  1  0.63638400  0.00000000  0.00000000  1
  Zn  Zn115  1  0.81587000  0.31587000  0.95037500  1
  Zn  Zn116  1  0.68413000  0.31587000  0.54962500  1
  Zn  Zn117  1  0.00000000  0.00000000  0.63638400  1
  Zn  Zn118  1  0.62500000  0.12500000  0.62500000  1
  Zn  Zn119  1  0.54962500  0.18413000  0.81587000  1
  Zn  Zn120  1  0.68413000  0.04962500  0.81587000  1
  Zn  Zn121  1  0.88638400  0.75000000  0.75000000  1
  Zn  Zn122  1  0.00000000  0.36361600  0.00000000  1
  Zn  Zn123  1  0.29962500  0.06587000  0.56587000  1
  Zn  Zn124  1  0.00000000  0.63638400  0.00000000  1
  Zn  Zn125  1  0.81587000  0.04962500  0.68413000  1
  Zn  Zn126  1  0.56587000  0.79962500  0.56587000  1
  Zn  Zn127  1  0.95037500  0.18413000  0.68413000  1
  Zn  Zn128  1  0.06587000  0.56587000  0.29962500  1
  Zn  Zn129  1  0.20037500  0.56587000  0.43413000  1
  Zn  Zn130  1  0.81587000  0.95037500  0.31587000  1
  Zn  Zn131  1  0.68413000  0.95037500  0.18413000  1
  Zn  Zn132  1  0.93413000  0.43413000  0.29962500  1
  Zn  Zn133  1  0.68413000  0.68413000  0.45037500  1
  Zn  Zn134  1  0.12500000  0.37500000  0.37500000  1
  Zn  Zn135  1  0.61361600  0.25000000  0.25000000  1
  Zn  Zn136  1  0.87500000  0.62500000  0.37500000  1
  Zn  Zn137  1  0.06587000  0.70037500  0.43413000  1
  Zn  Zn138  1  0.54962500  0.81587000  0.18413000  1
  Zn  Zn139  1  0.75000000  0.11361600  0.25000000  1
  Zn  Zn140  1  0.70037500  0.43413000  0.06587000  1
  Zn  Zn141  1  0.81587000  0.68413000  0.04962500  1
  Zn  Zn142  1  0.75000000  0.25000000  0.38638400  1
  Zn  Zn143  1  0.36361600  0.50000000  0.50000000  1
  Zn  Zn144  1  0.43413000  0.56587000  0.20037500  1
  Zn  Zn145  1  0.79962500  0.43413000  0.43413000  1
  Zn  Zn146  1  0.56587000  0.43413000  0.20037500  1
  Zn  Zn147  1  0.75000000  0.38638400  0.25000000  1
  Zn  Zn148  1  0.43413000  0.70037500  0.06587000  1
  Zn  Zn149  1  0.93413000  0.29962500  0.43413000  1
  Zn  Zn150  1  0.95037500  0.81587000  0.31587000  1
  Zn  Zn151  1  0.50000000  0.50000000  0.36361600  1
  Zn  Zn152  1  0.37500000  0.37500000  0.12500000  1
  Zn  Zn153  1  0.75000000  0.25000000  0.11361600  1
  Zn  Zn154  1  0.63638400  0.50000000  0.50000000  1
  Zn  Zn155  1  0.81587000  0.81587000  0.45037500  1
  Zn  Zn156  1  0.68413000  0.81587000  0.04962500  1
  Zn  Zn157  1  0.00000000  0.50000000  0.13638400  1
  Zn  Zn158  1  0.62500000  0.62500000  0.12500000  1
  Zn  Zn159  1  0.54962500  0.68413000  0.31587000  1
  Zn  Zn160  1  0.68413000  0.54962500  0.31587000  1
  Zn  Zn161  1  0.88638400  0.25000000  0.25000000  1
  Zn  Zn162  1  0.00000000  0.86361600  0.50000000  1
  Zn  Zn163  1  0.29962500  0.56587000  0.06587000  1
  Zn  Zn164  1  0.00000000  0.13638400  0.50000000  1
  Zn  Zn165  1  0.81587000  0.54962500  0.18413000  1
  Zn  Zn166  1  0.56587000  0.29962500  0.06587000  1
  Zn  Zn167  1  0.95037500  0.68413000  0.18413000  1
  Ru  Ru168  1  0.37500000  0.62500000  0.37500000  1
  Ru  Ru169  1  0.37500000  0.87500000  0.12500000  1
  Ru  Ru170  1  0.12500000  0.62500000  0.12500000  1
  Ru  Ru171  1  0.12500000  0.87500000  0.37500000  1
  Ru  Ru172  1  0.37500000  0.12500000  0.87500000  1
  Ru  Ru173  1  0.37500000  0.37500000  0.62500000  1
  Ru  Ru174  1  0.12500000  0.12500000  0.62500000  1
  Ru  Ru175  1  0.12500000  0.37500000  0.87500000  1
  Ru  Ru176  1  0.87500000  0.62500000  0.87500000  1
  Ru  Ru177  1  0.87500000  0.87500000  0.62500000  1
  Ru  Ru178  1  0.62500000  0.62500000  0.62500000  1
  Ru  Ru179  1  0.62500000  0.87500000  0.87500000  1
  Ru  Ru180  1  0.87500000  0.12500000  0.37500000  1
  Ru  Ru181  1  0.87500000  0.37500000  0.12500000  1
  Ru  Ru182  1  0.62500000  0.12500000  0.12500000  1
  Ru  Ru183  1  0.62500000  0.37500000  0.37500000  1
