# generated using pymatgen
data_Cs2V5O13
_symmetry_space_group_name_H-M   'P 1'
_cell_length_a   7.87943200
_cell_length_b   7.87943200
_cell_length_c   12.25327000
_cell_angle_alpha   90.00000000
_cell_angle_beta   90.00000000
_cell_angle_gamma   90.00000000
_symmetry_Int_Tables_number   1
_chemical_formula_structural   Cs2V5O13
_chemical_formula_sum   'Cs4 V10 O26'
_cell_volume   760.74976529
_cell_formula_units_Z   2
loop_
 _symmetry_equiv_pos_site_id
 _symmetry_equiv_pos_as_xyz
  1  'x, y, z'
loop_
 _atom_site_type_symbol
 _atom_site_label
 _atom_site_symmetry_multiplicity
 _atom_site_fract_x
 _atom_site_fract_y
 _atom_site_fract_z
 _atom_site_occupancy
  Cs  Cs0  1  0.00000000  0.50000000  0.25515000  1
  Cs  Cs1  1  0.50000000  0.00000000  0.25515000  1
  Cs  Cs2  1  0.50000000  0.00000000  0.75515000  1
  Cs  Cs3  1  0.00000000  0.50000000  0.75515000  1
  V  V4  1  0.72534250  0.72534250  0.49951650  1
  V  V5  1  0.27465750  0.72534250  0.49951650  1
  V  V6  1  0.50000000  0.50000000  0.14609600  1
  V  V7  1  0.27465750  0.27465750  0.49951650  1
  V  V8  1  0.72534250  0.27465750  0.49951650  1
  V  V9  1  0.22534250  0.22534250  0.99951650  1
  V  V10  1  0.77465750  0.22534250  0.99951650  1
  V  V11  1  0.00000000  0.00000000  0.64609600  1
  V  V12  1  0.77465750  0.77465750  0.99951650  1
  V  V13  1  0.22534250  0.77465750  0.99951650  1
  O  O14  1  0.00000000  0.26962850  0.01173950  1
  O  O15  1  0.00000000  0.73037150  0.01173950  1
  O  O16  1  0.26962850  0.00000000  0.01173950  1
  O  O17  1  0.20460850  0.79539150  0.38170450  1
  O  O18  1  0.67183600  0.67183600  0.10548200  1
  O  O19  1  0.67183600  0.32816400  0.10548200  1
  O  O20  1  0.79539150  0.20460850  0.38170450  1
  O  O21  1  0.20460850  0.20460850  0.38170450  1
  O  O22  1  0.32816400  0.67183600  0.10548200  1
  O  O23  1  0.32816400  0.32816400  0.10548200  1
  O  O24  1  0.79539150  0.79539150  0.38170450  1
  O  O25  1  0.73037150  0.00000000  0.01173950  1
  O  O26  1  0.50000000  0.50000000  0.28003800  1
  O  O27  1  0.50000000  0.76962850  0.51173950  1
  O  O28  1  0.50000000  0.23037150  0.51173950  1
  O  O29  1  0.76962850  0.50000000  0.51173950  1
  O  O30  1  0.70460850  0.29539150  0.88170450  1
  O  O31  1  0.17183600  0.17183600  0.60548200  1
  O  O32  1  0.17183600  0.82816400  0.60548200  1
  O  O33  1  0.29539150  0.70460850  0.88170450  1
  O  O34  1  0.70460850  0.70460850  0.88170450  1
  O  O35  1  0.82816400  0.17183600  0.60548200  1
  O  O36  1  0.82816400  0.82816400  0.60548200  1
  O  O37  1  0.29539150  0.29539150  0.88170450  1
  O  O38  1  0.23037150  0.50000000  0.51173950  1
  O  O39  1  0.00000000  0.00000000  0.78003800  1
