# generated using pymatgen
data_V4NiS8
_symmetry_space_group_name_H-M   'P 1'
_cell_length_a   11.12559200
_cell_length_b   6.61914000
_cell_length_c   7.86673383
_cell_angle_alpha   90.00000000
_cell_angle_beta   133.97371631
_cell_angle_gamma   90.00000000
_symmetry_Int_Tables_number   1
_chemical_formula_structural   V4NiS8
_chemical_formula_sum   'V8 Ni2 S16'
_cell_volume   416.91310339
_cell_formula_units_Z   2
loop_
 _symmetry_equiv_pos_site_id
 _symmetry_equiv_pos_as_xyz
  1  'x, y, z'
loop_
 _atom_site_type_symbol
 _atom_site_label
 _atom_site_symmetry_multiplicity
 _atom_site_fract_x
 _atom_site_fract_y
 _atom_site_fract_z
 _atom_site_occupancy
  V  V0  1  0.00000000  0.71387300  0.00000000  1
  V  V1  1  0.00000000  0.28612700  0.00000000  1
  V  V2  1  0.23109500  0.50000000  0.47198000  1
  V  V3  1  0.26890500  0.00000000  0.52802000  1
  V  V4  1  0.50000000  0.21387300  0.00000000  1
  V  V5  1  0.50000000  0.78612700  0.00000000  1
  V  V6  1  0.73109500  0.00000000  0.47198000  1
  V  V7  1  0.76890500  0.50000000  0.52802000  1
  Ni  Ni8  1  0.00000000  0.00000000  0.50000000  1
  Ni  Ni9  1  0.50000000  0.50000000  0.50000000  1
  S  S10  1  0.47178200  0.50000000  0.17095600  1
  S  S11  1  0.02821800  0.00000000  0.82904400  1
  S  S12  1  0.94353200  0.50000000  0.16667100  1
  S  S13  1  0.55646800  0.00000000  0.83332900  1
  S  S14  1  0.70910100  0.75008100  0.67296600  1
  S  S15  1  0.29089900  0.75008100  0.32703400  1
  S  S16  1  0.20910100  0.74991900  0.67296600  1
  S  S17  1  0.79089900  0.74991900  0.32703400  1
  S  S18  1  0.97178200  0.00000000  0.17095600  1
  S  S19  1  0.52821800  0.50000000  0.82904400  1
  S  S20  1  0.44353200  0.00000000  0.16667100  1
  S  S21  1  0.05646800  0.50000000  0.83332900  1
  S  S22  1  0.20910100  0.25008100  0.67296600  1
  S  S23  1  0.79089900  0.25008100  0.32703400  1
  S  S24  1  0.70910100  0.24991900  0.67296600  1
  S  S25  1  0.29089900  0.24991900  0.32703400  1
