# generated using pymatgen
data_UTe2
_symmetry_space_group_name_H-M   'P 1'
_cell_length_a   4.22084400
_cell_length_b   6.19078600
_cell_length_c   13.82358200
_cell_angle_alpha   90.00000000
_cell_angle_beta   90.00000000
_cell_angle_gamma   90.00000000
_symmetry_Int_Tables_number   1
_chemical_formula_structural   UTe2
_chemical_formula_sum   'U4 Te8'
_cell_volume   361.21492454
_cell_formula_units_Z   4
loop_
 _symmetry_equiv_pos_site_id
 _symmetry_equiv_pos_as_xyz
  1  'x, y, z'
loop_
 _atom_site_type_symbol
 _atom_site_label
 _atom_site_symmetry_multiplicity
 _atom_site_fract_x
 _atom_site_fract_y
 _atom_site_fract_z
 _atom_site_occupancy
  U  U0  1  0.50000000  0.50000000  0.63321300  1
  U  U1  1  0.00000000  0.00000000  0.86678700  1
  U  U2  1  0.00000000  0.00000000  0.13321300  1
  U  U3  1  0.50000000  0.50000000  0.36678700  1
  Te  Te4  1  0.50000000  0.74979500  0.00000000  1
  Te  Te5  1  0.50000000  0.25020500  0.00000000  1
  Te  Te6  1  0.50000000  0.00000000  0.70333900  1
  Te  Te7  1  0.00000000  0.50000000  0.79666100  1
  Te  Te8  1  0.00000000  0.24979500  0.50000000  1
  Te  Te9  1  0.00000000  0.75020500  0.50000000  1
  Te  Te10  1  0.00000000  0.50000000  0.20333900  1
  Te  Te11  1  0.50000000  0.00000000  0.29666100  1
