# generated using pymatgen
data_SrIn
_symmetry_space_group_name_H-M   'P 1'
_cell_length_a   8.50858000
_cell_length_b   10.28163233
_cell_length_c   26.37596400
_cell_angle_alpha   90.00000000
_cell_angle_beta   90.00000000
_cell_angle_gamma   90.00000000
_symmetry_Int_Tables_number   1
_chemical_formula_structural   SrIn
_chemical_formula_sum   'Sr32 In32'
_cell_volume   2307.42448758
_cell_formula_units_Z   32
loop_
 _symmetry_equiv_pos_site_id
 _symmetry_equiv_pos_as_xyz
  1  'x, y, z'
loop_
 _atom_site_type_symbol
 _atom_site_label
 _atom_site_symmetry_multiplicity
 _atom_site_fract_x
 _atom_site_fract_y
 _atom_site_fract_z
 _atom_site_occupancy
  Sr  Sr0  1  0.75364450  0.10247950  0.92982500  1
  Sr  Sr1  1  0.98546750  0.60384450  0.17231900  1
  Sr  Sr2  1  0.75364450  0.89752050  0.07017500  1
  Sr  Sr3  1  0.73546750  0.35384450  0.07768100  1
  Sr  Sr4  1  0.00364450  0.35247950  0.32017500  1
  Sr  Sr5  1  0.98546750  0.89615550  0.32768100  1
  Sr  Sr6  1  0.73546750  0.64615550  0.92231900  1
  Sr  Sr7  1  0.00364450  0.14752050  0.17982500  1
  Sr  Sr8  1  0.25364450  0.10247950  0.42982500  1
  Sr  Sr9  1  0.48546750  0.60384450  0.67231900  1
  Sr  Sr10  1  0.25364450  0.89752050  0.57017500  1
  Sr  Sr11  1  0.23546750  0.35384450  0.57768100  1
  Sr  Sr12  1  0.50364450  0.35247950  0.82017500  1
  Sr  Sr13  1  0.48546750  0.89615550  0.82768100  1
  Sr  Sr14  1  0.23546750  0.64615550  0.42231900  1
  Sr  Sr15  1  0.50364450  0.14752050  0.67982500  1
  Sr  Sr16  1  0.25364450  0.60247950  0.92982500  1
  Sr  Sr17  1  0.48546750  0.10384450  0.17231900  1
  Sr  Sr18  1  0.25364450  0.39752050  0.07017500  1
  Sr  Sr19  1  0.23546750  0.85384450  0.07768100  1
  Sr  Sr20  1  0.50364450  0.85247950  0.32017500  1
  Sr  Sr21  1  0.48546750  0.39615550  0.32768100  1
  Sr  Sr22  1  0.23546750  0.14615550  0.92231900  1
  Sr  Sr23  1  0.50364450  0.64752050  0.17982500  1
  Sr  Sr24  1  0.75364450  0.60247950  0.42982500  1
  Sr  Sr25  1  0.98546750  0.10384450  0.67231900  1
  Sr  Sr26  1  0.75364450  0.39752050  0.57017500  1
  Sr  Sr27  1  0.73546750  0.85384450  0.57768100  1
  Sr  Sr28  1  0.00364450  0.85247950  0.82017500  1
  Sr  Sr29  1  0.98546750  0.39615550  0.82768100  1
  Sr  Sr30  1  0.73546750  0.14615550  0.42231900  1
  Sr  Sr31  1  0.00364450  0.64752050  0.67982500  1
  In  In32  1  0.03884700  0.13061800  0.03614600  1
  In  In33  1  0.69968450  0.12822800  0.28388750  1
  In  In34  1  0.69968450  0.37177200  0.21611250  1
  In  In35  1  0.53884700  0.36938200  0.96385400  1
  In  In36  1  0.28884700  0.38061800  0.21385400  1
  In  In37  1  0.28884700  0.11938200  0.28614600  1
  In  In38  1  0.94968450  0.37822800  0.96611250  1
  In  In39  1  0.44968450  0.12177200  0.03388750  1
  In  In40  1  0.53884700  0.13061800  0.53614600  1
  In  In41  1  0.19968450  0.12822800  0.78388750  1
  In  In42  1  0.19968450  0.37177200  0.71611250  1
  In  In43  1  0.03884700  0.36938200  0.46385400  1
  In  In44  1  0.78884700  0.38061800  0.71385400  1
  In  In45  1  0.78884700  0.11938200  0.78614600  1
  In  In46  1  0.44968450  0.37822800  0.46611250  1
  In  In47  1  0.94968450  0.12177200  0.53388750  1
  In  In48  1  0.53884700  0.63061800  0.03614600  1
  In  In49  1  0.19968450  0.62822800  0.28388750  1
  In  In50  1  0.19968450  0.87177200  0.21611250  1
  In  In51  1  0.03884700  0.86938200  0.96385400  1
  In  In52  1  0.78884700  0.88061800  0.21385400  1
  In  In53  1  0.78884700  0.61938200  0.28614600  1
  In  In54  1  0.44968450  0.87822800  0.96611250  1
  In  In55  1  0.94968450  0.62177200  0.03388750  1
  In  In56  1  0.03884700  0.63061800  0.53614600  1
  In  In57  1  0.69968450  0.62822800  0.78388750  1
  In  In58  1  0.69968450  0.87177200  0.71611250  1
  In  In59  1  0.53884700  0.86938200  0.46385400  1
  In  In60  1  0.28884700  0.88061800  0.71385400  1
  In  In61  1  0.28884700  0.61938200  0.78614600  1
  In  In62  1  0.94968450  0.87822800  0.46611250  1
  In  In63  1  0.44968450  0.62177200  0.53388750  1
