# generated using pymatgen
data_Y2Ge5Ru3
_symmetry_space_group_name_H-M   'P 1'
_cell_length_a   5.79591600
_cell_length_b   9.89716400
_cell_length_c   12.53565800
_cell_angle_alpha   90.00000000
_cell_angle_beta   90.00000000
_cell_angle_gamma   90.00000000
_symmetry_Int_Tables_number   1
_chemical_formula_structural   Y2Ge5Ru3
_chemical_formula_sum   'Y8 Ge20 Ru12'
_cell_volume   719.08459431
_cell_formula_units_Z   4
loop_
 _symmetry_equiv_pos_site_id
 _symmetry_equiv_pos_as_xyz
  1  'x, y, z'
loop_
 _atom_site_type_symbol
 _atom_site_label
 _atom_site_symmetry_multiplicity
 _atom_site_fract_x
 _atom_site_fract_y
 _atom_site_fract_z
 _atom_site_occupancy
  Y  Y0  1  0.00000000  0.26876600  0.36115600  1
  Y  Y1  1  0.50000000  0.26876600  0.63884400  1
  Y  Y2  1  0.00000000  0.73123400  0.63884400  1
  Y  Y3  1  0.50000000  0.73123400  0.36115600  1
  Y  Y4  1  0.50000000  0.76876600  0.86115600  1
  Y  Y5  1  0.00000000  0.76876600  0.13884400  1
  Y  Y6  1  0.50000000  0.23123400  0.13884400  1
  Y  Y7  1  0.00000000  0.23123400  0.86115600  1
  Ge  Ge8  1  0.25000000  0.00000000  0.70719850  1
  Ge  Ge9  1  0.50000000  0.17611850  0.41249850  1
  Ge  Ge10  1  0.00000000  0.17611850  0.58750150  1
  Ge  Ge11  1  0.75000000  0.50000000  0.50000000  1
  Ge  Ge12  1  0.75000000  0.00000000  0.70719850  1
  Ge  Ge13  1  0.25000000  0.50000000  0.50000000  1
  Ge  Ge14  1  0.50000000  0.82388150  0.58750150  1
  Ge  Ge15  1  0.25000000  0.00000000  0.29280150  1
  Ge  Ge16  1  0.00000000  0.82388150  0.41249850  1
  Ge  Ge17  1  0.75000000  0.00000000  0.29280150  1
  Ge  Ge18  1  0.75000000  0.50000000  0.20719850  1
  Ge  Ge19  1  0.00000000  0.67611850  0.91249850  1
  Ge  Ge20  1  0.50000000  0.67611850  0.08750150  1
  Ge  Ge21  1  0.25000000  0.00000000  0.00000000  1
  Ge  Ge22  1  0.25000000  0.50000000  0.20719850  1
  Ge  Ge23  1  0.75000000  0.00000000  0.00000000  1
  Ge  Ge24  1  0.00000000  0.32388150  0.08750150  1
  Ge  Ge25  1  0.75000000  0.50000000  0.79280150  1
  Ge  Ge26  1  0.50000000  0.32388150  0.91249850  1
  Ge  Ge27  1  0.25000000  0.50000000  0.79280150  1
  Ru  Ru28  1  0.00000000  0.09143250  0.14755850  1
  Ru  Ru29  1  0.50000000  0.09143250  0.85244150  1
  Ru  Ru30  1  0.50000000  0.90856750  0.14755850  1
  Ru  Ru31  1  0.00000000  0.90856750  0.85244150  1
  Ru  Ru32  1  0.75000000  0.00000000  0.50000000  1
  Ru  Ru33  1  0.25000000  0.00000000  0.50000000  1
  Ru  Ru34  1  0.50000000  0.59143250  0.64755850  1
  Ru  Ru35  1  0.00000000  0.59143250  0.35244150  1
  Ru  Ru36  1  0.00000000  0.40856750  0.64755850  1
  Ru  Ru37  1  0.50000000  0.40856750  0.35244150  1
  Ru  Ru38  1  0.25000000  0.50000000  0.00000000  1
  Ru  Ru39  1  0.75000000  0.50000000  0.00000000  1
