# generated using pymatgen
data_CrWO4
_symmetry_space_group_name_H-M   'P 1'
_cell_length_a   6.27912600
_cell_length_b   13.01866200
_cell_length_c   13.32145400
_cell_angle_alpha   90.00000000
_cell_angle_beta   90.00000000
_cell_angle_gamma   90.00000000
_symmetry_Int_Tables_number   1
_chemical_formula_structural   CrWO4
_chemical_formula_sum   'Cr16 W16 O64'
_cell_volume   1088.97316816
_cell_formula_units_Z   16
loop_
 _symmetry_equiv_pos_site_id
 _symmetry_equiv_pos_as_xyz
  1  'x, y, z'
loop_
 _atom_site_type_symbol
 _atom_site_label
 _atom_site_symmetry_multiplicity
 _atom_site_fract_x
 _atom_site_fract_y
 _atom_site_fract_z
 _atom_site_occupancy
  Cr  Cr0  1  0.75000000  0.75000000  0.00000000  1
  Cr  Cr1  1  0.75000000  0.00000000  0.75000000  1
  Cr  Cr2  1  0.25000000  0.75000000  0.00000000  1
  Cr  Cr3  1  0.25000000  0.00000000  0.75000000  1
  Cr  Cr4  1  0.75000000  0.25000000  0.50000000  1
  Cr  Cr5  1  0.75000000  0.50000000  0.25000000  1
  Cr  Cr6  1  0.25000000  0.25000000  0.50000000  1
  Cr  Cr7  1  0.25000000  0.50000000  0.25000000  1
  Cr  Cr8  1  0.25000000  0.75000000  0.50000000  1
  Cr  Cr9  1  0.25000000  0.00000000  0.25000000  1
  Cr  Cr10  1  0.75000000  0.75000000  0.50000000  1
  Cr  Cr11  1  0.75000000  0.00000000  0.25000000  1
  Cr  Cr12  1  0.25000000  0.25000000  0.00000000  1
  Cr  Cr13  1  0.25000000  0.50000000  0.75000000  1
  Cr  Cr14  1  0.75000000  0.25000000  0.00000000  1
  Cr  Cr15  1  0.75000000  0.50000000  0.75000000  1
  W  W16  1  0.50000000  0.75000000  0.75000000  1
  W  W17  1  0.00000000  0.00000000  0.00000000  1
  W  W18  1  0.00000000  0.75000000  0.75000000  1
  W  W19  1  0.50000000  0.00000000  0.00000000  1
  W  W20  1  0.50000000  0.25000000  0.25000000  1
  W  W21  1  0.00000000  0.50000000  0.50000000  1
  W  W22  1  0.00000000  0.25000000  0.25000000  1
  W  W23  1  0.50000000  0.50000000  0.50000000  1
  W  W24  1  0.00000000  0.75000000  0.25000000  1
  W  W25  1  0.50000000  0.00000000  0.50000000  1
  W  W26  1  0.50000000  0.75000000  0.25000000  1
  W  W27  1  0.00000000  0.00000000  0.50000000  1
  W  W28  1  0.00000000  0.25000000  0.75000000  1
  W  W29  1  0.50000000  0.50000000  0.00000000  1
  W  W30  1  0.50000000  0.25000000  0.75000000  1
  W  W31  1  0.00000000  0.50000000  0.00000000  1
  O  O32  1  0.25000000  0.75000000  0.84722300  1
  O  O33  1  0.75000000  0.75000000  0.84722300  1
  O  O34  1  0.50000000  0.59925500  0.74618700  1
  O  O35  1  0.50000000  0.90074500  0.75381300  1
  O  O36  1  0.00000000  0.85059700  0.00000000  1
  O  O37  1  0.26780300  0.00000000  0.59808300  1
  O  O38  1  0.73219700  0.00000000  0.59808300  1
  O  O39  1  0.00000000  0.90074500  0.74618700  1
  O  O40  1  0.50000000  0.64940300  0.00000000  1
  O  O41  1  0.23219700  0.00000000  0.90191700  1
  O  O42  1  0.50000000  0.84701100  0.00000000  1
  O  O43  1  0.76780300  0.00000000  0.90191700  1
  O  O44  1  0.25000000  0.75000000  0.65277700  1
  O  O45  1  0.00000000  0.59925500  0.75381300  1
  O  O46  1  0.00000000  0.65298900  0.00000000  1
  O  O47  1  0.75000000  0.75000000  0.65277700  1
  O  O48  1  0.25000000  0.25000000  0.34722300  1
  O  O49  1  0.75000000  0.25000000  0.34722300  1
  O  O50  1  0.50000000  0.09925500  0.24618700  1
  O  O51  1  0.50000000  0.40074500  0.25381300  1
  O  O52  1  0.00000000  0.35059700  0.50000000  1
  O  O53  1  0.26780300  0.50000000  0.09808300  1
  O  O54  1  0.73219700  0.50000000  0.09808300  1
  O  O55  1  0.00000000  0.40074500  0.24618700  1
  O  O56  1  0.50000000  0.14940300  0.50000000  1
  O  O57  1  0.23219700  0.50000000  0.40191700  1
  O  O58  1  0.50000000  0.34701100  0.50000000  1
  O  O59  1  0.76780300  0.50000000  0.40191700  1
  O  O60  1  0.25000000  0.25000000  0.15277700  1
  O  O61  1  0.00000000  0.09925500  0.25381300  1
  O  O62  1  0.00000000  0.15298900  0.50000000  1
  O  O63  1  0.75000000  0.25000000  0.15277700  1
  O  O64  1  0.75000000  0.75000000  0.34722300  1
  O  O65  1  0.25000000  0.75000000  0.34722300  1
  O  O66  1  0.00000000  0.59925500  0.24618700  1
  O  O67  1  0.00000000  0.90074500  0.25381300  1
  O  O68  1  0.50000000  0.85059700  0.50000000  1
  O  O69  1  0.76780300  0.00000000  0.09808300  1
  O  O70  1  0.23219700  0.00000000  0.09808300  1
  O  O71  1  0.50000000  0.90074500  0.24618700  1
  O  O72  1  0.00000000  0.64940300  0.50000000  1
  O  O73  1  0.73219700  0.00000000  0.40191700  1
  O  O74  1  0.00000000  0.84701100  0.50000000  1
  O  O75  1  0.26780300  0.00000000  0.40191700  1
  O  O76  1  0.75000000  0.75000000  0.15277700  1
  O  O77  1  0.50000000  0.59925500  0.25381300  1
  O  O78  1  0.50000000  0.65298900  0.50000000  1
  O  O79  1  0.25000000  0.75000000  0.15277700  1
  O  O80  1  0.75000000  0.25000000  0.84722300  1
  O  O81  1  0.25000000  0.25000000  0.84722300  1
  O  O82  1  0.00000000  0.09925500  0.74618700  1
  O  O83  1  0.00000000  0.40074500  0.75381300  1
  O  O84  1  0.50000000  0.35059700  0.00000000  1
  O  O85  1  0.76780300  0.50000000  0.59808300  1
  O  O86  1  0.23219700  0.50000000  0.59808300  1
  O  O87  1  0.50000000  0.40074500  0.74618700  1
  O  O88  1  0.00000000  0.14940300  0.00000000  1
  O  O89  1  0.73219700  0.50000000  0.90191700  1
  O  O90  1  0.00000000  0.34701100  0.00000000  1
  O  O91  1  0.26780300  0.50000000  0.90191700  1
  O  O92  1  0.75000000  0.25000000  0.65277700  1
  O  O93  1  0.50000000  0.09925500  0.75381300  1
  O  O94  1  0.50000000  0.15298900  0.00000000  1
  O  O95  1  0.25000000  0.25000000  0.65277700  1
