# generated using pymatgen
data_U2AsSe
_symmetry_space_group_name_H-M   'P 1'
_cell_length_a   12.92275600
_cell_length_b   5.77999800
_cell_length_c   5.77521555
_cell_angle_alpha   90.00000000
_cell_angle_beta   116.47899949
_cell_angle_gamma   90.00000000
_symmetry_Int_Tables_number   1
_chemical_formula_structural   U2AsSe
_chemical_formula_sum   'U8 As4 Se4'
_cell_volume   386.11932893
_cell_formula_units_Z   4
loop_
 _symmetry_equiv_pos_site_id
 _symmetry_equiv_pos_as_xyz
  1  'x, y, z'
loop_
 _atom_site_type_symbol
 _atom_site_label
 _atom_site_symmetry_multiplicity
 _atom_site_fract_x
 _atom_site_fract_y
 _atom_site_fract_z
 _atom_site_occupancy
  U  U0  1  0.12623100  0.00000000  0.88036600  1
  U  U1  1  0.12417900  0.50000000  0.37045400  1
  U  U2  1  0.37376900  0.50000000  0.11963400  1
  U  U3  1  0.37582100  0.00000000  0.62954600  1
  U  U4  1  0.62623100  0.50000000  0.88036600  1
  U  U5  1  0.62417900  0.00000000  0.37045400  1
  U  U6  1  0.87376900  0.00000000  0.11963400  1
  U  U7  1  0.87582100  0.50000000  0.62954600  1
  As  As8  1  0.37530200  0.00000000  0.13041800  1
  As  As9  1  0.12469800  0.50000000  0.86958200  1
  As  As10  1  0.87530200  0.50000000  0.13041800  1
  As  As11  1  0.62469800  0.00000000  0.86958200  1
  Se  Se12  1  0.37513600  0.50000000  0.62705200  1
  Se  Se13  1  0.12486400  0.00000000  0.37294800  1
  Se  Se14  1  0.87513600  0.00000000  0.62705200  1
  Se  Se15  1  0.62486400  0.50000000  0.37294800  1
