# generated using pymatgen
data_Ca3ScCoO6
_symmetry_space_group_name_H-M   'P 1'
_cell_length_a   9.23842561
_cell_length_b   9.23842561
_cell_length_c   10.59149749
_cell_angle_alpha   90.00000000
_cell_angle_beta   90.00000000
_cell_angle_gamma   120.00000000
_symmetry_Int_Tables_number   1
_chemical_formula_structural   Ca3ScCoO6
_chemical_formula_sum   'Ca18 Sc6 Co6 O36'
_cell_volume   782.85969053
_cell_formula_units_Z   6
loop_
 _symmetry_equiv_pos_site_id
 _symmetry_equiv_pos_as_xyz
  1  'x, y, z'
loop_
 _atom_site_type_symbol
 _atom_site_label
 _atom_site_symmetry_multiplicity
 _atom_site_fract_x
 _atom_site_fract_y
 _atom_site_fract_z
 _atom_site_occupancy
  Ca  Ca0  1  0.33333333  0.03503767  0.41666667  1
  Ca  Ca1  1  0.70170433  0.66666667  0.41666667  1
  Ca  Ca2  1  0.96496233  0.29829567  0.41666667  1
  Ca  Ca3  1  0.03503767  0.70170433  0.58333333  1
  Ca  Ca4  1  0.29829567  0.33333333  0.58333333  1
  Ca  Ca5  1  0.66666667  0.96496233  0.58333333  1
  Ca  Ca6  1  0.00000000  0.36837100  0.75000000  1
  Ca  Ca7  1  0.36837100  0.00000000  0.75000000  1
  Ca  Ca8  1  0.63162900  0.63162900  0.75000000  1
  Ca  Ca9  1  0.70170433  0.03503767  0.91666667  1
  Ca  Ca10  1  0.96496233  0.66666667  0.91666667  1
  Ca  Ca11  1  0.33333333  0.29829567  0.91666667  1
  Ca  Ca12  1  0.66666667  0.70170433  0.08333333  1
  Ca  Ca13  1  0.03503767  0.33333333  0.08333333  1
  Ca  Ca14  1  0.29829567  0.96496233  0.08333333  1
  Ca  Ca15  1  0.36837100  0.36837100  0.25000000  1
  Ca  Ca16  1  0.63162900  0.00000000  0.25000000  1
  Ca  Ca17  1  0.00000000  0.63162900  0.25000000  1
  Sc  Sc18  1  0.00000000  0.00000000  0.25000000  1
  Sc  Sc19  1  0.00000000  0.00000000  0.75000000  1
  Sc  Sc20  1  0.66666667  0.33333333  0.58333333  1
  Sc  Sc21  1  0.66666667  0.33333333  0.08333333  1
  Sc  Sc22  1  0.33333333  0.66666667  0.91666667  1
  Sc  Sc23  1  0.33333333  0.66666667  0.41666667  1
  Co  Co24  1  0.00000000  0.00000000  0.50000000  1
  Co  Co25  1  0.00000000  0.00000000  0.00000000  1
  Co  Co26  1  0.66666667  0.33333333  0.83333333  1
  Co  Co27  1  0.66666667  0.33333333  0.33333333  1
  Co  Co28  1  0.33333333  0.66666667  0.16666667  1
  Co  Co29  1  0.33333333  0.66666667  0.66666667  1
  O  O30  1  0.51213200  0.35709700  0.44548000  1
  O  O31  1  0.48786800  0.64290300  0.55452000  1
  O  O32  1  0.35709700  0.84496500  0.55452000  1
  O  O33  1  0.84496500  0.48786800  0.44548000  1
  O  O34  1  0.15453467  0.17829833  0.38785333  1
  O  O35  1  0.15503500  0.51213200  0.55452000  1
  O  O36  1  0.97623633  0.15453467  0.61214667  1
  O  O37  1  0.82170167  0.97623633  0.38785333  1
  O  O38  1  0.02376367  0.84546533  0.38785333  1
  O  O39  1  0.84546533  0.82170167  0.61214667  1
  O  O40  1  0.64290300  0.15503500  0.44548000  1
  O  O41  1  0.17829833  0.02376367  0.61214667  1
  O  O42  1  0.17879867  0.69043033  0.77881333  1
  O  O43  1  0.15453467  0.97623633  0.88785333  1
  O  O44  1  0.02376367  0.17829833  0.88785333  1
  O  O45  1  0.51163167  0.82120133  0.77881333  1
  O  O46  1  0.82120133  0.51163167  0.72118667  1
  O  O47  1  0.82170167  0.84546533  0.88785333  1
  O  O48  1  0.64290300  0.48786800  0.94548000  1
  O  O49  1  0.48836833  0.30956967  0.72118667  1
  O  O50  1  0.69043033  0.17879867  0.72118667  1
  O  O51  1  0.51213200  0.15503500  0.94548000  1
  O  O52  1  0.30956967  0.48836833  0.77881333  1
  O  O53  1  0.84496500  0.35709700  0.94548000  1
  O  O54  1  0.84546533  0.02376367  0.11214667  1
  O  O55  1  0.82120133  0.30956967  0.22118667  1
  O  O56  1  0.69043033  0.51163167  0.22118667  1
  O  O57  1  0.17829833  0.15453467  0.11214667  1
  O  O58  1  0.48786800  0.84496500  0.05452000  1
  O  O59  1  0.48836833  0.17879867  0.22118667  1
  O  O60  1  0.30956967  0.82120133  0.27881333  1
  O  O61  1  0.15503500  0.64290300  0.05452000  1
  O  O62  1  0.35709700  0.51213200  0.05452000  1
  O  O63  1  0.17879867  0.48836833  0.27881333  1
  O  O64  1  0.97623633  0.82170167  0.11214667  1
  O  O65  1  0.51163167  0.69043033  0.27881333  1
