# generated using pymatgen
data_Ca(YbS2)2
_symmetry_space_group_name_H-M   'P 1'
_cell_length_a   8.25613000
_cell_length_b   8.25613000
_cell_length_c   8.83289200
_cell_angle_alpha   90.00000000
_cell_angle_beta   90.00000000
_cell_angle_gamma   90.00000000
_symmetry_Int_Tables_number   1
_chemical_formula_structural   Ca(YbS2)2
_chemical_formula_sum   'Ca4 Yb8 S16'
_cell_volume   602.08244652
_cell_formula_units_Z   4
loop_
 _symmetry_equiv_pos_site_id
 _symmetry_equiv_pos_as_xyz
  1  'x, y, z'
loop_
 _atom_site_type_symbol
 _atom_site_label
 _atom_site_symmetry_multiplicity
 _atom_site_fract_x
 _atom_site_fract_y
 _atom_site_fract_z
 _atom_site_occupancy
  Ca  Ca0  1  0.00000000  0.50000000  0.25000000  1
  Ca  Ca1  1  0.00000000  0.00000000  0.00000000  1
  Ca  Ca2  1  0.50000000  0.00000000  0.75000000  1
  Ca  Ca3  1  0.50000000  0.50000000  0.50000000  1
  Yb  Yb4  1  0.25000000  0.87772400  0.37500000  1
  Yb  Yb5  1  0.37772400  0.25000000  0.12500000  1
  Yb  Yb6  1  0.25000000  0.62227600  0.87500000  1
  Yb  Yb7  1  0.12227600  0.25000000  0.62500000  1
  Yb  Yb8  1  0.75000000  0.37772400  0.87500000  1
  Yb  Yb9  1  0.87772400  0.75000000  0.62500000  1
  Yb  Yb10  1  0.75000000  0.12227600  0.37500000  1
  Yb  Yb11  1  0.62227600  0.75000000  0.12500000  1
  S  S12  1  0.09594950  0.32252150  0.94156750  1
  S  S13  1  0.09594950  0.17747850  0.30843250  1
  S  S14  1  0.32252150  0.59594950  0.19156750  1
  S  S15  1  0.17747850  0.90405050  0.69156750  1
  S  S16  1  0.40405050  0.17747850  0.44156750  1
  S  S17  1  0.67747850  0.09594950  0.05843250  1
  S  S18  1  0.82252150  0.40405050  0.55843250  1
  S  S19  1  0.40405050  0.32252150  0.80843250  1
  S  S20  1  0.59594950  0.82252150  0.44156750  1
  S  S21  1  0.59594950  0.67747850  0.80843250  1
  S  S22  1  0.82252150  0.09594950  0.69156750  1
  S  S23  1  0.67747850  0.40405050  0.19156750  1
  S  S24  1  0.90405050  0.67747850  0.94156750  1
  S  S25  1  0.17747850  0.59594950  0.55843250  1
  S  S26  1  0.32252150  0.90405050  0.05843250  1
  S  S27  1  0.90405050  0.82252150  0.30843250  1
