# generated using pymatgen
data_Cu8NO11
_symmetry_space_group_name_H-M   'P 1'
_cell_length_a   9.06135600
_cell_length_b   9.44402800
_cell_length_c   10.18720000
_cell_angle_alpha   90.00000000
_cell_angle_beta   90.00000000
_cell_angle_gamma   90.00000000
_symmetry_Int_Tables_number   1
_chemical_formula_structural   Cu8NO11
_chemical_formula_sum   'Cu32 N4 O44'
_cell_volume   871.77676882
_cell_formula_units_Z   4
loop_
 _symmetry_equiv_pos_site_id
 _symmetry_equiv_pos_as_xyz
  1  'x, y, z'
loop_
 _atom_site_type_symbol
 _atom_site_label
 _atom_site_symmetry_multiplicity
 _atom_site_fract_x
 _atom_site_fract_y
 _atom_site_fract_z
 _atom_site_occupancy
  Cu  Cu0  1  0.25000000  0.75000000  0.50164000  1
  Cu  Cu1  1  0.50000000  0.75343000  0.75396800  1
  Cu  Cu2  1  0.50000000  0.24657000  0.75396800  1
  Cu  Cu3  1  0.00000000  0.00000000  0.87918700  1
  Cu  Cu4  1  0.75003300  0.00000000  0.75129000  1
  Cu  Cu5  1  0.24996700  0.00000000  0.75129000  1
  Cu  Cu6  1  0.25000000  0.25000000  0.50164000  1
  Cu  Cu7  1  0.50000000  0.00000000  0.61511000  1
  Cu  Cu8  1  0.25000000  0.25000000  0.00164000  1
  Cu  Cu9  1  0.50000000  0.25343000  0.25396800  1
  Cu  Cu10  1  0.50000000  0.74657000  0.25396800  1
  Cu  Cu11  1  0.00000000  0.50000000  0.37918700  1
  Cu  Cu12  1  0.75003300  0.50000000  0.25129000  1
  Cu  Cu13  1  0.24996700  0.50000000  0.25129000  1
  Cu  Cu14  1  0.25000000  0.75000000  0.00164000  1
  Cu  Cu15  1  0.50000000  0.50000000  0.11511000  1
  Cu  Cu16  1  0.75000000  0.75000000  0.00164000  1
  Cu  Cu17  1  0.00000000  0.75343000  0.25396800  1
  Cu  Cu18  1  0.00000000  0.24657000  0.25396800  1
  Cu  Cu19  1  0.50000000  0.00000000  0.37918700  1
  Cu  Cu20  1  0.25003300  0.00000000  0.25129000  1
  Cu  Cu21  1  0.74996700  0.00000000  0.25129000  1
  Cu  Cu22  1  0.75000000  0.25000000  0.00164000  1
  Cu  Cu23  1  0.00000000  0.00000000  0.11511000  1
  Cu  Cu24  1  0.75000000  0.25000000  0.50164000  1
  Cu  Cu25  1  0.00000000  0.25343000  0.75396800  1
  Cu  Cu26  1  0.00000000  0.74657000  0.75396800  1
  Cu  Cu27  1  0.50000000  0.50000000  0.87918700  1
  Cu  Cu28  1  0.25003300  0.50000000  0.75129000  1
  Cu  Cu29  1  0.74996700  0.50000000  0.75129000  1
  Cu  Cu30  1  0.75000000  0.75000000  0.50164000  1
  Cu  Cu31  1  0.00000000  0.50000000  0.61511000  1
  N  N32  1  0.50000000  0.00000000  0.99539700  1
  N  N33  1  0.50000000  0.50000000  0.49539700  1
  N  N34  1  0.00000000  0.00000000  0.49539700  1
  N  N35  1  0.00000000  0.50000000  0.99539700  1
  O  O36  1  0.14726300  0.14347350  0.85750450  1
  O  O37  1  0.35242900  0.14128650  0.64420650  1
  O  O38  1  0.35273700  0.35652650  0.85750450  1
  O  O39  1  0.14757100  0.35871350  0.64420650  1
  O  O40  1  0.00000000  0.88310800  0.55579900  1
  O  O41  1  0.00000000  0.11689200  0.55579900  1
  O  O42  1  0.50000000  0.00000000  0.87044800  1
  O  O43  1  0.35273700  0.64347350  0.85750450  1
  O  O44  1  0.14757100  0.64128650  0.64420650  1
  O  O45  1  0.14726300  0.85652650  0.85750450  1
  O  O46  1  0.35242900  0.85871350  0.64420650  1
  O  O47  1  0.14726300  0.64347350  0.35750450  1
  O  O48  1  0.35242900  0.64128650  0.14420650  1
  O  O49  1  0.35273700  0.85652650  0.35750450  1
  O  O50  1  0.14757100  0.85871350  0.14420650  1
  O  O51  1  0.00000000  0.38310800  0.05579900  1
  O  O52  1  0.00000000  0.61689200  0.05579900  1
  O  O53  1  0.50000000  0.50000000  0.37044800  1
  O  O54  1  0.35273700  0.14347350  0.35750450  1
  O  O55  1  0.14757100  0.14128650  0.14420650  1
  O  O56  1  0.14726300  0.35652650  0.35750450  1
  O  O57  1  0.35242900  0.35871350  0.14420650  1
  O  O58  1  0.64726300  0.14347350  0.35750450  1
  O  O59  1  0.85242900  0.14128650  0.14420650  1
  O  O60  1  0.85273700  0.35652650  0.35750450  1
  O  O61  1  0.64757100  0.35871350  0.14420650  1
  O  O62  1  0.50000000  0.88310800  0.05579900  1
  O  O63  1  0.50000000  0.11689200  0.05579900  1
  O  O64  1  0.00000000  0.00000000  0.37044800  1
  O  O65  1  0.85273700  0.64347350  0.35750450  1
  O  O66  1  0.64757100  0.64128650  0.14420650  1
  O  O67  1  0.64726300  0.85652650  0.35750450  1
  O  O68  1  0.85242900  0.85871350  0.14420650  1
  O  O69  1  0.64726300  0.64347350  0.85750450  1
  O  O70  1  0.85242900  0.64128650  0.64420650  1
  O  O71  1  0.85273700  0.85652650  0.85750450  1
  O  O72  1  0.64757100  0.85871350  0.64420650  1
  O  O73  1  0.50000000  0.38310800  0.55579900  1
  O  O74  1  0.50000000  0.61689200  0.55579900  1
  O  O75  1  0.00000000  0.50000000  0.87044800  1
  O  O76  1  0.85273700  0.14347350  0.85750450  1
  O  O77  1  0.64757100  0.14128650  0.64420650  1
  O  O78  1  0.64726300  0.35652650  0.85750450  1
  O  O79  1  0.85242900  0.35871350  0.64420650  1
