# generated using pymatgen
data_Dy5Mg24
_symmetry_space_group_name_H-M   'P 1'
_cell_length_a   11.26488400
_cell_length_b   11.26488400
_cell_length_c   11.26488400
_cell_angle_alpha   90.00000000
_cell_angle_beta   90.00000000
_cell_angle_gamma   90.00000000
_symmetry_Int_Tables_number   1
_chemical_formula_structural   Dy5Mg24
_chemical_formula_sum   'Dy10 Mg48'
_cell_volume   1429.48687380
_cell_formula_units_Z   2
loop_
 _symmetry_equiv_pos_site_id
 _symmetry_equiv_pos_as_xyz
  1  'x, y, z'
loop_
 _atom_site_type_symbol
 _atom_site_label
 _atom_site_symmetry_multiplicity
 _atom_site_fract_x
 _atom_site_fract_y
 _atom_site_fract_z
 _atom_site_occupancy
  Dy  Dy0  1  0.81526850  0.18473150  0.18473150  1
  Dy  Dy1  1  0.00000000  0.00000000  0.00000000  1
  Dy  Dy2  1  0.18473150  0.81526850  0.18473150  1
  Dy  Dy3  1  0.18473150  0.18473150  0.81526850  1
  Dy  Dy4  1  0.31526850  0.31526850  0.31526850  1
  Dy  Dy5  1  0.31526850  0.68473150  0.68473150  1
  Dy  Dy6  1  0.50000000  0.50000000  0.50000000  1
  Dy  Dy7  1  0.68473150  0.31526850  0.68473150  1
  Dy  Dy8  1  0.68473150  0.68473150  0.31526850  1
  Dy  Dy9  1  0.81526850  0.81526850  0.81526850  1
  Mg  Mg10  1  0.14316250  0.53627050  0.14316250  1
  Mg  Mg11  1  0.09049350  0.28167650  0.09049350  1
  Mg  Mg12  1  0.09049350  0.90950650  0.71832350  1
  Mg  Mg13  1  0.46372950  0.85683750  0.14316250  1
  Mg  Mg14  1  0.03627050  0.35683750  0.35683750  1
  Mg  Mg15  1  0.85683750  0.14316250  0.46372950  1
  Mg  Mg16  1  0.35683750  0.35683750  0.03627050  1
  Mg  Mg17  1  0.90950650  0.09049350  0.71832350  1
  Mg  Mg18  1  0.35683750  0.03627050  0.35683750  1
  Mg  Mg19  1  0.90950650  0.71832350  0.09049350  1
  Mg  Mg20  1  0.14316250  0.14316250  0.53627050  1
  Mg  Mg21  1  0.53627050  0.14316250  0.14316250  1
  Mg  Mg22  1  0.40950650  0.40950650  0.78167650  1
  Mg  Mg23  1  0.40950650  0.78167650  0.40950650  1
  Mg  Mg24  1  0.14316250  0.46372950  0.85683750  1
  Mg  Mg25  1  0.71832350  0.09049350  0.90950650  1
  Mg  Mg26  1  0.78167650  0.40950650  0.40950650  1
  Mg  Mg27  1  0.28167650  0.09049350  0.09049350  1
  Mg  Mg28  1  0.85683750  0.46372950  0.14316250  1
  Mg  Mg29  1  0.71832350  0.90950650  0.09049350  1
  Mg  Mg30  1  0.14316250  0.85683750  0.46372950  1
  Mg  Mg31  1  0.46372950  0.14316250  0.85683750  1
  Mg  Mg32  1  0.09049350  0.71832350  0.90950650  1
  Mg  Mg33  1  0.09049350  0.09049350  0.28167650  1
  Mg  Mg34  1  0.64316250  0.03627050  0.64316250  1
  Mg  Mg35  1  0.59049350  0.78167650  0.59049350  1
  Mg  Mg36  1  0.59049350  0.40950650  0.21832350  1
  Mg  Mg37  1  0.96372950  0.35683750  0.64316250  1
  Mg  Mg38  1  0.53627050  0.85683750  0.85683750  1
  Mg  Mg39  1  0.35683750  0.64316250  0.96372950  1
  Mg  Mg40  1  0.85683750  0.85683750  0.53627050  1
  Mg  Mg41  1  0.40950650  0.59049350  0.21832350  1
  Mg  Mg42  1  0.85683750  0.53627050  0.85683750  1
  Mg  Mg43  1  0.40950650  0.21832350  0.59049350  1
  Mg  Mg44  1  0.64316250  0.64316250  0.03627050  1
  Mg  Mg45  1  0.03627050  0.64316250  0.64316250  1
  Mg  Mg46  1  0.90950650  0.90950650  0.28167650  1
  Mg  Mg47  1  0.90950650  0.28167650  0.90950650  1
  Mg  Mg48  1  0.64316250  0.96372950  0.35683750  1
  Mg  Mg49  1  0.21832350  0.59049350  0.40950650  1
  Mg  Mg50  1  0.28167650  0.90950650  0.90950650  1
  Mg  Mg51  1  0.78167650  0.59049350  0.59049350  1
  Mg  Mg52  1  0.35683750  0.96372950  0.64316250  1
  Mg  Mg53  1  0.21832350  0.40950650  0.59049350  1
  Mg  Mg54  1  0.64316250  0.35683750  0.96372950  1
  Mg  Mg55  1  0.96372950  0.64316250  0.35683750  1
  Mg  Mg56  1  0.59049350  0.21832350  0.40950650  1
  Mg  Mg57  1  0.59049350  0.59049350  0.78167650  1
