# generated using pymatgen
data_Rb2LiFeF6
_symmetry_space_group_name_H-M   'P 1'
_cell_length_a   5.99512901
_cell_length_b   5.99512901
_cell_length_c   29.27303995
_cell_angle_alpha   90.00000000
_cell_angle_beta   90.00000000
_cell_angle_gamma   120.00000000
_symmetry_Int_Tables_number   1
_chemical_formula_structural   Rb2LiFeF6
_chemical_formula_sum   'Rb12 Li6 Fe6 F36'
_cell_volume   911.16184114
_cell_formula_units_Z   6
loop_
 _symmetry_equiv_pos_site_id
 _symmetry_equiv_pos_as_xyz
  1  'x, y, z'
loop_
 _atom_site_type_symbol
 _atom_site_label
 _atom_site_symmetry_multiplicity
 _atom_site_fract_x
 _atom_site_fract_y
 _atom_site_fract_z
 _atom_site_occupancy
  Rb  Rb0  1  0.66666667  0.33333333  0.20571133  1
  Rb  Rb1  1  0.00000000  0.00000000  0.12762200  1
  Rb  Rb2  1  0.00000000  0.00000000  0.28297000  1
  Rb  Rb3  1  0.66666667  0.33333333  0.05036333  1
  Rb  Rb4  1  0.33333333  0.66666667  0.53904467  1
  Rb  Rb5  1  0.66666667  0.33333333  0.46095533  1
  Rb  Rb6  1  0.66666667  0.33333333  0.61630333  1
  Rb  Rb7  1  0.33333333  0.66666667  0.38369667  1
  Rb  Rb8  1  0.00000000  0.00000000  0.87237800  1
  Rb  Rb9  1  0.33333333  0.66666667  0.79428867  1
  Rb  Rb10  1  0.33333333  0.66666667  0.94963667  1
  Rb  Rb11  1  0.00000000  0.00000000  0.71703000  1
  Li  Li12  1  0.33333333  0.66666667  0.07052967  1
  Li  Li13  1  0.33333333  0.66666667  0.26280367  1
  Li  Li14  1  0.00000000  0.00000000  0.40386300  1
  Li  Li15  1  0.00000000  0.00000000  0.59613700  1
  Li  Li16  1  0.66666667  0.33333333  0.73719633  1
  Li  Li17  1  0.66666667  0.33333333  0.92947033  1
  Fe  Fe18  1  0.00000000  0.00000000  0.00000000  1
  Fe  Fe19  1  0.33333333  0.66666667  0.16666667  1
  Fe  Fe20  1  0.66666667  0.33333333  0.33333333  1
  Fe  Fe21  1  1.00000000  1.00000000  0.50000000  1
  Fe  Fe22  1  0.33333333  0.66666667  0.66666667  1
  Fe  Fe23  1  0.66666667  0.33333333  0.83333333  1
  F  F24  1  0.50943467  0.49056533  0.29504833  1
  F  F25  1  0.50943467  0.01886933  0.29504833  1
  F  F26  1  0.98113067  0.49056533  0.29504833  1
  F  F27  1  0.68553600  0.84276800  0.03828500  1
  F  F28  1  0.15723200  0.84276800  0.03828500  1
  F  F29  1  0.15723200  0.31446400  0.03828500  1
  F  F30  1  0.48211500  0.96423000  0.12562600  1
  F  F31  1  0.48211500  0.51788500  0.12562600  1
  F  F32  1  0.03577000  0.51788500  0.12562600  1
  F  F33  1  0.63089667  0.81544833  0.20770733  1
  F  F34  1  0.18455167  0.36910333  0.20770733  1
  F  F35  1  0.18455167  0.81544833  0.20770733  1
  F  F36  1  0.17610133  0.82389867  0.62838167  1
  F  F37  1  0.17610133  0.35220267  0.62838167  1
  F  F38  1  0.64779733  0.82389867  0.62838167  1
  F  F39  1  0.35220267  0.17610133  0.37161833  1
  F  F40  1  0.82389867  0.17610133  0.37161833  1
  F  F41  1  0.82389867  0.64779733  0.37161833  1
  F  F42  1  0.14878167  0.29756333  0.45895933  1
  F  F43  1  0.14878167  0.85121833  0.45895933  1
  F  F44  1  0.70243667  0.85121833  0.45895933  1
  F  F45  1  0.29756333  0.14878167  0.54104067  1
  F  F46  1  0.85121833  0.70243667  0.54104067  1
  F  F47  1  0.85121833  0.14878167  0.54104067  1
  F  F48  1  0.84276800  0.15723200  0.96171500  1
  F  F49  1  0.84276800  0.68553600  0.96171500  1
  F  F50  1  0.31446400  0.15723200  0.96171500  1
  F  F51  1  0.01886933  0.50943467  0.70495167  1
  F  F52  1  0.49056533  0.50943467  0.70495167  1
  F  F53  1  0.49056533  0.98113067  0.70495167  1
  F  F54  1  0.81544833  0.63089667  0.79229267  1
  F  F55  1  0.81544833  0.18455167  0.79229267  1
  F  F56  1  0.36910333  0.18455167  0.79229267  1
  F  F57  1  0.96423000  0.48211500  0.87437400  1
  F  F58  1  0.51788500  0.03577000  0.87437400  1
  F  F59  1  0.51788500  0.48211500  0.87437400  1
