# generated using pymatgen
data_Ce(Mo3S4)2
_symmetry_space_group_name_H-M   'P 1'
_cell_length_a   9.15017431
_cell_length_b   9.15017431
_cell_length_c   11.54575991
_cell_angle_alpha   90.00000000
_cell_angle_beta   90.00000000
_cell_angle_gamma   120.00000000
_symmetry_Int_Tables_number   1
_chemical_formula_structural   Ce(Mo3S4)2
_chemical_formula_sum   'Ce3 Mo18 S24'
_cell_volume   837.16659176
_cell_formula_units_Z   3
loop_
 _symmetry_equiv_pos_site_id
 _symmetry_equiv_pos_as_xyz
  1  'x, y, z'
loop_
 _atom_site_type_symbol
 _atom_site_label
 _atom_site_symmetry_multiplicity
 _atom_site_fract_x
 _atom_site_fract_y
 _atom_site_fract_z
 _atom_site_occupancy
  Ce  Ce0  1  0.00000000  0.00000000  0.00000000  1
  Ce  Ce1  1  0.66666667  0.33333333  0.33333333  1
  Ce  Ce2  1  0.33333333  0.66666667  0.66666667  1
  Mo  Mo3  1  0.15588033  0.50625167  0.06938467  1
  Mo  Mo4  1  0.49374833  0.64962867  0.06938467  1
  Mo  Mo5  1  0.35037133  0.84411967  0.06938467  1
  Mo  Mo6  1  0.31629533  0.48921367  0.26394867  1
  Mo  Mo7  1  0.17291833  0.68370467  0.26394867  1
  Mo  Mo8  1  0.51078633  0.82708167  0.26394867  1
  Mo  Mo9  1  0.82254700  0.83958500  0.40271800  1
  Mo  Mo10  1  0.16041500  0.98296200  0.40271800  1
  Mo  Mo11  1  0.01703800  0.17745300  0.40271800  1
  Mo  Mo12  1  0.98296200  0.82254700  0.59728200  1
  Mo  Mo13  1  0.83958500  0.01703800  0.59728200  1
  Mo  Mo14  1  0.17745300  0.16041500  0.59728200  1
  Mo  Mo15  1  0.48921367  0.17291833  0.73605133  1
  Mo  Mo16  1  0.82708167  0.31629533  0.73605133  1
  Mo  Mo17  1  0.68370467  0.51078633  0.73605133  1
  Mo  Mo18  1  0.64962867  0.15588033  0.93061533  1
  Mo  Mo19  1  0.50625167  0.35037133  0.93061533  1
  Mo  Mo20  1  0.84411967  0.49374833  0.93061533  1
  S  S21  1  0.29104000  0.33305500  0.08365500  1
  S  S22  1  0.04201500  0.70896000  0.08365500  1
  S  S23  1  0.33333333  0.66666667  0.90936367  1
  S  S24  1  0.66694500  0.95798500  0.08365500  1
  S  S25  1  0.99972167  0.37534833  0.24967833  1
  S  S26  1  0.33333333  0.66666667  0.42396967  1
  S  S27  1  0.62465167  0.62437333  0.24967833  1
  S  S28  1  0.37562667  0.00027833  0.24967833  1
  S  S29  1  0.95770667  0.66638833  0.41698833  1
  S  S30  1  0.70868167  0.04229333  0.41698833  1
  S  S31  1  0.00000000  0.00000000  0.24269700  1
  S  S32  1  0.33361167  0.29131833  0.41698833  1
  S  S33  1  0.66638833  0.70868167  0.58301167  1
  S  S34  1  0.00000000  0.00000000  0.75730300  1
  S  S35  1  0.29131833  0.95770667  0.58301167  1
  S  S36  1  0.04229333  0.33361167  0.58301167  1
  S  S37  1  0.62437333  0.99972167  0.75032167  1
  S  S38  1  0.37534833  0.37562667  0.75032167  1
  S  S39  1  0.66666667  0.33333333  0.57603033  1
  S  S40  1  0.00027833  0.62465167  0.75032167  1
  S  S41  1  0.33305500  0.04201500  0.91634500  1
  S  S42  1  0.66666667  0.33333333  0.09063633  1
  S  S43  1  0.95798500  0.29104000  0.91634500  1
  S  S44  1  0.70896000  0.66694500  0.91634500  1
