# generated using pymatgen
data_Pr5In11Ni6
_symmetry_space_group_name_H-M   'P 1'
_cell_length_a   14.43358000
_cell_length_b   14.50517200
_cell_length_c   4.36253700
_cell_angle_alpha   90.00000000
_cell_angle_beta   90.00000000
_cell_angle_gamma   90.00000000
_symmetry_Int_Tables_number   1
_chemical_formula_structural   Pr5In11Ni6
_chemical_formula_sum   'Pr10 In22 Ni12'
_cell_volume   913.34755395
_cell_formula_units_Z   2
loop_
 _symmetry_equiv_pos_site_id
 _symmetry_equiv_pos_as_xyz
  1  'x, y, z'
loop_
 _atom_site_type_symbol
 _atom_site_label
 _atom_site_symmetry_multiplicity
 _atom_site_fract_x
 _atom_site_fract_y
 _atom_site_fract_z
 _atom_site_occupancy
  Pr  Pr0  1  0.36322450  0.32576450  0.00000000  1
  Pr  Pr1  1  0.63677550  0.32576450  0.00000000  1
  Pr  Pr2  1  0.36322450  0.67423550  0.00000000  1
  Pr  Pr3  1  0.63677550  0.67423550  0.00000000  1
  Pr  Pr4  1  0.50000000  0.00000000  0.50000000  1
  Pr  Pr5  1  0.86322450  0.82576450  0.00000000  1
  Pr  Pr6  1  0.13677550  0.82576450  0.00000000  1
  Pr  Pr7  1  0.86322450  0.17423550  0.00000000  1
  Pr  Pr8  1  0.13677550  0.17423550  0.00000000  1
  Pr  Pr9  1  0.00000000  0.50000000  0.50000000  1
  In  In10  1  0.30351000  0.00000000  0.00000000  1
  In  In11  1  0.69649000  0.00000000  0.00000000  1
  In  In12  1  0.50000000  0.77410600  0.50000000  1
  In  In13  1  0.69237550  0.84492950  0.50000000  1
  In  In14  1  0.15995000  0.00000000  0.50000000  1
  In  In15  1  0.84005000  0.00000000  0.50000000  1
  In  In16  1  0.30762450  0.15507050  0.50000000  1
  In  In17  1  0.50000000  0.22589400  0.50000000  1
  In  In18  1  0.69237550  0.15507050  0.50000000  1
  In  In19  1  0.00000000  0.00000000  0.00000000  1
  In  In20  1  0.30762450  0.84492950  0.50000000  1
  In  In21  1  0.80351000  0.50000000  0.00000000  1
  In  In22  1  0.19649000  0.50000000  0.00000000  1
  In  In23  1  0.00000000  0.27410600  0.50000000  1
  In  In24  1  0.19237550  0.34492950  0.50000000  1
  In  In25  1  0.65995000  0.50000000  0.50000000  1
  In  In26  1  0.34005000  0.50000000  0.50000000  1
  In  In27  1  0.80762450  0.65507050  0.50000000  1
  In  In28  1  0.00000000  0.72589400  0.50000000  1
  In  In29  1  0.19237550  0.65507050  0.50000000  1
  In  In30  1  0.50000000  0.50000000  0.00000000  1
  In  In31  1  0.80762450  0.34492950  0.50000000  1
  Ni  Ni32  1  0.50000000  0.59388000  0.50000000  1
  Ni  Ni33  1  0.41848100  0.86219200  0.00000000  1
  Ni  Ni34  1  0.58151900  0.13780800  0.00000000  1
  Ni  Ni35  1  0.50000000  0.40612000  0.50000000  1
  Ni  Ni36  1  0.58151900  0.86219200  0.00000000  1
  Ni  Ni37  1  0.41848100  0.13780800  0.00000000  1
  Ni  Ni38  1  0.00000000  0.09388000  0.50000000  1
  Ni  Ni39  1  0.91848100  0.36219200  0.00000000  1
  Ni  Ni40  1  0.08151900  0.63780800  0.00000000  1
  Ni  Ni41  1  0.00000000  0.90612000  0.50000000  1
  Ni  Ni42  1  0.08151900  0.36219200  0.00000000  1
  Ni  Ni43  1  0.91848100  0.63780800  0.00000000  1
