# generated using pymatgen
data_Sm4In21Pd10
_symmetry_space_group_name_H-M   'P 1'
_cell_length_a   23.35650200
_cell_length_b   4.53076200
_cell_length_c   17.43156113
_cell_angle_alpha   90.00000000
_cell_angle_beta   124.53484968
_cell_angle_gamma   90.00000000
_symmetry_Int_Tables_number   1
_chemical_formula_structural   Sm4In21Pd10
_chemical_formula_sum   'Sm8 In42 Pd20'
_cell_volume   1519.59333842
_cell_formula_units_Z   2
loop_
 _symmetry_equiv_pos_site_id
 _symmetry_equiv_pos_as_xyz
  1  'x, y, z'
loop_
 _atom_site_type_symbol
 _atom_site_label
 _atom_site_symmetry_multiplicity
 _atom_site_fract_x
 _atom_site_fract_y
 _atom_site_fract_z
 _atom_site_occupancy
  Sm  Sm0  1  0.77186800  0.99314800  0.17506100  1
  Sm  Sm1  1  0.87882250  0.99792050  0.66579000  1
  Sm  Sm2  1  0.12117750  0.99792050  0.33421000  1
  Sm  Sm3  1  0.22813200  0.99314800  0.82493900  1
  Sm  Sm4  1  0.27186800  0.49314800  0.17506100  1
  Sm  Sm5  1  0.37882250  0.49792050  0.66579000  1
  Sm  Sm6  1  0.62117750  0.49792050  0.33421000  1
  Sm  Sm7  1  0.72813200  0.49314800  0.82493900  1
  In  In8  1  0.04138750  0.50163650  0.36741600  1
  In  In9  1  0.95861250  0.50163650  0.63258400  1
  In  In10  1  0.11552700  0.49450100  0.70399900  1
  In  In11  1  0.93686450  0.00584050  0.20238600  1
  In  In12  1  0.90030250  0.49632950  0.00471200  1
  In  In13  1  0.29964000  0.50324800  0.99578300  1
  In  In14  1  0.36944850  0.99453050  0.79951400  1
  In  In15  1  0.06313550  0.00584050  0.79761400  1
  In  In16  1  0.98687750  0.00041150  0.90433600  1
  In  In17  1  0.70036000  0.50324800  0.00421700  1
  In  In18  1  0.63055150  0.99453050  0.20048600  1
  In  In19  1  0.00000000  0.49691300  0.50000000  1
  In  In20  1  0.75214950  0.49804950  0.29404700  1
  In  In21  1  0.20126550  0.49955350  0.50211600  1
  In  In22  1  0.88447300  0.49450100  0.29600100  1
  In  In23  1  0.09969750  0.49632950  0.99528800  1
  In  In24  1  0.79873450  0.49955350  0.49788400  1
  In  In25  1  0.24785050  0.49804950  0.70595300  1
  In  In26  1  0.88609200  0.98973200  0.44945300  1
  In  In27  1  0.01312250  0.00041150  0.09566400  1
  In  In28  1  0.11390800  0.98973200  0.55054700  1
  In  In29  1  0.54138750  0.00163650  0.36741600  1
  In  In30  1  0.45861250  0.00163650  0.63258400  1
  In  In31  1  0.61552700  0.99450100  0.70399900  1
  In  In32  1  0.43686450  0.50584050  0.20238600  1
  In  In33  1  0.40030250  0.99632950  0.00471200  1
  In  In34  1  0.79964000  0.00324800  0.99578300  1
  In  In35  1  0.86944850  0.49453050  0.79951400  1
  In  In36  1  0.56313550  0.50584050  0.79761400  1
  In  In37  1  0.48687750  0.50041150  0.90433600  1
  In  In38  1  0.20036000  0.00324800  0.00421700  1
  In  In39  1  0.13055150  0.49453050  0.20048600  1
  In  In40  1  0.50000000  0.99691300  0.50000000  1
  In  In41  1  0.25214950  0.99804950  0.29404700  1
  In  In42  1  0.70126550  0.99955350  0.50211600  1
  In  In43  1  0.38447300  0.99450100  0.29600100  1
  In  In44  1  0.59969750  0.99632950  0.99528800  1
  In  In45  1  0.29873450  0.99955350  0.49788400  1
  In  In46  1  0.74785050  0.99804950  0.70595300  1
  In  In47  1  0.38609200  0.48973200  0.44945300  1
  In  In48  1  0.51312250  0.50041150  0.09566400  1
  In  In49  1  0.61390800  0.48973200  0.55054700  1
  Pd  Pd50  1  0.00739400  0.50836500  0.18982400  1
  Pd  Pd51  1  0.15298250  0.49243850  0.88502200  1
  Pd  Pd52  1  0.84701750  0.49243850  0.11497800  1
  Pd  Pd53  1  0.63739800  0.49547000  0.10616400  1
  Pd  Pd54  1  0.24886050  0.99660850  0.61375800  1
  Pd  Pd55  1  0.02447900  0.00007900  0.61109500  1
  Pd  Pd56  1  0.75113950  0.99660850  0.38624200  1
  Pd  Pd57  1  0.36260200  0.49547000  0.89383600  1
  Pd  Pd58  1  0.97552100  0.00007900  0.38890500  1
  Pd  Pd59  1  0.99260600  0.50836500  0.81017600  1
  Pd  Pd60  1  0.50739400  0.00836500  0.18982400  1
  Pd  Pd61  1  0.65298250  0.99243850  0.88502200  1
  Pd  Pd62  1  0.34701750  0.99243850  0.11497800  1
  Pd  Pd63  1  0.13739800  0.99547000  0.10616400  1
  Pd  Pd64  1  0.74886050  0.49660850  0.61375800  1
  Pd  Pd65  1  0.52447900  0.50007900  0.61109500  1
  Pd  Pd66  1  0.25113950  0.49660850  0.38624200  1
  Pd  Pd67  1  0.86260200  0.99547000  0.89383600  1
  Pd  Pd68  1  0.47552100  0.50007900  0.38890500  1
  Pd  Pd69  1  0.49260600  0.00836500  0.81017600  1
