# generated using pymatgen
data_Li5H9Pt2
_symmetry_space_group_name_H-M   'P 1'
_cell_length_a   8.35105800
_cell_length_b   8.35105800
_cell_length_c   8.51155000
_cell_angle_alpha   90.00000000
_cell_angle_beta   90.00000000
_cell_angle_gamma   90.00000000
_symmetry_Int_Tables_number   1
_chemical_formula_structural   Li5H9Pt2
_chemical_formula_sum   'Li20 H36 Pt8'
_cell_volume   593.59694157
_cell_formula_units_Z   4
loop_
 _symmetry_equiv_pos_site_id
 _symmetry_equiv_pos_as_xyz
  1  'x, y, z'
loop_
 _atom_site_type_symbol
 _atom_site_label
 _atom_site_symmetry_multiplicity
 _atom_site_fract_x
 _atom_site_fract_y
 _atom_site_fract_z
 _atom_site_occupancy
  Li  Li0  1  0.85028850  0.35028850  0.34133650  1
  Li  Li1  1  0.14971150  0.64971150  0.34133650  1
  Li  Li2  1  0.64971150  0.85028850  0.34133650  1
  Li  Li3  1  0.35028850  0.14971150  0.34133650  1
  Li  Li4  1  0.64971150  0.14971150  0.15866350  1
  Li  Li5  1  0.35028850  0.85028850  0.15866350  1
  Li  Li6  1  0.85028850  0.64971150  0.15866350  1
  Li  Li7  1  0.14971150  0.35028850  0.15866350  1
  Li  Li8  1  0.00000000  0.00000000  0.50000000  1
  Li  Li9  1  0.00000000  0.00000000  0.00000000  1
  Li  Li10  1  0.35028850  0.85028850  0.84133650  1
  Li  Li11  1  0.64971150  0.14971150  0.84133650  1
  Li  Li12  1  0.14971150  0.35028850  0.84133650  1
  Li  Li13  1  0.85028850  0.64971150  0.84133650  1
  Li  Li14  1  0.14971150  0.64971150  0.65866350  1
  Li  Li15  1  0.85028850  0.35028850  0.65866350  1
  Li  Li16  1  0.35028850  0.14971150  0.65866350  1
  Li  Li17  1  0.64971150  0.85028850  0.65866350  1
  Li  Li18  1  0.50000000  0.50000000  0.00000000  1
  Li  Li19  1  0.50000000  0.50000000  0.50000000  1
  H  H20  1  0.27253700  0.57423900  0.86489900  1
  H  H21  1  0.22746300  0.92576100  0.36489900  1
  H  H22  1  0.72746300  0.57423900  0.36489900  1
  H  H23  1  0.27253700  0.42576100  0.36489900  1
  H  H24  1  0.07423900  0.22746300  0.36489900  1
  H  H25  1  0.42576100  0.27253700  0.86489900  1
  H  H26  1  0.57423900  0.27253700  0.36489900  1
  H  H27  1  0.42576100  0.72746300  0.36489900  1
  H  H28  1  0.22746300  0.92576100  0.63510100  1
  H  H29  1  0.27253700  0.57423900  0.13510100  1
  H  H30  1  0.77253700  0.92576100  0.13510100  1
  H  H31  1  0.22746300  0.07423900  0.13510100  1
  H  H32  1  0.42576100  0.27253700  0.13510100  1
  H  H33  1  0.07423900  0.22746300  0.63510100  1
  H  H34  1  0.92576100  0.22746300  0.13510100  1
  H  H35  1  0.07423900  0.77253700  0.13510100  1
  H  H36  1  0.00000000  0.50000000  0.00000000  1
  H  H37  1  0.50000000  0.00000000  0.00000000  1
  H  H38  1  0.77253700  0.07423900  0.36489900  1
  H  H39  1  0.72746300  0.42576100  0.86489900  1
  H  H40  1  0.22746300  0.07423900  0.86489900  1
  H  H41  1  0.77253700  0.92576100  0.86489900  1
  H  H42  1  0.57423900  0.72746300  0.86489900  1
  H  H43  1  0.92576100  0.77253700  0.36489900  1
  H  H44  1  0.07423900  0.77253700  0.86489900  1
  H  H45  1  0.92576100  0.22746300  0.86489900  1
  H  H46  1  0.72746300  0.42576100  0.13510100  1
  H  H47  1  0.77253700  0.07423900  0.63510100  1
  H  H48  1  0.27253700  0.42576100  0.63510100  1
  H  H49  1  0.72746300  0.57423900  0.63510100  1
  H  H50  1  0.92576100  0.77253700  0.63510100  1
  H  H51  1  0.57423900  0.72746300  0.13510100  1
  H  H52  1  0.42576100  0.72746300  0.63510100  1
  H  H53  1  0.57423900  0.27253700  0.63510100  1
  H  H54  1  0.50000000  0.00000000  0.50000000  1
  H  H55  1  0.00000000  0.50000000  0.50000000  1
  Pt  Pt56  1  0.15742900  0.65742900  0.00000000  1
  Pt  Pt57  1  0.34257100  0.84257100  0.50000000  1
  Pt  Pt58  1  0.34257100  0.15742900  0.00000000  1
  Pt  Pt59  1  0.15742900  0.34257100  0.50000000  1
  Pt  Pt60  1  0.65742900  0.15742900  0.50000000  1
  Pt  Pt61  1  0.84257100  0.34257100  0.00000000  1
  Pt  Pt62  1  0.84257100  0.65742900  0.50000000  1
  Pt  Pt63  1  0.65742900  0.84257100  0.00000000  1
