# generated using pymatgen
data_Sc6Pb5
_symmetry_space_group_name_H-M   'P 1'
_cell_length_a   6.24752000
_cell_length_b   9.02008400
_cell_length_c   19.49081800
_cell_angle_alpha   90.00000000
_cell_angle_beta   90.00000000
_cell_angle_gamma   90.00000000
_symmetry_Int_Tables_number   1
_chemical_formula_structural   Sc6Pb5
_chemical_formula_sum   'Sc24 Pb20'
_cell_volume   1098.36909157
_cell_formula_units_Z   4
loop_
 _symmetry_equiv_pos_site_id
 _symmetry_equiv_pos_as_xyz
  1  'x, y, z'
loop_
 _atom_site_type_symbol
 _atom_site_label
 _atom_site_symmetry_multiplicity
 _atom_site_fract_x
 _atom_site_fract_y
 _atom_site_fract_z
 _atom_site_occupancy
  Sc  Sc0  1  0.75000000  0.00000000  0.30462400  1
  Sc  Sc1  1  0.00000000  0.61030150  0.35734750  1
  Sc  Sc2  1  0.00000000  0.73398350  0.06011750  1
  Sc  Sc3  1  0.50000000  0.38969850  0.35734750  1
  Sc  Sc4  1  0.00000000  0.11030150  0.14265250  1
  Sc  Sc5  1  0.00000000  0.23398350  0.43988250  1
  Sc  Sc6  1  0.50000000  0.26601650  0.06011750  1
  Sc  Sc7  1  0.75000000  0.50000000  0.19537600  1
  Sc  Sc8  1  0.50000000  0.76601650  0.43988250  1
  Sc  Sc9  1  0.25000000  0.50000000  0.19537600  1
  Sc  Sc10  1  0.50000000  0.88969850  0.14265250  1
  Sc  Sc11  1  0.25000000  0.00000000  0.30462400  1
  Sc  Sc12  1  0.25000000  0.50000000  0.80462400  1
  Sc  Sc13  1  0.50000000  0.11030150  0.85734750  1
  Sc  Sc14  1  0.50000000  0.23398350  0.56011750  1
  Sc  Sc15  1  0.00000000  0.88969850  0.85734750  1
  Sc  Sc16  1  0.50000000  0.61030150  0.64265250  1
  Sc  Sc17  1  0.50000000  0.73398350  0.93988250  1
  Sc  Sc18  1  0.00000000  0.76601650  0.56011750  1
  Sc  Sc19  1  0.25000000  0.00000000  0.69537600  1
  Sc  Sc20  1  0.00000000  0.26601650  0.93988250  1
  Sc  Sc21  1  0.75000000  0.00000000  0.69537600  1
  Sc  Sc22  1  0.00000000  0.38969850  0.64265250  1
  Sc  Sc23  1  0.75000000  0.50000000  0.80462400  1
  Pb  Pb24  1  0.00000000  0.89846200  0.42486000  1
  Pb  Pb25  1  0.00000000  0.80272100  0.20656600  1
  Pb  Pb26  1  0.50000000  0.10153800  0.42486000  1
  Pb  Pb27  1  0.25000000  0.00000000  0.00000000  1
  Pb  Pb28  1  0.50000000  0.19727900  0.20656600  1
  Pb  Pb29  1  0.50000000  0.60153800  0.07514000  1
  Pb  Pb30  1  0.00000000  0.30272100  0.29343400  1
  Pb  Pb31  1  0.50000000  0.69727900  0.29343400  1
  Pb  Pb32  1  0.00000000  0.39846200  0.07514000  1
  Pb  Pb33  1  0.75000000  0.00000000  0.00000000  1
  Pb  Pb34  1  0.50000000  0.39846200  0.92486000  1
  Pb  Pb35  1  0.50000000  0.30272100  0.70656600  1
  Pb  Pb36  1  0.00000000  0.60153800  0.92486000  1
  Pb  Pb37  1  0.75000000  0.50000000  0.50000000  1
  Pb  Pb38  1  0.00000000  0.69727900  0.70656600  1
  Pb  Pb39  1  0.00000000  0.10153800  0.57514000  1
  Pb  Pb40  1  0.50000000  0.80272100  0.79343400  1
  Pb  Pb41  1  0.00000000  0.19727900  0.79343400  1
  Pb  Pb42  1  0.50000000  0.89846200  0.57514000  1
  Pb  Pb43  1  0.25000000  0.50000000  0.50000000  1
