# generated using pymatgen
data_Cu6PbSe2Cl5O8
_symmetry_space_group_name_H-M   'P 1'
_cell_length_a   18.69867200
_cell_length_b   6.26914600
_cell_length_c   15.49120645
_cell_angle_alpha   90.00000000
_cell_angle_beta   118.71918177
_cell_angle_gamma   90.00000000
_symmetry_Int_Tables_number   1
_chemical_formula_structural   Cu6PbSe2Cl5O8
_chemical_formula_sum   'Cu24 Pb4 Se8 Cl20 O32'
_cell_volume   1592.56337742
_cell_formula_units_Z   4
loop_
 _symmetry_equiv_pos_site_id
 _symmetry_equiv_pos_as_xyz
  1  'x, y, z'
loop_
 _atom_site_type_symbol
 _atom_site_label
 _atom_site_symmetry_multiplicity
 _atom_site_fract_x
 _atom_site_fract_y
 _atom_site_fract_z
 _atom_site_occupancy
  Cu  Cu0  1  0.15186000  0.50000000  0.83410000  1
  Cu  Cu1  1  0.06924300  0.00000000  0.46544400  1
  Cu  Cu2  1  0.93075700  0.00000000  0.53455600  1
  Cu  Cu3  1  0.93963200  0.50000000  0.04732400  1
  Cu  Cu4  1  0.98556200  0.24655500  0.74322000  1
  Cu  Cu5  1  0.06036800  0.50000000  0.95267600  1
  Cu  Cu6  1  0.01443800  0.75344500  0.25678000  1
  Cu  Cu7  1  0.00000000  0.50000000  0.50000000  1
  Cu  Cu8  1  0.84814000  0.50000000  0.16590000  1
  Cu  Cu9  1  0.98556200  0.75344500  0.74322000  1
  Cu  Cu10  1  0.00000000  0.00000000  0.00000000  1
  Cu  Cu11  1  0.01443800  0.24655500  0.25678000  1
  Cu  Cu12  1  0.65186000  0.00000000  0.83410000  1
  Cu  Cu13  1  0.56924300  0.50000000  0.46544400  1
  Cu  Cu14  1  0.43075700  0.50000000  0.53455600  1
  Cu  Cu15  1  0.43963200  0.00000000  0.04732400  1
  Cu  Cu16  1  0.48556200  0.74655500  0.74322000  1
  Cu  Cu17  1  0.56036800  0.00000000  0.95267600  1
  Cu  Cu18  1  0.51443800  0.25344500  0.25678000  1
  Cu  Cu19  1  0.50000000  0.00000000  0.50000000  1
  Cu  Cu20  1  0.34814000  0.00000000  0.16590000  1
  Cu  Cu21  1  0.48556200  0.25344500  0.74322000  1
  Cu  Cu22  1  0.50000000  0.50000000  0.00000000  1
  Cu  Cu23  1  0.51443800  0.74655500  0.25678000  1
  Pb  Pb24  1  0.70613400  0.50000000  0.36063200  1
  Pb  Pb25  1  0.29386600  0.50000000  0.63936800  1
  Pb  Pb26  1  0.20613400  0.00000000  0.36063200  1
  Pb  Pb27  1  0.79386600  0.00000000  0.63936800  1
  Se  Se28  1  0.87339300  0.00000000  0.29103200  1
  Se  Se29  1  0.12660700  0.00000000  0.70896800  1
  Se  Se30  1  0.35768700  0.00000000  0.80031600  1
  Se  Se31  1  0.64231300  0.00000000  0.19968400  1
  Se  Se32  1  0.37339300  0.50000000  0.29103200  1
  Se  Se33  1  0.62660700  0.50000000  0.70896800  1
  Se  Se34  1  0.85768700  0.50000000  0.80031600  1
  Se  Se35  1  0.14231300  0.50000000  0.19968400  1
  Cl  Cl36  1  0.69521100  0.00000000  0.00523900  1
  Cl  Cl37  1  0.91372500  0.50000000  0.55085800  1
  Cl  Cl38  1  0.06310100  0.00000000  0.91977300  1
  Cl  Cl39  1  0.93689900  0.00000000  0.08022700  1
  Cl  Cl40  1  0.21000700  0.00000000  0.55941800  1
  Cl  Cl41  1  0.78999300  0.00000000  0.44058200  1
  Cl  Cl42  1  0.26202700  0.50000000  0.81249400  1
  Cl  Cl43  1  0.73797300  0.50000000  0.18750600  1
  Cl  Cl44  1  0.30478900  0.00000000  0.99476100  1
  Cl  Cl45  1  0.08627500  0.50000000  0.44914200  1
  Cl  Cl46  1  0.19521100  0.50000000  0.00523900  1
  Cl  Cl47  1  0.41372500  0.00000000  0.55085800  1
  Cl  Cl48  1  0.56310100  0.50000000  0.91977300  1
  Cl  Cl49  1  0.43689900  0.50000000  0.08022700  1
  Cl  Cl50  1  0.71000700  0.50000000  0.55941800  1
  Cl  Cl51  1  0.28999300  0.50000000  0.44058200  1
  Cl  Cl52  1  0.76202700  0.00000000  0.81249400  1
  Cl  Cl53  1  0.23797300  0.00000000  0.18750600  1
  Cl  Cl54  1  0.80478900  0.50000000  0.99476100  1
  Cl  Cl55  1  0.58627500  0.00000000  0.44914200  1
  O  O56  1  0.88278800  0.71460400  0.74950100  1
  O  O57  1  0.09302400  0.21815200  0.74755400  1
  O  O58  1  0.05234400  0.00000000  0.58272200  1
  O  O59  1  0.09302400  0.78184800  0.74755400  1
  O  O60  1  0.90697600  0.78184800  0.25244600  1
  O  O61  1  0.88278800  0.28539600  0.74950100  1
  O  O62  1  0.90697600  0.21815200  0.25244600  1
  O  O63  1  0.11721200  0.28539600  0.25049900  1
  O  O64  1  0.11721200  0.71460400  0.25049900  1
  O  O65  1  0.44160700  0.00000000  0.92016300  1
  O  O66  1  0.06710300  0.00000000  0.33952700  1
  O  O67  1  0.94765600  0.00000000  0.41727800  1
  O  O68  1  0.55839300  0.00000000  0.07983700  1
  O  O69  1  0.95997700  0.50000000  0.18081600  1
  O  O70  1  0.04002300  0.50000000  0.81918400  1
  O  O71  1  0.93289700  0.00000000  0.66047300  1
  O  O72  1  0.38278800  0.21460400  0.74950100  1
  O  O73  1  0.59302400  0.71815200  0.74755400  1
  O  O74  1  0.55234400  0.50000000  0.58272200  1
  O  O75  1  0.59302400  0.28184800  0.74755400  1
  O  O76  1  0.40697600  0.28184800  0.25244600  1
  O  O77  1  0.38278800  0.78539600  0.74950100  1
  O  O78  1  0.40697600  0.71815200  0.25244600  1
  O  O79  1  0.61721200  0.78539600  0.25049900  1
  O  O80  1  0.61721200  0.21460400  0.25049900  1
  O  O81  1  0.94160700  0.50000000  0.92016300  1
  O  O82  1  0.56710300  0.50000000  0.33952700  1
  O  O83  1  0.44765600  0.50000000  0.41727800  1
  O  O84  1  0.05839300  0.50000000  0.07983700  1
  O  O85  1  0.45997700  0.00000000  0.18081600  1
  O  O86  1  0.54002300  0.00000000  0.81918400  1
  O  O87  1  0.43289700  0.50000000  0.66047300  1
