# generated using pymatgen
data_Ti13O22
_symmetry_space_group_name_H-M   'P 1'
_cell_length_a   10.15422200
_cell_length_b   11.59936000
_cell_length_c   14.09688800
_cell_angle_alpha   90.00000000
_cell_angle_beta   90.00000000
_cell_angle_gamma   90.00000000
_symmetry_Int_Tables_number   1
_chemical_formula_structural   Ti13O22
_chemical_formula_sum   'Ti52 O88'
_cell_volume   1660.36637955
_cell_formula_units_Z   4
loop_
 _symmetry_equiv_pos_site_id
 _symmetry_equiv_pos_as_xyz
  1  'x, y, z'
loop_
 _atom_site_type_symbol
 _atom_site_label
 _atom_site_symmetry_multiplicity
 _atom_site_fract_x
 _atom_site_fract_y
 _atom_site_fract_z
 _atom_site_occupancy
  Ti  Ti0  1  0.57235850  0.62846350  0.81832800  1
  Ti  Ti1  1  0.42764150  0.62846350  0.18167200  1
  Ti  Ti2  1  0.50000000  0.73397700  0.50000000  1
  Ti  Ti3  1  0.68381350  0.75896950  0.34970000  1
  Ti  Ti4  1  0.31618650  0.75896950  0.65030000  1
  Ti  Ti5  1  0.68381350  0.74103050  0.15030000  1
  Ti  Ti6  1  0.31618650  0.74103050  0.84970000  1
  Ti  Ti7  1  0.50000000  0.76602300  0.00000000  1
  Ti  Ti8  1  0.57235850  0.87153650  0.68167200  1
  Ti  Ti9  1  0.42764150  0.87153650  0.31832800  1
  Ti  Ti10  1  0.00000000  0.00000000  0.00000000  1
  Ti  Ti11  1  0.65907600  0.00000000  0.15735100  1
  Ti  Ti12  1  0.15907600  0.00000000  0.34264900  1
  Ti  Ti13  1  0.50000000  0.00000000  0.50000000  1
  Ti  Ti14  1  0.34092400  0.00000000  0.84264900  1
  Ti  Ti15  1  0.84092400  0.00000000  0.65735100  1
  Ti  Ti16  1  0.42764150  0.12846350  0.31832800  1
  Ti  Ti17  1  0.57235850  0.12846350  0.68167200  1
  Ti  Ti18  1  0.50000000  0.23397700  0.00000000  1
  Ti  Ti19  1  0.68381350  0.25896950  0.15030000  1
  Ti  Ti20  1  0.31618650  0.25896950  0.84970000  1
  Ti  Ti21  1  0.31618650  0.24103050  0.65030000  1
  Ti  Ti22  1  0.68381350  0.24103050  0.34970000  1
  Ti  Ti23  1  0.50000000  0.26602300  0.50000000  1
  Ti  Ti24  1  0.42764150  0.37153650  0.18167200  1
  Ti  Ti25  1  0.57235850  0.37153650  0.81832800  1
  Ti  Ti26  1  0.07235850  0.12846350  0.81832800  1
  Ti  Ti27  1  0.92764150  0.12846350  0.18167200  1
  Ti  Ti28  1  0.00000000  0.23397700  0.50000000  1
  Ti  Ti29  1  0.18381350  0.25896950  0.34970000  1
  Ti  Ti30  1  0.81618650  0.25896950  0.65030000  1
  Ti  Ti31  1  0.18381350  0.24103050  0.15030000  1
  Ti  Ti32  1  0.81618650  0.24103050  0.84970000  1
  Ti  Ti33  1  0.00000000  0.26602300  0.00000000  1
  Ti  Ti34  1  0.07235850  0.37153650  0.68167200  1
  Ti  Ti35  1  0.92764150  0.37153650  0.31832800  1
  Ti  Ti36  1  0.50000000  0.50000000  0.00000000  1
  Ti  Ti37  1  0.15907600  0.50000000  0.15735100  1
  Ti  Ti38  1  0.65907600  0.50000000  0.34264900  1
  Ti  Ti39  1  0.00000000  0.50000000  0.50000000  1
  Ti  Ti40  1  0.84092400  0.50000000  0.84264900  1
  Ti  Ti41  1  0.34092400  0.50000000  0.65735100  1
  Ti  Ti42  1  0.92764150  0.62846350  0.31832800  1
  Ti  Ti43  1  0.07235850  0.62846350  0.68167200  1
  Ti  Ti44  1  0.00000000  0.73397700  0.00000000  1
  Ti  Ti45  1  0.18381350  0.75896950  0.15030000  1
  Ti  Ti46  1  0.81618650  0.75896950  0.84970000  1
  Ti  Ti47  1  0.81618650  0.74103050  0.65030000  1
  Ti  Ti48  1  0.18381350  0.74103050  0.34970000  1
  Ti  Ti49  1  0.00000000  0.76602300  0.50000000  1
  Ti  Ti50  1  0.92764150  0.87153650  0.18167200  1
  Ti  Ti51  1  0.07235850  0.87153650  0.81832800  1
  O  O52  1  0.59788650  0.62532050  0.41816800  1
  O  O53  1  0.40211350  0.62532050  0.58183200  1
  O  O54  1  0.58056550  0.62687250  0.08038900  1
  O  O55  1  0.41943450  0.62687250  0.91961100  1
  O  O56  1  0.64775300  0.74640500  0.90902100  1
  O  O57  1  0.35224700  0.74640500  0.09097900  1
  O  O58  1  0.52813700  0.75000000  0.25000000  1
  O  O59  1  0.47186300  0.75000000  0.75000000  1
  O  O60  1  0.64775300  0.75359500  0.59097900  1
  O  O61  1  0.35224700  0.75359500  0.40902100  1
  O  O62  1  0.75205850  0.86792450  0.24190500  1
  O  O63  1  0.74794150  0.86792450  0.74190500  1
  O  O64  1  0.25205850  0.86792450  0.25809500  1
  O  O65  1  0.24794150  0.86792450  0.75809500  1
  O  O66  1  0.58056550  0.87312750  0.41961100  1
  O  O67  1  0.41943450  0.87312750  0.58038900  1
  O  O68  1  0.59788650  0.87467950  0.08183200  1
  O  O69  1  0.40211350  0.87467950  0.91816800  1
  O  O70  1  0.84833600  0.00000000  0.09900500  1
  O  O71  1  0.51033600  0.00000000  0.24849200  1
  O  O72  1  0.01033600  0.00000000  0.25150800  1
  O  O73  1  0.34833600  0.00000000  0.40099500  1
  O  O74  1  0.65166400  0.00000000  0.59900500  1
  O  O75  1  0.48966400  0.00000000  0.75150800  1
  O  O76  1  0.15166400  0.00000000  0.90099500  1
  O  O77  1  0.98966400  0.00000000  0.74849200  1
  O  O78  1  0.59788650  0.12532050  0.08183200  1
  O  O79  1  0.40211350  0.12532050  0.91816800  1
  O  O80  1  0.58056550  0.12687250  0.41961100  1
  O  O81  1  0.41943450  0.12687250  0.58038900  1
  O  O82  1  0.25205850  0.13207550  0.25809500  1
  O  O83  1  0.24794150  0.13207550  0.75809500  1
  O  O84  1  0.75205850  0.13207550  0.24190500  1
  O  O85  1  0.74794150  0.13207550  0.74190500  1
  O  O86  1  0.35224700  0.24640500  0.40902100  1
  O  O87  1  0.64775300  0.24640500  0.59097900  1
  O  O88  1  0.52813700  0.25000000  0.25000000  1
  O  O89  1  0.47186300  0.25000000  0.75000000  1
  O  O90  1  0.35224700  0.25359500  0.09097900  1
  O  O91  1  0.64775300  0.25359500  0.90902100  1
  O  O92  1  0.58056550  0.37312750  0.08038900  1
  O  O93  1  0.41943450  0.37312750  0.91961100  1
  O  O94  1  0.59788650  0.37467950  0.41816800  1
  O  O95  1  0.40211350  0.37467950  0.58183200  1
  O  O96  1  0.09788650  0.12532050  0.41816800  1
  O  O97  1  0.90211350  0.12532050  0.58183200  1
  O  O98  1  0.08056550  0.12687250  0.08038900  1
  O  O99  1  0.91943450  0.12687250  0.91961100  1
  O  O100  1  0.14775300  0.24640500  0.90902100  1
  O  O101  1  0.85224700  0.24640500  0.09097900  1
  O  O102  1  0.02813700  0.25000000  0.25000000  1
  O  O103  1  0.97186300  0.25000000  0.75000000  1
  O  O104  1  0.14775300  0.25359500  0.59097900  1
  O  O105  1  0.85224700  0.25359500  0.40902100  1
  O  O106  1  0.25205850  0.36792450  0.24190500  1
  O  O107  1  0.24794150  0.36792450  0.74190500  1
  O  O108  1  0.75205850  0.36792450  0.25809500  1
  O  O109  1  0.74794150  0.36792450  0.75809500  1
  O  O110  1  0.08056550  0.37312750  0.41961100  1
  O  O111  1  0.91943450  0.37312750  0.58038900  1
  O  O112  1  0.09788650  0.37467950  0.08183200  1
  O  O113  1  0.90211350  0.37467950  0.91816800  1
  O  O114  1  0.34833600  0.50000000  0.09900500  1
  O  O115  1  0.01033600  0.50000000  0.24849200  1
  O  O116  1  0.51033600  0.50000000  0.25150800  1
  O  O117  1  0.84833600  0.50000000  0.40099500  1
  O  O118  1  0.15166400  0.50000000  0.59900500  1
  O  O119  1  0.98966400  0.50000000  0.75150800  1
  O  O120  1  0.65166400  0.50000000  0.90099500  1
  O  O121  1  0.48966400  0.50000000  0.74849200  1
  O  O122  1  0.09788650  0.62532050  0.08183200  1
  O  O123  1  0.90211350  0.62532050  0.91816800  1
  O  O124  1  0.08056550  0.62687250  0.41961100  1
  O  O125  1  0.91943450  0.62687250  0.58038900  1
  O  O126  1  0.75205850  0.63207550  0.25809500  1
  O  O127  1  0.74794150  0.63207550  0.75809500  1
  O  O128  1  0.25205850  0.63207550  0.24190500  1
  O  O129  1  0.24794150  0.63207550  0.74190500  1
  O  O130  1  0.85224700  0.74640500  0.40902100  1
  O  O131  1  0.14775300  0.74640500  0.59097900  1
  O  O132  1  0.02813700  0.75000000  0.25000000  1
  O  O133  1  0.97186300  0.75000000  0.75000000  1
  O  O134  1  0.85224700  0.75359500  0.09097900  1
  O  O135  1  0.14775300  0.75359500  0.90902100  1
  O  O136  1  0.08056550  0.87312750  0.08038900  1
  O  O137  1  0.91943450  0.87312750  0.91961100  1
  O  O138  1  0.09788650  0.87467950  0.41816800  1
  O  O139  1  0.90211350  0.87467950  0.58183200  1
