# generated using pymatgen
data_BaCu13
_symmetry_space_group_name_H-M   'P 1'
_cell_length_a   11.71345600
_cell_length_b   11.71345600
_cell_length_c   11.71345600
_cell_angle_alpha   90.00000000
_cell_angle_beta   90.00000000
_cell_angle_gamma   90.00000000
_symmetry_Int_Tables_number   1
_chemical_formula_structural   BaCu13
_chemical_formula_sum   'Ba8 Cu104'
_cell_volume   1607.14533330
_cell_formula_units_Z   8
loop_
 _symmetry_equiv_pos_site_id
 _symmetry_equiv_pos_as_xyz
  1  'x, y, z'
loop_
 _atom_site_type_symbol
 _atom_site_label
 _atom_site_symmetry_multiplicity
 _atom_site_fract_x
 _atom_site_fract_y
 _atom_site_fract_z
 _atom_site_occupancy
  Ba  Ba0  1  0.25000000  0.75000000  0.25000000  1
  Ba  Ba1  1  0.25000000  0.25000000  0.25000000  1
  Ba  Ba2  1  0.25000000  0.25000000  0.75000000  1
  Ba  Ba3  1  0.25000000  0.75000000  0.75000000  1
  Ba  Ba4  1  0.75000000  0.75000000  0.75000000  1
  Ba  Ba5  1  0.75000000  0.25000000  0.75000000  1
  Ba  Ba6  1  0.75000000  0.25000000  0.25000000  1
  Ba  Ba7  1  0.75000000  0.75000000  0.25000000  1
  Cu  Cu8  1  0.00000000  0.00000000  0.50000000  1
  Cu  Cu9  1  0.50000000  0.00000000  0.50000000  1
  Cu  Cu10  1  0.00000000  0.11481400  0.32057200  1
  Cu  Cu11  1  0.38518600  0.00000000  0.32057200  1
  Cu  Cu12  1  0.61481400  0.00000000  0.32057200  1
  Cu  Cu13  1  0.32057200  0.11481400  0.50000000  1
  Cu  Cu14  1  0.67942800  0.11481400  0.50000000  1
  Cu  Cu15  1  0.50000000  0.82057200  0.38518600  1
  Cu  Cu16  1  0.00000000  0.17942800  0.11481400  1
  Cu  Cu17  1  0.32057200  0.00000000  0.11481400  1
  Cu  Cu18  1  0.61481400  0.32057200  0.50000000  1
  Cu  Cu19  1  0.38518600  0.32057200  0.50000000  1
  Cu  Cu20  1  0.67942800  0.00000000  0.11481400  1
  Cu  Cu21  1  0.17942800  0.00000000  0.38518600  1
  Cu  Cu22  1  0.61481400  0.67942800  0.50000000  1
  Cu  Cu23  1  0.82057200  0.00000000  0.38518600  1
  Cu  Cu24  1  0.38518600  0.67942800  0.50000000  1
  Cu  Cu25  1  0.32057200  0.88518600  0.50000000  1
  Cu  Cu26  1  0.11481400  0.00000000  0.17942800  1
  Cu  Cu27  1  0.00000000  0.82057200  0.11481400  1
  Cu  Cu28  1  0.50000000  0.17942800  0.38518600  1
  Cu  Cu29  1  0.88518600  0.00000000  0.17942800  1
  Cu  Cu30  1  0.67942800  0.88518600  0.50000000  1
  Cu  Cu31  1  0.00000000  0.88518600  0.32057200  1
  Cu  Cu32  1  0.50000000  0.11481400  0.17942800  1
  Cu  Cu33  1  0.50000000  0.88518600  0.17942800  1
  Cu  Cu34  1  0.00000000  0.50000000  0.00000000  1
  Cu  Cu35  1  0.50000000  0.50000000  0.00000000  1
  Cu  Cu36  1  0.00000000  0.61481400  0.82057200  1
  Cu  Cu37  1  0.38518600  0.50000000  0.82057200  1
  Cu  Cu38  1  0.61481400  0.50000000  0.82057200  1
  Cu  Cu39  1  0.32057200  0.61481400  0.00000000  1
  Cu  Cu40  1  0.67942800  0.61481400  0.00000000  1
  Cu  Cu41  1  0.50000000  0.32057200  0.88518600  1
  Cu  Cu42  1  0.00000000  0.67942800  0.61481400  1
  Cu  Cu43  1  0.32057200  0.50000000  0.61481400  1
  Cu  Cu44  1  0.61481400  0.82057200  0.00000000  1
  Cu  Cu45  1  0.38518600  0.82057200  0.00000000  1
  Cu  Cu46  1  0.67942800  0.50000000  0.61481400  1
  Cu  Cu47  1  0.17942800  0.50000000  0.88518600  1
  Cu  Cu48  1  0.61481400  0.17942800  0.00000000  1
  Cu  Cu49  1  0.82057200  0.50000000  0.88518600  1
  Cu  Cu50  1  0.38518600  0.17942800  0.00000000  1
  Cu  Cu51  1  0.32057200  0.38518600  0.00000000  1
  Cu  Cu52  1  0.11481400  0.50000000  0.67942800  1
  Cu  Cu53  1  0.00000000  0.32057200  0.61481400  1
  Cu  Cu54  1  0.50000000  0.67942800  0.88518600  1
  Cu  Cu55  1  0.88518600  0.50000000  0.67942800  1
  Cu  Cu56  1  0.67942800  0.38518600  0.00000000  1
  Cu  Cu57  1  0.00000000  0.38518600  0.82057200  1
  Cu  Cu58  1  0.50000000  0.61481400  0.67942800  1
  Cu  Cu59  1  0.50000000  0.38518600  0.67942800  1
  Cu  Cu60  1  0.50000000  0.00000000  0.00000000  1
  Cu  Cu61  1  0.00000000  0.00000000  0.00000000  1
  Cu  Cu62  1  0.50000000  0.11481400  0.82057200  1
  Cu  Cu63  1  0.88518600  0.00000000  0.82057200  1
  Cu  Cu64  1  0.11481400  0.00000000  0.82057200  1
  Cu  Cu65  1  0.82057200  0.11481400  0.00000000  1
  Cu  Cu66  1  0.17942800  0.11481400  0.00000000  1
  Cu  Cu67  1  0.00000000  0.82057200  0.88518600  1
  Cu  Cu68  1  0.50000000  0.17942800  0.61481400  1
  Cu  Cu69  1  0.82057200  0.00000000  0.61481400  1
  Cu  Cu70  1  0.11481400  0.32057200  0.00000000  1
  Cu  Cu71  1  0.88518600  0.32057200  0.00000000  1
  Cu  Cu72  1  0.17942800  0.00000000  0.61481400  1
  Cu  Cu73  1  0.67942800  0.00000000  0.88518600  1
  Cu  Cu74  1  0.11481400  0.67942800  0.00000000  1
  Cu  Cu75  1  0.32057200  0.00000000  0.88518600  1
  Cu  Cu76  1  0.88518600  0.67942800  0.00000000  1
  Cu  Cu77  1  0.82057200  0.88518600  0.00000000  1
  Cu  Cu78  1  0.61481400  0.00000000  0.67942800  1
  Cu  Cu79  1  0.50000000  0.82057200  0.61481400  1
  Cu  Cu80  1  0.00000000  0.17942800  0.88518600  1
  Cu  Cu81  1  0.38518600  0.00000000  0.67942800  1
  Cu  Cu82  1  0.17942800  0.88518600  0.00000000  1
  Cu  Cu83  1  0.50000000  0.88518600  0.82057200  1
  Cu  Cu84  1  0.00000000  0.11481400  0.67942800  1
  Cu  Cu85  1  0.00000000  0.88518600  0.67942800  1
  Cu  Cu86  1  0.50000000  0.50000000  0.50000000  1
  Cu  Cu87  1  0.00000000  0.50000000  0.50000000  1
  Cu  Cu88  1  0.50000000  0.61481400  0.32057200  1
  Cu  Cu89  1  0.88518600  0.50000000  0.32057200  1
  Cu  Cu90  1  0.11481400  0.50000000  0.32057200  1
  Cu  Cu91  1  0.82057200  0.61481400  0.50000000  1
  Cu  Cu92  1  0.17942800  0.61481400  0.50000000  1
  Cu  Cu93  1  0.00000000  0.32057200  0.38518600  1
  Cu  Cu94  1  0.50000000  0.67942800  0.11481400  1
  Cu  Cu95  1  0.82057200  0.50000000  0.11481400  1
  Cu  Cu96  1  0.11481400  0.82057200  0.50000000  1
  Cu  Cu97  1  0.88518600  0.82057200  0.50000000  1
  Cu  Cu98  1  0.17942800  0.50000000  0.11481400  1
  Cu  Cu99  1  0.67942800  0.50000000  0.38518600  1
  Cu  Cu100  1  0.11481400  0.17942800  0.50000000  1
  Cu  Cu101  1  0.32057200  0.50000000  0.38518600  1
  Cu  Cu102  1  0.88518600  0.17942800  0.50000000  1
  Cu  Cu103  1  0.82057200  0.38518600  0.50000000  1
  Cu  Cu104  1  0.61481400  0.50000000  0.17942800  1
  Cu  Cu105  1  0.50000000  0.32057200  0.11481400  1
  Cu  Cu106  1  0.00000000  0.67942800  0.38518600  1
  Cu  Cu107  1  0.38518600  0.50000000  0.17942800  1
  Cu  Cu108  1  0.17942800  0.38518600  0.50000000  1
  Cu  Cu109  1  0.50000000  0.38518600  0.32057200  1
  Cu  Cu110  1  0.00000000  0.61481400  0.17942800  1
  Cu  Cu111  1  0.00000000  0.38518600  0.17942800  1
