# generated using pymatgen
data_SrCeN2
_symmetry_space_group_name_H-M   'P 1'
_cell_length_a   11.56489374
_cell_length_b   5.21948370
_cell_length_c   5.21310618
_cell_angle_alpha   90.00000000
_cell_angle_beta   116.66542731
_cell_angle_gamma   90.00000000
_symmetry_Int_Tables_number   1
_chemical_formula_structural   SrCeN2
_chemical_formula_sum   'Sr4 Ce4 N8'
_cell_volume   281.20918676
_cell_formula_units_Z   4
loop_
 _symmetry_equiv_pos_site_id
 _symmetry_equiv_pos_as_xyz
  1  'x, y, z'
loop_
 _atom_site_type_symbol
 _atom_site_label
 _atom_site_symmetry_multiplicity
 _atom_site_fract_x
 _atom_site_fract_y
 _atom_site_fract_z
 _atom_site_occupancy
  Sr  Sr0  1  0.12456318  0.87660419  0.37417886  1
  Sr  Sr1  1  0.87543682  0.87660419  0.62582114  1
  Sr  Sr2  1  0.62456318  0.37660419  0.37417886  1
  Sr  Sr3  1  0.37543682  0.37660419  0.62582114  1
  Ce  Ce4  1  0.87431742  0.37684220  0.12155619  1
  Ce  Ce5  1  0.12568258  0.37684220  0.87844381  1
  Ce  Ce6  1  0.37431742  0.87684220  0.12155619  1
  Ce  Ce7  1  0.62568257  0.87684220  0.87844381  1
  N  N8  1  0.84415636  0.87019995  0.09516173  1
  N  N9  1  0.09376657  0.37431739  0.33335849  1
  N  N10  1  0.90623343  0.37431739  0.66664151  1
  N  N11  1  0.65584364  0.37019995  0.90483827  1
  N  N12  1  0.34415636  0.37019995  0.09516173  1
  N  N13  1  0.59376657  0.87431739  0.33335849  1
  N  N14  1  0.40623343  0.87431739  0.66664151  1
  N  N15  1  0.15584364  0.87019995  0.90483827  1
