# generated using pymatgen
data_PPbW
_symmetry_space_group_name_H-M   'P 1'
_cell_length_a   6.61429800
_cell_length_b   6.61429800
_cell_length_c   6.61429800
_cell_angle_alpha   90.00000000
_cell_angle_beta   90.00000000
_cell_angle_gamma   90.00000000
_symmetry_Int_Tables_number   1
_chemical_formula_structural   PPbW
_chemical_formula_sum   'P4 Pb4 W4'
_cell_volume   289.36851333
_cell_formula_units_Z   4
loop_
 _symmetry_equiv_pos_site_id
 _symmetry_equiv_pos_as_xyz
  1  'x, y, z'
loop_
 _atom_site_type_symbol
 _atom_site_label
 _atom_site_symmetry_multiplicity
 _atom_site_fract_x
 _atom_site_fract_y
 _atom_site_fract_z
 _atom_site_occupancy
  P  P0  1  0.25000000  0.25000000  0.25000000  1
  P  P1  1  0.25000000  0.75000000  0.75000000  1
  P  P2  1  0.75000000  0.25000000  0.75000000  1
  P  P3  1  0.75000000  0.75000000  0.25000000  1
  Pb  Pb4  1  0.50000000  0.00000000  0.00000000  1
  Pb  Pb5  1  0.50000000  0.50000000  0.50000000  1
  Pb  Pb6  1  0.00000000  0.00000000  0.50000000  1
  Pb  Pb7  1  0.00000000  0.50000000  0.00000000  1
  W  W8  1  0.25000000  0.25000000  0.75000000  1
  W  W9  1  0.25000000  0.75000000  0.25000000  1
  W  W10  1  0.75000000  0.25000000  0.25000000  1
  W  W11  1  0.75000000  0.75000000  0.75000000  1
