# generated using pymatgen
data_Sr2CoSe2(ClO3)2
_symmetry_space_group_name_H-M   'P 1'
_cell_length_a   5.42450197
_cell_length_b   6.51151500
_cell_length_c   13.42092455
_cell_angle_alpha   90.00000000
_cell_angle_beta   110.91618148
_cell_angle_gamma   90.00000000
_symmetry_Int_Tables_number   1
_chemical_formula_structural   Sr2CoSe2(ClO3)2
_chemical_formula_sum   'Sr4 Co2 Se4 Cl4 O12'
_cell_volume   442.81205761
_cell_formula_units_Z   2
loop_
 _symmetry_equiv_pos_site_id
 _symmetry_equiv_pos_as_xyz
  1  'x, y, z'
loop_
 _atom_site_type_symbol
 _atom_site_label
 _atom_site_symmetry_multiplicity
 _atom_site_fract_x
 _atom_site_fract_y
 _atom_site_fract_z
 _atom_site_occupancy
  Sr  Sr0  1  0.22142900  0.29922900  0.23424300  1
  Sr  Sr1  1  0.77857100  0.70077100  0.76575700  1
  Sr  Sr2  1  0.77857100  0.79922900  0.26575700  1
  Sr  Sr3  1  0.22142900  0.20077100  0.73424300  1
  Co  Co4  1  0.50000000  0.00000000  0.50000000  1
  Co  Co5  1  0.50000000  0.50000000  0.00000000  1
  Se  Se6  1  0.08021700  0.76251100  0.07504100  1
  Se  Se7  1  0.08021700  0.73748900  0.57504100  1
  Se  Se8  1  0.91978300  0.26251100  0.42495900  1
  Se  Se9  1  0.91978300  0.23748900  0.92495900  1
  Cl  Cl10  1  0.44016600  0.82642100  0.89434400  1
  Cl  Cl11  1  0.44016600  0.67357900  0.39434400  1
  Cl  Cl12  1  0.55983400  0.17357900  0.10565600  1
  Cl  Cl13  1  0.55983400  0.32642100  0.60565600  1
  O  O14  1  0.62425700  0.37624000  0.87946900  1
  O  O15  1  0.37574300  0.62376000  0.12053100  1
  O  O16  1  0.37574300  0.87624000  0.62053100  1
  O  O17  1  0.62425700  0.12376000  0.37946900  1
  O  O18  1  0.88115600  0.42777500  0.32204400  1
  O  O19  1  0.11884400  0.57222500  0.67795600  1
  O  O20  1  0.88115600  0.07222500  0.82204400  1
  O  O21  1  0.11884400  0.92777500  0.17795600  1
  O  O22  1  0.88261900  0.92277400  0.60552900  1
  O  O23  1  0.11738100  0.42277400  0.89447100  1
  O  O24  1  0.11738100  0.07722600  0.39447100  1
  O  O25  1  0.88261900  0.57722600  0.10552900  1
