# generated using pymatgen
data_Rb3(Cu4Se3)2
_symmetry_space_group_name_H-M   'P 1'
_cell_length_a   18.63253000
_cell_length_b   4.01767800
_cell_length_c   10.29469749
_cell_angle_alpha   90.00000000
_cell_angle_beta   105.96159848
_cell_angle_gamma   90.00000000
_symmetry_Int_Tables_number   1
_chemical_formula_structural   Rb3(Cu4Se3)2
_chemical_formula_sum   'Rb6 Cu16 Se12'
_cell_volume   740.94426743
_cell_formula_units_Z   2
loop_
 _symmetry_equiv_pos_site_id
 _symmetry_equiv_pos_as_xyz
  1  'x, y, z'
loop_
 _atom_site_type_symbol
 _atom_site_label
 _atom_site_symmetry_multiplicity
 _atom_site_fract_x
 _atom_site_fract_y
 _atom_site_fract_z
 _atom_site_occupancy
  Rb  Rb0  1  0.81212400  0.50000000  0.69449600  1
  Rb  Rb1  1  0.68787600  0.00000000  0.30550400  1
  Rb  Rb2  1  0.00000000  0.50000000  0.00000000  1
  Rb  Rb3  1  0.31212400  0.00000000  0.69449600  1
  Rb  Rb4  1  0.18787600  0.50000000  0.30550400  1
  Rb  Rb5  1  0.50000000  0.00000000  0.00000000  1
  Cu  Cu6  1  0.57957800  0.50000000  0.53019400  1
  Cu  Cu7  1  0.79804200  0.50000000  0.07778600  1
  Cu  Cu8  1  0.97699600  0.50000000  0.35887200  1
  Cu  Cu9  1  0.61099900  0.50000000  0.78113000  1
  Cu  Cu10  1  0.52300400  0.00000000  0.64112800  1
  Cu  Cu11  1  0.92042200  0.00000000  0.46980600  1
  Cu  Cu12  1  0.70195800  0.00000000  0.92221400  1
  Cu  Cu13  1  0.88900100  0.00000000  0.21887000  1
  Cu  Cu14  1  0.07957800  0.00000000  0.53019400  1
  Cu  Cu15  1  0.29804200  0.00000000  0.07778600  1
  Cu  Cu16  1  0.47699600  0.00000000  0.35887200  1
  Cu  Cu17  1  0.11099900  0.00000000  0.78113000  1
  Cu  Cu18  1  0.02300400  0.50000000  0.64112800  1
  Cu  Cu19  1  0.42042200  0.50000000  0.46980600  1
  Cu  Cu20  1  0.20195800  0.50000000  0.92221400  1
  Cu  Cu21  1  0.38900100  0.50000000  0.21887000  1
  Se  Se22  1  0.65961200  0.50000000  0.02045200  1
  Se  Se23  1  0.84038800  0.00000000  0.97954800  1
  Se  Se24  1  0.96779700  0.00000000  0.70809100  1
  Se  Se25  1  0.84429600  0.50000000  0.35111400  1
  Se  Se26  1  0.65570400  0.00000000  0.64888600  1
  Se  Se27  1  0.53220300  0.50000000  0.29190900  1
  Se  Se28  1  0.15961200  0.00000000  0.02045200  1
  Se  Se29  1  0.34038800  0.50000000  0.97954800  1
  Se  Se30  1  0.46779700  0.50000000  0.70809100  1
  Se  Se31  1  0.34429600  0.00000000  0.35111400  1
  Se  Se32  1  0.15570400  0.50000000  0.64888600  1
  Se  Se33  1  0.03220300  0.00000000  0.29190900  1
