# generated using pymatgen
data_In2NiS4
_symmetry_space_group_name_H-M   'P 1'
_cell_length_a   7.40613400
_cell_length_b   7.60335200
_cell_length_c   10.48624200
_cell_angle_alpha   90.00000000
_cell_angle_beta   90.00000000
_cell_angle_gamma   90.00000000
_symmetry_Int_Tables_number   1
_chemical_formula_structural   In2NiS4
_chemical_formula_sum   'In8 Ni4 S16'
_cell_volume   590.49542665
_cell_formula_units_Z   4
loop_
 _symmetry_equiv_pos_site_id
 _symmetry_equiv_pos_as_xyz
  1  'x, y, z'
loop_
 _atom_site_type_symbol
 _atom_site_label
 _atom_site_symmetry_multiplicity
 _atom_site_fract_x
 _atom_site_fract_y
 _atom_site_fract_z
 _atom_site_occupancy
  In  In0  1  0.50000000  0.25000000  0.36519000  1
  In  In1  1  0.50000000  0.00000000  0.00000000  1
  In  In2  1  0.00000000  0.00000000  0.50000000  1
  In  In3  1  0.50000000  0.75000000  0.63481000  1
  In  In4  1  0.00000000  0.75000000  0.86519000  1
  In  In5  1  0.00000000  0.50000000  0.50000000  1
  In  In6  1  0.50000000  0.50000000  0.00000000  1
  In  In7  1  0.00000000  0.25000000  0.13481000  1
  Ni  Ni8  1  0.75000000  0.75000000  0.25000000  1
  Ni  Ni9  1  0.25000000  0.75000000  0.25000000  1
  Ni  Ni10  1  0.25000000  0.25000000  0.75000000  1
  Ni  Ni11  1  0.75000000  0.25000000  0.75000000  1
  S  S12  1  0.50000000  0.95560000  0.24828300  1
  S  S13  1  0.00000000  0.04440000  0.74828300  1
  S  S14  1  0.24177350  0.25000000  0.52444250  1
  S  S15  1  0.75822650  0.25000000  0.52444250  1
  S  S16  1  0.24177350  0.75000000  0.47555750  1
  S  S17  1  0.75822650  0.75000000  0.47555750  1
  S  S18  1  0.00000000  0.95560000  0.25171700  1
  S  S19  1  0.50000000  0.04440000  0.75171700  1
  S  S20  1  0.00000000  0.45560000  0.74828300  1
  S  S21  1  0.50000000  0.54440000  0.24828300  1
  S  S22  1  0.74177350  0.75000000  0.02444250  1
  S  S23  1  0.25822650  0.75000000  0.02444250  1
  S  S24  1  0.74177350  0.25000000  0.97555750  1
  S  S25  1  0.25822650  0.25000000  0.97555750  1
  S  S26  1  0.50000000  0.45560000  0.75171700  1
  S  S27  1  0.00000000  0.54440000  0.25171700  1
