# generated using pymatgen
data_NaYbF4
_symmetry_space_group_name_H-M   'P 1'
_cell_length_a   5.70253600
_cell_length_b   5.70253600
_cell_length_c   9.75632800
_cell_angle_alpha   90.00000000
_cell_angle_beta   90.00000000
_cell_angle_gamma   90.00000000
_symmetry_Int_Tables_number   1
_chemical_formula_structural   NaYbF4
_chemical_formula_sum   'Na4 Yb4 F16'
_cell_volume   317.26521881
_cell_formula_units_Z   4
loop_
 _symmetry_equiv_pos_site_id
 _symmetry_equiv_pos_as_xyz
  1  'x, y, z'
loop_
 _atom_site_type_symbol
 _atom_site_label
 _atom_site_symmetry_multiplicity
 _atom_site_fract_x
 _atom_site_fract_y
 _atom_site_fract_z
 _atom_site_occupancy
  Na  Na0  1  0.50000000  0.50000000  0.00000000  1
  Na  Na1  1  0.50000000  0.00000000  0.25000000  1
  Na  Na2  1  0.00000000  0.00000000  0.50000000  1
  Na  Na3  1  0.00000000  0.50000000  0.75000000  1
  Yb  Yb4  1  0.00000000  0.00000000  0.00000000  1
  Yb  Yb5  1  0.00000000  0.50000000  0.25000000  1
  Yb  Yb6  1  0.50000000  0.50000000  0.50000000  1
  Yb  Yb7  1  0.50000000  0.00000000  0.75000000  1
  F  F8  1  0.23674300  0.25000000  0.12500000  1
  F  F9  1  0.76325700  0.75000000  0.12500000  1
  F  F10  1  0.75000000  0.73674300  0.37500000  1
  F  F11  1  0.75000000  0.26325700  0.37500000  1
  F  F12  1  0.23674300  0.75000000  0.12500000  1
  F  F13  1  0.25000000  0.26325700  0.37500000  1
  F  F14  1  0.25000000  0.73674300  0.37500000  1
  F  F15  1  0.76325700  0.25000000  0.12500000  1
  F  F16  1  0.73674300  0.75000000  0.62500000  1
  F  F17  1  0.26325700  0.25000000  0.62500000  1
  F  F18  1  0.25000000  0.23674300  0.87500000  1
  F  F19  1  0.25000000  0.76325700  0.87500000  1
  F  F20  1  0.73674300  0.25000000  0.62500000  1
  F  F21  1  0.75000000  0.76325700  0.87500000  1
  F  F22  1  0.75000000  0.23674300  0.87500000  1
  F  F23  1  0.26325700  0.75000000  0.62500000  1
