# generated using pymatgen
data_K2Ba6Yb3Bi5O24
_symmetry_space_group_name_H-M   'P 1'
_cell_length_a   8.69842600
_cell_length_b   24.57145800
_cell_length_c   6.18031000
_cell_angle_alpha   90.00000000
_cell_angle_beta   90.00000000
_cell_angle_gamma   90.00000000
_symmetry_Int_Tables_number   1
_chemical_formula_structural   K2Ba6Yb3Bi5O24
_chemical_formula_sum   'K4 Ba12 Yb6 Bi10 O48'
_cell_volume   1320.93625363
_cell_formula_units_Z   2
loop_
 _symmetry_equiv_pos_site_id
 _symmetry_equiv_pos_as_xyz
  1  'x, y, z'
loop_
 _atom_site_type_symbol
 _atom_site_label
 _atom_site_symmetry_multiplicity
 _atom_site_fract_x
 _atom_site_fract_y
 _atom_site_fract_z
 _atom_site_occupancy
  K  K0  1  0.75000000  0.25000000  0.50000000  1
  K  K1  1  0.25000000  0.25000000  0.50000000  1
  K  K2  1  0.25000000  0.75000000  0.50000000  1
  K  K3  1  0.75000000  0.75000000  0.50000000  1
  Ba  Ba4  1  0.75060000  0.37409100  0.00000000  1
  Ba  Ba5  1  0.24940000  0.37409100  0.00000000  1
  Ba  Ba6  1  0.74795400  0.00000000  0.50000000  1
  Ba  Ba7  1  0.74940000  0.12590900  0.00000000  1
  Ba  Ba8  1  0.25204600  0.00000000  0.50000000  1
  Ba  Ba9  1  0.25060000  0.12590900  0.00000000  1
  Ba  Ba10  1  0.25060000  0.87409100  0.00000000  1
  Ba  Ba11  1  0.74940000  0.87409100  0.00000000  1
  Ba  Ba12  1  0.24795400  0.50000000  0.50000000  1
  Ba  Ba13  1  0.24940000  0.62590900  0.00000000  1
  Ba  Ba14  1  0.75204600  0.50000000  0.50000000  1
  Ba  Ba15  1  0.75060000  0.62590900  0.00000000  1
  Yb  Yb16  1  0.00000000  0.00000000  0.00000000  1
  Yb  Yb17  1  0.00000000  0.37171500  0.50000000  1
  Yb  Yb18  1  0.50000000  0.12828500  0.50000000  1
  Yb  Yb19  1  0.50000000  0.50000000  0.00000000  1
  Yb  Yb20  1  0.50000000  0.87171500  0.50000000  1
  Yb  Yb21  1  0.00000000  0.62828500  0.50000000  1
  Bi  Bi22  1  0.50000000  0.00000000  0.00000000  1
  Bi  Bi23  1  0.00000000  0.12508600  0.50000000  1
  Bi  Bi24  1  0.00000000  0.25036000  0.00000000  1
  Bi  Bi25  1  0.50000000  0.24964000  0.00000000  1
  Bi  Bi26  1  0.50000000  0.37491400  0.50000000  1
  Bi  Bi27  1  0.00000000  0.50000000  0.00000000  1
  Bi  Bi28  1  0.50000000  0.62508600  0.50000000  1
  Bi  Bi29  1  0.50000000  0.75036000  0.00000000  1
  Bi  Bi30  1  0.00000000  0.74964000  0.00000000  1
  Bi  Bi31  1  0.00000000  0.87491400  0.50000000  1
  O  O32  1  0.73980150  0.37571150  0.50000000  1
  O  O33  1  0.00000000  0.43839300  0.24665000  1
  O  O34  1  0.00000000  0.43839300  0.75335000  1
  O  O35  1  0.50000000  0.06160700  0.24665000  1
  O  O36  1  0.50000000  0.06160700  0.75335000  1
  O  O37  1  0.26019850  0.37571150  0.50000000  1
  O  O38  1  0.74194600  0.00000000  0.00000000  1
  O  O39  1  0.76019850  0.12428850  0.50000000  1
  O  O40  1  0.75000000  0.25000000  0.00000000  1
  O  O41  1  0.50000000  0.43415800  0.25652000  1
  O  O42  1  0.50000000  0.43415800  0.74348000  1
  O  O43  1  0.00000000  0.06584200  0.74348000  1
  O  O44  1  0.00000000  0.06584200  0.25652000  1
  O  O45  1  0.00000000  0.18549800  0.23696100  1
  O  O46  1  0.00000000  0.18549800  0.76303900  1
  O  O47  1  0.00000000  0.31217200  0.77285600  1
  O  O48  1  0.00000000  0.31217200  0.22714400  1
  O  O49  1  0.25805400  0.00000000  0.00000000  1
  O  O50  1  0.25000000  0.25000000  0.00000000  1
  O  O51  1  0.23980150  0.12428850  0.50000000  1
  O  O52  1  0.50000000  0.18782800  0.22714400  1
  O  O53  1  0.50000000  0.18782800  0.77285600  1
  O  O54  1  0.50000000  0.31450200  0.76303900  1
  O  O55  1  0.50000000  0.31450200  0.23696100  1
  O  O56  1  0.23980150  0.87571150  0.50000000  1
  O  O57  1  0.50000000  0.93839300  0.24665000  1
  O  O58  1  0.50000000  0.93839300  0.75335000  1
  O  O59  1  0.00000000  0.56160700  0.24665000  1
  O  O60  1  0.00000000  0.56160700  0.75335000  1
  O  O61  1  0.76019850  0.87571150  0.50000000  1
  O  O62  1  0.24194600  0.50000000  0.00000000  1
  O  O63  1  0.26019850  0.62428850  0.50000000  1
  O  O64  1  0.25000000  0.75000000  0.00000000  1
  O  O65  1  0.00000000  0.93415800  0.25652000  1
  O  O66  1  0.00000000  0.93415800  0.74348000  1
  O  O67  1  0.50000000  0.56584200  0.74348000  1
  O  O68  1  0.50000000  0.56584200  0.25652000  1
  O  O69  1  0.50000000  0.68549800  0.23696100  1
  O  O70  1  0.50000000  0.68549800  0.76303900  1
  O  O71  1  0.50000000  0.81217200  0.77285600  1
  O  O72  1  0.50000000  0.81217200  0.22714400  1
  O  O73  1  0.75805400  0.50000000  0.00000000  1
  O  O74  1  0.75000000  0.75000000  0.00000000  1
  O  O75  1  0.73980150  0.62428850  0.50000000  1
  O  O76  1  0.00000000  0.68782800  0.22714400  1
  O  O77  1  0.00000000  0.68782800  0.77285600  1
  O  O78  1  0.00000000  0.81450200  0.76303900  1
  O  O79  1  0.00000000  0.81450200  0.23696100  1
