# generated using pymatgen
data_SrLaZr2
_symmetry_space_group_name_H-M   'P 1'
_cell_length_a   7.84484600
_cell_length_b   7.84484600
_cell_length_c   7.84484600
_cell_angle_alpha   90.00000000
_cell_angle_beta   90.00000000
_cell_angle_gamma   90.00000000
_symmetry_Int_Tables_number   1
_chemical_formula_structural   SrLaZr2
_chemical_formula_sum   'Sr4 La4 Zr8'
_cell_volume   482.78444334
_cell_formula_units_Z   4
loop_
 _symmetry_equiv_pos_site_id
 _symmetry_equiv_pos_as_xyz
  1  'x, y, z'
loop_
 _atom_site_type_symbol
 _atom_site_label
 _atom_site_symmetry_multiplicity
 _atom_site_fract_x
 _atom_site_fract_y
 _atom_site_fract_z
 _atom_site_occupancy
  Sr  Sr0  1  0.50000000  0.00000000  0.00000000  1
  Sr  Sr1  1  0.50000000  0.50000000  0.50000000  1
  Sr  Sr2  1  0.00000000  0.00000000  0.50000000  1
  Sr  Sr3  1  0.00000000  0.50000000  0.00000000  1
  La  La4  1  0.00000000  0.00000000  0.00000000  1
  La  La5  1  0.00000000  0.50000000  0.50000000  1
  La  La6  1  0.50000000  0.00000000  0.50000000  1
  La  La7  1  0.50000000  0.50000000  0.00000000  1
  Zr  Zr8  1  0.25000000  0.25000000  0.75000000  1
  Zr  Zr9  1  0.25000000  0.75000000  0.75000000  1
  Zr  Zr10  1  0.25000000  0.75000000  0.25000000  1
  Zr  Zr11  1  0.25000000  0.25000000  0.25000000  1
  Zr  Zr12  1  0.75000000  0.25000000  0.25000000  1
  Zr  Zr13  1  0.75000000  0.75000000  0.25000000  1
  Zr  Zr14  1  0.75000000  0.75000000  0.75000000  1
  Zr  Zr15  1  0.75000000  0.25000000  0.75000000  1
