# generated using pymatgen
data_Nd2Tl(MoO4)4
_symmetry_space_group_name_H-M   'P 1'
_cell_length_a   5.43216400
_cell_length_b   12.73245400
_cell_length_c   19.84510769
_cell_angle_alpha   90.00000000
_cell_angle_beta   92.68205221
_cell_angle_gamma   90.00000000
_symmetry_Int_Tables_number   1
_chemical_formula_structural   Nd2Tl(MoO4)4
_chemical_formula_sum   'Nd8 Tl4 Mo16 O64'
_cell_volume   1371.07892106
_cell_formula_units_Z   4
loop_
 _symmetry_equiv_pos_site_id
 _symmetry_equiv_pos_as_xyz
  1  'x, y, z'
loop_
 _atom_site_type_symbol
 _atom_site_label
 _atom_site_symmetry_multiplicity
 _atom_site_fract_x
 _atom_site_fract_y
 _atom_site_fract_z
 _atom_site_occupancy
  Nd  Nd0  1  0.50123400  0.64741700  0.53325600  1
  Nd  Nd1  1  0.49876600  0.64741700  0.96674400  1
  Nd  Nd2  1  0.00123400  0.85258300  0.03325600  1
  Nd  Nd3  1  0.99876600  0.85258300  0.46674400  1
  Nd  Nd4  1  0.00123400  0.14741700  0.53325600  1
  Nd  Nd5  1  0.99876600  0.14741700  0.96674400  1
  Nd  Nd6  1  0.50123400  0.35258300  0.03325600  1
  Nd  Nd7  1  0.49876600  0.35258300  0.46674400  1
  Tl  Tl8  1  0.50000000  0.52501500  0.75000000  1
  Tl  Tl9  1  0.00000000  0.97498500  0.25000000  1
  Tl  Tl10  1  0.00000000  0.02501500  0.75000000  1
  Tl  Tl11  1  0.50000000  0.47498500  0.25000000  1
  Mo  Mo12  1  0.51263400  0.94035200  0.59213000  1
  Mo  Mo13  1  0.01430650  0.74088850  0.65193900  1
  Mo  Mo14  1  0.98569350  0.74088850  0.84806100  1
  Mo  Mo15  1  0.48736600  0.94035200  0.90787000  1
  Mo  Mo16  1  0.01263400  0.55964800  0.09213000  1
  Mo  Mo17  1  0.51430650  0.75911150  0.15193900  1
  Mo  Mo18  1  0.48569350  0.75911150  0.34806100  1
  Mo  Mo19  1  0.98736600  0.55964800  0.40787000  1
  Mo  Mo20  1  0.01263400  0.44035200  0.59213000  1
  Mo  Mo21  1  0.51430650  0.24088850  0.65193900  1
  Mo  Mo22  1  0.48569350  0.24088850  0.84806100  1
  Mo  Mo23  1  0.98736600  0.44035200  0.90787000  1
  Mo  Mo24  1  0.51263400  0.05964800  0.09213000  1
  Mo  Mo25  1  0.01430650  0.25911150  0.15193900  1
  Mo  Mo26  1  0.98569350  0.25911150  0.34806100  1
  Mo  Mo27  1  0.48736600  0.05964800  0.40787000  1
  O  O28  1  0.22354700  0.69069800  0.71507200  1
  O  O29  1  0.22723450  0.54697250  0.60307100  1
  O  O30  1  0.24384850  0.65257250  0.86432800  1
  O  O31  1  0.16817950  0.75947050  0.57040500  1
  O  O32  1  0.75557900  0.98225100  0.96258200  1
  O  O33  1  0.65628350  0.83041150  0.54586000  1
  O  O34  1  0.72354700  0.80930200  0.21507200  1
  O  O35  1  0.72723450  0.95302750  0.10307100  1
  O  O36  1  0.74384850  0.84742750  0.36432800  1
  O  O37  1  0.66817950  0.74052950  0.07040500  1
  O  O38  1  0.25557900  0.51774900  0.46258200  1
  O  O39  1  0.10604300  0.86544700  0.82419500  1
  O  O40  1  0.15628350  0.66958850  0.04586000  1
  O  O41  1  0.60410250  0.91049450  0.83020600  1
  O  O42  1  0.60604300  0.63455300  0.32419500  1
  O  O43  1  0.10410250  0.58950550  0.33020600  1
  O  O44  1  0.39589750  0.91049450  0.66979400  1
  O  O45  1  0.89395700  0.86544700  0.67580500  1
  O  O46  1  0.89589750  0.58950550  0.16979400  1
  O  O47  1  0.34371650  0.83041150  0.95414000  1
  O  O48  1  0.39395700  0.63455300  0.17580500  1
  O  O49  1  0.24442100  0.98225100  0.53741800  1
  O  O50  1  0.83182050  0.75947050  0.92959500  1
  O  O51  1  0.75615150  0.65257250  0.63567200  1
  O  O52  1  0.77276550  0.54697250  0.89692900  1
  O  O53  1  0.77645300  0.69069800  0.78492800  1
  O  O54  1  0.84371650  0.66958850  0.45414000  1
  O  O55  1  0.74442100  0.51774900  0.03741800  1
  O  O56  1  0.33182050  0.74052950  0.42959500  1
  O  O57  1  0.25615150  0.84742750  0.13567200  1
  O  O58  1  0.27276550  0.95302750  0.39692900  1
  O  O59  1  0.27645300  0.80930200  0.28492800  1
  O  O60  1  0.72354700  0.19069800  0.71507200  1
  O  O61  1  0.72723450  0.04697250  0.60307100  1
  O  O62  1  0.74384850  0.15257250  0.86432800  1
  O  O63  1  0.66817950  0.25947050  0.57040500  1
  O  O64  1  0.25557900  0.48225100  0.96258200  1
  O  O65  1  0.15628350  0.33041150  0.54586000  1
  O  O66  1  0.22354700  0.30930200  0.21507200  1
  O  O67  1  0.22723450  0.45302750  0.10307100  1
  O  O68  1  0.24384850  0.34742750  0.36432800  1
  O  O69  1  0.16817950  0.24052950  0.07040500  1
  O  O70  1  0.75557900  0.01774900  0.46258200  1
  O  O71  1  0.60604300  0.36544700  0.82419500  1
  O  O72  1  0.65628350  0.16958850  0.04586000  1
  O  O73  1  0.10410250  0.41049450  0.83020600  1
  O  O74  1  0.10604300  0.13455300  0.32419500  1
  O  O75  1  0.60410250  0.08950550  0.33020600  1
  O  O76  1  0.89589750  0.41049450  0.66979400  1
  O  O77  1  0.39395700  0.36544700  0.67580500  1
  O  O78  1  0.39589750  0.08950550  0.16979400  1
  O  O79  1  0.84371650  0.33041150  0.95414000  1
  O  O80  1  0.89395700  0.13455300  0.17580500  1
  O  O81  1  0.74442100  0.48225100  0.53741800  1
  O  O82  1  0.33182050  0.25947050  0.92959500  1
  O  O83  1  0.25615150  0.15257250  0.63567200  1
  O  O84  1  0.27276550  0.04697250  0.89692900  1
  O  O85  1  0.27645300  0.19069800  0.78492800  1
  O  O86  1  0.34371650  0.16958850  0.45414000  1
  O  O87  1  0.24442100  0.01774900  0.03741800  1
  O  O88  1  0.83182050  0.24052950  0.42959500  1
  O  O89  1  0.75615150  0.34742750  0.13567200  1
  O  O90  1  0.77276550  0.45302750  0.39692900  1
  O  O91  1  0.77645300  0.30930200  0.28492800  1
