# generated using pymatgen
data_Sr4Mn2Cu3(SO)4
_symmetry_space_group_name_H-M   'P 1'
_cell_length_a   5.72538200
_cell_length_b   11.45923200
_cell_length_c   17.23670800
_cell_angle_alpha   90.00000000
_cell_angle_beta   90.00000000
_cell_angle_gamma   90.00000000
_symmetry_Int_Tables_number   1
_chemical_formula_structural   Sr4Mn2Cu3(SO)4
_chemical_formula_sum   'Sr16 Mn8 Cu12 S16 O16'
_cell_volume   1130.87422288
_cell_formula_units_Z   4
loop_
 _symmetry_equiv_pos_site_id
 _symmetry_equiv_pos_as_xyz
  1  'x, y, z'
loop_
 _atom_site_type_symbol
 _atom_site_label
 _atom_site_symmetry_multiplicity
 _atom_site_fract_x
 _atom_site_fract_y
 _atom_site_fract_z
 _atom_site_occupancy
  Sr  Sr0  1  0.74384100  0.12394100  0.89965300  1
  Sr  Sr1  1  0.25615900  0.87605900  0.10034700  1
  Sr  Sr2  1  0.75615900  0.62394100  0.89965300  1
  Sr  Sr3  1  0.74384100  0.12394100  0.10034700  1
  Sr  Sr4  1  0.25615900  0.87605900  0.89965300  1
  Sr  Sr5  1  0.75615900  0.62394100  0.10034700  1
  Sr  Sr6  1  0.24384100  0.37605900  0.10034700  1
  Sr  Sr7  1  0.24384100  0.37605900  0.89965300  1
  Sr  Sr8  1  0.24384100  0.62394100  0.39965300  1
  Sr  Sr9  1  0.75615900  0.37605900  0.60034700  1
  Sr  Sr10  1  0.25615900  0.12394100  0.39965300  1
  Sr  Sr11  1  0.24384100  0.62394100  0.60034700  1
  Sr  Sr12  1  0.75615900  0.37605900  0.39965300  1
  Sr  Sr13  1  0.25615900  0.12394100  0.60034700  1
  Sr  Sr14  1  0.74384100  0.87605900  0.60034700  1
  Sr  Sr15  1  0.74384100  0.87605900  0.39965300  1
  Mn  Mn16  1  0.25456800  0.62580200  0.00000000  1
  Mn  Mn17  1  0.75456800  0.87419800  0.00000000  1
  Mn  Mn18  1  0.24543200  0.12580200  0.00000000  1
  Mn  Mn19  1  0.74543200  0.37419800  0.00000000  1
  Mn  Mn20  1  0.75456800  0.12580200  0.50000000  1
  Mn  Mn21  1  0.25456800  0.37419800  0.50000000  1
  Mn  Mn22  1  0.74543200  0.62580200  0.50000000  1
  Mn  Mn23  1  0.24543200  0.87419800  0.50000000  1
  Cu  Cu24  1  0.00000000  0.74543300  0.25000000  1
  Cu  Cu25  1  0.50000000  0.50000000  0.75000000  1
  Cu  Cu26  1  0.00000000  0.74543300  0.75000000  1
  Cu  Cu27  1  0.00000000  0.25456700  0.25000000  1
  Cu  Cu28  1  0.50000000  0.50000000  0.25000000  1
  Cu  Cu29  1  0.00000000  0.25456700  0.75000000  1
  Cu  Cu30  1  0.50000000  0.24543300  0.75000000  1
  Cu  Cu31  1  0.00000000  0.00000000  0.25000000  1
  Cu  Cu32  1  0.50000000  0.24543300  0.25000000  1
  Cu  Cu33  1  0.50000000  0.75456700  0.75000000  1
  Cu  Cu34  1  0.00000000  0.00000000  0.75000000  1
  Cu  Cu35  1  0.50000000  0.75456700  0.25000000  1
  S  S36  1  0.74148800  0.62731200  0.32783200  1
  S  S37  1  0.25851200  0.62731200  0.82783200  1
  S  S38  1  0.74148800  0.37268800  0.17216800  1
  S  S39  1  0.74148800  0.37268800  0.82783200  1
  S  S40  1  0.25851200  0.62731200  0.17216800  1
  S  S41  1  0.25851200  0.37268800  0.67216800  1
  S  S42  1  0.25851200  0.37268800  0.32783200  1
  S  S43  1  0.74148800  0.62731200  0.67216800  1
  S  S44  1  0.24148800  0.12731200  0.82783200  1
  S  S45  1  0.75851200  0.12731200  0.32783200  1
  S  S46  1  0.24148800  0.87268800  0.67216800  1
  S  S47  1  0.24148800  0.87268800  0.32783200  1
  S  S48  1  0.75851200  0.12731200  0.67216800  1
  S  S49  1  0.75851200  0.87268800  0.17216800  1
  S  S50  1  0.75851200  0.87268800  0.82783200  1
  S  S51  1  0.24148800  0.12731200  0.17216800  1
  O  O52  1  0.49317500  0.25026700  0.00000000  1
  O  O53  1  0.50682500  0.74973300  0.00000000  1
  O  O54  1  0.99317500  0.24973300  0.00000000  1
  O  O55  1  0.00682500  0.75026700  0.00000000  1
  O  O56  1  0.50000000  0.00000000  0.00000000  1
  O  O57  1  0.00000000  0.50000000  0.00000000  1
  O  O58  1  0.50000000  0.50000000  0.00000000  1
  O  O59  1  0.00000000  0.00000000  0.00000000  1
  O  O60  1  0.99317500  0.75026700  0.50000000  1
  O  O61  1  0.00682500  0.24973300  0.50000000  1
  O  O62  1  0.49317500  0.74973300  0.50000000  1
  O  O63  1  0.50682500  0.25026700  0.50000000  1
  O  O64  1  0.00000000  0.50000000  0.50000000  1
  O  O65  1  0.50000000  0.00000000  0.50000000  1
  O  O66  1  0.00000000  0.00000000  0.50000000  1
  O  O67  1  0.50000000  0.50000000  0.50000000  1
