# generated using pymatgen
data_Sr4La4Mn7CuO24
_symmetry_space_group_name_H-M   'P 1'
_cell_length_a   5.45798848
_cell_length_b   5.55202970
_cell_length_c   18.19424442
_cell_angle_alpha   97.41998108
_cell_angle_beta   90.03038059
_cell_angle_gamma   119.41839342
_symmetry_Int_Tables_number   1
_chemical_formula_structural   Sr4La4Mn7CuO24
_chemical_formula_sum   'Sr4 La4 Mn7 Cu1 O24'
_cell_volume   474.91792172
_cell_formula_units_Z   1
loop_
 _symmetry_equiv_pos_site_id
 _symmetry_equiv_pos_as_xyz
  1  'x, y, z'
loop_
 _atom_site_type_symbol
 _atom_site_label
 _atom_site_symmetry_multiplicity
 _atom_site_fract_x
 _atom_site_fract_y
 _atom_site_fract_z
 _atom_site_occupancy
  Sr  Sr0  1  0.37637729  0.68669497  0.43855770  1
  Sr  Sr1  1  0.87735707  0.43861016  0.18712556  1
  Sr  Sr2  1  0.62362271  0.31330503  0.56144230  1
  Sr  Sr3  1  0.12264293  0.56138984  0.81287444  1
  La  La4  1  0.87166874  0.93735614  0.68503921  1
  La  La5  1  0.37301395  0.18658806  0.93893618  1
  La  La6  1  0.62698605  0.81341194  0.06106382  1
  La  La7  1  0.12833126  0.06264386  0.31496079  1
  Mn  Mn8  1  0.75105701  0.87376542  0.87458315  1
  Mn  Mn9  1  0.24939471  0.62391070  0.62439595  1
  Mn  Mn10  1  0.75060529  0.37608930  0.37560405  1
  Mn  Mn11  1  0.24894299  0.12623458  0.12541685  1
  Mn  Mn12  1  0.49868594  0.24883908  0.74962117  1
  Mn  Mn13  1  1.00000000  0.00000000  0.50000000  1
  Mn  Mn14  1  0.50131406  0.75116092  0.25037883  1
  Cu  Cu15  1  0.00000000  0.50000000  0.00000000  1
  O  O16  1  0.62012245  0.55805088  0.81286063  1
  O  O17  1  0.11953090  0.30632514  0.56595133  1
  O  O18  1  0.62656384  0.06015427  0.31094940  1
  O  O19  1  0.14241394  0.83926675  0.06335790  1
  O  O20  1  0.88812814  0.39798123  0.69725892  1
  O  O21  1  0.38973103  0.16269139  0.44342517  1
  O  O22  1  0.90280949  0.91541988  0.20020135  1
  O  O23  1  0.40031375  0.65061371  0.94852093  1
  O  O24  1  0.56163908  0.03710506  0.82484459  1
  O  O25  1  0.07143088  0.79077867  0.57434543  1
  O  O26  1  0.56124830  0.52569610  0.31991734  1
  O  O27  1  0.06022986  0.26967262  0.07083954  1
  O  O28  1  0.37343616  0.93984573  0.68905060  1
  O  O29  1  0.88046910  0.69367486  0.43404867  1
  O  O30  1  0.37987755  0.44194912  0.18713937  1
  O  O31  1  0.85758606  0.16073325  0.93664210  1
  O  O32  1  0.43875170  0.47430390  0.68008266  1
  O  O33  1  0.92856912  0.20922133  0.42565457  1
  O  O34  1  0.43836092  0.96289494  0.17515541  1
  O  O35  1  0.93977014  0.73032738  0.92916046  1
  O  O36  1  0.61026897  0.83730861  0.55657483  1
  O  O37  1  0.09719051  0.08458012  0.79979865  1
  O  O38  1  0.59968625  0.34938629  0.05147907  1
  O  O39  1  0.11187186  0.60201877  0.30274108  1
