# generated using pymatgen
data_InI4
_symmetry_space_group_name_H-M   'P 1'
_cell_length_a   20.43160800
_cell_length_b   20.43160800
_cell_length_c   20.43160800
_cell_angle_alpha   90.00000000
_cell_angle_beta   90.00000000
_cell_angle_gamma   90.00000000
_symmetry_Int_Tables_number   1
_chemical_formula_structural   InI4
_chemical_formula_sum   'In24 I96'
_cell_volume   8529.18713024
_cell_formula_units_Z   24
loop_
 _symmetry_equiv_pos_site_id
 _symmetry_equiv_pos_as_xyz
  1  'x, y, z'
loop_
 _atom_site_type_symbol
 _atom_site_label
 _atom_site_symmetry_multiplicity
 _atom_site_fract_x
 _atom_site_fract_y
 _atom_site_fract_z
 _atom_site_occupancy
  In  In0  1  0.25000000  0.00000000  0.50000000  1
  In  In1  1  0.50000000  0.00000000  0.25000000  1
  In  In2  1  0.50000000  0.75000000  0.50000000  1
  In  In3  1  0.50000000  0.25000000  0.50000000  1
  In  In4  1  0.75000000  0.00000000  0.50000000  1
  In  In5  1  0.00000000  0.00000000  0.25000000  1
  In  In6  1  0.25000000  0.50000000  0.00000000  1
  In  In7  1  0.50000000  0.50000000  0.75000000  1
  In  In8  1  0.50000000  0.25000000  0.00000000  1
  In  In9  1  0.50000000  0.75000000  0.00000000  1
  In  In10  1  0.75000000  0.50000000  0.00000000  1
  In  In11  1  0.00000000  0.50000000  0.75000000  1
  In  In12  1  0.75000000  0.00000000  0.00000000  1
  In  In13  1  0.00000000  0.00000000  0.75000000  1
  In  In14  1  0.00000000  0.75000000  0.00000000  1
  In  In15  1  0.00000000  0.25000000  0.00000000  1
  In  In16  1  0.25000000  0.00000000  0.00000000  1
  In  In17  1  0.50000000  0.00000000  0.75000000  1
  In  In18  1  0.75000000  0.50000000  0.50000000  1
  In  In19  1  0.00000000  0.50000000  0.25000000  1
  In  In20  1  0.00000000  0.25000000  0.50000000  1
  In  In21  1  0.00000000  0.75000000  0.50000000  1
  In  In22  1  0.25000000  0.50000000  0.50000000  1
  In  In23  1  0.50000000  0.50000000  0.25000000  1
  I  I24  1  0.88945450  0.00000000  0.17252650  1
  I  I25  1  0.67252650  0.11054550  0.50000000  1
  I  I26  1  0.67252650  0.88945450  0.50000000  1
  I  I27  1  0.11054550  0.00000000  0.17252650  1
  I  I28  1  0.50000000  0.17252650  0.38945450  1
  I  I29  1  0.50000000  0.82747350  0.38945450  1
  I  I30  1  0.00000000  0.17252650  0.11054550  1
  I  I31  1  0.00000000  0.82747350  0.11054550  1
  I  I32  1  0.38945450  0.00000000  0.32747350  1
  I  I33  1  0.32747350  0.11054550  0.50000000  1
  I  I34  1  0.32747350  0.88945450  0.50000000  1
  I  I35  1  0.61054550  0.00000000  0.32747350  1
  I  I36  1  0.17252650  0.00000000  0.38945450  1
  I  I37  1  0.50000000  0.88945450  0.17252650  1
  I  I38  1  0.50000000  0.11054550  0.17252650  1
  I  I39  1  0.67252650  0.00000000  0.11054550  1
  I  I40  1  0.38945450  0.67252650  0.50000000  1
  I  I41  1  0.38945450  0.32747350  0.50000000  1
  I  I42  1  0.61054550  0.67252650  0.50000000  1
  I  I43  1  0.61054550  0.32747350  0.50000000  1
  I  I44  1  0.82747350  0.00000000  0.38945450  1
  I  I45  1  0.00000000  0.11054550  0.32747350  1
  I  I46  1  0.00000000  0.88945450  0.32747350  1
  I  I47  1  0.32747350  0.00000000  0.11054550  1
  I  I48  1  0.88945450  0.50000000  0.67252650  1
  I  I49  1  0.67252650  0.61054550  0.00000000  1
  I  I50  1  0.67252650  0.38945450  0.00000000  1
  I  I51  1  0.11054550  0.50000000  0.67252650  1
  I  I52  1  0.50000000  0.67252650  0.88945450  1
  I  I53  1  0.50000000  0.32747350  0.88945450  1
  I  I54  1  0.00000000  0.67252650  0.61054550  1
  I  I55  1  0.00000000  0.32747350  0.61054550  1
  I  I56  1  0.38945450  0.50000000  0.82747350  1
  I  I57  1  0.32747350  0.61054550  0.00000000  1
  I  I58  1  0.32747350  0.38945450  0.00000000  1
  I  I59  1  0.61054550  0.50000000  0.82747350  1
  I  I60  1  0.17252650  0.50000000  0.88945450  1
  I  I61  1  0.50000000  0.38945450  0.67252650  1
  I  I62  1  0.50000000  0.61054550  0.67252650  1
  I  I63  1  0.67252650  0.50000000  0.61054550  1
  I  I64  1  0.38945450  0.17252650  0.00000000  1
  I  I65  1  0.38945450  0.82747350  0.00000000  1
  I  I66  1  0.61054550  0.17252650  0.00000000  1
  I  I67  1  0.61054550  0.82747350  0.00000000  1
  I  I68  1  0.82747350  0.50000000  0.88945450  1
  I  I69  1  0.00000000  0.61054550  0.82747350  1
  I  I70  1  0.00000000  0.38945450  0.82747350  1
  I  I71  1  0.32747350  0.50000000  0.61054550  1
  I  I72  1  0.38945450  0.00000000  0.67252650  1
  I  I73  1  0.17252650  0.11054550  0.00000000  1
  I  I74  1  0.17252650  0.88945450  0.00000000  1
  I  I75  1  0.61054550  0.00000000  0.67252650  1
  I  I76  1  0.00000000  0.17252650  0.88945450  1
  I  I77  1  0.00000000  0.82747350  0.88945450  1
  I  I78  1  0.50000000  0.17252650  0.61054550  1
  I  I79  1  0.50000000  0.82747350  0.61054550  1
  I  I80  1  0.88945450  0.00000000  0.82747350  1
  I  I81  1  0.82747350  0.11054550  0.00000000  1
  I  I82  1  0.82747350  0.88945450  0.00000000  1
  I  I83  1  0.11054550  0.00000000  0.82747350  1
  I  I84  1  0.67252650  0.00000000  0.88945450  1
  I  I85  1  0.00000000  0.88945450  0.67252650  1
  I  I86  1  0.00000000  0.11054550  0.67252650  1
  I  I87  1  0.17252650  0.00000000  0.61054550  1
  I  I88  1  0.88945450  0.67252650  0.00000000  1
  I  I89  1  0.88945450  0.32747350  0.00000000  1
  I  I90  1  0.11054550  0.67252650  0.00000000  1
  I  I91  1  0.11054550  0.32747350  0.00000000  1
  I  I92  1  0.32747350  0.00000000  0.88945450  1
  I  I93  1  0.50000000  0.11054550  0.82747350  1
  I  I94  1  0.50000000  0.88945450  0.82747350  1
  I  I95  1  0.82747350  0.00000000  0.61054550  1
  I  I96  1  0.38945450  0.50000000  0.17252650  1
  I  I97  1  0.17252650  0.61054550  0.50000000  1
  I  I98  1  0.17252650  0.38945450  0.50000000  1
  I  I99  1  0.61054550  0.50000000  0.17252650  1
  I  I100  1  0.00000000  0.67252650  0.38945450  1
  I  I101  1  0.00000000  0.32747350  0.38945450  1
  I  I102  1  0.50000000  0.67252650  0.11054550  1
  I  I103  1  0.50000000  0.32747350  0.11054550  1
  I  I104  1  0.88945450  0.50000000  0.32747350  1
  I  I105  1  0.82747350  0.61054550  0.50000000  1
  I  I106  1  0.82747350  0.38945450  0.50000000  1
  I  I107  1  0.11054550  0.50000000  0.32747350  1
  I  I108  1  0.67252650  0.50000000  0.38945450  1
  I  I109  1  0.00000000  0.38945450  0.17252650  1
  I  I110  1  0.00000000  0.61054550  0.17252650  1
  I  I111  1  0.17252650  0.50000000  0.11054550  1
  I  I112  1  0.88945450  0.17252650  0.50000000  1
  I  I113  1  0.88945450  0.82747350  0.50000000  1
  I  I114  1  0.11054550  0.17252650  0.50000000  1
  I  I115  1  0.11054550  0.82747350  0.50000000  1
  I  I116  1  0.32747350  0.50000000  0.38945450  1
  I  I117  1  0.50000000  0.61054550  0.32747350  1
  I  I118  1  0.50000000  0.38945450  0.32747350  1
  I  I119  1  0.82747350  0.50000000  0.11054550  1
