# generated using pymatgen
data_SrCrPd2
_symmetry_space_group_name_H-M   'P 1'
_cell_length_a   6.86085000
_cell_length_b   6.86085000
_cell_length_c   6.86085000
_cell_angle_alpha   90.00000000
_cell_angle_beta   90.00000000
_cell_angle_gamma   90.00000000
_symmetry_Int_Tables_number   1
_chemical_formula_structural   SrCrPd2
_chemical_formula_sum   'Sr4 Cr4 Pd8'
_cell_volume   322.94887285
_cell_formula_units_Z   4
loop_
 _symmetry_equiv_pos_site_id
 _symmetry_equiv_pos_as_xyz
  1  'x, y, z'
loop_
 _atom_site_type_symbol
 _atom_site_label
 _atom_site_symmetry_multiplicity
 _atom_site_fract_x
 _atom_site_fract_y
 _atom_site_fract_z
 _atom_site_occupancy
  Sr  Sr0  1  0.25000000  0.25000000  0.25000000  1
  Sr  Sr1  1  0.25000000  0.75000000  0.75000000  1
  Sr  Sr2  1  0.75000000  0.25000000  0.75000000  1
  Sr  Sr3  1  0.75000000  0.75000000  0.25000000  1
  Cr  Cr4  1  0.00000000  0.00000000  0.00000000  1
  Cr  Cr5  1  0.00000000  0.50000000  0.50000000  1
  Cr  Cr6  1  0.50000000  0.00000000  0.50000000  1
  Cr  Cr7  1  0.50000000  0.50000000  0.00000000  1
  Pd  Pd8  1  0.50000000  0.00000000  0.00000000  1
  Pd  Pd9  1  0.25000000  0.25000000  0.75000000  1
  Pd  Pd10  1  0.50000000  0.50000000  0.50000000  1
  Pd  Pd11  1  0.25000000  0.75000000  0.25000000  1
  Pd  Pd12  1  0.00000000  0.00000000  0.50000000  1
  Pd  Pd13  1  0.75000000  0.25000000  0.25000000  1
  Pd  Pd14  1  0.00000000  0.50000000  0.00000000  1
  Pd  Pd15  1  0.75000000  0.75000000  0.75000000  1
