# generated using pymatgen
data_BaMnO3
_symmetry_space_group_name_H-M   'P 1'
_cell_length_a   5.76421006
_cell_length_b   5.76421006
_cell_length_c   36.35917650
_cell_angle_alpha   90.00000000
_cell_angle_beta   90.00000000
_cell_angle_gamma   120.00000000
_symmetry_Int_Tables_number   1
_chemical_formula_structural   BaMnO3
_chemical_formula_sum   'Ba15 Mn15 O45'
_cell_volume   1046.22301058
_cell_formula_units_Z   15
loop_
 _symmetry_equiv_pos_site_id
 _symmetry_equiv_pos_as_xyz
  1  'x, y, z'
loop_
 _atom_site_type_symbol
 _atom_site_label
 _atom_site_symmetry_multiplicity
 _atom_site_fract_x
 _atom_site_fract_y
 _atom_site_fract_z
 _atom_site_occupancy
  Ba  Ba0  1  0.00000000  0.00000000  0.26537800  1
  Ba  Ba1  1  0.00000000  0.00000000  0.13398100  1
  Ba  Ba2  1  0.00000000  0.00000000  0.00000000  1
  Ba  Ba3  1  0.66666667  0.33333333  0.19935233  1
  Ba  Ba4  1  0.66666667  0.33333333  0.06795533  1
  Ba  Ba5  1  0.66666667  0.33333333  0.59871133  1
  Ba  Ba6  1  0.66666667  0.33333333  0.46731433  1
  Ba  Ba7  1  0.66666667  0.33333333  0.33333333  1
  Ba  Ba8  1  0.33333333  0.66666667  0.53268567  1
  Ba  Ba9  1  0.33333333  0.66666667  0.40128867  1
  Ba  Ba10  1  0.33333333  0.66666667  0.93204467  1
  Ba  Ba11  1  0.33333333  0.66666667  0.80064767  1
  Ba  Ba12  1  0.33333333  0.66666667  0.66666667  1
  Ba  Ba13  1  0.00000000  0.00000000  0.86601900  1
  Ba  Ba14  1  0.00000000  0.00000000  0.73462200  1
  Mn  Mn15  1  0.33333333  0.66666667  0.09798167  1
  Mn  Mn16  1  0.33333333  0.66666667  0.02815567  1
  Mn  Mn17  1  0.33333333  0.66666667  0.30517767  1
  Mn  Mn18  1  0.33333333  0.66666667  0.23535167  1
  Mn  Mn19  1  0.33333333  0.66666667  0.16666667  1
  Mn  Mn20  1  0.00000000  0.00000000  0.43131500  1
  Mn  Mn21  1  0.00000000  0.00000000  0.36148900  1
  Mn  Mn22  1  0.00000000  0.00000000  0.63851100  1
  Mn  Mn23  1  0.00000000  0.00000000  0.56868500  1
  Mn  Mn24  1  1.00000000  1.00000000  0.50000000  1
  Mn  Mn25  1  0.66666667  0.33333333  0.76464833  1
  Mn  Mn26  1  0.66666667  0.33333333  0.69482233  1
  Mn  Mn27  1  0.66666667  0.33333333  0.97184433  1
  Mn  Mn28  1  0.66666667  0.33333333  0.90201833  1
  Mn  Mn29  1  0.66666667  0.33333333  0.83333333  1
  O  O30  1  0.48232267  0.96464533  0.13281033  1
  O  O31  1  0.03535467  0.51767733  0.13281033  1
  O  O32  1  0.48232267  0.51767733  0.13281033  1
  O  O33  1  0.50000000  0.00000000  0.00000000  1
  O  O34  1  0.50000000  0.50000000  0.00000000  1
  O  O35  1  0.00000000  0.50000000  0.00000000  1
  O  O36  1  0.18434400  0.81565600  0.20052300  1
  O  O37  1  0.63131200  0.81565600  0.20052300  1
  O  O38  1  0.18434400  0.36868800  0.20052300  1
  O  O39  1  0.03924867  0.51962433  0.26905533  1
  O  O40  1  0.48037567  0.96075133  0.26905533  1
  O  O41  1  0.48037567  0.51962433  0.26905533  1
  O  O42  1  0.18629100  0.81370900  0.06427800  1
  O  O43  1  0.62741800  0.81370900  0.06427800  1
  O  O44  1  0.18629100  0.37258200  0.06427800  1
  O  O45  1  0.14898933  0.29797867  0.46614367  1
  O  O46  1  0.70202133  0.85101067  0.46614367  1
  O  O47  1  0.14898933  0.85101067  0.46614367  1
  O  O48  1  0.16666667  0.33333333  0.33333333  1
  O  O49  1  0.16666667  0.83333333  0.33333333  1
  O  O50  1  0.66666667  0.83333333  0.33333333  1
  O  O51  1  0.85101067  0.14898933  0.53385633  1
  O  O52  1  0.29797867  0.14898933  0.53385633  1
  O  O53  1  0.85101067  0.70202133  0.53385633  1
  O  O54  1  0.70591533  0.85295767  0.60238867  1
  O  O55  1  0.14704233  0.29408467  0.60238867  1
  O  O56  1  0.14704233  0.85295767  0.60238867  1
  O  O57  1  0.85295767  0.14704233  0.39761133  1
  O  O58  1  0.29408467  0.14704233  0.39761133  1
  O  O59  1  0.85295767  0.70591533  0.39761133  1
  O  O60  1  0.81565600  0.63131200  0.79947700  1
  O  O61  1  0.36868800  0.18434400  0.79947700  1
  O  O62  1  0.81565600  0.18434400  0.79947700  1
  O  O63  1  0.83333333  0.66666667  0.66666667  1
  O  O64  1  0.83333333  0.16666667  0.66666667  1
  O  O65  1  0.33333333  0.16666667  0.66666667  1
  O  O66  1  0.51767733  0.48232267  0.86718967  1
  O  O67  1  0.96464533  0.48232267  0.86718967  1
  O  O68  1  0.51767733  0.03535467  0.86718967  1
  O  O69  1  0.37258200  0.18629100  0.93572200  1
  O  O70  1  0.81370900  0.62741800  0.93572200  1
  O  O71  1  0.81370900  0.18629100  0.93572200  1
  O  O72  1  0.51962433  0.48037567  0.73094467  1
  O  O73  1  0.96075133  0.48037567  0.73094467  1
  O  O74  1  0.51962433  0.03924867  0.73094467  1
