# generated using pymatgen
data_U2Al20Fe
_symmetry_space_group_name_H-M   'P 1'
_cell_length_a   12.62734400
_cell_length_b   12.62734400
_cell_length_c   10.08262000
_cell_angle_alpha   90.00000000
_cell_angle_beta   90.00000000
_cell_angle_gamma   90.00000000
_symmetry_Int_Tables_number   1
_chemical_formula_structural   U2Al20Fe
_chemical_formula_sum   'U8 Al80 Fe4'
_cell_volume   1607.67190878
_cell_formula_units_Z   4
loop_
 _symmetry_equiv_pos_site_id
 _symmetry_equiv_pos_as_xyz
  1  'x, y, z'
loop_
 _atom_site_type_symbol
 _atom_site_label
 _atom_site_symmetry_multiplicity
 _atom_site_fract_x
 _atom_site_fract_y
 _atom_site_fract_z
 _atom_site_occupancy
  U  U0  1  0.83753550  0.83753550  0.74834950  1
  U  U1  1  0.66246450  0.33753550  0.75165050  1
  U  U2  1  0.83753550  0.16246450  0.25165050  1
  U  U3  1  0.66246450  0.66246450  0.24834950  1
  U  U4  1  0.33753550  0.33753550  0.24834950  1
  U  U5  1  0.16246450  0.83753550  0.25165050  1
  U  U6  1  0.33753550  0.66246450  0.75165050  1
  U  U7  1  0.16246450  0.16246450  0.74834950  1
  Al  Al8  1  0.76282100  0.23717900  0.98791900  1
  Al  Al9  1  0.23635300  0.08957000  0.25681200  1
  Al  Al10  1  0.43158400  0.83828100  0.61075200  1
  Al  Al11  1  0.50000000  0.65274300  0.00000000  1
  Al  Al12  1  0.58957000  0.26364700  0.24318800  1
  Al  Al13  1  0.34049550  0.92770550  0.39534850  1
  Al  Al14  1  0.00000000  0.00000000  0.74318700  1
  Al  Al15  1  0.58957000  0.73635300  0.75681200  1
  Al  Al16  1  0.65950450  0.92770550  0.60465150  1
  Al  Al17  1  0.84895500  0.00000000  0.00000000  1
  Al  Al18  1  0.43158400  0.16171900  0.38924800  1
  Al  Al19  1  0.42770550  0.84049550  0.89534850  1
  Al  Al20  1  0.66171900  0.06841600  0.11075200  1
  Al  Al21  1  0.73717900  0.73717900  0.51208100  1
  Al  Al22  1  0.23635300  0.91043000  0.74318800  1
  Al  Al23  1  0.00000000  0.00000000  0.25681300  1
  Al  Al24  1  0.15104500  0.00000000  0.00000000  1
  Al  Al25  1  0.76364700  0.91043000  0.25681200  1
  Al  Al26  1  0.73717900  0.26282100  0.48791900  1
  Al  Al27  1  0.56841600  0.16171900  0.61075200  1
  Al  Al28  1  0.84725700  0.00000000  0.50000000  1
  Al  Al29  1  0.50000000  0.34895500  0.50000000  1
  Al  Al30  1  0.33828100  0.06841600  0.88924800  1
  Al  Al31  1  0.66171900  0.93158400  0.88924800  1
  Al  Al32  1  0.57229450  0.84049550  0.10465150  1
  Al  Al33  1  0.76364700  0.08957000  0.74318800  1
  Al  Al34  1  0.42770550  0.15950450  0.10465150  1
  Al  Al35  1  0.50000000  0.00000000  0.25000000  1
  Al  Al36  1  0.34049550  0.07229450  0.60465150  1
  Al  Al37  1  0.41043000  0.26364700  0.75681200  1
  Al  Al38  1  0.15274300  0.00000000  0.50000000  1
  Al  Al39  1  0.50000000  0.65104500  0.50000000  1
  Al  Al40  1  0.76282100  0.76282100  0.01208100  1
  Al  Al41  1  0.57229450  0.15950450  0.89534850  1
  Al  Al42  1  0.50000000  0.34725700  0.00000000  1
  Al  Al43  1  0.41043000  0.73635300  0.24318800  1
  Al  Al44  1  0.65950450  0.07229450  0.39534850  1
  Al  Al45  1  0.56841600  0.83828100  0.38924800  1
  Al  Al46  1  0.33828100  0.93158400  0.11075200  1
  Al  Al47  1  0.50000000  0.00000000  0.75000000  1
  Al  Al48  1  0.26282100  0.73717900  0.48791900  1
  Al  Al49  1  0.73635300  0.58957000  0.75681200  1
  Al  Al50  1  0.93158400  0.33828100  0.11075200  1
  Al  Al51  1  0.00000000  0.15274300  0.50000000  1
  Al  Al52  1  0.08957000  0.76364700  0.74318800  1
  Al  Al53  1  0.84049550  0.42770550  0.89534850  1
  Al  Al54  1  0.50000000  0.50000000  0.24318700  1
  Al  Al55  1  0.08957000  0.23635300  0.25681200  1
  Al  Al56  1  0.15950450  0.42770550  0.10465150  1
  Al  Al57  1  0.34895500  0.50000000  0.50000000  1
  Al  Al58  1  0.93158400  0.66171900  0.88924800  1
  Al  Al59  1  0.92770550  0.34049550  0.39534850  1
  Al  Al60  1  0.16171900  0.56841600  0.61075200  1
  Al  Al61  1  0.23717900  0.23717900  0.01208100  1
  Al  Al62  1  0.73635300  0.41043000  0.24318800  1
  Al  Al63  1  0.50000000  0.50000000  0.75681300  1
  Al  Al64  1  0.65104500  0.50000000  0.50000000  1
  Al  Al65  1  0.26364700  0.41043000  0.75681200  1
  Al  Al66  1  0.23717900  0.76282100  0.98791900  1
  Al  Al67  1  0.06841600  0.66171900  0.11075200  1
  Al  Al68  1  0.34725700  0.50000000  0.00000000  1
  Al  Al69  1  0.00000000  0.84895500  0.00000000  1
  Al  Al70  1  0.83828100  0.56841600  0.38924800  1
  Al  Al71  1  0.16171900  0.43158400  0.38924800  1
  Al  Al72  1  0.07229450  0.34049550  0.60465150  1
  Al  Al73  1  0.26364700  0.58957000  0.24318800  1
  Al  Al74  1  0.92770550  0.65950450  0.60465150  1
  Al  Al75  1  0.00000000  0.50000000  0.75000000  1
  Al  Al76  1  0.84049550  0.57229450  0.10465150  1
  Al  Al77  1  0.91043000  0.76364700  0.25681200  1
  Al  Al78  1  0.65274300  0.50000000  0.00000000  1
  Al  Al79  1  0.00000000  0.15104500  0.00000000  1
  Al  Al80  1  0.26282100  0.26282100  0.51208100  1
  Al  Al81  1  0.07229450  0.65950450  0.39534850  1
  Al  Al82  1  0.00000000  0.84725700  0.50000000  1
  Al  Al83  1  0.91043000  0.23635300  0.74318800  1
  Al  Al84  1  0.15950450  0.57229450  0.89534850  1
  Al  Al85  1  0.06841600  0.33828100  0.88924800  1
  Al  Al86  1  0.83828100  0.43158400  0.61075200  1
  Al  Al87  1  0.00000000  0.50000000  0.25000000  1
  Fe  Fe88  1  0.50000000  0.00000000  0.50000000  1
  Fe  Fe89  1  0.50000000  0.00000000  0.00000000  1
  Fe  Fe90  1  0.00000000  0.50000000  0.00000000  1
  Fe  Fe91  1  0.00000000  0.50000000  0.50000000  1
