# generated using pymatgen
data_U2(Al3Co)3
_symmetry_space_group_name_H-M   'P 1'
_cell_length_a   7.52211800
_cell_length_b   12.83336400
_cell_length_c   9.19891900
_cell_angle_alpha   90.00000000
_cell_angle_beta   90.00000000
_cell_angle_gamma   90.00000000
_symmetry_Int_Tables_number   1
_chemical_formula_structural   U2(Al3Co)3
_chemical_formula_sum   'U8 Al36 Co12'
_cell_volume   888.00916743
_cell_formula_units_Z   4
loop_
 _symmetry_equiv_pos_site_id
 _symmetry_equiv_pos_as_xyz
  1  'x, y, z'
loop_
 _atom_site_type_symbol
 _atom_site_label
 _atom_site_symmetry_multiplicity
 _atom_site_fract_x
 _atom_site_fract_y
 _atom_site_fract_z
 _atom_site_occupancy
  U  U0  1  0.83449100  0.83962200  0.25000000  1
  U  U1  1  0.16550900  0.16037800  0.75000000  1
  U  U2  1  0.83449100  0.16037800  0.25000000  1
  U  U3  1  0.16550900  0.83962200  0.75000000  1
  U  U4  1  0.33449100  0.33962200  0.25000000  1
  U  U5  1  0.66550900  0.66037800  0.75000000  1
  U  U6  1  0.33449100  0.66037800  0.25000000  1
  U  U7  1  0.66550900  0.33962200  0.75000000  1
  Al  Al8  1  0.33323300  0.00000000  0.95242800  1
  Al  Al9  1  0.66797300  0.66838200  0.42719900  1
  Al  Al10  1  0.33202700  0.66838200  0.92719900  1
  Al  Al11  1  0.55114350  0.89209850  0.75000000  1
  Al  Al12  1  0.33202700  0.33161800  0.57280100  1
  Al  Al13  1  0.44885650  0.10790150  0.25000000  1
  Al  Al14  1  0.66676700  0.00000000  0.04757200  1
  Al  Al15  1  0.66797300  0.66838200  0.07280100  1
  Al  Al16  1  0.66797300  0.33161800  0.42719900  1
  Al  Al17  1  0.33202700  0.66838200  0.57280100  1
  Al  Al18  1  0.33202700  0.33161800  0.92719900  1
  Al  Al19  1  0.12630100  0.00000000  0.25000000  1
  Al  Al20  1  0.44885650  0.89209850  0.25000000  1
  Al  Al21  1  0.66797300  0.33161800  0.07280100  1
  Al  Al22  1  0.33323300  0.00000000  0.54757200  1
  Al  Al23  1  0.66676700  0.00000000  0.45242800  1
  Al  Al24  1  0.55114350  0.10790150  0.75000000  1
  Al  Al25  1  0.87369900  0.00000000  0.75000000  1
  Al  Al26  1  0.83323300  0.50000000  0.95242800  1
  Al  Al27  1  0.16797300  0.16838200  0.42719900  1
  Al  Al28  1  0.83202700  0.16838200  0.92719900  1
  Al  Al29  1  0.05114350  0.39209850  0.75000000  1
  Al  Al30  1  0.83202700  0.83161800  0.57280100  1
  Al  Al31  1  0.94885650  0.60790150  0.25000000  1
  Al  Al32  1  0.16676700  0.50000000  0.04757200  1
  Al  Al33  1  0.16797300  0.16838200  0.07280100  1
  Al  Al34  1  0.16797300  0.83161800  0.42719900  1
  Al  Al35  1  0.83202700  0.16838200  0.57280100  1
  Al  Al36  1  0.83202700  0.83161800  0.92719900  1
  Al  Al37  1  0.62630100  0.50000000  0.25000000  1
  Al  Al38  1  0.94885650  0.39209850  0.25000000  1
  Al  Al39  1  0.16797300  0.83161800  0.07280100  1
  Al  Al40  1  0.83323300  0.50000000  0.54757200  1
  Al  Al41  1  0.16676700  0.50000000  0.45242800  1
  Al  Al42  1  0.05114350  0.60790150  0.75000000  1
  Al  Al43  1  0.37369900  0.50000000  0.75000000  1
  Co  Co44  1  0.50000000  0.82668500  0.50000000  1
  Co  Co45  1  0.50000000  0.82668500  0.00000000  1
  Co  Co46  1  0.00000000  0.00000000  0.00000000  1
  Co  Co47  1  0.50000000  0.17331500  0.00000000  1
  Co  Co48  1  0.50000000  0.17331500  0.50000000  1
  Co  Co49  1  0.00000000  0.00000000  0.50000000  1
  Co  Co50  1  0.00000000  0.32668500  0.50000000  1
  Co  Co51  1  0.00000000  0.32668500  0.00000000  1
  Co  Co52  1  0.50000000  0.50000000  0.00000000  1
  Co  Co53  1  0.00000000  0.67331500  0.00000000  1
  Co  Co54  1  0.00000000  0.67331500  0.50000000  1
  Co  Co55  1  0.50000000  0.50000000  0.50000000  1
