# generated using pymatgen
data_U17O31
_symmetry_space_group_name_H-M   'P 1'
_cell_length_a   16.80227200
_cell_length_b   3.83968200
_cell_length_c   22.09294925
_cell_angle_alpha   90.00000000
_cell_angle_beta   106.25848446
_cell_angle_gamma   90.00000000
_symmetry_Int_Tables_number   1
_chemical_formula_structural   U17O31
_chemical_formula_sum   'U34 O62'
_cell_volume   1368.33362613
_cell_formula_units_Z   2
loop_
 _symmetry_equiv_pos_site_id
 _symmetry_equiv_pos_as_xyz
  1  'x, y, z'
loop_
 _atom_site_type_symbol
 _atom_site_label
 _atom_site_symmetry_multiplicity
 _atom_site_fract_x
 _atom_site_fract_y
 _atom_site_fract_z
 _atom_site_occupancy
  U  U0  1  0.50192500  0.50000000  0.00024900  1
  U  U1  1  0.70634100  0.00000000  0.06128900  1
  U  U2  1  0.61767000  0.50000000  0.17390500  1
  U  U3  1  0.91138000  0.50000000  0.11756400  1
  U  U4  1  0.82131600  0.00000000  0.23489400  1
  U  U5  1  0.73979700  0.50000000  0.35466000  1
  U  U6  1  0.02547200  0.50000000  0.29490600  1
  U  U7  1  0.94269500  0.00000000  0.41265400  1
  U  U8  1  0.14673400  0.50000000  0.47113800  1
  U  U9  1  0.85288000  0.50000000  0.52639000  1
  U  U10  1  0.05681700  0.00000000  0.58790800  1
  U  U11  1  0.97561000  0.50000000  0.70780400  1
  U  U12  1  0.25888400  0.50000000  0.64788300  1
  U  U13  1  0.17762600  0.00000000  0.76693300  1
  U  U14  1  0.38118500  0.50000000  0.82129800  1
  U  U15  1  0.08342100  0.50000000  0.88048700  1
  U  U16  1  0.29994500  0.00000000  0.94023100  1
  U  U17  1  0.00192500  0.00000000  0.00024900  1
  U  U18  1  0.20634100  0.50000000  0.06128900  1
  U  U19  1  0.11767000  0.00000000  0.17390500  1
  U  U20  1  0.41138000  0.00000000  0.11756400  1
  U  U21  1  0.32131600  0.50000000  0.23489400  1
  U  U22  1  0.23979700  0.00000000  0.35466000  1
  U  U23  1  0.52547200  0.00000000  0.29490600  1
  U  U24  1  0.44269500  0.50000000  0.41265400  1
  U  U25  1  0.64673400  0.00000000  0.47113800  1
  U  U26  1  0.35288000  0.00000000  0.52639000  1
  U  U27  1  0.55681700  0.50000000  0.58790800  1
  U  U28  1  0.47561000  0.00000000  0.70780400  1
  U  U29  1  0.75888400  0.00000000  0.64788300  1
  U  U30  1  0.67762600  0.50000000  0.76693300  1
  U  U31  1  0.88118500  0.00000000  0.82129800  1
  U  U32  1  0.58342100  0.00000000  0.88048700  1
  U  U33  1  0.79994500  0.50000000  0.94023100  1
  O  O34  1  0.77355500  0.50000000  0.03603700  1
  O  O35  1  0.98639000  0.00000000  0.10480400  1
  O  O36  1  0.69120500  0.00000000  0.16088100  1
  O  O37  1  0.93001800  0.50000000  0.01480300  1
  O  O38  1  0.63197100  0.50000000  0.07437000  1
  O  O39  1  0.89369100  0.50000000  0.22063000  1
  O  O40  1  0.83698700  0.00000000  0.13053600  1
  O  O41  1  0.05009000  0.50000000  0.20084500  1
  O  O42  1  0.81197600  0.00000000  0.33851800  1
  O  O43  1  0.74263500  0.50000000  0.25126100  1
  O  O44  1  0.01525000  0.50000000  0.39772000  1
  O  O45  1  0.96263100  0.00000000  0.30748000  1
  O  O46  1  0.22060600  0.00000000  0.45552600  1
  O  O47  1  0.15612400  0.50000000  0.35744300  1
  O  O48  1  0.92707800  0.00000000  0.51379200  1
  O  O49  1  0.12908400  0.50000000  0.57366800  1
  O  O50  1  0.86785200  0.50000000  0.42677100  1
  O  O51  1  0.07417400  0.00000000  0.48578500  1
  O  O52  1  0.04825000  0.00000000  0.69196400  1
  O  O53  1  0.78557500  0.00000000  0.55205400  1
  O  O54  1  0.24907200  0.50000000  0.75053300  1
  O  O55  1  0.97762500  0.50000000  0.60431500  1
  O  O56  1  0.95510400  0.50000000  0.80664900  1
  O  O57  1  0.19608300  0.00000000  0.66129100  1
  O  O58  1  0.16570300  0.00000000  0.87653100  1
  O  O59  1  0.89307700  0.00000000  0.71161200  1
  O  O60  1  0.10381900  0.50000000  0.78161500  1
  O  O61  1  0.36275100  0.50000000  0.92691300  1
  O  O62  1  0.30965100  0.00000000  0.83762500  1
  O  O63  1  0.08110000  0.50000000  0.98384800  1
  O  O64  1  0.01064100  0.00000000  0.89633900  1
  O  O65  1  0.27355500  0.00000000  0.03603700  1
  O  O66  1  0.48639000  0.50000000  0.10480400  1
  O  O67  1  0.19120500  0.50000000  0.16088100  1
  O  O68  1  0.43001800  0.00000000  0.01480300  1
  O  O69  1  0.13197100  0.00000000  0.07437000  1
  O  O70  1  0.39369100  0.00000000  0.22063000  1
  O  O71  1  0.33698700  0.50000000  0.13053600  1
  O  O72  1  0.55009000  0.00000000  0.20084500  1
  O  O73  1  0.31197600  0.50000000  0.33851800  1
  O  O74  1  0.24263500  0.00000000  0.25126100  1
  O  O75  1  0.51525000  0.00000000  0.39772000  1
  O  O76  1  0.46263100  0.50000000  0.30748000  1
  O  O77  1  0.72060600  0.50000000  0.45552600  1
  O  O78  1  0.65612400  0.00000000  0.35744300  1
  O  O79  1  0.42707800  0.50000000  0.51379200  1
  O  O80  1  0.62908400  0.00000000  0.57366800  1
  O  O81  1  0.36785200  0.00000000  0.42677100  1
  O  O82  1  0.57417400  0.50000000  0.48578500  1
  O  O83  1  0.54825000  0.50000000  0.69196400  1
  O  O84  1  0.28557500  0.50000000  0.55205400  1
  O  O85  1  0.74907200  0.00000000  0.75053300  1
  O  O86  1  0.47762500  0.00000000  0.60431500  1
  O  O87  1  0.45510400  0.00000000  0.80664900  1
  O  O88  1  0.69608300  0.50000000  0.66129100  1
  O  O89  1  0.66570300  0.50000000  0.87653100  1
  O  O90  1  0.39307700  0.50000000  0.71161200  1
  O  O91  1  0.60381900  0.00000000  0.78161500  1
  O  O92  1  0.86275100  0.00000000  0.92691300  1
  O  O93  1  0.80965100  0.50000000  0.83762500  1
  O  O94  1  0.58110000  0.00000000  0.98384800  1
  O  O95  1  0.51064100  0.50000000  0.89633900  1
