# generated using pymatgen
data_KLiNd2(MoO4)4
_symmetry_space_group_name_H-M   'P 1'
_cell_length_a   5.40774200
_cell_length_b   13.05478600
_cell_length_c   19.92223003
_cell_angle_alpha   90.00000000
_cell_angle_beta   93.39769454
_cell_angle_gamma   90.00000000
_symmetry_Int_Tables_number   1
_chemical_formula_structural   KLiNd2(MoO4)4
_chemical_formula_sum   'K4 Li4 Nd8 Mo16 O64'
_cell_volume   1403.97573567
_cell_formula_units_Z   4
loop_
 _symmetry_equiv_pos_site_id
 _symmetry_equiv_pos_as_xyz
  1  'x, y, z'
loop_
 _atom_site_type_symbol
 _atom_site_label
 _atom_site_symmetry_multiplicity
 _atom_site_fract_x
 _atom_site_fract_y
 _atom_site_fract_z
 _atom_site_occupancy
  K  K0  1  0.50000000  0.53206900  0.25000000  1
  K  K1  1  0.00000000  0.96793100  0.75000000  1
  K  K2  1  0.00000000  0.03206900  0.25000000  1
  K  K3  1  0.50000000  0.46793100  0.75000000  1
  Li  Li4  1  0.00000000  0.68967400  0.75000000  1
  Li  Li5  1  0.50000000  0.81032600  0.25000000  1
  Li  Li6  1  0.50000000  0.18967400  0.75000000  1
  Li  Li7  1  0.00000000  0.31032600  0.25000000  1
  Nd  Nd8  1  0.50058950  0.64676650  0.46652300  1
  Nd  Nd9  1  0.99941050  0.85323350  0.53347700  1
  Nd  Nd10  1  0.00058950  0.85323350  0.96652300  1
  Nd  Nd11  1  0.49941050  0.64676650  0.03347700  1
  Nd  Nd12  1  0.00058950  0.14676650  0.46652300  1
  Nd  Nd13  1  0.49941050  0.35323350  0.53347700  1
  Nd  Nd14  1  0.50058950  0.35323350  0.96652300  1
  Nd  Nd15  1  0.99941050  0.14676650  0.03347700  1
  Mo  Mo16  1  0.51530000  0.93765300  0.09250600  1
  Mo  Mo17  1  0.01341400  0.74477200  0.14909100  1
  Mo  Mo18  1  0.01530000  0.56234700  0.59250600  1
  Mo  Mo19  1  0.51341400  0.75522800  0.64909100  1
  Mo  Mo20  1  0.98658600  0.74477200  0.35090900  1
  Mo  Mo21  1  0.48658600  0.75522800  0.85090900  1
  Mo  Mo22  1  0.48470000  0.93765300  0.40749400  1
  Mo  Mo23  1  0.98470000  0.56234700  0.90749400  1
  Mo  Mo24  1  0.01530000  0.43765300  0.09250600  1
  Mo  Mo25  1  0.51341400  0.24477200  0.14909100  1
  Mo  Mo26  1  0.51530000  0.06234700  0.59250600  1
  Mo  Mo27  1  0.01341400  0.25522800  0.64909100  1
  Mo  Mo28  1  0.48658600  0.24477200  0.35090900  1
  Mo  Mo29  1  0.98658600  0.25522800  0.85090900  1
  Mo  Mo30  1  0.98470000  0.43765300  0.40749400  1
  Mo  Mo31  1  0.48470000  0.06234700  0.90749400  1
  O  O32  1  0.09827350  0.59401350  0.82911300  1
  O  O33  1  0.59827350  0.90598650  0.32911300  1
  O  O34  1  0.17101000  0.76065100  0.06847800  1
  O  O35  1  0.72251550  0.95562750  0.60129800  1
  O  O36  1  0.76704350  0.70541450  0.28639500  1
  O  O37  1  0.77748450  0.54437250  0.39870200  1
  O  O38  1  0.24110350  0.98002350  0.04008900  1
  O  O39  1  0.65316150  0.83355450  0.04297200  1
  O  O40  1  0.34683850  0.83355450  0.45702800  1
  O  O41  1  0.11865950  0.86191550  0.32736400  1
  O  O42  1  0.23295650  0.70541450  0.21360500  1
  O  O43  1  0.40172650  0.90598650  0.17088700  1
  O  O44  1  0.67101000  0.73934900  0.56847800  1
  O  O45  1  0.38134050  0.63808450  0.67263600  1
  O  O46  1  0.26704350  0.79458550  0.78639500  1
  O  O47  1  0.25889650  0.51997650  0.95991100  1
  O  O48  1  0.88134050  0.86191550  0.17263600  1
  O  O49  1  0.24031650  0.65503750  0.36604600  1
  O  O50  1  0.75889650  0.98002350  0.45991100  1
  O  O51  1  0.25968350  0.84496250  0.63395400  1
  O  O52  1  0.22251550  0.54437250  0.10129800  1
  O  O53  1  0.32899000  0.73934900  0.93152200  1
  O  O54  1  0.90172650  0.59401350  0.67088700  1
  O  O55  1  0.75968350  0.65503750  0.13395400  1
  O  O56  1  0.61865950  0.63808450  0.82736400  1
  O  O57  1  0.73295650  0.79458550  0.71360500  1
  O  O58  1  0.82899000  0.76065100  0.43152200  1
  O  O59  1  0.74031650  0.84496250  0.86604600  1
  O  O60  1  0.27748450  0.95562750  0.89870200  1
  O  O61  1  0.74110350  0.51997650  0.54008900  1
  O  O62  1  0.15316150  0.66644550  0.54297200  1
  O  O63  1  0.84683850  0.66644550  0.95702800  1
  O  O64  1  0.59827350  0.09401350  0.82911300  1
  O  O65  1  0.09827350  0.40598650  0.32911300  1
  O  O66  1  0.67101000  0.26065100  0.06847800  1
  O  O67  1  0.22251550  0.45562750  0.60129800  1
  O  O68  1  0.26704350  0.20541450  0.28639500  1
  O  O69  1  0.27748450  0.04437250  0.39870200  1
  O  O70  1  0.74110350  0.48002350  0.04008900  1
  O  O71  1  0.15316150  0.33355450  0.04297200  1
  O  O72  1  0.84683850  0.33355450  0.45702800  1
  O  O73  1  0.61865950  0.36191550  0.32736400  1
  O  O74  1  0.73295650  0.20541450  0.21360500  1
  O  O75  1  0.90172650  0.40598650  0.17088700  1
  O  O76  1  0.17101000  0.23934900  0.56847800  1
  O  O77  1  0.88134050  0.13808450  0.67263600  1
  O  O78  1  0.76704350  0.29458550  0.78639500  1
  O  O79  1  0.75889650  0.01997650  0.95991100  1
  O  O80  1  0.38134050  0.36191550  0.17263600  1
  O  O81  1  0.74031650  0.15503750  0.36604600  1
  O  O82  1  0.25889650  0.48002350  0.45991100  1
  O  O83  1  0.75968350  0.34496250  0.63395400  1
  O  O84  1  0.72251550  0.04437250  0.10129800  1
  O  O85  1  0.82899000  0.23934900  0.93152200  1
  O  O86  1  0.40172650  0.09401350  0.67088700  1
  O  O87  1  0.25968350  0.15503750  0.13395400  1
  O  O88  1  0.11865950  0.13808450  0.82736400  1
  O  O89  1  0.23295650  0.29458550  0.71360500  1
  O  O90  1  0.32899000  0.26065100  0.43152200  1
  O  O91  1  0.24031650  0.34496250  0.86604600  1
  O  O92  1  0.77748450  0.45562750  0.89870200  1
  O  O93  1  0.24110350  0.01997650  0.54008900  1
  O  O94  1  0.65316150  0.16644550  0.54297200  1
  O  O95  1  0.34683850  0.16644550  0.95702800  1
