# generated using pymatgen
data_La21Fe8Sn7C12
_symmetry_space_group_name_H-M   'P 1'
_cell_length_a   16.46648400
_cell_length_b   16.46648400
_cell_length_c   16.46648400
_cell_angle_alpha   90.00000000
_cell_angle_beta   90.00000000
_cell_angle_gamma   90.00000000
_symmetry_Int_Tables_number   1
_chemical_formula_structural   La21Fe8Sn7C12
_chemical_formula_sum   'La84 Fe32 Sn28 C48'
_cell_volume   4464.80637380
_cell_formula_units_Z   4
loop_
 _symmetry_equiv_pos_site_id
 _symmetry_equiv_pos_as_xyz
  1  'x, y, z'
loop_
 _atom_site_type_symbol
 _atom_site_label
 _atom_site_symmetry_multiplicity
 _atom_site_fract_x
 _atom_site_fract_y
 _atom_site_fract_z
 _atom_site_occupancy
  La  La0  1  0.63525833  0.86474167  0.86474167  1
  La  La1  1  0.36474167  0.86474167  0.86474167  1
  La  La2  1  0.13525833  0.13525833  0.63525833  1
  La  La3  1  0.00000000  0.33008750  0.66991250  1
  La  La4  1  0.66991250  0.00000000  0.66991250  1
  La  La5  1  0.00000000  0.66991250  0.66991250  1
  La  La6  1  0.16991250  0.00000000  0.83008750  1
  La  La7  1  0.13525833  0.86474167  0.63525833  1
  La  La8  1  0.86474167  0.86474167  0.63525833  1
  La  La9  1  0.16991250  0.83008750  0.00000000  1
  La  La10  1  0.33008750  0.00000000  0.66991250  1
  La  La11  1  0.33008750  0.66991250  0.00000000  1
  La  La12  1  0.33008750  0.33008750  0.00000000  1
  La  La13  1  0.36474167  0.13525833  0.86474167  1
  La  La14  1  0.16991250  0.16991250  0.00000000  1
  La  La15  1  0.00000000  0.83008750  0.83008750  1
  La  La16  1  0.50000000  0.00000000  0.00000000  1
  La  La17  1  0.00000000  0.16991250  0.83008750  1
  La  La18  1  0.86474167  0.13525833  0.63525833  1
  La  La19  1  0.83008750  0.00000000  0.83008750  1
  La  La20  1  0.63525833  0.13525833  0.86474167  1
  La  La21  1  0.63525833  0.36474167  0.36474167  1
  La  La22  1  0.36474167  0.36474167  0.36474167  1
  La  La23  1  0.13525833  0.63525833  0.13525833  1
  La  La24  1  0.00000000  0.83008750  0.16991250  1
  La  La25  1  0.66991250  0.50000000  0.16991250  1
  La  La26  1  0.00000000  0.16991250  0.16991250  1
  La  La27  1  0.16991250  0.50000000  0.33008750  1
  La  La28  1  0.13525833  0.36474167  0.13525833  1
  La  La29  1  0.86474167  0.36474167  0.13525833  1
  La  La30  1  0.16991250  0.33008750  0.50000000  1
  La  La31  1  0.33008750  0.50000000  0.16991250  1
  La  La32  1  0.33008750  0.16991250  0.50000000  1
  La  La33  1  0.33008750  0.83008750  0.50000000  1
  La  La34  1  0.36474167  0.63525833  0.36474167  1
  La  La35  1  0.16991250  0.66991250  0.50000000  1
  La  La36  1  0.00000000  0.33008750  0.33008750  1
  La  La37  1  0.50000000  0.50000000  0.50000000  1
  La  La38  1  0.00000000  0.66991250  0.33008750  1
  La  La39  1  0.86474167  0.63525833  0.13525833  1
  La  La40  1  0.83008750  0.50000000  0.33008750  1
  La  La41  1  0.63525833  0.63525833  0.36474167  1
  La  La42  1  0.13525833  0.86474167  0.36474167  1
  La  La43  1  0.86474167  0.86474167  0.36474167  1
  La  La44  1  0.63525833  0.13525833  0.13525833  1
  La  La45  1  0.50000000  0.33008750  0.16991250  1
  La  La46  1  0.16991250  0.00000000  0.16991250  1
  La  La47  1  0.50000000  0.66991250  0.16991250  1
  La  La48  1  0.66991250  0.00000000  0.33008750  1
  La  La49  1  0.63525833  0.86474167  0.13525833  1
  La  La50  1  0.36474167  0.86474167  0.13525833  1
  La  La51  1  0.66991250  0.83008750  0.50000000  1
  La  La52  1  0.83008750  0.00000000  0.16991250  1
  La  La53  1  0.83008750  0.66991250  0.50000000  1
  La  La54  1  0.83008750  0.33008750  0.50000000  1
  La  La55  1  0.86474167  0.13525833  0.36474167  1
  La  La56  1  0.66991250  0.16991250  0.50000000  1
  La  La57  1  0.50000000  0.83008750  0.33008750  1
  La  La58  1  0.00000000  0.00000000  0.50000000  1
  La  La59  1  0.50000000  0.16991250  0.33008750  1
  La  La60  1  0.36474167  0.13525833  0.13525833  1
  La  La61  1  0.33008750  0.00000000  0.33008750  1
  La  La62  1  0.13525833  0.13525833  0.36474167  1
  La  La63  1  0.13525833  0.36474167  0.86474167  1
  La  La64  1  0.86474167  0.36474167  0.86474167  1
  La  La65  1  0.63525833  0.63525833  0.63525833  1
  La  La66  1  0.50000000  0.83008750  0.66991250  1
  La  La67  1  0.16991250  0.50000000  0.66991250  1
  La  La68  1  0.50000000  0.16991250  0.66991250  1
  La  La69  1  0.66991250  0.50000000  0.83008750  1
  La  La70  1  0.63525833  0.36474167  0.63525833  1
  La  La71  1  0.36474167  0.36474167  0.63525833  1
  La  La72  1  0.66991250  0.33008750  0.00000000  1
  La  La73  1  0.83008750  0.50000000  0.66991250  1
  La  La74  1  0.83008750  0.16991250  0.00000000  1
  La  La75  1  0.83008750  0.83008750  0.00000000  1
  La  La76  1  0.86474167  0.63525833  0.86474167  1
  La  La77  1  0.66991250  0.66991250  0.00000000  1
  La  La78  1  0.50000000  0.33008750  0.83008750  1
  La  La79  1  0.00000000  0.50000000  0.00000000  1
  La  La80  1  0.50000000  0.66991250  0.83008750  1
  La  La81  1  0.36474167  0.63525833  0.63525833  1
  La  La82  1  0.33008750  0.50000000  0.83008750  1
  La  La83  1  0.13525833  0.63525833  0.86474167  1
  Fe  Fe84  1  0.19616133  0.80383867  0.80383867  1
  Fe  Fe85  1  0.30383867  0.19616133  0.69616133  1
  Fe  Fe86  1  0.30383867  0.30383867  0.80383867  1
  Fe  Fe87  1  0.19616133  0.30383867  0.69616133  1
  Fe  Fe88  1  0.30383867  0.80383867  0.69616133  1
  Fe  Fe89  1  0.30383867  0.69616133  0.80383867  1
  Fe  Fe90  1  0.19616133  0.69616133  0.69616133  1
  Fe  Fe91  1  0.19616133  0.19616133  0.80383867  1
  Fe  Fe92  1  0.19616133  0.30383867  0.30383867  1
  Fe  Fe93  1  0.30383867  0.69616133  0.19616133  1
  Fe  Fe94  1  0.30383867  0.80383867  0.30383867  1
  Fe  Fe95  1  0.19616133  0.80383867  0.19616133  1
  Fe  Fe96  1  0.30383867  0.30383867  0.19616133  1
  Fe  Fe97  1  0.30383867  0.19616133  0.30383867  1
  Fe  Fe98  1  0.19616133  0.19616133  0.19616133  1
  Fe  Fe99  1  0.19616133  0.69616133  0.30383867  1
  Fe  Fe100  1  0.69616133  0.80383867  0.30383867  1
  Fe  Fe101  1  0.80383867  0.19616133  0.19616133  1
  Fe  Fe102  1  0.80383867  0.30383867  0.30383867  1
  Fe  Fe103  1  0.69616133  0.30383867  0.19616133  1
  Fe  Fe104  1  0.80383867  0.80383867  0.19616133  1
  Fe  Fe105  1  0.80383867  0.69616133  0.30383867  1
  Fe  Fe106  1  0.69616133  0.69616133  0.19616133  1
  Fe  Fe107  1  0.69616133  0.19616133  0.30383867  1
  Fe  Fe108  1  0.69616133  0.30383867  0.80383867  1
  Fe  Fe109  1  0.80383867  0.69616133  0.69616133  1
  Fe  Fe110  1  0.80383867  0.80383867  0.80383867  1
  Fe  Fe111  1  0.69616133  0.80383867  0.69616133  1
  Fe  Fe112  1  0.80383867  0.30383867  0.69616133  1
  Fe  Fe113  1  0.80383867  0.19616133  0.80383867  1
  Fe  Fe114  1  0.69616133  0.19616133  0.69616133  1
  Fe  Fe115  1  0.69616133  0.69616133  0.80383867  1
  Sn  Sn116  1  0.50000000  0.78933700  0.00000000  1
  Sn  Sn117  1  0.71066300  0.00000000  0.00000000  1
  Sn  Sn118  1  0.50000000  0.21066300  0.00000000  1
  Sn  Sn119  1  0.28933700  0.00000000  0.00000000  1
  Sn  Sn120  1  0.00000000  0.00000000  0.00000000  1
  Sn  Sn121  1  0.50000000  0.00000000  0.78933700  1
  Sn  Sn122  1  0.00000000  0.00000000  0.71066300  1
  Sn  Sn123  1  0.50000000  0.28933700  0.50000000  1
  Sn  Sn124  1  0.71066300  0.50000000  0.50000000  1
  Sn  Sn125  1  0.50000000  0.71066300  0.50000000  1
  Sn  Sn126  1  0.28933700  0.50000000  0.50000000  1
  Sn  Sn127  1  0.00000000  0.50000000  0.50000000  1
  Sn  Sn128  1  0.50000000  0.50000000  0.28933700  1
  Sn  Sn129  1  0.00000000  0.50000000  0.21066300  1
  Sn  Sn130  1  0.00000000  0.78933700  0.50000000  1
  Sn  Sn131  1  0.21066300  0.00000000  0.50000000  1
  Sn  Sn132  1  0.00000000  0.21066300  0.50000000  1
  Sn  Sn133  1  0.78933700  0.00000000  0.50000000  1
  Sn  Sn134  1  0.50000000  0.00000000  0.50000000  1
  Sn  Sn135  1  0.00000000  0.00000000  0.28933700  1
  Sn  Sn136  1  0.50000000  0.00000000  0.21066300  1
  Sn  Sn137  1  0.00000000  0.28933700  0.00000000  1
  Sn  Sn138  1  0.21066300  0.50000000  0.00000000  1
  Sn  Sn139  1  0.00000000  0.71066300  0.00000000  1
  Sn  Sn140  1  0.78933700  0.50000000  0.00000000  1
  Sn  Sn141  1  0.50000000  0.50000000  0.00000000  1
  Sn  Sn142  1  0.00000000  0.50000000  0.78933700  1
  Sn  Sn143  1  0.50000000  0.50000000  0.71066300  1
  C  C144  1  0.11010400  0.25000000  0.75000000  1
  C  C145  1  0.11010400  0.75000000  0.75000000  1
  C  C146  1  0.25000000  0.11010400  0.75000000  1
  C  C147  1  0.25000000  0.75000000  0.61010400  1
  C  C148  1  0.25000000  0.25000000  0.88989600  1
  C  C149  1  0.25000000  0.88989600  0.75000000  1
  C  C150  1  0.25000000  0.61010400  0.75000000  1
  C  C151  1  0.25000000  0.25000000  0.61010400  1
  C  C152  1  0.25000000  0.38989600  0.75000000  1
  C  C153  1  0.38989600  0.25000000  0.75000000  1
  C  C154  1  0.25000000  0.75000000  0.88989600  1
  C  C155  1  0.38989600  0.75000000  0.75000000  1
  C  C156  1  0.11010400  0.75000000  0.25000000  1
  C  C157  1  0.11010400  0.25000000  0.25000000  1
  C  C158  1  0.25000000  0.61010400  0.25000000  1
  C  C159  1  0.25000000  0.25000000  0.11010400  1
  C  C160  1  0.25000000  0.75000000  0.38989600  1
  C  C161  1  0.25000000  0.38989600  0.25000000  1
  C  C162  1  0.25000000  0.11010400  0.25000000  1
  C  C163  1  0.25000000  0.75000000  0.11010400  1
  C  C164  1  0.25000000  0.88989600  0.25000000  1
  C  C165  1  0.38989600  0.75000000  0.25000000  1
  C  C166  1  0.25000000  0.25000000  0.38989600  1
  C  C167  1  0.38989600  0.25000000  0.25000000  1
  C  C168  1  0.61010400  0.25000000  0.25000000  1
  C  C169  1  0.61010400  0.75000000  0.25000000  1
  C  C170  1  0.75000000  0.11010400  0.25000000  1
  C  C171  1  0.75000000  0.75000000  0.11010400  1
  C  C172  1  0.75000000  0.25000000  0.38989600  1
  C  C173  1  0.75000000  0.88989600  0.25000000  1
  C  C174  1  0.75000000  0.61010400  0.25000000  1
  C  C175  1  0.75000000  0.25000000  0.11010400  1
  C  C176  1  0.75000000  0.38989600  0.25000000  1
  C  C177  1  0.88989600  0.25000000  0.25000000  1
  C  C178  1  0.75000000  0.75000000  0.38989600  1
  C  C179  1  0.88989600  0.75000000  0.25000000  1
  C  C180  1  0.61010400  0.75000000  0.75000000  1
  C  C181  1  0.61010400  0.25000000  0.75000000  1
  C  C182  1  0.75000000  0.61010400  0.75000000  1
  C  C183  1  0.75000000  0.25000000  0.61010400  1
  C  C184  1  0.75000000  0.75000000  0.88989600  1
  C  C185  1  0.75000000  0.38989600  0.75000000  1
  C  C186  1  0.75000000  0.11010400  0.75000000  1
  C  C187  1  0.75000000  0.75000000  0.61010400  1
  C  C188  1  0.75000000  0.88989600  0.75000000  1
  C  C189  1  0.88989600  0.75000000  0.75000000  1
  C  C190  1  0.75000000  0.25000000  0.88989600  1
  C  C191  1  0.88989600  0.25000000  0.75000000  1
