# generated using pymatgen
data_Cs4Fe3F10
_symmetry_space_group_name_H-M   'P 1'
_cell_length_a   6.47659000
_cell_length_b   14.67308400
_cell_length_c   14.29057700
_cell_angle_alpha   90.00000000
_cell_angle_beta   90.00000000
_cell_angle_gamma   90.00000000
_symmetry_Int_Tables_number   1
_chemical_formula_structural   Cs4Fe3F10
_chemical_formula_sum   'Cs16 Fe12 F40'
_cell_volume   1358.05566989
_cell_formula_units_Z   4
loop_
 _symmetry_equiv_pos_site_id
 _symmetry_equiv_pos_as_xyz
  1  'x, y, z'
loop_
 _atom_site_type_symbol
 _atom_site_label
 _atom_site_symmetry_multiplicity
 _atom_site_fract_x
 _atom_site_fract_y
 _atom_site_fract_z
 _atom_site_occupancy
  Cs  Cs0  1  0.50000000  0.74568900  0.89094800  1
  Cs  Cs1  1  0.50000000  0.75431100  0.39094800  1
  Cs  Cs2  1  0.00000000  0.95729200  0.36148700  1
  Cs  Cs3  1  0.00000000  0.75431100  0.10905200  1
  Cs  Cs4  1  0.50000000  0.95729200  0.13851300  1
  Cs  Cs5  1  0.00000000  0.54270800  0.86148700  1
  Cs  Cs6  1  0.00000000  0.74568900  0.60905200  1
  Cs  Cs7  1  0.50000000  0.54270800  0.63851300  1
  Cs  Cs8  1  0.00000000  0.24568900  0.89094800  1
  Cs  Cs9  1  0.00000000  0.25431100  0.39094800  1
  Cs  Cs10  1  0.50000000  0.45729200  0.36148700  1
  Cs  Cs11  1  0.50000000  0.25431100  0.10905200  1
  Cs  Cs12  1  0.00000000  0.45729200  0.13851300  1
  Cs  Cs13  1  0.50000000  0.04270800  0.86148700  1
  Cs  Cs14  1  0.50000000  0.24568900  0.60905200  1
  Cs  Cs15  1  0.00000000  0.04270800  0.63851300  1
  Fe  Fe16  1  0.50000000  0.62150900  0.15365000  1
  Fe  Fe17  1  0.00000000  0.87849100  0.84635000  1
  Fe  Fe18  1  0.50000000  0.87849100  0.65365000  1
  Fe  Fe19  1  0.50000000  0.50000000  0.00000000  1
  Fe  Fe20  1  0.00000000  0.62150900  0.34635000  1
  Fe  Fe21  1  0.00000000  0.50000000  0.50000000  1
  Fe  Fe22  1  0.00000000  0.12150900  0.15365000  1
  Fe  Fe23  1  0.50000000  0.37849100  0.84635000  1
  Fe  Fe24  1  0.00000000  0.37849100  0.65365000  1
  Fe  Fe25  1  0.00000000  0.00000000  0.00000000  1
  Fe  Fe26  1  0.50000000  0.12150900  0.34635000  1
  Fe  Fe27  1  0.50000000  0.00000000  0.50000000  1
  F  F28  1  0.00000000  0.74415200  0.85691200  1
  F  F29  1  0.00000000  0.52329000  0.64741400  1
  F  F30  1  0.21745100  0.59894200  0.46597700  1
  F  F31  1  0.28254900  0.59894200  0.03402300  1
  F  F32  1  0.50000000  0.75584800  0.14308800  1
  F  F33  1  0.21745100  0.90105800  0.96597700  1
  F  F34  1  0.00000000  0.75584800  0.35691200  1
  F  F35  1  0.28254900  0.90105800  0.53402300  1
  F  F36  1  0.71745100  0.90105800  0.53402300  1
  F  F37  1  0.25000000  0.88419200  0.75000000  1
  F  F38  1  0.75000000  0.61580800  0.25000000  1
  F  F39  1  0.50000000  0.97671000  0.35258600  1
  F  F40  1  0.78254900  0.59894200  0.46597700  1
  F  F41  1  0.78254900  0.90105800  0.96597700  1
  F  F42  1  0.71745100  0.59894200  0.03402300  1
  F  F43  1  0.50000000  0.52329000  0.85258600  1
  F  F44  1  0.50000000  0.74415200  0.64308800  1
  F  F45  1  0.00000000  0.97671000  0.14741400  1
  F  F46  1  0.25000000  0.61580800  0.25000000  1
  F  F47  1  0.75000000  0.88419200  0.75000000  1
  F  F48  1  0.50000000  0.24415200  0.85691200  1
  F  F49  1  0.50000000  0.02329000  0.64741400  1
  F  F50  1  0.71745100  0.09894200  0.46597700  1
  F  F51  1  0.78254900  0.09894200  0.03402300  1
  F  F52  1  0.00000000  0.25584800  0.14308800  1
  F  F53  1  0.71745100  0.40105800  0.96597700  1
  F  F54  1  0.50000000  0.25584800  0.35691200  1
  F  F55  1  0.78254900  0.40105800  0.53402300  1
  F  F56  1  0.21745100  0.40105800  0.53402300  1
  F  F57  1  0.75000000  0.38419200  0.75000000  1
  F  F58  1  0.25000000  0.11580800  0.25000000  1
  F  F59  1  0.00000000  0.47671000  0.35258600  1
  F  F60  1  0.28254900  0.09894200  0.46597700  1
  F  F61  1  0.28254900  0.40105800  0.96597700  1
  F  F62  1  0.21745100  0.09894200  0.03402300  1
  F  F63  1  0.00000000  0.02329000  0.85258600  1
  F  F64  1  0.00000000  0.24415200  0.64308800  1
  F  F65  1  0.50000000  0.47671000  0.14741400  1
  F  F66  1  0.75000000  0.11580800  0.25000000  1
  F  F67  1  0.25000000  0.38419200  0.75000000  1
