# generated using pymatgen
data_KEu2CuS6
_symmetry_space_group_name_H-M   'P 1'
_cell_length_a   8.26239400
_cell_length_b   10.82083800
_cell_length_c   42.63832400
_cell_angle_alpha   90.00000000
_cell_angle_beta   90.00000000
_cell_angle_gamma   90.00000000
_symmetry_Int_Tables_number   1
_chemical_formula_structural   KEu2CuS6
_chemical_formula_sum   'K16 Eu32 Cu16 S96'
_cell_volume   3812.12314534
_cell_formula_units_Z   16
loop_
 _symmetry_equiv_pos_site_id
 _symmetry_equiv_pos_as_xyz
  1  'x, y, z'
loop_
 _atom_site_type_symbol
 _atom_site_label
 _atom_site_symmetry_multiplicity
 _atom_site_fract_x
 _atom_site_fract_y
 _atom_site_fract_z
 _atom_site_occupancy
  K  K0  1  0.75000000  0.49897400  0.25000000  1
  K  K1  1  0.75000000  0.00102600  0.25000000  1
  K  K2  1  0.50000000  0.24897400  0.00000000  1
  K  K3  1  0.50000000  0.75102600  0.00000000  1
  K  K4  1  0.75000000  0.99897400  0.75000000  1
  K  K5  1  0.75000000  0.50102600  0.75000000  1
  K  K6  1  0.50000000  0.74897400  0.50000000  1
  K  K7  1  0.50000000  0.25102600  0.50000000  1
  K  K8  1  0.25000000  0.49897400  0.75000000  1
  K  K9  1  0.25000000  0.00102600  0.75000000  1
  K  K10  1  0.00000000  0.24897400  0.50000000  1
  K  K11  1  0.00000000  0.75102600  0.50000000  1
  K  K12  1  0.25000000  0.99897400  0.25000000  1
  K  K13  1  0.25000000  0.50102600  0.25000000  1
  K  K14  1  0.00000000  0.74897400  0.00000000  1
  K  K15  1  0.00000000  0.25102600  0.00000000  1
  Eu  Eu16  1  0.75000000  0.75000000  0.34065600  1
  Eu  Eu17  1  0.50000000  0.00000000  0.40934400  1
  Eu  Eu18  1  0.50000000  0.00000000  0.09320700  1
  Eu  Eu19  1  0.75000000  0.25000000  0.34320700  1
  Eu  Eu20  1  0.00000000  0.00000000  0.09065600  1
  Eu  Eu21  1  0.75000000  0.75000000  0.15934400  1
  Eu  Eu22  1  0.00000000  0.00000000  0.40679300  1
  Eu  Eu23  1  0.75000000  0.25000000  0.15679300  1
  Eu  Eu24  1  0.75000000  0.25000000  0.84065600  1
  Eu  Eu25  1  0.50000000  0.50000000  0.90934400  1
  Eu  Eu26  1  0.50000000  0.50000000  0.59320700  1
  Eu  Eu27  1  0.75000000  0.75000000  0.84320700  1
  Eu  Eu28  1  0.00000000  0.50000000  0.59065600  1
  Eu  Eu29  1  0.75000000  0.25000000  0.65934400  1
  Eu  Eu30  1  0.00000000  0.50000000  0.90679300  1
  Eu  Eu31  1  0.75000000  0.75000000  0.65679300  1
  Eu  Eu32  1  0.25000000  0.75000000  0.84065600  1
  Eu  Eu33  1  0.00000000  0.00000000  0.90934400  1
  Eu  Eu34  1  0.00000000  0.00000000  0.59320700  1
  Eu  Eu35  1  0.25000000  0.25000000  0.84320700  1
  Eu  Eu36  1  0.50000000  0.00000000  0.59065600  1
  Eu  Eu37  1  0.25000000  0.75000000  0.65934400  1
  Eu  Eu38  1  0.50000000  0.00000000  0.90679300  1
  Eu  Eu39  1  0.25000000  0.25000000  0.65679300  1
  Eu  Eu40  1  0.25000000  0.25000000  0.34065600  1
  Eu  Eu41  1  0.00000000  0.50000000  0.40934400  1
  Eu  Eu42  1  0.00000000  0.50000000  0.09320700  1
  Eu  Eu43  1  0.25000000  0.75000000  0.34320700  1
  Eu  Eu44  1  0.50000000  0.50000000  0.09065600  1
  Eu  Eu45  1  0.25000000  0.25000000  0.15934400  1
  Eu  Eu46  1  0.50000000  0.50000000  0.40679300  1
  Eu  Eu47  1  0.25000000  0.75000000  0.15679300  1
  Cu  Cu48  1  0.50000000  0.00000000  0.33434600  1
  Cu  Cu49  1  0.75000000  0.75000000  0.08434600  1
  Cu  Cu50  1  0.75000000  0.75000000  0.41565400  1
  Cu  Cu51  1  0.00000000  0.00000000  0.16565400  1
  Cu  Cu52  1  0.50000000  0.50000000  0.83434600  1
  Cu  Cu53  1  0.75000000  0.25000000  0.58434600  1
  Cu  Cu54  1  0.75000000  0.25000000  0.91565400  1
  Cu  Cu55  1  0.00000000  0.50000000  0.66565400  1
  Cu  Cu56  1  0.00000000  0.00000000  0.83434600  1
  Cu  Cu57  1  0.25000000  0.75000000  0.58434600  1
  Cu  Cu58  1  0.25000000  0.75000000  0.91565400  1
  Cu  Cu59  1  0.50000000  0.00000000  0.66565400  1
  Cu  Cu60  1  0.00000000  0.50000000  0.33434600  1
  Cu  Cu61  1  0.25000000  0.25000000  0.08434600  1
  Cu  Cu62  1  0.25000000  0.25000000  0.41565400  1
  Cu  Cu63  1  0.50000000  0.50000000  0.16565400  1
  S  S64  1  0.76569350  0.00153450  0.14003900  1
  S  S65  1  0.50091450  0.84673100  0.29510950  1
  S  S66  1  0.23430650  0.99846550  0.14003900  1
  S  S67  1  0.24908550  0.09673100  0.04510950  1
  S  S68  1  0.99908550  0.84673100  0.20489050  1
  S  S69  1  0.24477800  0.90756600  0.44822000  1
  S  S70  1  0.25522200  0.90756600  0.05178000  1
  S  S71  1  0.74908550  0.90326900  0.45489050  1
  S  S72  1  0.00091450  0.15326900  0.20489050  1
  S  S73  1  0.01569350  0.24846550  0.39003900  1
  S  S74  1  0.99477800  0.15756600  0.30178000  1
  S  S75  1  0.49477800  0.84243400  0.19822000  1
  S  S76  1  0.26569350  0.99846550  0.35996100  1
  S  S77  1  0.74477800  0.09243400  0.05178000  1
  S  S78  1  0.75522200  0.09243400  0.44822000  1
  S  S79  1  0.48430650  0.24846550  0.10996100  1
  S  S80  1  0.73430650  0.00153450  0.35996100  1
  S  S81  1  0.49908550  0.15326900  0.29510950  1
  S  S82  1  0.51569350  0.75153450  0.10996100  1
  S  S83  1  0.00522200  0.84243400  0.30178000  1
  S  S84  1  0.75091450  0.90326900  0.04510950  1
  S  S85  1  0.25091450  0.09673100  0.45489050  1
  S  S86  1  0.50522200  0.15756600  0.19822000  1
  S  S87  1  0.98430650  0.75153450  0.39003900  1
  S  S88  1  0.76569350  0.50153450  0.64003900  1
  S  S89  1  0.50091450  0.34673100  0.79510950  1
  S  S90  1  0.23430650  0.49846550  0.64003900  1
  S  S91  1  0.24908550  0.59673100  0.54510950  1
  S  S92  1  0.99908550  0.34673100  0.70489050  1
  S  S93  1  0.24477800  0.40756600  0.94822000  1
  S  S94  1  0.25522200  0.40756600  0.55178000  1
  S  S95  1  0.74908550  0.40326900  0.95489050  1
  S  S96  1  0.00091450  0.65326900  0.70489050  1
  S  S97  1  0.01569350  0.74846550  0.89003900  1
  S  S98  1  0.99477800  0.65756600  0.80178000  1
  S  S99  1  0.49477800  0.34243400  0.69822000  1
  S  S100  1  0.26569350  0.49846550  0.85996100  1
  S  S101  1  0.74477800  0.59243400  0.55178000  1
  S  S102  1  0.75522200  0.59243400  0.94822000  1
  S  S103  1  0.48430650  0.74846550  0.60996100  1
  S  S104  1  0.73430650  0.50153450  0.85996100  1
  S  S105  1  0.49908550  0.65326900  0.79510950  1
  S  S106  1  0.51569350  0.25153450  0.60996100  1
  S  S107  1  0.00522200  0.34243400  0.80178000  1
  S  S108  1  0.75091450  0.40326900  0.54510950  1
  S  S109  1  0.25091450  0.59673100  0.95489050  1
  S  S110  1  0.50522200  0.65756600  0.69822000  1
  S  S111  1  0.98430650  0.25153450  0.89003900  1
  S  S112  1  0.26569350  0.00153450  0.64003900  1
  S  S113  1  0.00091450  0.84673100  0.79510950  1
  S  S114  1  0.73430650  0.99846550  0.64003900  1
  S  S115  1  0.74908550  0.09673100  0.54510950  1
  S  S116  1  0.49908550  0.84673100  0.70489050  1
  S  S117  1  0.74477800  0.90756600  0.94822000  1
  S  S118  1  0.75522200  0.90756600  0.55178000  1
  S  S119  1  0.24908550  0.90326900  0.95489050  1
  S  S120  1  0.50091450  0.15326900  0.70489050  1
  S  S121  1  0.51569350  0.24846550  0.89003900  1
  S  S122  1  0.49477800  0.15756600  0.80178000  1
  S  S123  1  0.99477800  0.84243400  0.69822000  1
  S  S124  1  0.76569350  0.99846550  0.85996100  1
  S  S125  1  0.24477800  0.09243400  0.55178000  1
  S  S126  1  0.25522200  0.09243400  0.94822000  1
  S  S127  1  0.98430650  0.24846550  0.60996100  1
  S  S128  1  0.23430650  0.00153450  0.85996100  1
  S  S129  1  0.99908550  0.15326900  0.79510950  1
  S  S130  1  0.01569350  0.75153450  0.60996100  1
  S  S131  1  0.50522200  0.84243400  0.80178000  1
  S  S132  1  0.25091450  0.90326900  0.54510950  1
  S  S133  1  0.75091450  0.09673100  0.95489050  1
  S  S134  1  0.00522200  0.15756600  0.69822000  1
  S  S135  1  0.48430650  0.75153450  0.89003900  1
  S  S136  1  0.26569350  0.50153450  0.14003900  1
  S  S137  1  0.00091450  0.34673100  0.29510950  1
  S  S138  1  0.73430650  0.49846550  0.14003900  1
  S  S139  1  0.74908550  0.59673100  0.04510950  1
  S  S140  1  0.49908550  0.34673100  0.20489050  1
  S  S141  1  0.74477800  0.40756600  0.44822000  1
  S  S142  1  0.75522200  0.40756600  0.05178000  1
  S  S143  1  0.24908550  0.40326900  0.45489050  1
  S  S144  1  0.50091450  0.65326900  0.20489050  1
  S  S145  1  0.51569350  0.74846550  0.39003900  1
  S  S146  1  0.49477800  0.65756600  0.30178000  1
  S  S147  1  0.99477800  0.34243400  0.19822000  1
  S  S148  1  0.76569350  0.49846550  0.35996100  1
  S  S149  1  0.24477800  0.59243400  0.05178000  1
  S  S150  1  0.25522200  0.59243400  0.44822000  1
  S  S151  1  0.98430650  0.74846550  0.10996100  1
  S  S152  1  0.23430650  0.50153450  0.35996100  1
  S  S153  1  0.99908550  0.65326900  0.29510950  1
  S  S154  1  0.01569350  0.25153450  0.10996100  1
  S  S155  1  0.50522200  0.34243400  0.30178000  1
  S  S156  1  0.25091450  0.40326900  0.04510950  1
  S  S157  1  0.75091450  0.59673100  0.45489050  1
  S  S158  1  0.00522200  0.65756600  0.19822000  1
  S  S159  1  0.48430650  0.25153450  0.39003900  1
