# generated using pymatgen
data_Ti6Co16Si7
_symmetry_space_group_name_H-M   'P 1'
_cell_length_a   11.07084800
_cell_length_b   11.07084800
_cell_length_c   11.07084800
_cell_angle_alpha   90.00000000
_cell_angle_beta   90.00000000
_cell_angle_gamma   90.00000000
_symmetry_Int_Tables_number   1
_chemical_formula_structural   Ti6Co16Si7
_chemical_formula_sum   'Ti24 Co64 Si28'
_cell_volume   1356.88382111
_cell_formula_units_Z   4
loop_
 _symmetry_equiv_pos_site_id
 _symmetry_equiv_pos_as_xyz
  1  'x, y, z'
loop_
 _atom_site_type_symbol
 _atom_site_label
 _atom_site_symmetry_multiplicity
 _atom_site_fract_x
 _atom_site_fract_y
 _atom_site_fract_z
 _atom_site_occupancy
  Ti  Ti0  1  0.80002900  0.00000000  0.00000000  1
  Ti  Ti1  1  0.00000000  0.00000000  0.80002900  1
  Ti  Ti2  1  0.19997100  0.00000000  0.00000000  1
  Ti  Ti3  1  0.50000000  0.00000000  0.69997100  1
  Ti  Ti4  1  0.50000000  0.30002900  0.00000000  1
  Ti  Ti5  1  0.50000000  0.69997100  0.00000000  1
  Ti  Ti6  1  0.80002900  0.50000000  0.50000000  1
  Ti  Ti7  1  0.00000000  0.50000000  0.30002900  1
  Ti  Ti8  1  0.19997100  0.50000000  0.50000000  1
  Ti  Ti9  1  0.50000000  0.50000000  0.19997100  1
  Ti  Ti10  1  0.50000000  0.80002900  0.50000000  1
  Ti  Ti11  1  0.50000000  0.19997100  0.50000000  1
  Ti  Ti12  1  0.30002900  0.00000000  0.50000000  1
  Ti  Ti13  1  0.50000000  0.00000000  0.30002900  1
  Ti  Ti14  1  0.69997100  0.00000000  0.50000000  1
  Ti  Ti15  1  0.00000000  0.00000000  0.19997100  1
  Ti  Ti16  1  0.00000000  0.30002900  0.50000000  1
  Ti  Ti17  1  0.00000000  0.69997100  0.50000000  1
  Ti  Ti18  1  0.30002900  0.50000000  0.00000000  1
  Ti  Ti19  1  0.50000000  0.50000000  0.80002900  1
  Ti  Ti20  1  0.69997100  0.50000000  0.00000000  1
  Ti  Ti21  1  0.00000000  0.50000000  0.69997100  1
  Ti  Ti22  1  0.00000000  0.80002900  0.00000000  1
  Ti  Ti23  1  0.00000000  0.19997100  0.00000000  1
  Co  Co24  1  0.88085700  0.88085700  0.61914300  1
  Co  Co25  1  0.33335267  0.66664733  0.83335267  1
  Co  Co26  1  0.88085700  0.11914300  0.61914300  1
  Co  Co27  1  0.33335267  0.16664733  0.66664733  1
  Co  Co28  1  0.16664733  0.83335267  0.83335267  1
  Co  Co29  1  0.16664733  0.16664733  0.83335267  1
  Co  Co30  1  0.33335267  0.83335267  0.66664733  1
  Co  Co31  1  0.61914300  0.88085700  0.88085700  1
  Co  Co32  1  0.16664733  0.66664733  0.66664733  1
  Co  Co33  1  0.61914300  0.11914300  0.88085700  1
  Co  Co34  1  0.11914300  0.11914300  0.61914300  1
  Co  Co35  1  0.11914300  0.88085700  0.61914300  1
  Co  Co36  1  0.38085700  0.88085700  0.88085700  1
  Co  Co37  1  0.33335267  0.33335267  0.83335267  1
  Co  Co38  1  0.38085700  0.11914300  0.88085700  1
  Co  Co39  1  0.16664733  0.33335267  0.66664733  1
  Co  Co40  1  0.88085700  0.38085700  0.11914300  1
  Co  Co41  1  0.33335267  0.16664733  0.33335267  1
  Co  Co42  1  0.88085700  0.61914300  0.11914300  1
  Co  Co43  1  0.33335267  0.66664733  0.16664733  1
  Co  Co44  1  0.16664733  0.33335267  0.33335267  1
  Co  Co45  1  0.16664733  0.66664733  0.33335267  1
  Co  Co46  1  0.33335267  0.33335267  0.16664733  1
  Co  Co47  1  0.61914300  0.38085700  0.38085700  1
  Co  Co48  1  0.16664733  0.16664733  0.16664733  1
  Co  Co49  1  0.61914300  0.61914300  0.38085700  1
  Co  Co50  1  0.11914300  0.61914300  0.11914300  1
  Co  Co51  1  0.11914300  0.38085700  0.11914300  1
  Co  Co52  1  0.38085700  0.38085700  0.38085700  1
  Co  Co53  1  0.33335267  0.83335267  0.33335267  1
  Co  Co54  1  0.38085700  0.61914300  0.38085700  1
  Co  Co55  1  0.16664733  0.83335267  0.16664733  1
  Co  Co56  1  0.38085700  0.88085700  0.11914300  1
  Co  Co57  1  0.83335267  0.66664733  0.33335267  1
  Co  Co58  1  0.38085700  0.11914300  0.11914300  1
  Co  Co59  1  0.83335267  0.16664733  0.16664733  1
  Co  Co60  1  0.66664733  0.83335267  0.33335267  1
  Co  Co61  1  0.66664733  0.16664733  0.33335267  1
  Co  Co62  1  0.83335267  0.83335267  0.16664733  1
  Co  Co63  1  0.11914300  0.88085700  0.38085700  1
  Co  Co64  1  0.66664733  0.66664733  0.16664733  1
  Co  Co65  1  0.11914300  0.11914300  0.38085700  1
  Co  Co66  1  0.61914300  0.11914300  0.11914300  1
  Co  Co67  1  0.61914300  0.88085700  0.11914300  1
  Co  Co68  1  0.88085700  0.88085700  0.38085700  1
  Co  Co69  1  0.83335267  0.33335267  0.33335267  1
  Co  Co70  1  0.88085700  0.11914300  0.38085700  1
  Co  Co71  1  0.66664733  0.33335267  0.16664733  1
  Co  Co72  1  0.38085700  0.38085700  0.61914300  1
  Co  Co73  1  0.83335267  0.16664733  0.83335267  1
  Co  Co74  1  0.38085700  0.61914300  0.61914300  1
  Co  Co75  1  0.83335267  0.66664733  0.66664733  1
  Co  Co76  1  0.66664733  0.33335267  0.83335267  1
  Co  Co77  1  0.66664733  0.66664733  0.83335267  1
  Co  Co78  1  0.83335267  0.33335267  0.66664733  1
  Co  Co79  1  0.11914300  0.38085700  0.88085700  1
  Co  Co80  1  0.66664733  0.16664733  0.66664733  1
  Co  Co81  1  0.11914300  0.61914300  0.88085700  1
  Co  Co82  1  0.61914300  0.61914300  0.61914300  1
  Co  Co83  1  0.61914300  0.38085700  0.61914300  1
  Co  Co84  1  0.88085700  0.38085700  0.88085700  1
  Co  Co85  1  0.83335267  0.83335267  0.83335267  1
  Co  Co86  1  0.88085700  0.61914300  0.88085700  1
  Co  Co87  1  0.66664733  0.83335267  0.66664733  1
  Si  Si88  1  0.25000000  0.00000000  0.75000000  1
  Si  Si89  1  0.25000000  0.75000000  0.00000000  1
  Si  Si90  1  0.50000000  0.00000000  0.00000000  1
  Si  Si91  1  0.25000000  0.25000000  0.00000000  1
  Si  Si92  1  0.75000000  0.00000000  0.75000000  1
  Si  Si93  1  0.00000000  0.25000000  0.75000000  1
  Si  Si94  1  0.00000000  0.75000000  0.75000000  1
  Si  Si95  1  0.25000000  0.50000000  0.25000000  1
  Si  Si96  1  0.25000000  0.25000000  0.50000000  1
  Si  Si97  1  0.50000000  0.50000000  0.50000000  1
  Si  Si98  1  0.25000000  0.75000000  0.50000000  1
  Si  Si99  1  0.75000000  0.50000000  0.25000000  1
  Si  Si100  1  0.00000000  0.75000000  0.25000000  1
  Si  Si101  1  0.00000000  0.25000000  0.25000000  1
  Si  Si102  1  0.75000000  0.00000000  0.25000000  1
  Si  Si103  1  0.75000000  0.75000000  0.50000000  1
  Si  Si104  1  0.00000000  0.00000000  0.50000000  1
  Si  Si105  1  0.75000000  0.25000000  0.50000000  1
  Si  Si106  1  0.25000000  0.00000000  0.25000000  1
  Si  Si107  1  0.50000000  0.25000000  0.25000000  1
  Si  Si108  1  0.50000000  0.75000000  0.25000000  1
  Si  Si109  1  0.75000000  0.50000000  0.75000000  1
  Si  Si110  1  0.75000000  0.25000000  0.00000000  1
  Si  Si111  1  0.00000000  0.50000000  0.00000000  1
  Si  Si112  1  0.75000000  0.75000000  0.00000000  1
  Si  Si113  1  0.25000000  0.50000000  0.75000000  1
  Si  Si114  1  0.50000000  0.75000000  0.75000000  1
  Si  Si115  1  0.50000000  0.25000000  0.75000000  1
