# generated using pymatgen
data_Sr2CoReO6
_symmetry_space_group_name_H-M   'P 1'
_cell_length_a   5.65881107
_cell_length_b   5.63701979
_cell_length_c   9.79920088
_cell_angle_alpha   90.00000000
_cell_angle_beta   125.23919453
_cell_angle_gamma   90.00000000
_symmetry_Int_Tables_number   1
_chemical_formula_structural   Sr2CoReO6
_chemical_formula_sum   'Sr4 Co2 Re2 O12'
_cell_volume   255.30232065
_cell_formula_units_Z   2
loop_
 _symmetry_equiv_pos_site_id
 _symmetry_equiv_pos_as_xyz
  1  'x, y, z'
loop_
 _atom_site_type_symbol
 _atom_site_label
 _atom_site_symmetry_multiplicity
 _atom_site_fract_x
 _atom_site_fract_y
 _atom_site_fract_z
 _atom_site_occupancy
  Sr  Sr0  1  0.75189650  0.51993300  0.24860200  1
  Sr  Sr1  1  0.75189650  0.98006700  0.74860200  1
  Sr  Sr2  1  0.24810350  0.01993300  0.25139800  1
  Sr  Sr3  1  0.24810350  0.48006700  0.75139800  1
  Co  Co4  1  0.50000000  0.00000000  0.00000000  1
  Co  Co5  1  0.50000000  0.50000000  0.50000000  1
  Re  Re6  1  0.00000000  0.50000000  0.00000000  1
  Re  Re7  1  0.00000000  0.00000000  0.50000000  1
  O  O8  1  0.23620500  0.71711200  0.97163800  1
  O  O9  1  0.76379500  0.21711200  0.52836200  1
  O  O10  1  0.23620500  0.78288800  0.47163800  1
  O  O11  1  0.76379500  0.28288800  0.02836200  1
  O  O12  1  0.18655400  0.23424900  0.97176800  1
  O  O13  1  0.81344600  0.76575100  0.02823200  1
  O  O14  1  0.81344600  0.73424900  0.52823200  1
  O  O15  1  0.18655400  0.26575100  0.47176800  1
  O  O16  1  0.29178650  0.49374600  0.23801400  1
  O  O17  1  0.70821350  0.50625400  0.76198600  1
  O  O18  1  0.29178650  0.00625400  0.73801400  1
  O  O19  1  0.70821350  0.99374600  0.26198600  1
