# generated using pymatgen
data_CuSi2P3
_symmetry_space_group_name_H-M   'P 1'
_cell_length_a   22.66196200
_cell_length_b   3.63834000
_cell_length_c   6.44167169
_cell_angle_alpha   90.00000000
_cell_angle_beta   94.48582535
_cell_angle_gamma   90.00000000
_symmetry_Int_Tables_number   1
_chemical_formula_structural   CuSi2P3
_chemical_formula_sum   'Cu4 Si8 P12'
_cell_volume   529.50121880
_cell_formula_units_Z   4
loop_
 _symmetry_equiv_pos_site_id
 _symmetry_equiv_pos_as_xyz
  1  'x, y, z'
loop_
 _atom_site_type_symbol
 _atom_site_label
 _atom_site_symmetry_multiplicity
 _atom_site_fract_x
 _atom_site_fract_y
 _atom_site_fract_z
 _atom_site_occupancy
  Cu  Cu0  1  0.73161600  0.00000000  0.25492000  1
  Cu  Cu1  1  0.63952100  0.00000000  0.88171900  1
  Cu  Cu2  1  0.23161600  0.50000000  0.25492000  1
  Cu  Cu3  1  0.13952100  0.50000000  0.88171900  1
  Si  Si4  1  0.65670500  0.50000000  0.36941100  1
  Si  Si5  1  0.87356900  0.50000000  0.12327000  1
  Si  Si6  1  0.74841000  0.50000000  0.76725600  1
  Si  Si7  1  0.87800000  0.00000000  0.62581300  1
  Si  Si8  1  0.15670500  0.00000000  0.36941100  1
  Si  Si9  1  0.37356900  0.00000000  0.12327000  1
  Si  Si10  1  0.24841000  0.00000000  0.76725600  1
  Si  Si11  1  0.37800000  0.50000000  0.62581300  1
  P  P12  1  0.62015600  0.00000000  0.20459700  1
  P  P13  1  0.77439400  0.50000000  0.10577000  1
  P  P14  1  0.65082900  0.50000000  0.70706100  1
  P  P15  1  0.91766700  0.00000000  0.97092800  1
  P  P16  1  0.77853200  0.00000000  0.58693900  1
  P  P17  1  0.91809900  0.50000000  0.46481700  1
  P  P18  1  0.12015600  0.50000000  0.20459700  1
  P  P19  1  0.27439400  0.00000000  0.10577000  1
  P  P20  1  0.15082900  0.00000000  0.70706100  1
  P  P21  1  0.41766700  0.50000000  0.97092800  1
  P  P22  1  0.27853200  0.50000000  0.58693900  1
  P  P23  1  0.41809900  0.00000000  0.46481700  1
