# generated using pymatgen
data_Fe5SnO8
_symmetry_space_group_name_H-M   'P 1'
_cell_length_a   6.11368180
_cell_length_b   6.11368180
_cell_length_c   15.38058916
_cell_angle_alpha   90.00000000
_cell_angle_beta   90.00000000
_cell_angle_gamma   120.00000000
_symmetry_Int_Tables_number   1
_chemical_formula_structural   Fe5SnO8
_chemical_formula_sum   'Fe15 Sn3 O24'
_cell_volume   497.86232742
_cell_formula_units_Z   3
loop_
 _symmetry_equiv_pos_site_id
 _symmetry_equiv_pos_as_xyz
  1  'x, y, z'
loop_
 _atom_site_type_symbol
 _atom_site_label
 _atom_site_symmetry_multiplicity
 _atom_site_fract_x
 _atom_site_fract_y
 _atom_site_fract_z
 _atom_site_occupancy
  Fe  Fe0  1  0.66666667  0.33333333  0.20389033  1
  Fe  Fe1  1  0.00000000  0.00000000  0.12944300  1
  Fe  Fe2  1  0.00000000  0.50000000  0.00000000  1
  Fe  Fe3  1  0.50000000  0.50000000  0.00000000  1
  Fe  Fe4  1  0.50000000  0.00000000  0.00000000  1
  Fe  Fe5  1  0.33333333  0.66666667  0.53722367  1
  Fe  Fe6  1  0.66666667  0.33333333  0.46277633  1
  Fe  Fe7  1  0.66666667  0.83333333  0.33333333  1
  Fe  Fe8  1  0.16666667  0.83333333  0.33333333  1
  Fe  Fe9  1  0.16666667  0.33333333  0.33333333  1
  Fe  Fe10  1  0.00000000  0.00000000  0.87055700  1
  Fe  Fe11  1  0.33333333  0.66666667  0.79610967  1
  Fe  Fe12  1  0.33333333  0.16666667  0.66666667  1
  Fe  Fe13  1  0.83333333  0.16666667  0.66666667  1
  Fe  Fe14  1  0.83333333  0.66666667  0.66666667  1
  Sn  Sn15  1  0.33333333  0.66666667  0.16666667  1
  Sn  Sn16  1  1.00000000  1.00000000  0.50000000  1
  Sn  Sn17  1  0.66666667  0.33333333  0.83333333  1
  O  O18  1  0.17320767  0.34641533  0.08549533  1
  O  O19  1  0.17320767  0.82679233  0.08549533  1
  O  O20  1  0.65358467  0.82679233  0.08549533  1
  O  O21  1  0.00000000  0.00000000  0.25342800  1
  O  O22  1  0.66666667  0.33333333  0.07990533  1
  O  O23  1  0.01308200  0.50654100  0.24783800  1
  O  O24  1  0.49345900  0.50654100  0.24783800  1
  O  O25  1  0.49345900  0.98691800  0.24783800  1
  O  O26  1  0.83987433  0.67974867  0.41882867  1
  O  O27  1  0.83987433  0.16012567  0.41882867  1
  O  O28  1  0.32025133  0.16012567  0.41882867  1
  O  O29  1  0.66666667  0.33333333  0.58676133  1
  O  O30  1  0.33333333  0.66666667  0.41323867  1
  O  O31  1  0.67974867  0.83987433  0.58117133  1
  O  O32  1  0.16012567  0.83987433  0.58117133  1
  O  O33  1  0.16012567  0.32025133  0.58117133  1
  O  O34  1  0.50654100  0.01308200  0.75216200  1
  O  O35  1  0.50654100  0.49345900  0.75216200  1
  O  O36  1  0.98691800  0.49345900  0.75216200  1
  O  O37  1  0.33333333  0.66666667  0.92009467  1
  O  O38  1  0.00000000  0.00000000  0.74657200  1
  O  O39  1  0.34641533  0.17320767  0.91450467  1
  O  O40  1  0.82679233  0.17320767  0.91450467  1
  O  O41  1  0.82679233  0.65358467  0.91450467  1
