# generated using pymatgen
data_DyGe2Pt
_symmetry_space_group_name_H-M   'P 1'
_cell_length_a   4.35084400
_cell_length_b   8.80624200
_cell_length_c   16.38060600
_cell_angle_alpha   90.00000000
_cell_angle_beta   90.00000000
_cell_angle_gamma   90.00000000
_symmetry_Int_Tables_number   1
_chemical_formula_structural   DyGe2Pt
_chemical_formula_sum   'Dy8 Ge16 Pt8'
_cell_volume   627.61612369
_cell_formula_units_Z   8
loop_
 _symmetry_equiv_pos_site_id
 _symmetry_equiv_pos_as_xyz
  1  'x, y, z'
loop_
 _atom_site_type_symbol
 _atom_site_label
 _atom_site_symmetry_multiplicity
 _atom_site_fract_x
 _atom_site_fract_y
 _atom_site_fract_z
 _atom_site_occupancy
  Dy  Dy0  1  0.00000000  0.50000000  0.79726000  1
  Dy  Dy1  1  0.00000000  0.71998900  0.00000000  1
  Dy  Dy2  1  0.00000000  0.28001100  0.00000000  1
  Dy  Dy3  1  0.50000000  0.00000000  0.70274000  1
  Dy  Dy4  1  0.50000000  0.00000000  0.29726000  1
  Dy  Dy5  1  0.50000000  0.21998900  0.50000000  1
  Dy  Dy6  1  0.50000000  0.78001100  0.50000000  1
  Dy  Dy7  1  0.00000000  0.50000000  0.20274000  1
  Ge  Ge8  1  0.50000000  0.00000000  0.92542900  1
  Ge  Ge9  1  0.00000000  0.50000000  0.57457100  1
  Ge  Ge10  1  0.00000000  0.00000000  0.57498100  1
  Ge  Ge11  1  0.00000000  0.84847900  0.80085300  1
  Ge  Ge12  1  0.50000000  0.50000000  0.92501900  1
  Ge  Ge13  1  0.00000000  0.15152100  0.80085300  1
  Ge  Ge14  1  0.50000000  0.65152100  0.69914700  1
  Ge  Ge15  1  0.50000000  0.34847900  0.69914700  1
  Ge  Ge16  1  0.00000000  0.50000000  0.42542900  1
  Ge  Ge17  1  0.50000000  0.00000000  0.07457100  1
  Ge  Ge18  1  0.50000000  0.50000000  0.07498100  1
  Ge  Ge19  1  0.50000000  0.34847900  0.30085300  1
  Ge  Ge20  1  0.00000000  0.00000000  0.42501900  1
  Ge  Ge21  1  0.50000000  0.65152100  0.30085300  1
  Ge  Ge22  1  0.00000000  0.15152100  0.19914700  1
  Ge  Ge23  1  0.00000000  0.84847900  0.19914700  1
  Pt  Pt24  1  0.50000000  0.75127600  0.85206200  1
  Pt  Pt25  1  0.00000000  0.74872400  0.64793800  1
  Pt  Pt26  1  0.50000000  0.24872400  0.85206200  1
  Pt  Pt27  1  0.00000000  0.25127600  0.64793800  1
  Pt  Pt28  1  0.00000000  0.25127600  0.35206200  1
  Pt  Pt29  1  0.50000000  0.24872400  0.14793800  1
  Pt  Pt30  1  0.00000000  0.74872400  0.35206200  1
  Pt  Pt31  1  0.50000000  0.75127600  0.14793800  1
