# generated using pymatgen
data_Mn2GeS4
_symmetry_space_group_name_H-M   'P 1'
_cell_length_a   6.02910326
_cell_length_b   7.38706107
_cell_length_c   12.76598866
_cell_angle_alpha   90.00000000
_cell_angle_beta   90.00000000
_cell_angle_gamma   90.00000000
_symmetry_Int_Tables_number   1
_chemical_formula_structural   Mn2GeS4
_chemical_formula_sum   'Mn8 Ge4 S16'
_cell_volume   568.56335645
_cell_formula_units_Z   4
loop_
 _symmetry_equiv_pos_site_id
 _symmetry_equiv_pos_as_xyz
  1  'x, y, z'
loop_
 _atom_site_type_symbol
 _atom_site_label
 _atom_site_symmetry_multiplicity
 _atom_site_fract_x
 _atom_site_fract_y
 _atom_site_fract_z
 _atom_site_occupancy
  Mn  Mn0  1  0.50124300  0.25000000  0.77026850  1
  Mn  Mn1  1  0.99875700  0.25000000  0.27026850  1
  Mn  Mn2  1  0.49875700  0.75000000  0.22973150  1
  Mn  Mn3  1  0.50000000  0.00000000  0.50000000  1
  Mn  Mn4  1  0.00124300  0.75000000  0.72973150  1
  Mn  Mn5  1  0.00000000  0.00000000  0.00000000  1
  Mn  Mn6  1  0.00000000  0.50000000  0.00000000  1
  Mn  Mn7  1  0.50000000  0.50000000  0.50000000  1
  Ge  Ge8  1  0.91728300  0.75000000  0.41054750  1
  Ge  Ge9  1  0.08271700  0.25000000  0.58945250  1
  Ge  Ge10  1  0.41728300  0.25000000  0.08945250  1
  Ge  Ge11  1  0.58271700  0.75000000  0.91054750  1
  S  S12  1  0.75019000  0.98804000  0.33241150  1
  S  S13  1  0.74256200  0.75000000  0.06933550  1
  S  S14  1  0.78406000  0.25000000  0.09285650  1
  S  S15  1  0.71594000  0.25000000  0.59285650  1
  S  S16  1  0.74981000  0.98804000  0.83241150  1
  S  S17  1  0.25019000  0.01196000  0.16758850  1
  S  S18  1  0.24981000  0.48804000  0.66758850  1
  S  S19  1  0.28406000  0.75000000  0.40714350  1
  S  S20  1  0.75743800  0.75000000  0.56933550  1
  S  S21  1  0.75019000  0.51196000  0.33241150  1
  S  S22  1  0.21594000  0.75000000  0.90714350  1
  S  S23  1  0.25019000  0.48804000  0.16758850  1
  S  S24  1  0.25743800  0.25000000  0.93066450  1
  S  S25  1  0.74981000  0.51196000  0.83241150  1
  S  S26  1  0.24981000  0.01196000  0.66758850  1
  S  S27  1  0.24256200  0.25000000  0.43066450  1
