# generated using pymatgen
data_Si(Bi3O5)5
_symmetry_space_group_name_H-M   'P 1'
_cell_length_a   14.49167018
_cell_length_b   14.49167018
_cell_length_c   44.37740602
_cell_angle_alpha   90.00000000
_cell_angle_beta   90.00000000
_cell_angle_gamma   120.00000000
_symmetry_Int_Tables_number   1
_chemical_formula_structural   Si(Bi3O5)5
_chemical_formula_sum   'Si12 Bi180 O300'
_cell_volume   8071.03865524
_cell_formula_units_Z   12
loop_
 _symmetry_equiv_pos_site_id
 _symmetry_equiv_pos_as_xyz
  1  'x, y, z'
loop_
 _atom_site_type_symbol
 _atom_site_label
 _atom_site_symmetry_multiplicity
 _atom_site_fract_x
 _atom_site_fract_y
 _atom_site_fract_z
 _atom_site_occupancy
  Si  Si0  1  0.00000000  0.00000000  0.20033100  1
  Si  Si1  1  0.33333333  0.66666667  0.06651467  1
  Si  Si2  1  0.33333333  0.66666667  0.26665567  1
  Si  Si3  1  0.66666667  0.33333333  0.13305533  1
  Si  Si4  1  0.66666667  0.33333333  0.53366433  1
  Si  Si5  1  0.00000000  0.00000000  0.39984800  1
  Si  Si6  1  0.00000000  0.00000000  0.59998900  1
  Si  Si7  1  0.33333333  0.66666667  0.46638867  1
  Si  Si8  1  0.33333333  0.66666667  0.86699767  1
  Si  Si9  1  0.66666667  0.33333333  0.73318133  1
  Si  Si10  1  0.66666667  0.33333333  0.93332233  1
  Si  Si11  1  0.00000000  0.00000000  0.79972200  1
  Bi  Bi12  1  0.01576967  0.83963333  0.26460933  1
  Bi  Bi13  1  0.88508567  0.59885433  0.31596033  1
  Bi  Bi14  1  0.15627467  0.00900033  0.33174133  1
  Bi  Bi15  1  0.38936267  0.44546833  0.04999133  1
  Bi  Bi16  1  0.14879033  0.16356267  0.06415367  1
  Bi  Bi17  1  0.60207567  0.70362333  0.08689533  1
  Bi  Bi18  1  0.38747767  0.27549033  0.11599033  1
  Bi  Bi19  1  0.35073533  0.50797967  0.12999767  1
  Bi  Bi20  1  0.85118667  0.84565633  0.13286233  1
  Bi  Bi21  1  0.63167167  0.56120133  0.15436333  1
  Bi  Bi22  1  0.21684833  0.27565467  0.18388667  1
  Bi  Bi23  1  0.49061233  0.31424367  0.19787667  1
  Bi  Bi24  1  0.48754933  0.67267667  0.19824867  1
  Bi  Bi25  1  0.76897200  0.73106200  0.22148900  1
  Bi  Bi26  1  0.39061333  0.44990667  0.24936267  1
  Bi  Bi27  1  0.16036667  0.17613633  0.26460933  1
  Bi  Bi28  1  0.65381533  0.47943967  0.26844367  1
  Bi  Bi29  1  0.59832567  0.70528533  0.28770433  1
  Bi  Bi30  1  0.40114567  0.28623133  0.31596033  1
  Bi  Bi31  1  0.34806167  0.50819333  0.33023133  1
  Bi  Bi32  1  0.85272567  0.84372533  0.33174133  1
  Bi  Bi33  1  0.95755933  0.22073467  0.01826667  1
  Bi  Bi34  1  0.55453167  0.94389433  0.04999133  1
  Bi  Bi35  1  0.83643733  0.98522767  0.06415367  1
  Bi  Bi36  1  0.82161000  0.33865100  0.06471800  1
  Bi  Bi37  1  0.10154767  0.39792433  0.08689533  1
  Bi  Bi38  1  0.72450967  0.11198733  0.11599033  1
  Bi  Bi39  1  0.49202033  0.84275567  0.12999767  1
  Bi  Bi40  1  0.99446967  0.14881333  0.13286233  1
  Bi  Bi41  1  0.92952967  0.36832833  0.15436333  1
  Bi  Bi42  1  0.72434533  0.94119367  0.18388667  1
  Bi  Bi43  1  0.68575633  0.17636867  0.19787667  1
  Bi  Bi44  1  0.18512733  0.51245067  0.19824867  1
  Bi  Bi45  1  0.96209000  0.23102800  0.22148900  1
  Bi  Bi46  1  0.55009333  0.94070667  0.24936267  1
  Bi  Bi47  1  0.82386367  0.98423033  0.26460933  1
  Bi  Bi48  1  0.82562433  0.34618467  0.26844367  1
  Bi  Bi49  1  0.10695967  0.40167433  0.28770433  1
  Bi  Bi50  1  0.71376867  0.11491433  0.31596033  1
  Bi  Bi51  1  0.49180667  0.83986833  0.33023133  1
  Bi  Bi52  1  0.99099967  0.14727433  0.33174133  1
  Bi  Bi53  1  0.26317533  0.04244067  0.01826667  1
  Bi  Bi54  1  0.05610567  0.61063733  0.04999133  1
  Bi  Bi55  1  0.01477233  0.85120967  0.06415367  1
  Bi  Bi56  1  0.51704100  0.17839000  0.06471800  1
  Bi  Bi57  1  0.29637667  0.89845233  0.08689533  1
  Bi  Bi58  1  0.88801267  0.61252233  0.11599033  1
  Bi  Bi59  1  0.15724433  0.64926467  0.12999767  1
  Bi  Bi60  1  0.15434367  0.00553033  0.13286233  1
  Bi  Bi61  1  0.43879867  0.07047033  0.15436333  1
  Bi  Bi62  1  0.05880633  0.78315167  0.18388667  1
  Bi  Bi63  1  0.82363133  0.50938767  0.19787667  1
  Bi  Bi64  1  0.32732333  0.81487267  0.19824867  1
  Bi  Bi65  1  0.26893800  0.03791000  0.22148900  1
  Bi  Bi66  1  0.05929333  0.60938667  0.24936267  1
  Bi  Bi67  1  0.52056033  0.17437567  0.26844367  1
  Bi  Bi68  1  0.29471467  0.89304033  0.28770433  1
  Bi  Bi69  1  0.16013167  0.65193833  0.33023133  1
  Bi  Bi70  1  0.77926533  0.73682467  0.01826667  1
  Bi  Bi71  1  0.66134900  0.48295900  0.06471800  1
  Bi  Bi72  1  0.68243633  0.17296667  0.59794267  1
  Bi  Bi73  1  0.55175233  0.93218767  0.64929367  1
  Bi  Bi74  1  0.82294133  0.34233367  0.66507467  1
  Bi  Bi75  1  0.05602933  0.77880167  0.38332467  1
  Bi  Bi76  1  0.81545700  0.49689600  0.39748700  1
  Bi  Bi77  1  0.26874233  0.03695667  0.42022867  1
  Bi  Bi78  1  0.05414433  0.60882367  0.44932367  1
  Bi  Bi79  1  0.01740200  0.84131300  0.46333100  1
  Bi  Bi80  1  0.51785333  0.17898967  0.46619567  1
  Bi  Bi81  1  0.29833833  0.89453467  0.48769667  1
  Bi  Bi82  1  0.88351500  0.60898800  0.51722000  1
  Bi  Bi83  1  0.15727900  0.64757700  0.53121000  1
  Bi  Bi84  1  0.15421600  0.00601000  0.53158200  1
  Bi  Bi85  1  0.43563867  0.06439533  0.55482233  1
  Bi  Bi86  1  0.05728000  0.78324000  0.58269600  1
  Bi  Bi87  1  0.82703333  0.50946967  0.59794267  1
  Bi  Bi88  1  0.32048200  0.81277300  0.60177700  1
  Bi  Bi89  1  0.26499233  0.03861867  0.62103767  1
  Bi  Bi90  1  0.06781233  0.61956467  0.64929367  1
  Bi  Bi91  1  0.01472833  0.84152667  0.66356467  1
  Bi  Bi92  1  0.51939233  0.17705867  0.66507467  1
  Bi  Bi93  1  0.62422600  0.55406800  0.35160000  1
  Bi  Bi94  1  0.22119833  0.27722767  0.38332467  1
  Bi  Bi95  1  0.50310400  0.31856100  0.39748700  1
  Bi  Bi96  1  0.48827667  0.67198433  0.39805133  1
  Bi  Bi97  1  0.76821433  0.73125767  0.42022867  1
  Bi  Bi98  1  0.39117633  0.44532067  0.44932367  1
  Bi  Bi99  1  0.15868700  0.17608900  0.46333100  1
  Bi  Bi100  1  0.66113633  0.48214667  0.46619567  1
  Bi  Bi101  1  0.59619633  0.70166167  0.48769667  1
  Bi  Bi102  1  0.39101200  0.27452700  0.51722000  1
  Bi  Bi103  1  0.35242300  0.50970200  0.53121000  1
  Bi  Bi104  1  0.85179400  0.84578400  0.53158200  1
  Bi  Bi105  1  0.62875667  0.56436133  0.55482233  1
  Bi  Bi106  1  0.21676000  0.27404000  0.58269600  1
  Bi  Bi107  1  0.49053033  0.31756367  0.59794267  1
  Bi  Bi108  1  0.49229100  0.67951800  0.60177700  1
  Bi  Bi109  1  0.77362633  0.73500767  0.62103767  1
  Bi  Bi110  1  0.38043533  0.44824767  0.64929367  1
  Bi  Bi111  1  0.15847333  0.17320167  0.66356467  1
  Bi  Bi112  1  0.65766633  0.48060767  0.66507467  1
  Bi  Bi113  1  0.92984200  0.37577400  0.35160000  1
  Bi  Bi114  1  0.72277233  0.94397067  0.38332467  1
  Bi  Bi115  1  0.68143900  0.18454300  0.39748700  1
  Bi  Bi116  1  0.18370767  0.51172333  0.39805133  1
  Bi  Bi117  1  0.96304333  0.23178567  0.42022867  1
  Bi  Bi118  1  0.55467933  0.94585567  0.44932367  1
  Bi  Bi119  1  0.82391100  0.98259800  0.46333100  1
  Bi  Bi120  1  0.82101033  0.33886367  0.46619567  1
  Bi  Bi121  1  0.10546533  0.40380367  0.48769667  1
  Bi  Bi122  1  0.72547300  0.11648500  0.51722000  1
  Bi  Bi123  1  0.49029800  0.84272100  0.53121000  1
  Bi  Bi124  1  0.99399000  0.14820600  0.53158200  1
  Bi  Bi125  1  0.93560467  0.37124333  0.55482233  1
  Bi  Bi126  1  0.72596000  0.94272000  0.58269600  1
  Bi  Bi127  1  0.18722700  0.50770900  0.60177700  1
  Bi  Bi128  1  0.96138133  0.22637367  0.62103767  1
  Bi  Bi129  1  0.82679833  0.98527167  0.66356467  1
  Bi  Bi130  1  0.44593200  0.07015800  0.35160000  1
  Bi  Bi131  1  0.32801567  0.81629233  0.39805133  1
  Bi  Bi132  1  0.34910300  0.50630000  0.93127600  1
  Bi  Bi133  1  0.21841900  0.26552100  0.98262700  1
  Bi  Bi134  1  0.48960800  0.67566700  0.99840800  1
  Bi  Bi135  1  0.72269600  0.11213500  0.71665800  1
  Bi  Bi136  1  0.48212367  0.83022933  0.73082033  1
  Bi  Bi137  1  0.93540900  0.37029000  0.75356200  1
  Bi  Bi138  1  0.72081100  0.94215700  0.78265700  1
  Bi  Bi139  1  0.68406867  0.17464633  0.79666433  1
  Bi  Bi140  1  0.18452000  0.51232300  0.79952900  1
  Bi  Bi141  1  0.96500500  0.22786800  0.82103000  1
  Bi  Bi142  1  0.55018167  0.94232133  0.85055333  1
  Bi  Bi143  1  0.82394567  0.98091033  0.86454333  1
  Bi  Bi144  1  0.82088267  0.33934333  0.86491533  1
  Bi  Bi145  1  0.10230533  0.39772867  0.88815567  1
  Bi  Bi146  1  0.72394667  0.11657333  0.91602933  1
  Bi  Bi147  1  0.49370000  0.84280300  0.93127600  1
  Bi  Bi148  1  0.98714867  0.14610633  0.93511033  1
  Bi  Bi149  1  0.93165900  0.37195200  0.95437100  1
  Bi  Bi150  1  0.73447900  0.95289800  0.98262700  1
  Bi  Bi151  1  0.68139500  0.17486000  0.99689800  1
  Bi  Bi152  1  0.18605900  0.51039200  0.99840800  1
  Bi  Bi153  1  0.29089267  0.88740133  0.68493333  1
  Bi  Bi154  1  0.88786500  0.61056100  0.71665800  1
  Bi  Bi155  1  0.16977067  0.65189433  0.73082033  1
  Bi  Bi156  1  0.15494333  0.00531767  0.73138467  1
  Bi  Bi157  1  0.43488100  0.06459100  0.75356200  1
  Bi  Bi158  1  0.05784300  0.77865400  0.78265700  1
  Bi  Bi159  1  0.82535367  0.50942233  0.79666433  1
  Bi  Bi160  1  0.32780300  0.81548000  0.79952900  1
  Bi  Bi161  1  0.26286300  0.03499500  0.82103000  1
  Bi  Bi162  1  0.05767867  0.60786033  0.85055333  1
  Bi  Bi163  1  0.01908967  0.84303533  0.86454333  1
  Bi  Bi164  1  0.51846067  0.17911733  0.86491533  1
  Bi  Bi165  1  0.29542333  0.89769467  0.88815567  1
  Bi  Bi166  1  0.88342667  0.60737333  0.91602933  1
  Bi  Bi167  1  0.15719700  0.65089700  0.93127600  1
  Bi  Bi168  1  0.15895767  0.01285133  0.93511033  1
  Bi  Bi169  1  0.44029300  0.06834100  0.95437100  1
  Bi  Bi170  1  0.04710200  0.78158100  0.98262700  1
  Bi  Bi171  1  0.82514000  0.50653500  0.99689800  1
  Bi  Bi172  1  0.32433300  0.81394100  0.99840800  1
  Bi  Bi173  1  0.59650867  0.70910733  0.68493333  1
  Bi  Bi174  1  0.38943900  0.27730400  0.71665800  1
  Bi  Bi175  1  0.34810567  0.51787633  0.73082033  1
  Bi  Bi176  1  0.85037433  0.84505667  0.73138467  1
  Bi  Bi177  1  0.62971000  0.56511900  0.75356200  1
  Bi  Bi178  1  0.22134600  0.27918900  0.78265700  1
  Bi  Bi179  1  0.49057767  0.31593133  0.79666433  1
  Bi  Bi180  1  0.48767700  0.67219700  0.79952900  1
  Bi  Bi181  1  0.77213200  0.73713700  0.82103000  1
  Bi  Bi182  1  0.39213967  0.44981833  0.85055333  1
  Bi  Bi183  1  0.15696467  0.17605433  0.86454333  1
  Bi  Bi184  1  0.66065667  0.48153933  0.86491533  1
  Bi  Bi185  1  0.60227133  0.70457667  0.88815567  1
  Bi  Bi186  1  0.39262667  0.27605333  0.91602933  1
  Bi  Bi187  1  0.85389367  0.84104233  0.93511033  1
  Bi  Bi188  1  0.62804800  0.55970700  0.95437100  1
  Bi  Bi189  1  0.49346500  0.31860500  0.99689800  1
  Bi  Bi190  1  0.11259867  0.40349133  0.68493333  1
  Bi  Bi191  1  0.99468233  0.14962567  0.73138467  1
  O  O192  1  0.00000000  0.00000000  0.05443100  1
  O  O193  1  0.00000000  0.00000000  0.12306700  1
  O  O194  1  0.12526067  0.06336233  0.18758633  1
  O  O195  1  0.93810167  0.87473933  0.18758633  1
  O  O196  1  0.00000000  0.00000000  0.23781600  1
  O  O197  1  0.15919500  0.96036500  0.28375600  1
  O  O198  1  0.33929900  0.03876200  0.31547100  1
  O  O199  1  0.95415233  0.78587567  0.31857367  1
  O  O200  1  0.00000000  0.00000000  0.32072800  1
  O  O201  1  0.75159033  0.87573467  0.02486167  1
  O  O202  1  0.12414433  0.24840967  0.02486167  1
  O  O203  1  0.62716633  0.63286067  0.04873667  1
  O  O204  1  0.45867700  0.72982900  0.05406100  1
  O  O205  1  0.27115200  0.54132300  0.05406100  1
  O  O206  1  0.28575900  0.33296100  0.08172600  1
  O  O207  1  0.80032967  0.83924433  0.08459733  1
  O  O208  1  0.46574400  0.53499800  0.09298200  1
  O  O209  1  0.33333333  0.66666667  0.10410367  1
  O  O210  1  0.69974033  0.65804467  0.11587367  1
  O  O211  1  0.21088300  0.16495000  0.11931600  1
  O  O212  1  0.38122167  0.38092333  0.14765733  1
  O  O213  1  0.49206500  0.62775700  0.15046200  1
  O  O214  1  0.67511600  0.70739300  0.18256400  1
  O  O215  1  0.28714000  0.45335900  0.18620400  1
  O  O216  1  0.33333333  0.66666667  0.18761167  1
  O  O217  1  0.33173333  0.28393067  0.21474967  1
  O  O218  1  0.70455567  0.53321833  0.21726133  1
  O  O219  1  0.73536333  0.86730667  0.22677967  1
  O  O220  1  0.13194333  0.26463667  0.22677967  1
  O  O221  1  0.62343133  0.63321267  0.24953667  1
  O  O222  1  0.49811100  0.37974700  0.25188000  1
  O  O223  1  0.45853067  0.72965333  0.25412933  1
  O  O224  1  0.27112267  0.54146933  0.25412933  1
  O  O225  1  0.28730867  0.33672233  0.28127433  1
  O  O226  1  0.80117000  0.84080500  0.28375600  1
  O  O227  1  0.46173033  0.53832767  0.29233767  1
  O  O228  1  0.33333333  0.66666667  0.30431167  1
  O  O229  1  0.69946300  0.66070100  0.31547100  1
  O  O230  1  0.21412433  0.16827667  0.31857367  1
  O  O231  1  0.57616167  0.42344533  0.31518333  1
  O  O232  1  0.71311100  0.04833200  0.01474200  1
  O  O233  1  0.82529600  0.29371100  0.01638300  1
  O  O234  1  0.00569433  0.37283367  0.04873667  1
  O  O235  1  0.62017500  0.12075400  0.05247700  1
  O  O236  1  0.66666667  0.33333333  0.05361533  1
  O  O237  1  0.66703900  0.95279800  0.08172600  1
  O  O238  1  0.03891467  0.19967033  0.08459733  1
  O  O239  1  0.06925400  0.53425600  0.09298200  1
  O  O240  1  0.46500200  0.93074600  0.09298200  1
  O  O241  1  0.95830433  0.30025967  0.11587367  1
  O  O242  1  0.83505000  0.04593300  0.11931600  1
  O  O243  1  0.79203600  0.39454100  0.12078000  1
  O  O244  1  0.60250500  0.20796400  0.12078000  1
  O  O245  1  0.61907667  0.00029833  0.14765733  1
  O  O246  1  0.13569200  0.50793500  0.15046200  1
  O  O247  1  0.79847933  0.20020267  0.15953967  1
  O  O248  1  0.66666667  0.33333333  0.17089833  1
  O  O249  1  0.03227700  0.32488400  0.18256400  1
  O  O250  1  0.54664100  0.83378100  0.18620400  1
  O  O251  1  0.93663767  0.06189833  0.18758633  1
  O  O252  1  0.71606933  0.04780267  0.21474967  1
  O  O253  1  0.82866267  0.29544433  0.21726133  1
  O  O254  1  0.00978133  0.37656867  0.24953667  1
  O  O255  1  0.62025300  0.11836400  0.25188000  1
  O  O256  1  0.66666667  0.33333333  0.25870533  1
  O  O257  1  0.66327767  0.95058633  0.28127433  1
  O  O258  1  0.03963500  0.19883000  0.28375600  1
  O  O259  1  0.07659733  0.53826967  0.29233767  1
  O  O260  1  0.46167233  0.92340267  0.29233767  1
  O  O261  1  0.96123800  0.30053700  0.31547100  1
  O  O262  1  0.83172333  0.04584767  0.31857367  1
  O  O263  1  0.84728367  0.42383833  0.31518333  1
  O  O264  1  0.57655467  0.15271633  0.31518333  1
  O  O265  1  0.95166800  0.66477900  0.01474200  1
  O  O266  1  0.46841500  0.17470400  0.01638300  1
  O  O267  1  0.12426533  0.87585567  0.02486167  1
  O  O268  1  0.36713933  0.99430567  0.04873667  1
  O  O269  1  0.87924600  0.49942100  0.05247700  1
  O  O270  1  0.27017100  0.72884800  0.05406100  1
  O  O271  1  0.04720200  0.71424100  0.08172600  1
  O  O272  1  0.16075567  0.96108533  0.08459733  1
  O  O273  1  0.34195533  0.04169567  0.11587367  1
  O  O274  1  0.95406700  0.78911700  0.11931600  1
  O  O275  1  0.99970167  0.61877833  0.14765733  1
  O  O276  1  0.37224300  0.86430800  0.15046200  1
  O  O277  1  0.40172333  0.20152067  0.15953967  1
  O  O278  1  0.79979733  0.59827667  0.15953967  1
  O  O279  1  0.29260700  0.96772300  0.18256400  1
  O  O280  1  0.16621900  0.71286000  0.18620400  1
  O  O281  1  0.95219733  0.66826667  0.21474967  1
  O  O282  1  0.46678167  0.17133733  0.21726133  1
  O  O283  1  0.13269333  0.86805667  0.22677967  1
  O  O284  1  0.36678733  0.99021867  0.24953667  1
  O  O285  1  0.88163600  0.50188900  0.25188000  1
  O  O286  1  0.27034667  0.72887733  0.25412933  1
  O  O287  1  0.04941367  0.71269133  0.28127433  1
  O  O288  1  0.33522100  0.28688900  0.01474200  1
  O  O289  1  0.70628900  0.53158500  0.01638300  1
  O  O290  1  0.50057900  0.37982500  0.05247700  1
  O  O291  1  0.60545900  0.39749500  0.12078000  1
  O  O292  1  0.66666667  0.33333333  0.38776433  1
  O  O293  1  0.66666667  0.33333333  0.45640033  1
  O  O294  1  0.79192733  0.39669567  0.52091967  1
  O  O295  1  0.60476833  0.20807267  0.52091967  1
  O  O296  1  0.66666667  0.33333333  0.57114933  1
  O  O297  1  0.82586167  0.29369833  0.61708933  1
  O  O298  1  0.00596567  0.37209533  0.64880433  1
  O  O299  1  0.62081900  0.11920900  0.65190700  1
  O  O300  1  0.66666667  0.33333333  0.65406133  1
  O  O301  1  0.41825700  0.20906800  0.35819500  1
  O  O302  1  0.79081100  0.58174300  0.35819500  1
  O  O303  1  0.29383300  0.96619400  0.38207000  1
  O  O304  1  0.12534367  0.06316233  0.38739433  1
  O  O305  1  0.93781867  0.87465633  0.38739433  1
  O  O306  1  0.95242567  0.66629433  0.41505933  1
  O  O307  1  0.46699633  0.17257767  0.41793067  1
  O  O308  1  0.13241067  0.86833133  0.42631533  1
  O  O309  1  0.00000000  0.00000000  0.43743700  1
  O  O310  1  0.36640700  0.99137800  0.44920700  1
  O  O311  1  0.87754967  0.49828333  0.45264933  1
  O  O312  1  0.04788833  0.71425667  0.48099067  1
  O  O313  1  0.15873167  0.96109033  0.48379533  1
  O  O314  1  0.34178267  0.04072633  0.51589733  1
  O  O315  1  0.95380667  0.78669233  0.51953733  1
  O  O316  1  0.00000000  0.00000000  0.52094500  1
  O  O317  1  0.99840000  0.61726400  0.54808300  1
  O  O318  1  0.37122233  0.86655167  0.55059467  1
  O  O319  1  0.40203000  0.20064000  0.56011300  1
  O  O320  1  0.79861000  0.59797000  0.56011300  1
  O  O321  1  0.29009800  0.96654600  0.58287000  1
  O  O322  1  0.16477767  0.71308033  0.58521333  1
  O  O323  1  0.12519733  0.06298667  0.58746267  1
  O  O324  1  0.93778933  0.87480267  0.58746267  1
  O  O325  1  0.95397533  0.67005567  0.61460767  1
  O  O326  1  0.46783667  0.17413833  0.61708933  1
  O  O327  1  0.12839700  0.87166100  0.62567100  1
  O  O328  1  0.00000000  0.00000000  0.63764500  1
  O  O329  1  0.36612967  0.99403433  0.64880433  1
  O  O330  1  0.88079100  0.50161000  0.65190700  1
  O  O331  1  0.24282833  0.75677867  0.64851667  1
  O  O332  1  0.37977767  0.38166533  0.34807533  1
  O  O333  1  0.49196267  0.62704433  0.34971633  1
  O  O334  1  0.67236100  0.70616700  0.38207000  1
  O  O335  1  0.28684167  0.45408733  0.38581033  1
  O  O336  1  0.33333333  0.66666667  0.38694867  1
  O  O337  1  0.33370567  0.28613133  0.41505933  1
  O  O338  1  0.70558133  0.53300367  0.41793067  1
  O  O339  1  0.73592067  0.86758933  0.42631533  1
  O  O340  1  0.13166867  0.26407933  0.42631533  1
  O  O341  1  0.62497100  0.63359300  0.44920700  1
  O  O342  1  0.50171667  0.37926633  0.45264933  1
  O  O343  1  0.45870267  0.72787433  0.45411333  1
  O  O344  1  0.26917167  0.54129733  0.45411333  1
  O  O345  1  0.28574333  0.33363167  0.48099067  1
  O  O346  1  0.80235867  0.84126833  0.48379533  1
  O  O347  1  0.46514600  0.53353600  0.49287300  1
  O  O348  1  0.33333333  0.66666667  0.50423167  1
  O  O349  1  0.69894367  0.65821733  0.51589733  1
  O  O350  1  0.21330767  0.16711433  0.51953733  1
  O  O351  1  0.60330433  0.39523167  0.52091967  1
  O  O352  1  0.38273600  0.38113600  0.54808300  1
  O  O353  1  0.49532933  0.62877767  0.55059467  1
  O  O354  1  0.67644800  0.70990200  0.58287000  1
  O  O355  1  0.28691967  0.45169733  0.58521333  1
  O  O356  1  0.33333333  0.66666667  0.59203867  1
  O  O357  1  0.32994433  0.28391967  0.61460767  1
  O  O358  1  0.70630167  0.53216333  0.61708933  1
  O  O359  1  0.74326400  0.87160300  0.62567100  1
  O  O360  1  0.12833900  0.25673600  0.62567100  1
  O  O361  1  0.62790467  0.63387033  0.64880433  1
  O  O362  1  0.49839000  0.37918100  0.65190700  1
  O  O363  1  0.51395033  0.75717167  0.64851667  1
  O  O364  1  0.24322133  0.48604967  0.64851667  1
  O  O365  1  0.61833467  0.99811233  0.34807533  1
  O  O366  1  0.13508167  0.50803733  0.34971633  1
  O  O367  1  0.79093200  0.20918900  0.35819500  1
  O  O368  1  0.03380600  0.32763900  0.38207000  1
  O  O369  1  0.54591267  0.83275433  0.38581033  1
  O  O370  1  0.93683767  0.06218133  0.38739433  1
  O  O371  1  0.71386867  0.04757433  0.41505933  1
  O  O372  1  0.82742233  0.29441867  0.41793067  1
  O  O373  1  0.00862200  0.37502900  0.44920700  1
  O  O374  1  0.62073367  0.12245033  0.45264933  1
  O  O375  1  0.66636833  0.95211167  0.48099067  1
  O  O376  1  0.03890967  0.19764133  0.48379533  1
  O  O377  1  0.06839000  0.53485400  0.49287300  1
  O  O378  1  0.46646400  0.93161000  0.49287300  1
  O  O379  1  0.95927367  0.30105633  0.51589733  1
  O  O380  1  0.83288567  0.04619333  0.51953733  1
  O  O381  1  0.61886400  0.00160000  0.54808300  1
  O  O382  1  0.13344833  0.50467067  0.55059467  1
  O  O383  1  0.79936000  0.20139000  0.56011300  1
  O  O384  1  0.03345400  0.32355200  0.58287000  1
  O  O385  1  0.54830267  0.83522233  0.58521333  1
  O  O386  1  0.93701333  0.06221067  0.58746267  1
  O  O387  1  0.71608033  0.04602467  0.61460767  1
  O  O388  1  0.00188767  0.62022233  0.34807533  1
  O  O389  1  0.37295567  0.86491833  0.34971633  1
  O  O390  1  0.16724567  0.71315833  0.38581033  1
  O  O391  1  0.27212567  0.73082833  0.45411333  1
  O  O392  1  0.33333333  0.66666667  0.72109767  1
  O  O393  1  0.33333333  0.66666667  0.78973367  1
  O  O394  1  0.45859400  0.73002900  0.85425300  1
  O  O395  1  0.27143500  0.54140600  0.85425300  1
  O  O396  1  0.33333333  0.66666667  0.90448267  1
  O  O397  1  0.49252833  0.62703167  0.95042267  1
  O  O398  1  0.67263233  0.70542867  0.98213767  1
  O  O399  1  0.28748567  0.45254233  0.98524033  1
  O  O400  1  0.33333333  0.66666667  0.98739467  1
  O  O401  1  0.08492367  0.54240133  0.69152833  1
  O  O402  1  0.45747767  0.91507633  0.69152833  1
  O  O403  1  0.96049967  0.29952733  0.71540333  1
  O  O404  1  0.79201033  0.39649567  0.72072767  1
  O  O405  1  0.60448533  0.20798967  0.72072767  1
  O  O406  1  0.61909233  0.99962767  0.74839267  1
  O  O407  1  0.13366300  0.50591100  0.75126400  1
  O  O408  1  0.79907733  0.20166467  0.75964867  1
  O  O409  1  0.66666667  0.33333333  0.77077033  1
  O  O410  1  0.03307367  0.32471133  0.78254033  1
  O  O411  1  0.54421633  0.83161667  0.78598267  1
  O  O412  1  0.71455500  0.04759000  0.81432400  1
  O  O413  1  0.82539833  0.29442367  0.81712867  1
  O  O414  1  0.00844933  0.37405967  0.84923067  1
  O  O415  1  0.62047333  0.12002567  0.85287067  1
  O  O416  1  0.66666667  0.33333333  0.85427833  1
  O  O417  1  0.66506667  0.95059733  0.88141633  1
  O  O418  1  0.03788900  0.19988500  0.88392800  1
  O  O419  1  0.06869667  0.53397333  0.89344633  1
  O  O420  1  0.46527667  0.93130333  0.89344633  1
  O  O421  1  0.95676467  0.29987933  0.91620333  1
  O  O422  1  0.83144433  0.04641367  0.91854667  1
  O  O423  1  0.79186400  0.39632000  0.92079600  1
  O  O424  1  0.60445600  0.20813600  0.92079600  1
  O  O425  1  0.62064200  0.00338900  0.94794100  1
  O  O426  1  0.13450333  0.50747167  0.95042267  1
  O  O427  1  0.79506367  0.20499433  0.95900433  1
  O  O428  1  0.66666667  0.33333333  0.97097833  1
  O  O429  1  0.03279633  0.32736767  0.98213767  1
  O  O430  1  0.54745767  0.83494333  0.98524033  1
  O  O431  1  0.90949500  0.09011200  0.98185000  1
  O  O432  1  0.04644433  0.71499867  0.68140867  1
  O  O433  1  0.15862933  0.96037767  0.68304967  1
  O  O434  1  0.33902767  0.03950033  0.71540333  1
  O  O435  1  0.95350833  0.78742067  0.71914367  1
  O  O436  1  0.00000000  0.00000000  0.72028200  1
  O  O437  1  0.00037233  0.61946467  0.74839267  1
  O  O438  1  0.37224800  0.86633700  0.75126400  1
  O  O439  1  0.40258733  0.20092267  0.75964867  1
  O  O440  1  0.79833533  0.59741267  0.75964867  1
  O  O441  1  0.29163767  0.96692633  0.78254033  1
  O  O442  1  0.16838333  0.71259967  0.78598267  1
  O  O443  1  0.12536933  0.06120767  0.78744667  1
  O  O444  1  0.93583833  0.87463067  0.78744667  1
  O  O445  1  0.95241000  0.66696500  0.81432400  1
  O  O446  1  0.46902533  0.17460167  0.81712867  1
  O  O447  1  0.13181267  0.86686933  0.82620633  1
  O  O448  1  0.00000000  0.00000000  0.83756500  1
  O  O449  1  0.36561033  0.99155067  0.84923067  1
  O  O450  1  0.87997433  0.50044767  0.85287067  1
  O  O451  1  0.26997100  0.72856500  0.85425300  1
  O  O452  1  0.04940267  0.71446933  0.88141633  1
  O  O453  1  0.16199600  0.96211100  0.88392800  1
  O  O454  1  0.34311467  0.04323533  0.91620333  1
  O  O455  1  0.95358633  0.78503067  0.91854667  1
  O  O456  1  0.00000000  0.00000000  0.92537200  1
  O  O457  1  0.99661100  0.61725300  0.94794100  1
  O  O458  1  0.37296833  0.86549667  0.95042267  1
  O  O459  1  0.40993067  0.20493633  0.95900433  1
  O  O460  1  0.79500567  0.59006933  0.95900433  1
  O  O461  1  0.29457133  0.96720367  0.98213767  1
  O  O462  1  0.16505667  0.71251433  0.98524033  1
  O  O463  1  0.18061700  0.09050500  0.98185000  1
  O  O464  1  0.90988800  0.81938300  0.98185000  1
  O  O465  1  0.28500133  0.33144567  0.68140867  1
  O  O466  1  0.80174833  0.84137067  0.68304967  1
  O  O467  1  0.45759867  0.54252233  0.69152833  1
  O  O468  1  0.70047267  0.66097233  0.71540333  1
  O  O469  1  0.21257933  0.16608767  0.71914367  1
  O  O470  1  0.60350433  0.39551467  0.72072767  1
  O  O471  1  0.38053533  0.38090767  0.74839267  1
  O  O472  1  0.49408900  0.62775200  0.75126400  1
  O  O473  1  0.67528867  0.70836233  0.78254033  1
  O  O474  1  0.28740033  0.45578367  0.78598267  1
  O  O475  1  0.33303500  0.28544500  0.81432400  1
  O  O476  1  0.70557633  0.53097467  0.81712867  1
  O  O477  1  0.73505667  0.86818733  0.82620633  1
  O  O478  1  0.13313067  0.26494333  0.82620633  1
  O  O479  1  0.62594033  0.63438967  0.84923067  1
  O  O480  1  0.49955233  0.37952667  0.85287067  1
  O  O481  1  0.28553067  0.33493333  0.88141633  1
  O  O482  1  0.80011500  0.83800400  0.88392800  1
  O  O483  1  0.46602667  0.53472333  0.89344633  1
  O  O484  1  0.70012067  0.65688533  0.91620333  1
  O  O485  1  0.21496933  0.16855567  0.91854667  1
  O  O486  1  0.60368000  0.39554400  0.92079600  1
  O  O487  1  0.38274700  0.37935800  0.94794100  1
  O  O488  1  0.66855433  0.95355567  0.68140867  1
  O  O489  1  0.03962233  0.19825167  0.68304967  1
  O  O490  1  0.83391233  0.04649167  0.71914367  1
  O  O491  1  0.93879233  0.06416167  0.78744667  1
