# generated using pymatgen
data_Li5GeAs3
_symmetry_space_group_name_H-M   'P 1'
_cell_length_a   13.47427200
_cell_length_b   6.07805000
_cell_length_c   8.69264832
_cell_angle_alpha   90.00000000
_cell_angle_beta   108.60465888
_cell_angle_gamma   90.00000000
_symmetry_Int_Tables_number   1
_chemical_formula_structural   Li5GeAs3
_chemical_formula_sum   'Li20 Ge4 As12'
_cell_volume   674.70205232
_cell_formula_units_Z   4
loop_
 _symmetry_equiv_pos_site_id
 _symmetry_equiv_pos_as_xyz
  1  'x, y, z'
loop_
 _atom_site_type_symbol
 _atom_site_label
 _atom_site_symmetry_multiplicity
 _atom_site_fract_x
 _atom_site_fract_y
 _atom_site_fract_z
 _atom_site_occupancy
  Li  Li0  1  0.66702500  0.24693000  0.58152900  1
  Li  Li1  1  0.83410550  0.74734650  0.91793900  1
  Li  Li2  1  0.66990050  0.24627450  0.08996600  1
  Li  Li3  1  0.99980750  0.24601150  0.25418200  1
  Li  Li4  1  0.99748550  0.75315950  0.24320500  1
  Li  Li5  1  0.83410550  0.25265350  0.41793900  1
  Li  Li6  1  0.66990050  0.75372550  0.58996600  1
  Li  Li7  1  0.99748550  0.24684050  0.74320500  1
  Li  Li8  1  0.99980750  0.75398850  0.75418200  1
  Li  Li9  1  0.66702500  0.75307000  0.08152900  1
  Li  Li10  1  0.16702500  0.74693000  0.58152900  1
  Li  Li11  1  0.33410550  0.24734650  0.91793900  1
  Li  Li12  1  0.16990050  0.74627450  0.08996600  1
  Li  Li13  1  0.49980750  0.74601150  0.25418200  1
  Li  Li14  1  0.49748550  0.25315950  0.24320500  1
  Li  Li15  1  0.33410550  0.75265350  0.41793900  1
  Li  Li16  1  0.16990050  0.25372550  0.58996600  1
  Li  Li17  1  0.49748550  0.74684050  0.74320500  1
  Li  Li18  1  0.49980750  0.25398850  0.75418200  1
  Li  Li19  1  0.16702500  0.25307000  0.08152900  1
  Ge  Ge20  1  0.83299150  0.76284150  0.41215300  1
  Ge  Ge21  1  0.83299150  0.23715850  0.91215300  1
  Ge  Ge22  1  0.33299150  0.26284150  0.41215300  1
  Ge  Ge23  1  0.33299150  0.73715850  0.91215300  1
  As  As24  1  0.99484450  0.01794450  0.99454600  1
  As  As25  1  0.67235300  0.98305600  0.34085500  1
  As  As26  1  0.99484450  0.98205550  0.49454600  1
  As  As27  1  0.83420450  0.49907150  0.66968500  1
  As  As28  1  0.67235300  0.01694400  0.84085500  1
  As  As29  1  0.83420450  0.50092850  0.16968500  1
  As  As30  1  0.49484450  0.51794450  0.99454600  1
  As  As31  1  0.17235300  0.48305600  0.34085500  1
  As  As32  1  0.49484450  0.48205550  0.49454600  1
  As  As33  1  0.33420450  0.99907150  0.66968500  1
  As  As34  1  0.17235300  0.51694400  0.84085500  1
  As  As35  1  0.33420450  0.00092850  0.16968500  1
