# generated using pymatgen
data_V5S8
_symmetry_space_group_name_H-M   'P 1'
_cell_length_a   11.33221000
_cell_length_b   6.61755800
_cell_length_c   7.94999098
_cell_angle_alpha   90.00000000
_cell_angle_beta   134.07407844
_cell_angle_gamma   90.00000000
_symmetry_Int_Tables_number   1
_chemical_formula_structural   V5S8
_chemical_formula_sum   'V10 S16'
_cell_volume   428.32177664
_cell_formula_units_Z   2
loop_
 _symmetry_equiv_pos_site_id
 _symmetry_equiv_pos_as_xyz
  1  'x, y, z'
loop_
 _atom_site_type_symbol
 _atom_site_label
 _atom_site_symmetry_multiplicity
 _atom_site_fract_x
 _atom_site_fract_y
 _atom_site_fract_z
 _atom_site_occupancy
  V  V0  1  0.00000000  0.00000000  0.00000000  1
  V  V1  1  0.50000000  0.79314300  0.50000000  1
  V  V2  1  0.00000000  0.70685700  0.50000000  1
  V  V3  1  0.22559900  0.50000000  0.49150800  1
  V  V4  1  0.27440100  0.00000000  0.50849200  1
  V  V5  1  0.50000000  0.50000000  0.00000000  1
  V  V6  1  0.00000000  0.29314300  0.50000000  1
  V  V7  1  0.50000000  0.20685700  0.50000000  1
  V  V8  1  0.72559900  0.00000000  0.49150800  1
  V  V9  1  0.77440100  0.50000000  0.50849200  1
  S  S10  1  0.48281800  0.50000000  0.28916500  1
  S  S11  1  0.01718200  0.00000000  0.71083500  1
  S  S12  1  0.94239500  0.50000000  0.21905800  1
  S  S13  1  0.55760500  0.00000000  0.78094200  1
  S  S14  1  0.21044050  0.75043950  0.24779800  1
  S  S15  1  0.28955950  0.25043950  0.75220200  1
  S  S16  1  0.21044050  0.24956050  0.24779800  1
  S  S17  1  0.28955950  0.74956050  0.75220200  1
  S  S18  1  0.98281800  0.00000000  0.28916500  1
  S  S19  1  0.51718200  0.50000000  0.71083500  1
  S  S20  1  0.44239500  0.00000000  0.21905800  1
  S  S21  1  0.05760500  0.50000000  0.78094200  1
  S  S22  1  0.71044050  0.25043950  0.24779800  1
  S  S23  1  0.78955950  0.75043950  0.75220200  1
  S  S24  1  0.71044050  0.74956050  0.24779800  1
  S  S25  1  0.78955950  0.24956050  0.75220200  1
