# generated using pymatgen
data_ScRe2Si3
_symmetry_space_group_name_H-M   'P 1'
_cell_length_a   5.22737000
_cell_length_b   14.61980400
_cell_length_c   19.27361400
_cell_angle_alpha   90.00000000
_cell_angle_beta   90.00000000
_cell_angle_gamma   90.00000000
_symmetry_Int_Tables_number   1
_chemical_formula_structural   ScRe2Si3
_chemical_formula_sum   'Sc16 Re32 Si48'
_cell_volume   1472.94980875
_cell_formula_units_Z   16
loop_
 _symmetry_equiv_pos_site_id
 _symmetry_equiv_pos_as_xyz
  1  'x, y, z'
loop_
 _atom_site_type_symbol
 _atom_site_label
 _atom_site_symmetry_multiplicity
 _atom_site_fract_x
 _atom_site_fract_y
 _atom_site_fract_z
 _atom_site_occupancy
  Sc  Sc0  1  0.50887600  0.32452600  0.36601400  1
  Sc  Sc1  1  0.50887600  0.17547400  0.13398600  1
  Sc  Sc2  1  0.00887600  0.17547400  0.36601400  1
  Sc  Sc3  1  0.00887600  0.32452600  0.13398600  1
  Sc  Sc4  1  0.00887600  0.32452600  0.86601400  1
  Sc  Sc5  1  0.00887600  0.17547400  0.63398600  1
  Sc  Sc6  1  0.50887600  0.17547400  0.86601400  1
  Sc  Sc7  1  0.50887600  0.32452600  0.63398600  1
  Sc  Sc8  1  0.00887600  0.82452600  0.36601400  1
  Sc  Sc9  1  0.00887600  0.67547400  0.13398600  1
  Sc  Sc10  1  0.50887600  0.67547400  0.36601400  1
  Sc  Sc11  1  0.50887600  0.82452600  0.13398600  1
  Sc  Sc12  1  0.50887600  0.82452600  0.86601400  1
  Sc  Sc13  1  0.50887600  0.67547400  0.63398600  1
  Sc  Sc14  1  0.00887600  0.67547400  0.86601400  1
  Sc  Sc15  1  0.00887600  0.82452600  0.63398600  1
  Re  Re16  1  0.51532050  0.11312350  0.29767300  1
  Re  Re17  1  0.51532050  0.38687650  0.20232700  1
  Re  Re18  1  0.01532050  0.38687650  0.29767300  1
  Re  Re19  1  0.01532050  0.11312350  0.20232700  1
  Re  Re20  1  0.25317850  0.00000000  0.41284950  1
  Re  Re21  1  0.75317850  0.00000000  0.08715050  1
  Re  Re22  1  0.28469650  0.23161450  0.00000000  1
  Re  Re23  1  0.78469650  0.26838550  0.00000000  1
  Re  Re24  1  0.01532050  0.11312350  0.79767300  1
  Re  Re25  1  0.01532050  0.38687650  0.70232700  1
  Re  Re26  1  0.51532050  0.38687650  0.79767300  1
  Re  Re27  1  0.51532050  0.11312350  0.70232700  1
  Re  Re28  1  0.75317850  0.00000000  0.91284950  1
  Re  Re29  1  0.25317850  0.00000000  0.58715050  1
  Re  Re30  1  0.78469650  0.23161450  0.50000000  1
  Re  Re31  1  0.28469650  0.26838550  0.50000000  1
  Re  Re32  1  0.01532050  0.61312350  0.29767300  1
  Re  Re33  1  0.01532050  0.88687650  0.20232700  1
  Re  Re34  1  0.51532050  0.88687650  0.29767300  1
  Re  Re35  1  0.51532050  0.61312350  0.20232700  1
  Re  Re36  1  0.75317850  0.50000000  0.41284950  1
  Re  Re37  1  0.25317850  0.50000000  0.08715050  1
  Re  Re38  1  0.78469650  0.73161450  0.00000000  1
  Re  Re39  1  0.28469650  0.76838550  0.00000000  1
  Re  Re40  1  0.51532050  0.61312350  0.79767300  1
  Re  Re41  1  0.51532050  0.88687650  0.70232700  1
  Re  Re42  1  0.01532050  0.88687650  0.79767300  1
  Re  Re43  1  0.01532050  0.61312350  0.70232700  1
  Re  Re44  1  0.25317850  0.50000000  0.91284950  1
  Re  Re45  1  0.75317850  0.50000000  0.58715050  1
  Re  Re46  1  0.28469650  0.73161450  0.50000000  1
  Re  Re47  1  0.78469650  0.76838550  0.50000000  1
  Si  Si48  1  0.50594900  0.14339700  0.42550500  1
  Si  Si49  1  0.50594900  0.35660300  0.07449500  1
  Si  Si50  1  0.00594900  0.35660300  0.42550500  1
  Si  Si51  1  0.00594900  0.14339700  0.07449500  1
  Si  Si52  1  0.76325600  0.25000000  0.25000000  1
  Si  Si53  1  0.26325600  0.25000000  0.25000000  1
  Si  Si54  1  0.25262050  0.00000000  0.12055950  1
  Si  Si55  1  0.75262050  0.00000000  0.37944050  1
  Si  Si56  1  0.15514150  0.00000000  0.28928050  1
  Si  Si57  1  0.65514150  0.00000000  0.21071950  1
  Si  Si58  1  0.09336500  0.38990500  0.00000000  1
  Si  Si59  1  0.59336500  0.11009500  0.00000000  1
  Si  Si60  1  0.00594900  0.14339700  0.92550500  1
  Si  Si61  1  0.00594900  0.35660300  0.57449500  1
  Si  Si62  1  0.50594900  0.35660300  0.92550500  1
  Si  Si63  1  0.50594900  0.14339700  0.57449500  1
  Si  Si64  1  0.26325600  0.25000000  0.75000000  1
  Si  Si65  1  0.76325600  0.25000000  0.75000000  1
  Si  Si66  1  0.75262050  0.00000000  0.62055950  1
  Si  Si67  1  0.25262050  0.00000000  0.87944050  1
  Si  Si68  1  0.65514150  0.00000000  0.78928050  1
  Si  Si69  1  0.15514150  0.00000000  0.71071950  1
  Si  Si70  1  0.59336500  0.38990500  0.50000000  1
  Si  Si71  1  0.09336500  0.11009500  0.50000000  1
  Si  Si72  1  0.00594900  0.64339700  0.42550500  1
  Si  Si73  1  0.00594900  0.85660300  0.07449500  1
  Si  Si74  1  0.50594900  0.85660300  0.42550500  1
  Si  Si75  1  0.50594900  0.64339700  0.07449500  1
  Si  Si76  1  0.26325600  0.75000000  0.25000000  1
  Si  Si77  1  0.76325600  0.75000000  0.25000000  1
  Si  Si78  1  0.75262050  0.50000000  0.12055950  1
  Si  Si79  1  0.25262050  0.50000000  0.37944050  1
  Si  Si80  1  0.65514150  0.50000000  0.28928050  1
  Si  Si81  1  0.15514150  0.50000000  0.21071950  1
  Si  Si82  1  0.59336500  0.88990500  0.00000000  1
  Si  Si83  1  0.09336500  0.61009500  0.00000000  1
  Si  Si84  1  0.50594900  0.64339700  0.92550500  1
  Si  Si85  1  0.50594900  0.85660300  0.57449500  1
  Si  Si86  1  0.00594900  0.85660300  0.92550500  1
  Si  Si87  1  0.00594900  0.64339700  0.57449500  1
  Si  Si88  1  0.76325600  0.75000000  0.75000000  1
  Si  Si89  1  0.26325600  0.75000000  0.75000000  1
  Si  Si90  1  0.25262050  0.50000000  0.62055950  1
  Si  Si91  1  0.75262050  0.50000000  0.87944050  1
  Si  Si92  1  0.15514150  0.50000000  0.78928050  1
  Si  Si93  1  0.65514150  0.50000000  0.71071950  1
  Si  Si94  1  0.09336500  0.88990500  0.50000000  1
  Si  Si95  1  0.59336500  0.61009500  0.50000000  1
