# generated using pymatgen
data_K2NaMnO4
_symmetry_space_group_name_H-M   'P 1'
_cell_length_a   10.59334792
_cell_length_b   11.50248440
_cell_length_c   17.30966627
_cell_angle_alpha   90.00000000
_cell_angle_beta   90.00000000
_cell_angle_gamma   90.00000000
_symmetry_Int_Tables_number   1
_chemical_formula_structural   K2NaMnO4
_chemical_formula_sum   'K32 Na16 Mn16 O64'
_cell_volume   2109.17970514
_cell_formula_units_Z   16
loop_
 _symmetry_equiv_pos_site_id
 _symmetry_equiv_pos_as_xyz
  1  'x, y, z'
loop_
 _atom_site_type_symbol
 _atom_site_label
 _atom_site_symmetry_multiplicity
 _atom_site_fract_x
 _atom_site_fract_y
 _atom_site_fract_z
 _atom_site_occupancy
  K  K0  1  0.68295450  0.00000000  0.00000000  1
  K  K1  1  0.31704550  0.00000000  0.00000000  1
  K  K2  1  0.43295450  0.75000000  0.25000000  1
  K  K3  1  0.75000000  0.75000000  0.36030050  1
  K  K4  1  0.00000000  0.00000000  0.11030050  1
  K  K5  1  0.00000000  0.00000000  0.88969950  1
  K  K6  1  0.06704550  0.75000000  0.25000000  1
  K  K7  1  0.75000000  0.75000000  0.13969950  1
  K  K8  1  0.68295450  0.50000000  0.50000000  1
  K  K9  1  0.31704550  0.50000000  0.50000000  1
  K  K10  1  0.43295450  0.25000000  0.75000000  1
  K  K11  1  0.75000000  0.25000000  0.86030050  1
  K  K12  1  0.00000000  0.50000000  0.61030050  1
  K  K13  1  0.00000000  0.50000000  0.38969950  1
  K  K14  1  0.06704550  0.25000000  0.75000000  1
  K  K15  1  0.75000000  0.25000000  0.63969950  1
  K  K16  1  0.18295450  0.00000000  0.50000000  1
  K  K17  1  0.81704550  0.00000000  0.50000000  1
  K  K18  1  0.93295450  0.75000000  0.75000000  1
  K  K19  1  0.25000000  0.75000000  0.86030050  1
  K  K20  1  0.50000000  0.00000000  0.61030050  1
  K  K21  1  0.50000000  0.00000000  0.38969950  1
  K  K22  1  0.56704550  0.75000000  0.75000000  1
  K  K23  1  0.25000000  0.75000000  0.63969950  1
  K  K24  1  0.18295450  0.50000000  0.00000000  1
  K  K25  1  0.81704550  0.50000000  0.00000000  1
  K  K26  1  0.93295450  0.25000000  0.25000000  1
  K  K27  1  0.25000000  0.25000000  0.36030050  1
  K  K28  1  0.50000000  0.50000000  0.11030050  1
  K  K29  1  0.50000000  0.50000000  0.88969950  1
  K  K30  1  0.56704550  0.25000000  0.25000000  1
  K  K31  1  0.25000000  0.25000000  0.13969950  1
  Na  Na32  1  0.00000000  0.00000000  0.34169500  1
  Na  Na33  1  0.25000000  0.75000000  0.09169500  1
  Na  Na34  1  0.75000000  0.75000000  0.90830500  1
  Na  Na35  1  0.50000000  0.00000000  0.15830500  1
  Na  Na36  1  0.00000000  0.50000000  0.84169500  1
  Na  Na37  1  0.25000000  0.25000000  0.59169500  1
  Na  Na38  1  0.75000000  0.25000000  0.40830500  1
  Na  Na39  1  0.50000000  0.50000000  0.65830500  1
  Na  Na40  1  0.50000000  0.00000000  0.84169500  1
  Na  Na41  1  0.75000000  0.75000000  0.59169500  1
  Na  Na42  1  0.25000000  0.75000000  0.40830500  1
  Na  Na43  1  0.00000000  0.00000000  0.65830500  1
  Na  Na44  1  0.50000000  0.50000000  0.34169500  1
  Na  Na45  1  0.75000000  0.25000000  0.09169500  1
  Na  Na46  1  0.25000000  0.25000000  0.90830500  1
  Na  Na47  1  0.00000000  0.50000000  0.15830500  1
  Mn  Mn48  1  0.75000000  0.50618600  0.25000000  1
  Mn  Mn49  1  0.00000000  0.24381400  0.00000000  1
  Mn  Mn50  1  0.00000000  0.75618600  0.00000000  1
  Mn  Mn51  1  0.75000000  0.99381400  0.25000000  1
  Mn  Mn52  1  0.75000000  0.00618600  0.75000000  1
  Mn  Mn53  1  0.00000000  0.74381400  0.50000000  1
  Mn  Mn54  1  0.00000000  0.25618600  0.50000000  1
  Mn  Mn55  1  0.75000000  0.49381400  0.75000000  1
  Mn  Mn56  1  0.25000000  0.50618600  0.75000000  1
  Mn  Mn57  1  0.50000000  0.24381400  0.50000000  1
  Mn  Mn58  1  0.50000000  0.75618600  0.50000000  1
  Mn  Mn59  1  0.25000000  0.99381400  0.75000000  1
  Mn  Mn60  1  0.25000000  0.00618600  0.25000000  1
  Mn  Mn61  1  0.50000000  0.74381400  0.00000000  1
  Mn  Mn62  1  0.50000000  0.25618600  0.00000000  1
  Mn  Mn63  1  0.25000000  0.49381400  0.25000000  1
  O  O64  1  0.88096650  0.59424900  0.25622150  1
  O  O65  1  0.13096650  0.15575100  0.00622150  1
  O  O66  1  0.99068250  0.66908000  0.91921750  1
  O  O67  1  0.86903350  0.15575100  0.99377850  1
  O  O68  1  0.75931750  0.08092000  0.33078250  1
  O  O69  1  0.74068250  0.08092000  0.16921750  1
  O  O70  1  0.25931750  0.91908000  0.16921750  1
  O  O71  1  0.61903350  0.59424900  0.24377850  1
  O  O72  1  0.50931750  0.83092000  0.91921750  1
  O  O73  1  0.86903350  0.84424900  0.00622150  1
  O  O74  1  0.13096650  0.84424900  0.99377850  1
  O  O75  1  0.61903350  0.90575100  0.25622150  1
  O  O76  1  0.88096650  0.90575100  0.24377850  1
  O  O77  1  0.24068250  0.91908000  0.33078250  1
  O  O78  1  0.00931750  0.66908000  0.08078250  1
  O  O79  1  0.49068250  0.83092000  0.08078250  1
  O  O80  1  0.88096650  0.09424900  0.75622150  1
  O  O81  1  0.13096650  0.65575100  0.50622150  1
  O  O82  1  0.99068250  0.16908000  0.41921750  1
  O  O83  1  0.86903350  0.65575100  0.49377850  1
  O  O84  1  0.75931750  0.58092000  0.83078250  1
  O  O85  1  0.74068250  0.58092000  0.66921750  1
  O  O86  1  0.25931750  0.41908000  0.66921750  1
  O  O87  1  0.61903350  0.09424900  0.74377850  1
  O  O88  1  0.50931750  0.33092000  0.41921750  1
  O  O89  1  0.86903350  0.34424900  0.50622150  1
  O  O90  1  0.13096650  0.34424900  0.49377850  1
  O  O91  1  0.61903350  0.40575100  0.75622150  1
  O  O92  1  0.88096650  0.40575100  0.74377850  1
  O  O93  1  0.24068250  0.41908000  0.83078250  1
  O  O94  1  0.00931750  0.16908000  0.58078250  1
  O  O95  1  0.49068250  0.33092000  0.58078250  1
  O  O96  1  0.38096650  0.59424900  0.75622150  1
  O  O97  1  0.63096650  0.15575100  0.50622150  1
  O  O98  1  0.49068250  0.66908000  0.41921750  1
  O  O99  1  0.36903350  0.15575100  0.49377850  1
  O  O100  1  0.25931750  0.08092000  0.83078250  1
  O  O101  1  0.24068250  0.08092000  0.66921750  1
  O  O102  1  0.75931750  0.91908000  0.66921750  1
  O  O103  1  0.11903350  0.59424900  0.74377850  1
  O  O104  1  0.00931750  0.83092000  0.41921750  1
  O  O105  1  0.36903350  0.84424900  0.50622150  1
  O  O106  1  0.63096650  0.84424900  0.49377850  1
  O  O107  1  0.11903350  0.90575100  0.75622150  1
  O  O108  1  0.38096650  0.90575100  0.74377850  1
  O  O109  1  0.74068250  0.91908000  0.83078250  1
  O  O110  1  0.50931750  0.66908000  0.58078250  1
  O  O111  1  0.99068250  0.83092000  0.58078250  1
  O  O112  1  0.38096650  0.09424900  0.25622150  1
  O  O113  1  0.63096650  0.65575100  0.00622150  1
  O  O114  1  0.49068250  0.16908000  0.91921750  1
  O  O115  1  0.36903350  0.65575100  0.99377850  1
  O  O116  1  0.25931750  0.58092000  0.33078250  1
  O  O117  1  0.24068250  0.58092000  0.16921750  1
  O  O118  1  0.75931750  0.41908000  0.16921750  1
  O  O119  1  0.11903350  0.09424900  0.24377850  1
  O  O120  1  0.00931750  0.33092000  0.91921750  1
  O  O121  1  0.36903350  0.34424900  0.00622150  1
  O  O122  1  0.63096650  0.34424900  0.99377850  1
  O  O123  1  0.11903350  0.40575100  0.25622150  1
  O  O124  1  0.38096650  0.40575100  0.24377850  1
  O  O125  1  0.74068250  0.41908000  0.33078250  1
  O  O126  1  0.50931750  0.16908000  0.08078250  1
  O  O127  1  0.99068250  0.33092000  0.08078250  1
