# generated using pymatgen
data_Cs4CdNi3F12
_symmetry_space_group_name_H-M   'P 1'
_cell_length_a   6.30080350
_cell_length_b   6.30080350
_cell_length_c   30.44985507
_cell_angle_alpha   90.00000000
_cell_angle_beta   90.00000000
_cell_angle_gamma   120.00000000
_symmetry_Int_Tables_number   1
_chemical_formula_structural   Cs4CdNi3F12
_chemical_formula_sum   'Cs12 Cd3 Ni9 F36'
_cell_volume   1046.90610599
_cell_formula_units_Z   3
loop_
 _symmetry_equiv_pos_site_id
 _symmetry_equiv_pos_as_xyz
  1  'x, y, z'
loop_
 _atom_site_type_symbol
 _atom_site_label
 _atom_site_symmetry_multiplicity
 _atom_site_fract_x
 _atom_site_fract_y
 _atom_site_fract_z
 _atom_site_occupancy
  Cs  Cs0  1  0.66666667  0.33333333  0.04825733  1
  Cs  Cs1  1  0.66666667  0.33333333  0.20315033  1
  Cs  Cs2  1  0.00000000  0.00000000  0.28507600  1
  Cs  Cs3  1  0.00000000  0.00000000  0.13018300  1
  Cs  Cs4  1  0.33333333  0.66666667  0.38159067  1
  Cs  Cs5  1  0.33333333  0.66666667  0.53648367  1
  Cs  Cs6  1  0.66666667  0.33333333  0.61840933  1
  Cs  Cs7  1  0.66666667  0.33333333  0.46351633  1
  Cs  Cs8  1  0.00000000  0.00000000  0.71492400  1
  Cs  Cs9  1  0.00000000  0.00000000  0.86981700  1
  Cs  Cs10  1  0.33333333  0.66666667  0.95174267  1
  Cs  Cs11  1  0.33333333  0.66666667  0.79684967  1
  Cd  Cd12  1  0.00000000  0.00000000  0.00000000  1
  Cd  Cd13  1  0.66666667  0.33333333  0.33333333  1
  Cd  Cd14  1  0.33333333  0.66666667  0.66666667  1
  Ni  Ni15  1  0.33333333  0.66666667  0.07687367  1
  Ni  Ni16  1  0.33333333  0.66666667  0.25645967  1
  Ni  Ni17  1  0.33333333  0.66666667  0.16666667  1
  Ni  Ni18  1  0.00000000  0.00000000  0.41020700  1
  Ni  Ni19  1  0.00000000  0.00000000  0.58979300  1
  Ni  Ni20  1  1.00000000  1.00000000  0.50000000  1
  Ni  Ni21  1  0.66666667  0.33333333  0.74354033  1
  Ni  Ni22  1  0.66666667  0.33333333  0.92312633  1
  Ni  Ni23  1  0.66666667  0.33333333  0.83333333  1
  F  F24  1  0.47419333  0.94838667  0.12293967  1
  F  F25  1  0.47419333  0.52580667  0.12293967  1
  F  F26  1  0.17452833  0.34905667  0.04176667  1
  F  F27  1  0.49213833  0.98427667  0.29156667  1
  F  F28  1  0.17452833  0.82547167  0.04176667  1
  F  F29  1  0.19247333  0.38494667  0.21039367  1
  F  F30  1  0.49213833  0.50786167  0.29156667  1
  F  F31  1  0.19247333  0.80752667  0.21039367  1
  F  F32  1  0.61505333  0.80752667  0.21039367  1
  F  F33  1  0.65094333  0.82547167  0.04176667  1
  F  F34  1  0.01572333  0.50786167  0.29156667  1
  F  F35  1  0.05161333  0.52580667  0.12293967  1
  F  F36  1  0.14086000  0.28172000  0.45627300  1
  F  F37  1  0.14086000  0.85914000  0.45627300  1
  F  F38  1  0.84119500  0.68239000  0.37510000  1
  F  F39  1  0.15880500  0.31761000  0.62490000  1
  F  F40  1  0.84119500  0.15880500  0.37510000  1
  F  F41  1  0.85914000  0.71828000  0.54372700  1
  F  F42  1  0.15880500  0.84119500  0.62490000  1
  F  F43  1  0.85914000  0.14086000  0.54372700  1
  F  F44  1  0.28172000  0.14086000  0.54372700  1
  F  F45  1  0.31761000  0.15880500  0.37510000  1
  F  F46  1  0.68239000  0.84119500  0.62490000  1
  F  F47  1  0.71828000  0.85914000  0.45627300  1
  F  F48  1  0.80752667  0.61505333  0.78960633  1
  F  F49  1  0.80752667  0.19247333  0.78960633  1
  F  F50  1  0.50786167  0.01572333  0.70843333  1
  F  F51  1  0.82547167  0.65094333  0.95823333  1
  F  F52  1  0.50786167  0.49213833  0.70843333  1
  F  F53  1  0.52580667  0.05161333  0.87706033  1
  F  F54  1  0.82547167  0.17452833  0.95823333  1
  F  F55  1  0.52580667  0.47419333  0.87706033  1
  F  F56  1  0.94838667  0.47419333  0.87706033  1
  F  F57  1  0.98427667  0.49213833  0.70843333  1
  F  F58  1  0.34905667  0.17452833  0.95823333  1
  F  F59  1  0.38494667  0.19247333  0.78960633  1
