# generated using pymatgen
data_V2Te2O9
_symmetry_space_group_name_H-M   'P 1'
_cell_length_a   6.96445000
_cell_length_b   7.28767600
_cell_length_c   28.76129000
_cell_angle_alpha   90.00000000
_cell_angle_beta   90.00000000
_cell_angle_gamma   90.00000000
_symmetry_Int_Tables_number   1
_chemical_formula_structural   V2Te2O9
_chemical_formula_sum   'V16 Te16 O72'
_cell_volume   1459.76935470
_cell_formula_units_Z   8
loop_
 _symmetry_equiv_pos_site_id
 _symmetry_equiv_pos_as_xyz
  1  'x, y, z'
loop_
 _atom_site_type_symbol
 _atom_site_label
 _atom_site_symmetry_multiplicity
 _atom_site_fract_x
 _atom_site_fract_y
 _atom_site_fract_z
 _atom_site_occupancy
  V  V0  1  0.44843000  0.20094000  0.15887000  1
  V  V1  1  0.19843000  0.95094000  0.09113000  1
  V  V2  1  0.80157000  0.95094000  0.90887000  1
  V  V3  1  0.55157000  0.20094000  0.84113000  1
  V  V4  1  0.44843000  0.70094000  0.65887000  1
  V  V5  1  0.19843000  0.45094000  0.59113000  1
  V  V6  1  0.80157000  0.45094000  0.40887000  1
  V  V7  1  0.55157000  0.70094000  0.34113000  1
  V  V8  1  0.94843000  0.70094000  0.15887000  1
  V  V9  1  0.69843000  0.45094000  0.09113000  1
  V  V10  1  0.30157000  0.45094000  0.90887000  1
  V  V11  1  0.05157000  0.70094000  0.84113000  1
  V  V12  1  0.94843000  0.20094000  0.65887000  1
  V  V13  1  0.69843000  0.95094000  0.59113000  1
  V  V14  1  0.30157000  0.95094000  0.40887000  1
  V  V15  1  0.05157000  0.20094000  0.34113000  1
  Te  Te16  1  0.32038150  0.99648100  0.95187150  1
  Te  Te17  1  0.42961850  0.74648100  0.20187150  1
  Te  Te18  1  0.67961850  0.99648100  0.04812850  1
  Te  Te19  1  0.57038150  0.74648100  0.79812850  1
  Te  Te20  1  0.32038150  0.49648100  0.45187150  1
  Te  Te21  1  0.42961850  0.24648100  0.70187150  1
  Te  Te22  1  0.67961850  0.49648100  0.54812850  1
  Te  Te23  1  0.57038150  0.24648100  0.29812850  1
  Te  Te24  1  0.82038150  0.49648100  0.95187150  1
  Te  Te25  1  0.92961850  0.24648100  0.20187150  1
  Te  Te26  1  0.17961850  0.49648100  0.04812850  1
  Te  Te27  1  0.07038150  0.24648100  0.79812850  1
  Te  Te28  1  0.82038150  0.99648100  0.45187150  1
  Te  Te29  1  0.92961850  0.74648100  0.70187150  1
  Te  Te30  1  0.17961850  0.99648100  0.54812850  1
  Te  Te31  1  0.07038150  0.74648100  0.29812850  1
  O  O32  1  0.26929150  0.74001350  0.05572400  1
  O  O33  1  0.51929150  0.99001350  0.19427600  1
  O  O34  1  0.48070850  0.99001350  0.80572400  1
  O  O35  1  0.75000000  0.82754950  0.75000000  1
  O  O36  1  0.75711850  0.74407450  0.84629800  1
  O  O37  1  0.73070850  0.74001350  0.94427600  1
  O  O38  1  0.60507400  0.33951500  0.79808100  1
  O  O39  1  0.53687750  0.37429350  0.89231400  1
  O  O40  1  0.14492600  0.08951500  0.04808100  1
  O  O41  1  0.49288150  0.99407450  0.09629800  1
  O  O42  1  0.21312250  0.12429350  0.14231400  1
  O  O43  1  0.24288150  0.74407450  0.15370200  1
  O  O44  1  0.50000000  0.07754950  0.00000000  1
  O  O45  1  0.85507400  0.08951500  0.95191900  1
  O  O46  1  0.50711850  0.99407450  0.90370200  1
  O  O47  1  0.39492600  0.33951500  0.20191900  1
  O  O48  1  0.46312250  0.37429350  0.10768600  1
  O  O49  1  0.78687750  0.12429350  0.85768600  1
  O  O50  1  0.26929150  0.24001350  0.55572400  1
  O  O51  1  0.51929150  0.49001350  0.69427600  1
  O  O52  1  0.48070850  0.49001350  0.30572400  1
  O  O53  1  0.75000000  0.32754950  0.25000000  1
  O  O54  1  0.75711850  0.24407450  0.34629800  1
  O  O55  1  0.73070850  0.24001350  0.44427600  1
  O  O56  1  0.60507400  0.83951500  0.29808100  1
  O  O57  1  0.53687750  0.87429350  0.39231400  1
  O  O58  1  0.14492600  0.58951500  0.54808100  1
  O  O59  1  0.49288150  0.49407450  0.59629800  1
  O  O60  1  0.21312250  0.62429350  0.64231400  1
  O  O61  1  0.24288150  0.24407450  0.65370200  1
  O  O62  1  0.50000000  0.57754950  0.50000000  1
  O  O63  1  0.85507400  0.58951500  0.45191900  1
  O  O64  1  0.50711850  0.49407450  0.40370200  1
  O  O65  1  0.39492600  0.83951500  0.70191900  1
  O  O66  1  0.46312250  0.87429350  0.60768600  1
  O  O67  1  0.78687750  0.62429350  0.35768600  1
  O  O68  1  0.76929150  0.24001350  0.05572400  1
  O  O69  1  0.01929150  0.49001350  0.19427600  1
  O  O70  1  0.98070850  0.49001350  0.80572400  1
  O  O71  1  0.25000000  0.32754950  0.75000000  1
  O  O72  1  0.25711850  0.24407450  0.84629800  1
  O  O73  1  0.23070850  0.24001350  0.94427600  1
  O  O74  1  0.10507400  0.83951500  0.79808100  1
  O  O75  1  0.03687750  0.87429350  0.89231400  1
  O  O76  1  0.64492600  0.58951500  0.04808100  1
  O  O77  1  0.99288150  0.49407450  0.09629800  1
  O  O78  1  0.71312250  0.62429350  0.14231400  1
  O  O79  1  0.74288150  0.24407450  0.15370200  1
  O  O80  1  0.00000000  0.57754950  0.00000000  1
  O  O81  1  0.35507400  0.58951500  0.95191900  1
  O  O82  1  0.00711850  0.49407450  0.90370200  1
  O  O83  1  0.89492600  0.83951500  0.20191900  1
  O  O84  1  0.96312250  0.87429350  0.10768600  1
  O  O85  1  0.28687750  0.62429350  0.85768600  1
  O  O86  1  0.76929150  0.74001350  0.55572400  1
  O  O87  1  0.01929150  0.99001350  0.69427600  1
  O  O88  1  0.98070850  0.99001350  0.30572400  1
  O  O89  1  0.25000000  0.82754950  0.25000000  1
  O  O90  1  0.25711850  0.74407450  0.34629800  1
  O  O91  1  0.23070850  0.74001350  0.44427600  1
  O  O92  1  0.10507400  0.33951500  0.29808100  1
  O  O93  1  0.03687750  0.37429350  0.39231400  1
  O  O94  1  0.64492600  0.08951500  0.54808100  1
  O  O95  1  0.99288150  0.99407450  0.59629800  1
  O  O96  1  0.71312250  0.12429350  0.64231400  1
  O  O97  1  0.74288150  0.74407450  0.65370200  1
  O  O98  1  0.00000000  0.07754950  0.50000000  1
  O  O99  1  0.35507400  0.08951500  0.45191900  1
  O  O100  1  0.00711850  0.99407450  0.40370200  1
  O  O101  1  0.89492600  0.33951500  0.70191900  1
  O  O102  1  0.96312250  0.37429350  0.60768600  1
  O  O103  1  0.28687750  0.12429350  0.35768600  1
