# generated using pymatgen
data_Cu9Se8
_symmetry_space_group_name_H-M   'P 1'
_cell_length_a   3.86975962
_cell_length_b   3.90685142
_cell_length_c   26.26943631
_cell_angle_alpha   94.14762306
_cell_angle_beta   89.78446300
_cell_angle_gamma   119.65778054
_symmetry_Int_Tables_number   1
_chemical_formula_structural   Cu9Se8
_chemical_formula_sum   'Cu9 Se8'
_cell_volume   343.98855571
_cell_formula_units_Z   1
loop_
 _symmetry_equiv_pos_site_id
 _symmetry_equiv_pos_as_xyz
  1  'x, y, z'
loop_
 _atom_site_type_symbol
 _atom_site_label
 _atom_site_symmetry_multiplicity
 _atom_site_fract_x
 _atom_site_fract_y
 _atom_site_fract_z
 _atom_site_occupancy
  Cu  Cu0  1  0.27229499  0.64064195  0.03199314  1
  Cu  Cu1  1  0.72528560  0.28164333  0.15319535  1
  Cu  Cu2  1  0.37012324  0.63029943  0.21854297  1
  Cu  Cu3  1  0.75122795  0.25254788  0.34333911  1
  Cu  Cu4  1  0.12513177  0.87839318  0.46545310  1
  Cu  Cu5  1  0.49991250  0.50389142  0.59011084  1
  Cu  Cu6  1  0.87423849  0.12893621  0.71475295  1
  Cu  Cu7  1  0.24828628  0.75221007  0.83828179  1
  Cu  Cu8  1  0.59679695  0.36191779  0.95788621  1
  Se  Se9  1  0.93839768  0.00211987  0.99569507  1
  Se  Se10  1  0.38286273  0.63317176  0.12195637  1
  Se  Se11  1  0.71251157  0.27851951  0.25045539  1
  Se  Se12  1  0.46646904  0.52874270  0.49819536  1
  Se  Se13  1  0.09161598  0.90329589  0.37362378  1
  Se  Se14  1  0.84122241  0.15440942  0.62271344  1
  Se  Se15  1  0.21534324  0.77957310  0.74646975  1
  Se  Se16  1  0.58790455  0.40206149  0.86821039  1
