# generated using pymatgen
data_Sr3LiIrO6
_symmetry_space_group_name_H-M   'P 1'
_cell_length_a   9.73103543
_cell_length_b   9.73103543
_cell_length_c   11.24037796
_cell_angle_alpha   90.00000000
_cell_angle_beta   90.00000000
_cell_angle_gamma   120.00000000
_symmetry_Int_Tables_number   1
_chemical_formula_structural   Sr3LiIrO6
_chemical_formula_sum   'Sr18 Li6 Ir6 O36'
_cell_volume   921.78503622
_cell_formula_units_Z   6
loop_
 _symmetry_equiv_pos_site_id
 _symmetry_equiv_pos_as_xyz
  1  'x, y, z'
loop_
 _atom_site_type_symbol
 _atom_site_label
 _atom_site_symmetry_multiplicity
 _atom_site_fract_x
 _atom_site_fract_y
 _atom_site_fract_z
 _atom_site_occupancy
  Sr  Sr0  1  0.69157933  0.02491267  0.41666667  1
  Sr  Sr1  1  0.33333333  0.30842067  0.41666667  1
  Sr  Sr2  1  0.02491267  0.33333333  0.58333333  1
  Sr  Sr3  1  0.66666667  0.69157933  0.58333333  1
  Sr  Sr4  1  0.30842067  0.97508733  0.58333333  1
  Sr  Sr5  1  0.97508733  0.66666667  0.41666667  1
  Sr  Sr6  1  0.35824600  0.35824600  0.75000000  1
  Sr  Sr7  1  1.00000000  0.64175400  0.75000000  1
  Sr  Sr8  1  0.69157933  0.66666667  0.91666667  1
  Sr  Sr9  1  0.33333333  0.02491267  0.91666667  1
  Sr  Sr10  1  0.97508733  0.30842067  0.91666667  1
  Sr  Sr11  1  0.64175400  0.00000000  0.75000000  1
  Sr  Sr12  1  0.02491267  0.69157933  0.08333333  1
  Sr  Sr13  1  0.66666667  0.97508733  0.08333333  1
  Sr  Sr14  1  0.35824600  1.00000000  0.25000000  1
  Sr  Sr15  1  0.00000000  0.35824600  0.25000000  1
  Sr  Sr16  1  0.64175400  0.64175400  0.25000000  1
  Sr  Sr17  1  0.30842067  0.33333333  0.08333333  1
  Li  Li18  1  0.00000000  0.00000000  0.75000000  1
  Li  Li19  1  0.00000000  0.00000000  0.25000000  1
  Li  Li20  1  0.66666667  0.33333333  0.08333333  1
  Li  Li21  1  0.66666667  0.33333333  0.58333333  1
  Li  Li22  1  0.33333333  0.66666667  0.41666667  1
  Li  Li23  1  0.33333333  0.66666667  0.91666667  1
  Ir  Ir24  1  0.00000000  0.00000000  0.50000000  1
  Ir  Ir25  1  0.00000000  0.00000000  0.00000000  1
  Ir  Ir26  1  0.66666667  0.33333333  0.83333333  1
  Ir  Ir27  1  0.66666667  0.33333333  0.33333333  1
  Ir  Ir28  1  0.33333333  0.66666667  0.16666667  1
  Ir  Ir29  1  0.33333333  0.66666667  0.66666667  1
  O  O30  1  0.51327433  0.15817467  0.43952367  1
  O  O31  1  0.15339233  0.97823367  0.39380967  1
  O  O32  1  0.02176633  0.17515867  0.39380967  1
  O  O33  1  0.82484133  0.84660767  0.39380967  1
  O  O34  1  0.84182533  0.35509967  0.43952367  1
  O  O35  1  0.64490033  0.48672567  0.43952367  1
  O  O36  1  0.15817467  0.64490033  0.56047633  1
  O  O37  1  0.35509967  0.51327433  0.56047633  1
  O  O38  1  0.17515867  0.15339233  0.60619033  1
  O  O39  1  0.97823367  0.82484133  0.60619033  1
  O  O40  1  0.84660767  0.02176633  0.60619033  1
  O  O41  1  0.48672567  0.84182533  0.56047633  1
  O  O42  1  0.17994100  0.49150800  0.77285700  1
  O  O43  1  0.82005900  0.31156700  0.72714300  1
  O  O44  1  0.68843300  0.50849200  0.72714300  1
  O  O45  1  0.49150800  0.17994100  0.72714300  1
  O  O46  1  0.50849200  0.68843300  0.77285700  1
  O  O47  1  0.31156700  0.82005900  0.77285700  1
  O  O48  1  0.82484133  0.97823367  0.89380967  1
  O  O49  1  0.02176633  0.84660767  0.89380967  1
  O  O50  1  0.84182533  0.48672567  0.93952367  1
  O  O51  1  0.64490033  0.15817467  0.93952367  1
  O  O52  1  0.51327433  0.35509967  0.93952367  1
  O  O53  1  0.15339233  0.17515867  0.89380967  1
  O  O54  1  0.84660767  0.82484133  0.10619033  1
  O  O55  1  0.48672567  0.64490033  0.06047633  1
  O  O56  1  0.35509967  0.84182533  0.06047633  1
  O  O57  1  0.15817467  0.51327433  0.06047633  1
  O  O58  1  0.17515867  0.02176633  0.10619033  1
  O  O59  1  0.97823367  0.15339233  0.10619033  1
  O  O60  1  0.49150800  0.31156700  0.22714300  1
  O  O61  1  0.68843300  0.17994100  0.22714300  1
  O  O62  1  0.50849200  0.82005900  0.27285700  1
  O  O63  1  0.31156700  0.49150800  0.27285700  1
  O  O64  1  0.17994100  0.68843300  0.27285700  1
  O  O65  1  0.82005900  0.50849200  0.22714300  1
