# generated using pymatgen
data_PrIn2Pd
_symmetry_space_group_name_H-M   'P 1'
_cell_length_a   14.37534200
_cell_length_b   14.37534200
_cell_length_c   9.56708200
_cell_angle_alpha   90.00000000
_cell_angle_beta   90.00000000
_cell_angle_gamma   90.00000000
_symmetry_Int_Tables_number   1
_chemical_formula_structural   PrIn2Pd
_chemical_formula_sum   'Pr20 In40 Pd20'
_cell_volume   1977.04187336
_cell_formula_units_Z   20
loop_
 _symmetry_equiv_pos_site_id
 _symmetry_equiv_pos_as_xyz
  1  'x, y, z'
loop_
 _atom_site_type_symbol
 _atom_site_label
 _atom_site_symmetry_multiplicity
 _atom_site_fract_x
 _atom_site_fract_y
 _atom_site_fract_z
 _atom_site_occupancy
  Pr  Pr0  1  0.00000000  0.00000000  0.01274900  1
  Pr  Pr1  1  0.50000000  0.21941600  0.11773300  1
  Pr  Pr2  1  0.29659750  0.29659750  0.63067450  1
  Pr  Pr3  1  0.00000000  0.00000000  0.54219300  1
  Pr  Pr4  1  0.50000000  0.78058400  0.11773300  1
  Pr  Pr5  1  0.20340250  0.79659750  0.13067450  1
  Pr  Pr6  1  0.71941600  0.00000000  0.61773300  1
  Pr  Pr7  1  0.29659750  0.70340250  0.63067450  1
  Pr  Pr8  1  0.20340250  0.20340250  0.13067450  1
  Pr  Pr9  1  0.28058400  0.00000000  0.61773300  1
  Pr  Pr10  1  0.50000000  0.50000000  0.51274900  1
  Pr  Pr11  1  0.00000000  0.71941600  0.61773300  1
  Pr  Pr12  1  0.79659750  0.79659750  0.13067450  1
  Pr  Pr13  1  0.50000000  0.50000000  0.04219300  1
  Pr  Pr14  1  0.00000000  0.28058400  0.61773300  1
  Pr  Pr15  1  0.70340250  0.29659750  0.63067450  1
  Pr  Pr16  1  0.21941600  0.50000000  0.11773300  1
  Pr  Pr17  1  0.79659750  0.20340250  0.13067450  1
  Pr  Pr18  1  0.70340250  0.70340250  0.63067450  1
  Pr  Pr19  1  0.78058400  0.50000000  0.11773300  1
  In  In20  1  0.64052500  0.14652400  0.38015200  1
  In  In21  1  0.50000000  0.33251500  0.78644400  1
  In  In22  1  0.35347600  0.85947500  0.88015200  1
  In  In23  1  0.13346200  0.13346200  0.78668800  1
  In  In24  1  0.36653800  0.63346200  0.28668800  1
  In  In25  1  0.50000000  0.88326700  0.64023400  1
  In  In26  1  0.38326700  0.00000000  0.14023400  1
  In  In27  1  0.64652400  0.14052500  0.88015200  1
  In  In28  1  0.50000000  0.11673300  0.64023400  1
  In  In29  1  0.36653800  0.36653800  0.28668800  1
  In  In30  1  0.16748500  0.00000000  0.28644400  1
  In  In31  1  0.61673300  0.00000000  0.14023400  1
  In  In32  1  0.35947500  0.85347600  0.38015200  1
  In  In33  1  0.83251500  0.00000000  0.28644400  1
  In  In34  1  0.50000000  0.66748500  0.78644400  1
  In  In35  1  0.35347600  0.14052500  0.88015200  1
  In  In36  1  0.64052500  0.85347600  0.38015200  1
  In  In37  1  0.13346200  0.86653800  0.78668800  1
  In  In38  1  0.64652400  0.85947500  0.88015200  1
  In  In39  1  0.35947500  0.14652400  0.38015200  1
  In  In40  1  0.14052500  0.64652400  0.88015200  1
  In  In41  1  0.00000000  0.83251500  0.28644400  1
  In  In42  1  0.85347600  0.35947500  0.38015200  1
  In  In43  1  0.63346200  0.63346200  0.28668800  1
  In  In44  1  0.86653800  0.13346200  0.78668800  1
  In  In45  1  0.00000000  0.38326700  0.14023400  1
  In  In46  1  0.88326700  0.50000000  0.64023400  1
  In  In47  1  0.14652400  0.64052500  0.38015200  1
  In  In48  1  0.00000000  0.61673300  0.14023400  1
  In  In49  1  0.86653800  0.86653800  0.78668800  1
  In  In50  1  0.66748500  0.50000000  0.78644400  1
  In  In51  1  0.11673300  0.50000000  0.64023400  1
  In  In52  1  0.85947500  0.35347600  0.88015200  1
  In  In53  1  0.33251500  0.50000000  0.78644400  1
  In  In54  1  0.00000000  0.16748500  0.28644400  1
  In  In55  1  0.85347600  0.64052500  0.38015200  1
  In  In56  1  0.14052500  0.35347600  0.88015200  1
  In  In57  1  0.63346200  0.36653800  0.28668800  1
  In  In58  1  0.14652400  0.35947500  0.38015200  1
  In  In59  1  0.85947500  0.64652400  0.88015200  1
  Pd  Pd60  1  0.50000000  0.71808200  0.47649300  1
  Pd  Pd61  1  0.21808200  0.00000000  0.97649300  1
  Pd  Pd62  1  0.50000000  0.00000000  0.88763100  1
  Pd  Pd63  1  0.50000000  0.28191800  0.47649300  1
  Pd  Pd64  1  0.50000000  0.00000000  0.38763100  1
  Pd  Pd65  1  0.16007700  0.16007700  0.46891900  1
  Pd  Pd66  1  0.33992300  0.33992300  0.96891900  1
  Pd  Pd67  1  0.78191800  0.00000000  0.97649300  1
  Pd  Pd68  1  0.16007700  0.83992300  0.46891900  1
  Pd  Pd69  1  0.33992300  0.66007700  0.96891900  1
  Pd  Pd70  1  0.00000000  0.21808200  0.97649300  1
  Pd  Pd71  1  0.71808200  0.50000000  0.47649300  1
  Pd  Pd72  1  0.00000000  0.50000000  0.38763100  1
  Pd  Pd73  1  0.00000000  0.78191800  0.97649300  1
  Pd  Pd74  1  0.00000000  0.50000000  0.88763100  1
  Pd  Pd75  1  0.66007700  0.66007700  0.96891900  1
  Pd  Pd76  1  0.83992300  0.83992300  0.46891900  1
  Pd  Pd77  1  0.28191800  0.50000000  0.47649300  1
  Pd  Pd78  1  0.66007700  0.33992300  0.96891900  1
  Pd  Pd79  1  0.83992300  0.16007700  0.46891900  1
