# generated using pymatgen
data_TbIn2Ni
_symmetry_space_group_name_H-M   'P 1'
_cell_length_a   4.34171600
_cell_length_b   10.45519600
_cell_length_c   7.43748100
_cell_angle_alpha   90.00000000
_cell_angle_beta   90.00000000
_cell_angle_gamma   90.00000000
_symmetry_Int_Tables_number   1
_chemical_formula_structural   TbIn2Ni
_chemical_formula_sum   'Tb4 In8 Ni4'
_cell_volume   337.61323246
_cell_formula_units_Z   4
loop_
 _symmetry_equiv_pos_site_id
 _symmetry_equiv_pos_as_xyz
  1  'x, y, z'
loop_
 _atom_site_type_symbol
 _atom_site_label
 _atom_site_symmetry_multiplicity
 _atom_site_fract_x
 _atom_site_fract_y
 _atom_site_fract_z
 _atom_site_occupancy
  Tb  Tb0  1  0.00000000  0.42926900  0.25000000  1
  Tb  Tb1  1  0.50000000  0.07073100  0.75000000  1
  Tb  Tb2  1  0.50000000  0.92926900  0.25000000  1
  Tb  Tb3  1  0.00000000  0.57073100  0.75000000  1
  In  In4  1  0.00000000  0.14060700  0.05197200  1
  In  In5  1  0.00000000  0.14060700  0.44802800  1
  In  In6  1  0.50000000  0.35939300  0.55197200  1
  In  In7  1  0.50000000  0.35939300  0.94802800  1
  In  In8  1  0.50000000  0.64060700  0.05197200  1
  In  In9  1  0.50000000  0.64060700  0.44802800  1
  In  In10  1  0.00000000  0.85939300  0.55197200  1
  In  In11  1  0.00000000  0.85939300  0.94802800  1
  Ni  Ni12  1  0.00000000  0.28365900  0.75000000  1
  Ni  Ni13  1  0.50000000  0.21634100  0.25000000  1
  Ni  Ni14  1  0.50000000  0.78365900  0.75000000  1
  Ni  Ni15  1  0.00000000  0.71634100  0.25000000  1
