# generated using pymatgen
data_BaFe(Si2O5)2
_symmetry_space_group_name_H-M   'P 1'
_cell_length_a   7.69889075
_cell_length_b   7.69889075
_cell_length_c   8.04764300
_cell_angle_alpha   90.00000000
_cell_angle_beta   90.00000000
_cell_angle_gamma   90.00000000
_symmetry_Int_Tables_number   1
_chemical_formula_structural   BaFe(Si2O5)2
_chemical_formula_sum   'Ba2 Fe2 Si8 O20'
_cell_volume   477.00728992
_cell_formula_units_Z   2
loop_
 _symmetry_equiv_pos_site_id
 _symmetry_equiv_pos_as_xyz
  1  'x, y, z'
loop_
 _atom_site_type_symbol
 _atom_site_label
 _atom_site_symmetry_multiplicity
 _atom_site_fract_x
 _atom_site_fract_y
 _atom_site_fract_z
 _atom_site_occupancy
  Ba  Ba0  1  0.50000000  0.50000000  0.00000000  1
  Ba  Ba1  1  0.00000000  0.00000000  0.00000000  1
  Fe  Fe2  1  0.00000000  0.50000000  0.81972400  1
  Fe  Fe3  1  0.50000000  0.00000000  0.18027600  1
  Si  Si4  1  0.79237925  0.29237925  0.30630650  1
  Si  Si5  1  0.70762075  0.20762075  0.69369350  1
  Si  Si6  1  0.20762075  0.70762075  0.30630650  1
  Si  Si7  1  0.20762075  0.29237925  0.30630650  1
  Si  Si8  1  0.29237925  0.20762075  0.69369350  1
  Si  Si9  1  0.70762075  0.79237925  0.69369350  1
  Si  Si10  1  0.29237925  0.79237925  0.69369350  1
  Si  Si11  1  0.79237925  0.70762075  0.30630650  1
  O  O12  1  0.75000000  0.75000000  0.50000000  1
  O  O13  1  0.25000000  0.75000000  0.50000000  1
  O  O14  1  0.25000000  0.25000000  0.50000000  1
  O  O15  1  0.75000000  0.25000000  0.50000000  1
  O  O16  1  0.31554025  0.81554025  0.17216350  1
  O  O17  1  0.18445975  0.31554025  0.82783650  1
  O  O18  1  0.31554025  0.18445975  0.17216350  1
  O  O19  1  0.81554025  0.68445975  0.82783650  1
  O  O20  1  0.68445975  0.81554025  0.17216350  1
  O  O21  1  0.68445975  0.18445975  0.17216350  1
  O  O22  1  0.81554025  0.31554025  0.82783650  1
  O  O23  1  0.18445975  0.68445975  0.82783650  1
  O  O24  1  0.00000000  0.74658100  0.27261600  1
  O  O25  1  0.25341900  0.00000000  0.72738400  1
  O  O26  1  0.75341900  0.50000000  0.27261600  1
  O  O27  1  0.50000000  0.75341900  0.72738400  1
  O  O28  1  0.00000000  0.25341900  0.27261600  1
  O  O29  1  0.24658100  0.50000000  0.27261600  1
  O  O30  1  0.50000000  0.24658100  0.72738400  1
  O  O31  1  0.74658100  0.00000000  0.72738400  1
