# generated using pymatgen
data_InCu(MoO4)2
_symmetry_space_group_name_H-M   'P 1'
_cell_length_a   9.70220600
_cell_length_b   11.71833400
_cell_length_c   5.05161494
_cell_angle_alpha   90.00000000
_cell_angle_beta   91.10764499
_cell_angle_gamma   90.00000000
_symmetry_Int_Tables_number   1
_chemical_formula_structural   InCu(MoO4)2
_chemical_formula_sum   'In4 Cu4 Mo8 O32'
_cell_volume   574.22942521
_cell_formula_units_Z   4
loop_
 _symmetry_equiv_pos_site_id
 _symmetry_equiv_pos_as_xyz
  1  'x, y, z'
loop_
 _atom_site_type_symbol
 _atom_site_label
 _atom_site_symmetry_multiplicity
 _atom_site_fract_x
 _atom_site_fract_y
 _atom_site_fract_z
 _atom_site_occupancy
  In  In0  1  0.50000000  0.65502700  0.75000000  1
  In  In1  1  0.50000000  0.34497300  0.25000000  1
  In  In2  1  0.00000000  0.15502700  0.75000000  1
  In  In3  1  0.00000000  0.84497300  0.25000000  1
  Cu  Cu4  1  0.50000000  0.15859600  0.75000000  1
  Cu  Cu5  1  0.50000000  0.84140400  0.25000000  1
  Cu  Cu6  1  0.00000000  0.65859600  0.75000000  1
  Cu  Cu7  1  0.00000000  0.34140400  0.25000000  1
  Mo  Mo8  1  0.74140250  0.09044850  0.26008100  1
  Mo  Mo9  1  0.25859750  0.90955150  0.73991900  1
  Mo  Mo10  1  0.74140250  0.90955150  0.76008100  1
  Mo  Mo11  1  0.25859750  0.09044850  0.23991900  1
  Mo  Mo12  1  0.24140250  0.59044850  0.26008100  1
  Mo  Mo13  1  0.75859750  0.40955150  0.73991900  1
  Mo  Mo14  1  0.24140250  0.40955150  0.76008100  1
  Mo  Mo15  1  0.75859750  0.59044850  0.23991900  1
  O  O16  1  0.37232850  0.68670850  0.40017500  1
  O  O17  1  0.37984750  0.18858550  0.39799000  1
  O  O18  1  0.85671450  0.04963050  0.95366400  1
  O  O19  1  0.37232850  0.31329150  0.90017500  1
  O  O20  1  0.62767150  0.68670850  0.09982500  1
  O  O21  1  0.62015250  0.18858550  0.10201000  1
  O  O22  1  0.64253450  0.94674350  0.07071000  1
  O  O23  1  0.37984750  0.81141450  0.89799000  1
  O  O24  1  0.14328550  0.95036950  0.04633600  1
  O  O25  1  0.64253450  0.05325650  0.57071000  1
  O  O26  1  0.35746550  0.94674350  0.42929000  1
  O  O27  1  0.35746550  0.05325650  0.92929000  1
  O  O28  1  0.62015250  0.81141450  0.60201000  1
  O  O29  1  0.85671450  0.95036950  0.45366400  1
  O  O30  1  0.14328550  0.04963050  0.54633600  1
  O  O31  1  0.62767150  0.31329150  0.59982500  1
  O  O32  1  0.87232850  0.18670850  0.40017500  1
  O  O33  1  0.87984750  0.68858550  0.39799000  1
  O  O34  1  0.35671450  0.54963050  0.95366400  1
  O  O35  1  0.87232850  0.81329150  0.90017500  1
  O  O36  1  0.12767150  0.18670850  0.09982500  1
  O  O37  1  0.12015250  0.68858550  0.10201000  1
  O  O38  1  0.14253450  0.44674350  0.07071000  1
  O  O39  1  0.87984750  0.31141450  0.89799000  1
  O  O40  1  0.64328550  0.45036950  0.04633600  1
  O  O41  1  0.14253450  0.55325650  0.57071000  1
  O  O42  1  0.85746550  0.44674350  0.42929000  1
  O  O43  1  0.85746550  0.55325650  0.92929000  1
  O  O44  1  0.12015250  0.31141450  0.60201000  1
  O  O45  1  0.35671450  0.45036950  0.45366400  1
  O  O46  1  0.64328550  0.54963050  0.54633600  1
  O  O47  1  0.12767150  0.81329150  0.59982500  1
