# generated using pymatgen
data_Ba11In6O3
_symmetry_space_group_name_H-M   'P 1'
_cell_length_a   15.65357600
_cell_length_b   15.65357600
_cell_length_c   11.26577400
_cell_angle_alpha   90.00000000
_cell_angle_beta   90.00000000
_cell_angle_gamma   90.00000000
_symmetry_Int_Tables_number   1
_chemical_formula_structural   Ba11In6O3
_chemical_formula_sum   'Ba44 In24 O12'
_cell_volume   2760.50264114
_cell_formula_units_Z   4
loop_
 _symmetry_equiv_pos_site_id
 _symmetry_equiv_pos_as_xyz
  1  'x, y, z'
loop_
 _atom_site_type_symbol
 _atom_site_label
 _atom_site_symmetry_multiplicity
 _atom_site_fract_x
 _atom_site_fract_y
 _atom_site_fract_z
 _atom_site_occupancy
  Ba  Ba0  1  0.37513100  0.12486900  0.70196700  1
  Ba  Ba1  1  0.62486900  0.87513100  0.70196700  1
  Ba  Ba2  1  0.27012100  0.22987900  0.00000000  1
  Ba  Ba3  1  0.72987900  0.77012100  0.00000000  1
  Ba  Ba4  1  0.87359100  0.12640900  0.25000000  1
  Ba  Ba5  1  0.62640900  0.62640900  0.75000000  1
  Ba  Ba6  1  0.87359100  0.87359100  0.75000000  1
  Ba  Ba7  1  0.62486900  0.12486900  0.79803300  1
  Ba  Ba8  1  0.72987900  0.22987900  0.50000000  1
  Ba  Ba9  1  0.62640900  0.37359100  0.25000000  1
  Ba  Ba10  1  0.27012100  0.77012100  0.50000000  1
  Ba  Ba11  1  0.37513100  0.87513100  0.20196700  1
  Ba  Ba12  1  0.87359100  0.87359100  0.25000000  1
  Ba  Ba13  1  0.87359100  0.12640900  0.75000000  1
  Ba  Ba14  1  0.62486900  0.87513100  0.29803300  1
  Ba  Ba15  1  0.00000000  0.00000000  0.00000000  1
  Ba  Ba16  1  0.62640900  0.37359100  0.75000000  1
  Ba  Ba17  1  0.62486900  0.12486900  0.20196700  1
  Ba  Ba18  1  0.37513100  0.12486900  0.29803300  1
  Ba  Ba19  1  0.00000000  0.00000000  0.50000000  1
  Ba  Ba20  1  0.62640900  0.62640900  0.25000000  1
  Ba  Ba21  1  0.37513100  0.87513100  0.79803300  1
  Ba  Ba22  1  0.87513100  0.62486900  0.20196700  1
  Ba  Ba23  1  0.12486900  0.37513100  0.20196700  1
  Ba  Ba24  1  0.77012100  0.72987900  0.50000000  1
  Ba  Ba25  1  0.22987900  0.27012100  0.50000000  1
  Ba  Ba26  1  0.37359100  0.62640900  0.75000000  1
  Ba  Ba27  1  0.12640900  0.12640900  0.25000000  1
  Ba  Ba28  1  0.37359100  0.37359100  0.25000000  1
  Ba  Ba29  1  0.12486900  0.62486900  0.29803300  1
  Ba  Ba30  1  0.22987900  0.72987900  0.00000000  1
  Ba  Ba31  1  0.12640900  0.87359100  0.75000000  1
  Ba  Ba32  1  0.77012100  0.27012100  0.00000000  1
  Ba  Ba33  1  0.87513100  0.37513100  0.70196700  1
  Ba  Ba34  1  0.37359100  0.37359100  0.75000000  1
  Ba  Ba35  1  0.37359100  0.62640900  0.25000000  1
  Ba  Ba36  1  0.12486900  0.37513100  0.79803300  1
  Ba  Ba37  1  0.50000000  0.50000000  0.50000000  1
  Ba  Ba38  1  0.12640900  0.87359100  0.25000000  1
  Ba  Ba39  1  0.12486900  0.62486900  0.70196700  1
  Ba  Ba40  1  0.87513100  0.62486900  0.79803300  1
  Ba  Ba41  1  0.50000000  0.50000000  0.00000000  1
  Ba  Ba42  1  0.12640900  0.12640900  0.75000000  1
  Ba  Ba43  1  0.87513100  0.37513100  0.29803300  1
  In  In44  1  0.24269900  0.99898400  0.50000000  1
  In  In45  1  0.50101600  0.25730100  0.50000000  1
  In  In46  1  0.56570800  0.06570800  0.50000000  1
  In  In47  1  0.43429200  0.06570800  0.00000000  1
  In  In48  1  0.24269900  0.00101600  0.00000000  1
  In  In49  1  0.75730100  0.99898400  0.00000000  1
  In  In50  1  0.43429200  0.93429200  0.50000000  1
  In  In51  1  0.49898400  0.25730100  0.00000000  1
  In  In52  1  0.50101600  0.74269900  0.00000000  1
  In  In53  1  0.75730100  0.00101600  0.50000000  1
  In  In54  1  0.49898400  0.74269900  0.50000000  1
  In  In55  1  0.56570800  0.93429200  0.00000000  1
  In  In56  1  0.74269900  0.49898400  0.00000000  1
  In  In57  1  0.00101600  0.75730100  0.00000000  1
  In  In58  1  0.06570800  0.56570800  0.00000000  1
  In  In59  1  0.93429200  0.56570800  0.50000000  1
  In  In60  1  0.74269900  0.50101600  0.50000000  1
  In  In61  1  0.25730100  0.49898400  0.50000000  1
  In  In62  1  0.93429200  0.43429200  0.00000000  1
  In  In63  1  0.99898400  0.75730100  0.50000000  1
  In  In64  1  0.00101600  0.24269900  0.50000000  1
  In  In65  1  0.25730100  0.50101600  0.00000000  1
  In  In66  1  0.99898400  0.24269900  0.00000000  1
  In  In67  1  0.06570800  0.43429200  0.50000000  1
  O  O68  1  0.75000000  0.75000000  0.75000000  1
  O  O69  1  0.00000000  0.00000000  0.25000000  1
  O  O70  1  0.75000000  0.25000000  0.25000000  1
  O  O71  1  0.00000000  0.00000000  0.75000000  1
  O  O72  1  0.75000000  0.75000000  0.25000000  1
  O  O73  1  0.75000000  0.25000000  0.75000000  1
  O  O74  1  0.25000000  0.25000000  0.25000000  1
  O  O75  1  0.50000000  0.50000000  0.75000000  1
  O  O76  1  0.25000000  0.75000000  0.75000000  1
  O  O77  1  0.50000000  0.50000000  0.25000000  1
  O  O78  1  0.25000000  0.25000000  0.75000000  1
  O  O79  1  0.25000000  0.75000000  0.25000000  1
