# generated using pymatgen
data_CuGe2P3
_symmetry_space_group_name_H-M   'P 1'
_cell_length_a   24.56694000
_cell_length_b   3.76130200
_cell_length_c   6.61028002
_cell_angle_alpha   90.00000000
_cell_angle_beta   94.45846249
_cell_angle_gamma   90.00000000
_symmetry_Int_Tables_number   1
_chemical_formula_structural   CuGe2P3
_chemical_formula_sum   'Cu4 Ge8 P12'
_cell_volume   608.96585068
_cell_formula_units_Z   4
loop_
 _symmetry_equiv_pos_site_id
 _symmetry_equiv_pos_as_xyz
  1  'x, y, z'
loop_
 _atom_site_type_symbol
 _atom_site_label
 _atom_site_symmetry_multiplicity
 _atom_site_fract_x
 _atom_site_fract_y
 _atom_site_fract_z
 _atom_site_occupancy
  Cu  Cu0  1  0.86405400  0.50000000  0.12073000  1
  Cu  Cu1  1  0.75100600  0.50000000  0.75207800  1
  Cu  Cu2  1  0.36405400  0.00000000  0.12073000  1
  Cu  Cu3  1  0.25100600  0.00000000  0.75207800  1
  Ge  Ge4  1  0.87504100  0.00000000  0.62597300  1
  Ge  Ge5  1  0.62943700  0.00000000  0.87919200  1
  Ge  Ge6  1  0.75199400  0.00000000  0.23932000  1
  Ge  Ge7  1  0.62704000  0.50000000  0.36986200  1
  Ge  Ge8  1  0.37504100  0.50000000  0.62597300  1
  Ge  Ge9  1  0.12943700  0.50000000  0.87919200  1
  Ge  Ge10  1  0.25199400  0.50000000  0.23932000  1
  Ge  Ge11  1  0.12704000  0.00000000  0.36986200  1
  P  P12  1  0.84454700  0.50000000  0.79032300  1
  P  P13  1  0.72455100  0.00000000  0.89598000  1
  P  P14  1  0.84853100  0.00000000  0.28034200  1
  P  P15  1  0.58518600  0.50000000  0.02768300  1
  P  P16  1  0.72294500  0.50000000  0.42242700  1
  P  P17  1  0.58816900  0.00000000  0.53358900  1
  P  P18  1  0.34454700  0.00000000  0.79032300  1
  P  P19  1  0.22455100  0.50000000  0.89598000  1
  P  P20  1  0.34853100  0.50000000  0.28034200  1
  P  P21  1  0.08518600  0.00000000  0.02768300  1
  P  P22  1  0.22294500  0.00000000  0.42242700  1
  P  P23  1  0.08816900  0.50000000  0.53358900  1
