# generated using pymatgen
data_La2(ZnGe2)3
_symmetry_space_group_name_H-M   'P 1'
_cell_length_a   6.02837800
_cell_length_b   25.10043200
_cell_length_c   6.02518700
_cell_angle_alpha   90.00000000
_cell_angle_beta   90.00000000
_cell_angle_gamma   90.00000000
_symmetry_Int_Tables_number   1
_chemical_formula_structural   La2(ZnGe2)3
_chemical_formula_sum   'La8 Zn12 Ge24'
_cell_volume   911.70052054
_cell_formula_units_Z   4
loop_
 _symmetry_equiv_pos_site_id
 _symmetry_equiv_pos_as_xyz
  1  'x, y, z'
loop_
 _atom_site_type_symbol
 _atom_site_label
 _atom_site_symmetry_multiplicity
 _atom_site_fract_x
 _atom_site_fract_y
 _atom_site_fract_z
 _atom_site_occupancy
  La  La0  1  0.00000000  0.10558200  0.75000000  1
  La  La1  1  0.50000000  0.10538800  0.25000000  1
  La  La2  1  0.00000000  0.39461200  0.75000000  1
  La  La3  1  0.50000000  0.39441800  0.25000000  1
  La  La4  1  0.50000000  0.60558200  0.75000000  1
  La  La5  1  0.00000000  0.60538800  0.25000000  1
  La  La6  1  0.50000000  0.89461200  0.75000000  1
  La  La7  1  0.00000000  0.89441800  0.25000000  1
  Zn  Zn8  1  0.76065500  0.00000000  0.50000000  1
  Zn  Zn9  1  0.50000000  0.16105000  0.75000000  1
  Zn  Zn10  1  0.76065500  0.00000000  0.00000000  1
  Zn  Zn11  1  0.00000000  0.33895000  0.25000000  1
  Zn  Zn12  1  0.23934500  0.00000000  0.50000000  1
  Zn  Zn13  1  0.23934500  0.00000000  0.00000000  1
  Zn  Zn14  1  0.26065500  0.50000000  0.50000000  1
  Zn  Zn15  1  0.00000000  0.66105000  0.75000000  1
  Zn  Zn16  1  0.26065500  0.50000000  0.00000000  1
  Zn  Zn17  1  0.50000000  0.83895000  0.25000000  1
  Zn  Zn18  1  0.73934500  0.50000000  0.50000000  1
  Zn  Zn19  1  0.73934500  0.50000000  0.00000000  1
  Ge  Ge20  1  0.21457550  0.20152950  0.46479800  1
  Ge  Ge21  1  0.28542450  0.29847050  0.96479800  1
  Ge  Ge22  1  0.78542450  0.20152950  0.46479800  1
  Ge  Ge23  1  0.28542450  0.29847050  0.53520200  1
  Ge  Ge24  1  0.00000000  0.06611000  0.25000000  1
  Ge  Ge25  1  0.71457550  0.29847050  0.96479800  1
  Ge  Ge26  1  0.50000000  0.05868600  0.75000000  1
  Ge  Ge27  1  0.78542450  0.20152950  0.03520200  1
  Ge  Ge28  1  0.71457550  0.29847050  0.53520200  1
  Ge  Ge29  1  0.50000000  0.43389000  0.75000000  1
  Ge  Ge30  1  0.00000000  0.44131400  0.25000000  1
  Ge  Ge31  1  0.21457550  0.20152950  0.03520200  1
  Ge  Ge32  1  0.71457550  0.70152950  0.46479800  1
  Ge  Ge33  1  0.78542450  0.79847050  0.96479800  1
  Ge  Ge34  1  0.28542450  0.70152950  0.46479800  1
  Ge  Ge35  1  0.78542450  0.79847050  0.53520200  1
  Ge  Ge36  1  0.50000000  0.56611000  0.25000000  1
  Ge  Ge37  1  0.21457550  0.79847050  0.96479800  1
  Ge  Ge38  1  0.00000000  0.55868600  0.75000000  1
  Ge  Ge39  1  0.28542450  0.70152950  0.03520200  1
  Ge  Ge40  1  0.21457550  0.79847050  0.53520200  1
  Ge  Ge41  1  0.00000000  0.93389000  0.75000000  1
  Ge  Ge42  1  0.50000000  0.94131400  0.25000000  1
  Ge  Ge43  1  0.71457550  0.70152950  0.03520200  1
