# generated using pymatgen
data_CaLa3Mn4O12
_symmetry_space_group_name_H-M   'P 1'
_cell_length_a   11.15317862
_cell_length_b   11.15317862
_cell_length_c   13.40296805
_cell_angle_alpha   90.00000000
_cell_angle_beta   90.00000000
_cell_angle_gamma   120.00000000
_symmetry_Int_Tables_number   1
_chemical_formula_structural   CaLa3Mn4O12
_chemical_formula_sum   'Ca6 La18 Mn24 O72'
_cell_volume   1443.87277983
_cell_formula_units_Z   6
loop_
 _symmetry_equiv_pos_site_id
 _symmetry_equiv_pos_as_xyz
  1  'x, y, z'
loop_
 _atom_site_type_symbol
 _atom_site_label
 _atom_site_symmetry_multiplicity
 _atom_site_fract_x
 _atom_site_fract_y
 _atom_site_fract_z
 _atom_site_occupancy
  Ca  Ca0  1  0.00000000  0.00000000  0.75000000  1
  Ca  Ca1  1  0.00000000  0.00000000  0.25000000  1
  Ca  Ca2  1  0.66666667  0.33333333  0.08333333  1
  Ca  Ca3  1  0.66666667  0.33333333  0.58333333  1
  Ca  Ca4  1  0.33333333  0.66666667  0.41666667  1
  Ca  Ca5  1  0.33333333  0.66666667  0.91666667  1
  La  La6  1  0.83291733  0.66666667  0.41666667  1
  La  La7  1  0.83374933  0.16708267  0.41666667  1
  La  La8  1  0.16625067  0.83291733  0.58333333  1
  La  La9  1  0.33333333  0.16625067  0.41666667  1
  La  La10  1  0.66666667  0.83374933  0.58333333  1
  La  La11  1  0.16708267  0.33333333  0.58333333  1
  La  La12  1  0.49958400  0.00000000  0.75000000  1
  La  La13  1  0.50041600  0.50041600  0.75000000  1
  La  La14  1  0.83291733  0.16625067  0.91666667  1
  La  La15  1  0.00000000  0.49958400  0.75000000  1
  La  La16  1  0.33333333  0.16708267  0.91666667  1
  La  La17  1  0.83374933  0.66666667  0.91666667  1
  La  La18  1  0.16625067  0.33333333  0.08333333  1
  La  La19  1  0.16708267  0.83374933  0.08333333  1
  La  La20  1  0.49958400  0.49958400  0.25000000  1
  La  La21  1  0.66666667  0.83291733  0.08333333  1
  La  La22  1  0.00000000  0.50041600  0.25000000  1
  La  La23  1  0.50041600  0.00000000  0.25000000  1
  Mn  Mn24  1  0.33333333  0.16666667  0.16666667  1
  Mn  Mn25  1  0.83333333  0.66666667  0.16666667  1
  Mn  Mn26  1  0.83333333  0.16666667  0.16666667  1
  Mn  Mn27  1  0.16666667  0.33333333  0.33333333  1
  Mn  Mn28  1  0.00000000  0.00000000  0.50000000  1
  Mn  Mn29  1  0.16666667  0.83333333  0.33333333  1
  Mn  Mn30  1  0.00000000  0.00000000  0.00000000  1
  Mn  Mn31  1  0.66666667  0.83333333  0.33333333  1
  Mn  Mn32  1  0.00000000  0.50000000  0.50000000  1
  Mn  Mn33  1  0.50000000  0.00000000  0.50000000  1
  Mn  Mn34  1  0.50000000  0.50000000  0.50000000  1
  Mn  Mn35  1  0.83333333  0.66666667  0.66666667  1
  Mn  Mn36  1  0.66666667  0.33333333  0.83333333  1
  Mn  Mn37  1  0.83333333  0.16666667  0.66666667  1
  Mn  Mn38  1  0.66666667  0.33333333  0.33333333  1
  Mn  Mn39  1  0.33333333  0.16666667  0.66666667  1
  Mn  Mn40  1  0.66666667  0.83333333  0.83333333  1
  Mn  Mn41  1  0.16666667  0.33333333  0.83333333  1
  Mn  Mn42  1  0.16666667  0.83333333  0.83333333  1
  Mn  Mn43  1  0.50000000  0.00000000  0.00000000  1
  Mn  Mn44  1  0.33333333  0.66666667  0.16666667  1
  Mn  Mn45  1  0.50000000  0.50000000  0.00000000  1
  Mn  Mn46  1  0.33333333  0.66666667  0.66666667  1
  Mn  Mn47  1  0.00000000  0.50000000  0.00000000  1
  O  O48  1  0.78337000  0.00000000  0.25000000  1
  O  O49  1  0.83135033  0.88324867  0.41830967  1
  O  O50  1  0.94810167  0.83135033  0.58169033  1
  O  O51  1  0.33333333  0.38284967  0.41666667  1
  O  O52  1  0.88324867  0.05189833  0.58169033  1
  O  O53  1  0.78337000  0.78337000  0.75000000  1
  O  O54  1  0.95048367  0.33333333  0.58333333  1
  O  O55  1  0.38523167  0.54991533  0.58497633  1
  O  O56  1  0.00000000  0.21663000  0.75000000  1
  O  O57  1  0.61715033  0.95048367  0.41666667  1
  O  O58  1  0.16468367  0.61476833  0.58497633  1
  O  O59  1  0.54991533  0.16468367  0.41502367  1
  O  O60  1  0.45008467  0.83531633  0.58497633  1
  O  O61  1  0.83531633  0.38523167  0.41502367  1
  O  O62  1  0.38284967  0.04951633  0.58333333  1
  O  O63  1  0.00000000  0.78337000  0.25000000  1
  O  O64  1  0.61476833  0.45008467  0.41502367  1
  O  O65  1  0.04951633  0.66666667  0.41666667  1
  O  O66  1  0.21663000  0.21663000  0.25000000  1
  O  O67  1  0.11675133  0.94810167  0.41830967  1
  O  O68  1  0.66666667  0.61715033  0.58333333  1
  O  O69  1  0.05189833  0.16864967  0.41830967  1
  O  O70  1  0.16864967  0.11675133  0.58169033  1
  O  O71  1  0.21663000  0.00000000  0.75000000  1
  O  O72  1  0.45003667  0.33333333  0.58333333  1
  O  O73  1  0.49801700  0.21658200  0.75164300  1
  O  O74  1  0.61476833  0.16468367  0.91502367  1
  O  O75  1  0.00000000  0.71618300  0.75000000  1
  O  O76  1  0.54991533  0.38523167  0.91502367  1
  O  O77  1  0.45003667  0.11670333  0.08333333  1
  O  O78  1  0.61715033  0.66666667  0.91666667  1
  O  O79  1  0.05189833  0.88324867  0.91830967  1
  O  O80  1  0.66666667  0.54996333  0.08333333  1
  O  O81  1  0.28381700  0.28381700  0.75000000  1
  O  O82  1  0.83135033  0.94810167  0.91830967  1
  O  O83  1  0.21658200  0.49801700  0.74835700  1
  O  O84  1  0.11675133  0.16864967  0.91830967  1
  O  O85  1  0.50198300  0.71856500  0.74835700  1
  O  O86  1  0.04951633  0.38284967  0.91666667  1
  O  O87  1  0.66666667  0.11670333  0.58333333  1
  O  O88  1  0.28143500  0.78341800  0.74835700  1
  O  O89  1  0.71618300  0.00000000  0.75000000  1
  O  O90  1  0.88329667  0.54996333  0.58333333  1
  O  O91  1  0.78341800  0.28143500  0.75164300  1
  O  O92  1  0.33333333  0.95048367  0.91666667  1
  O  O93  1  0.71856500  0.50198300  0.75164300  1
  O  O94  1  0.83531633  0.45008467  0.91502367  1
  O  O95  1  0.88329667  0.33333333  0.08333333  1
  O  O96  1  0.11670333  0.66666667  0.91666667  1
  O  O97  1  0.16468367  0.54991533  0.08497633  1
  O  O98  1  0.28143500  0.49801700  0.24835700  1
  O  O99  1  0.66666667  0.04951633  0.08333333  1
  O  O100  1  0.21658200  0.71856500  0.24835700  1
  O  O101  1  0.11670333  0.45003667  0.41666667  1
  O  O102  1  0.28381700  0.00000000  0.25000000  1
  O  O103  1  0.71856500  0.21658200  0.25164300  1
  O  O104  1  0.33333333  0.88329667  0.41666667  1
  O  O105  1  0.95048367  0.61715033  0.08333333  1
  O  O106  1  0.49801700  0.28143500  0.25164300  1
  O  O107  1  0.88324867  0.83135033  0.08169033  1
  O  O108  1  0.78341800  0.50198300  0.25164300  1
  O  O109  1  0.16864967  0.05189833  0.08169033  1
  O  O110  1  0.71618300  0.71618300  0.25000000  1
  O  O111  1  0.33333333  0.45003667  0.91666667  1
  O  O112  1  0.94810167  0.11675133  0.08169033  1
  O  O113  1  0.38284967  0.33333333  0.08333333  1
  O  O114  1  0.54996333  0.88329667  0.91666667  1
  O  O115  1  0.45008467  0.61476833  0.08497633  1
  O  O116  1  0.00000000  0.28381700  0.25000000  1
  O  O117  1  0.38523167  0.83531633  0.08497633  1
  O  O118  1  0.50198300  0.78341800  0.24835700  1
  O  O119  1  0.54996333  0.66666667  0.41666667  1
