# generated using pymatgen
data_Mg3(MnAl9)2
_symmetry_space_group_name_H-M   'P 1'
_cell_length_a   14.41883400
_cell_length_b   14.41883400
_cell_length_c   14.41883400
_cell_angle_alpha   90.00000000
_cell_angle_beta   90.00000000
_cell_angle_gamma   90.00000000
_symmetry_Int_Tables_number   1
_chemical_formula_structural   Mg3(MnAl9)2
_chemical_formula_sum   'Mg24 Mn16 Al144'
_cell_volume   2997.71558529
_cell_formula_units_Z   8
loop_
 _symmetry_equiv_pos_site_id
 _symmetry_equiv_pos_as_xyz
  1  'x, y, z'
loop_
 _atom_site_type_symbol
 _atom_site_label
 _atom_site_symmetry_multiplicity
 _atom_site_fract_x
 _atom_site_fract_y
 _atom_site_fract_z
 _atom_site_occupancy
  Mg  Mg0  1  0.25000000  0.75000000  0.25000000  1
  Mg  Mg1  1  0.12500000  0.87500000  0.37500000  1
  Mg  Mg2  1  0.37500000  0.62500000  0.37500000  1
  Mg  Mg3  1  0.00000000  0.00000000  0.50000000  1
  Mg  Mg4  1  0.12500000  0.62500000  0.12500000  1
  Mg  Mg5  1  0.37500000  0.87500000  0.12500000  1
  Mg  Mg6  1  0.25000000  0.25000000  0.75000000  1
  Mg  Mg7  1  0.12500000  0.37500000  0.87500000  1
  Mg  Mg8  1  0.37500000  0.12500000  0.87500000  1
  Mg  Mg9  1  0.00000000  0.50000000  0.00000000  1
  Mg  Mg10  1  0.12500000  0.12500000  0.62500000  1
  Mg  Mg11  1  0.37500000  0.37500000  0.62500000  1
  Mg  Mg12  1  0.75000000  0.75000000  0.75000000  1
  Mg  Mg13  1  0.62500000  0.87500000  0.87500000  1
  Mg  Mg14  1  0.87500000  0.62500000  0.87500000  1
  Mg  Mg15  1  0.50000000  0.00000000  0.00000000  1
  Mg  Mg16  1  0.62500000  0.62500000  0.62500000  1
  Mg  Mg17  1  0.87500000  0.87500000  0.62500000  1
  Mg  Mg18  1  0.75000000  0.25000000  0.25000000  1
  Mg  Mg19  1  0.62500000  0.37500000  0.37500000  1
  Mg  Mg20  1  0.87500000  0.12500000  0.37500000  1
  Mg  Mg21  1  0.50000000  0.50000000  0.50000000  1
  Mg  Mg22  1  0.62500000  0.12500000  0.12500000  1
  Mg  Mg23  1  0.87500000  0.37500000  0.12500000  1
  Mn  Mn24  1  0.87500000  0.87500000  0.12500000  1
  Mn  Mn25  1  0.12500000  0.12500000  0.12500000  1
  Mn  Mn26  1  0.37500000  0.12500000  0.37500000  1
  Mn  Mn27  1  0.62500000  0.87500000  0.37500000  1
  Mn  Mn28  1  0.87500000  0.37500000  0.62500000  1
  Mn  Mn29  1  0.12500000  0.62500000  0.62500000  1
  Mn  Mn30  1  0.37500000  0.62500000  0.87500000  1
  Mn  Mn31  1  0.62500000  0.37500000  0.87500000  1
  Mn  Mn32  1  0.37500000  0.87500000  0.62500000  1
  Mn  Mn33  1  0.62500000  0.12500000  0.62500000  1
  Mn  Mn34  1  0.87500000  0.12500000  0.87500000  1
  Mn  Mn35  1  0.12500000  0.87500000  0.87500000  1
  Mn  Mn36  1  0.37500000  0.37500000  0.12500000  1
  Mn  Mn37  1  0.62500000  0.62500000  0.12500000  1
  Mn  Mn38  1  0.87500000  0.62500000  0.37500000  1
  Mn  Mn39  1  0.12500000  0.37500000  0.37500000  1
  Al  Al40  1  0.43287475  0.06712525  0.20069650  1
  Al  Al41  1  0.56712525  0.70069650  0.43287475  1
  Al  Al42  1  0.81712525  0.18287475  0.04930350  1
  Al  Al43  1  0.45069650  0.81712525  0.31712525  1
  Al  Al44  1  0.56712525  0.93287475  0.20069650  1
  Al  Al45  1  0.93287475  0.93287475  0.29930350  1
  Al  Al46  1  0.43287475  0.29930350  0.43287475  1
  Al  Al47  1  0.00000000  0.00000000  0.13741800  1
  Al  Al48  1  0.70069650  0.93287475  0.06712525  1
  Al  Al49  1  0.31712525  0.81712525  0.45069650  1
  Al  Al50  1  0.18287475  0.95069650  0.18287475  1
  Al  Al51  1  0.20069650  0.06712525  0.43287475  1
  Al  Al52  1  0.50000000  0.13741800  0.50000000  1
  Al  Al53  1  0.54930350  0.18287475  0.31712525  1
  Al  Al54  1  0.18287475  0.81712525  0.04930350  1
  Al  Al55  1  0.25000000  0.25000000  0.38741800  1
  Al  Al56  1  0.79930350  0.93287475  0.43287475  1
  Al  Al57  1  0.93287475  0.70069650  0.06712525  1
  Al  Al58  1  0.06712525  0.29930350  0.06712525  1
  Al  Al59  1  0.81712525  0.04930350  0.18287475  1
  Al  Al60  1  0.38741800  0.25000000  0.25000000  1
  Al  Al61  1  0.36258200  0.00000000  0.50000000  1
  Al  Al62  1  0.31712525  0.95069650  0.31712525  1
  Al  Al63  1  0.25000000  0.11258200  0.25000000  1
  Al  Al64  1  0.68287475  0.04930350  0.31712525  1
  Al  Al65  1  0.95069650  0.18287475  0.18287475  1
  Al  Al66  1  0.63741800  0.00000000  0.50000000  1
  Al  Al67  1  0.25000000  0.25000000  0.11258200  1
  Al  Al68  1  0.11258200  0.25000000  0.25000000  1
  Al  Al69  1  0.50000000  0.00000000  0.36258200  1
  Al  Al70  1  0.68287475  0.18287475  0.45069650  1
  Al  Al71  1  0.06712525  0.06712525  0.29930350  1
  Al  Al72  1  0.29930350  0.06712525  0.06712525  1
  Al  Al73  1  0.50000000  0.86258200  0.50000000  1
  Al  Al74  1  0.25000000  0.38741800  0.25000000  1
  Al  Al75  1  0.04930350  0.81712525  0.18287475  1
  Al  Al76  1  0.43287475  0.56712525  0.70069650  1
  Al  Al77  1  0.56712525  0.20069650  0.93287475  1
  Al  Al78  1  0.81712525  0.68287475  0.54930350  1
  Al  Al79  1  0.45069650  0.31712525  0.81712525  1
  Al  Al80  1  0.56712525  0.43287475  0.70069650  1
  Al  Al81  1  0.93287475  0.43287475  0.79930350  1
  Al  Al82  1  0.43287475  0.79930350  0.93287475  1
  Al  Al83  1  0.00000000  0.50000000  0.63741800  1
  Al  Al84  1  0.70069650  0.43287475  0.56712525  1
  Al  Al85  1  0.31712525  0.31712525  0.95069650  1
  Al  Al86  1  0.18287475  0.45069650  0.68287475  1
  Al  Al87  1  0.20069650  0.56712525  0.93287475  1
  Al  Al88  1  0.50000000  0.63741800  0.00000000  1
  Al  Al89  1  0.54930350  0.68287475  0.81712525  1
  Al  Al90  1  0.18287475  0.31712525  0.54930350  1
  Al  Al91  1  0.25000000  0.75000000  0.88741800  1
  Al  Al92  1  0.79930350  0.43287475  0.93287475  1
  Al  Al93  1  0.93287475  0.20069650  0.56712525  1
  Al  Al94  1  0.06712525  0.79930350  0.56712525  1
  Al  Al95  1  0.81712525  0.54930350  0.68287475  1
  Al  Al96  1  0.38741800  0.75000000  0.75000000  1
  Al  Al97  1  0.36258200  0.50000000  0.00000000  1
  Al  Al98  1  0.31712525  0.45069650  0.81712525  1
  Al  Al99  1  0.25000000  0.61258200  0.75000000  1
  Al  Al100  1  0.68287475  0.54930350  0.81712525  1
  Al  Al101  1  0.95069650  0.68287475  0.68287475  1
  Al  Al102  1  0.63741800  0.50000000  0.00000000  1
  Al  Al103  1  0.25000000  0.75000000  0.61258200  1
  Al  Al104  1  0.11258200  0.75000000  0.75000000  1
  Al  Al105  1  0.50000000  0.50000000  0.86258200  1
  Al  Al106  1  0.68287475  0.68287475  0.95069650  1
  Al  Al107  1  0.06712525  0.56712525  0.79930350  1
  Al  Al108  1  0.29930350  0.56712525  0.56712525  1
  Al  Al109  1  0.50000000  0.36258200  0.00000000  1
  Al  Al110  1  0.25000000  0.88741800  0.75000000  1
  Al  Al111  1  0.04930350  0.31712525  0.68287475  1
  Al  Al112  1  0.93287475  0.06712525  0.70069650  1
  Al  Al113  1  0.06712525  0.70069650  0.93287475  1
  Al  Al114  1  0.31712525  0.18287475  0.54930350  1
  Al  Al115  1  0.95069650  0.81712525  0.81712525  1
  Al  Al116  1  0.06712525  0.93287475  0.70069650  1
  Al  Al117  1  0.43287475  0.93287475  0.79930350  1
  Al  Al118  1  0.93287475  0.29930350  0.93287475  1
  Al  Al119  1  0.50000000  0.00000000  0.63741800  1
  Al  Al120  1  0.20069650  0.93287475  0.56712525  1
  Al  Al121  1  0.81712525  0.81712525  0.95069650  1
  Al  Al122  1  0.68287475  0.95069650  0.68287475  1
  Al  Al123  1  0.70069650  0.06712525  0.93287475  1
  Al  Al124  1  0.00000000  0.13741800  0.00000000  1
  Al  Al125  1  0.04930350  0.18287475  0.81712525  1
  Al  Al126  1  0.68287475  0.81712525  0.54930350  1
  Al  Al127  1  0.75000000  0.25000000  0.88741800  1
  Al  Al128  1  0.29930350  0.93287475  0.93287475  1
  Al  Al129  1  0.43287475  0.70069650  0.56712525  1
  Al  Al130  1  0.56712525  0.29930350  0.56712525  1
  Al  Al131  1  0.31712525  0.04930350  0.68287475  1
  Al  Al132  1  0.88741800  0.25000000  0.75000000  1
  Al  Al133  1  0.86258200  0.00000000  0.00000000  1
  Al  Al134  1  0.81712525  0.95069650  0.81712525  1
  Al  Al135  1  0.75000000  0.11258200  0.75000000  1
  Al  Al136  1  0.18287475  0.04930350  0.81712525  1
  Al  Al137  1  0.45069650  0.18287475  0.68287475  1
  Al  Al138  1  0.13741800  0.00000000  0.00000000  1
  Al  Al139  1  0.75000000  0.25000000  0.61258200  1
  Al  Al140  1  0.61258200  0.25000000  0.75000000  1
  Al  Al141  1  0.00000000  0.00000000  0.86258200  1
  Al  Al142  1  0.18287475  0.18287475  0.95069650  1
  Al  Al143  1  0.56712525  0.06712525  0.79930350  1
  Al  Al144  1  0.79930350  0.06712525  0.56712525  1
  Al  Al145  1  0.00000000  0.86258200  0.00000000  1
  Al  Al146  1  0.75000000  0.38741800  0.75000000  1
  Al  Al147  1  0.54930350  0.81712525  0.68287475  1
  Al  Al148  1  0.93287475  0.56712525  0.20069650  1
  Al  Al149  1  0.06712525  0.20069650  0.43287475  1
  Al  Al150  1  0.31712525  0.68287475  0.04930350  1
  Al  Al151  1  0.95069650  0.31712525  0.31712525  1
  Al  Al152  1  0.06712525  0.43287475  0.20069650  1
  Al  Al153  1  0.43287475  0.43287475  0.29930350  1
  Al  Al154  1  0.93287475  0.79930350  0.43287475  1
  Al  Al155  1  0.50000000  0.50000000  0.13741800  1
  Al  Al156  1  0.20069650  0.43287475  0.06712525  1
  Al  Al157  1  0.81712525  0.31712525  0.45069650  1
  Al  Al158  1  0.68287475  0.45069650  0.18287475  1
  Al  Al159  1  0.70069650  0.56712525  0.43287475  1
  Al  Al160  1  0.00000000  0.63741800  0.50000000  1
  Al  Al161  1  0.04930350  0.68287475  0.31712525  1
  Al  Al162  1  0.68287475  0.31712525  0.04930350  1
  Al  Al163  1  0.75000000  0.75000000  0.38741800  1
  Al  Al164  1  0.29930350  0.43287475  0.43287475  1
  Al  Al165  1  0.43287475  0.20069650  0.06712525  1
  Al  Al166  1  0.56712525  0.79930350  0.06712525  1
  Al  Al167  1  0.31712525  0.54930350  0.18287475  1
  Al  Al168  1  0.88741800  0.75000000  0.25000000  1
  Al  Al169  1  0.86258200  0.50000000  0.50000000  1
  Al  Al170  1  0.81712525  0.45069650  0.31712525  1
  Al  Al171  1  0.75000000  0.61258200  0.25000000  1
  Al  Al172  1  0.18287475  0.54930350  0.31712525  1
  Al  Al173  1  0.45069650  0.68287475  0.18287475  1
  Al  Al174  1  0.13741800  0.50000000  0.50000000  1
  Al  Al175  1  0.75000000  0.75000000  0.11258200  1
  Al  Al176  1  0.61258200  0.75000000  0.25000000  1
  Al  Al177  1  0.00000000  0.50000000  0.36258200  1
  Al  Al178  1  0.18287475  0.68287475  0.45069650  1
  Al  Al179  1  0.56712525  0.56712525  0.29930350  1
  Al  Al180  1  0.79930350  0.56712525  0.06712525  1
  Al  Al181  1  0.00000000  0.36258200  0.50000000  1
  Al  Al182  1  0.75000000  0.88741800  0.25000000  1
  Al  Al183  1  0.54930350  0.31712525  0.18287475  1
