# generated using pymatgen
data_NbCrO4
_symmetry_space_group_name_H-M   'P 1'
_cell_length_a   6.57507978
_cell_length_b   6.70521006
_cell_length_c   3.09895800
_cell_angle_alpha   90.00000000
_cell_angle_beta   90.00000000
_cell_angle_gamma   90.00000000
_symmetry_Int_Tables_number   1
_chemical_formula_structural   NbCrO4
_chemical_formula_sum   'Nb2 Cr2 O8'
_cell_volume   136.62466335
_cell_formula_units_Z   2
loop_
 _symmetry_equiv_pos_site_id
 _symmetry_equiv_pos_as_xyz
  1  'x, y, z'
loop_
 _atom_site_type_symbol
 _atom_site_label
 _atom_site_symmetry_multiplicity
 _atom_site_fract_x
 _atom_site_fract_y
 _atom_site_fract_z
 _atom_site_occupancy
  Nb  Nb0  1  0.50000000  0.00000000  0.00000000  1
  Nb  Nb1  1  0.00000000  0.50000000  0.00000000  1
  Cr  Cr2  1  0.00000000  0.00000000  0.50000000  1
  Cr  Cr3  1  0.50000000  0.50000000  0.50000000  1
  O  O4  1  0.80321050  0.00000000  0.00000000  1
  O  O5  1  0.19678950  0.00000000  0.00000000  1
  O  O6  1  0.00000000  0.30476150  0.50000000  1
  O  O7  1  0.00000000  0.69523850  0.50000000  1
  O  O8  1  0.30321050  0.50000000  0.00000000  1
  O  O9  1  0.69678950  0.50000000  0.00000000  1
  O  O10  1  0.50000000  0.80476150  0.50000000  1
  O  O11  1  0.50000000  0.19523850  0.50000000  1
