# generated using pymatgen
data_HgP2Se
_symmetry_space_group_name_H-M   'P 1'
_cell_length_a   6.73186600
_cell_length_b   6.73186600
_cell_length_c   6.73186600
_cell_angle_alpha   90.00000000
_cell_angle_beta   90.00000000
_cell_angle_gamma   90.00000000
_symmetry_Int_Tables_number   1
_chemical_formula_structural   HgP2Se
_chemical_formula_sum   'Hg4 P8 Se4'
_cell_volume   305.07483696
_cell_formula_units_Z   4
loop_
 _symmetry_equiv_pos_site_id
 _symmetry_equiv_pos_as_xyz
  1  'x, y, z'
loop_
 _atom_site_type_symbol
 _atom_site_label
 _atom_site_symmetry_multiplicity
 _atom_site_fract_x
 _atom_site_fract_y
 _atom_site_fract_z
 _atom_site_occupancy
  Hg  Hg0  1  0.50000000  0.00000000  0.00000000  1
  Hg  Hg1  1  0.50000000  0.50000000  0.50000000  1
  Hg  Hg2  1  0.00000000  0.00000000  0.50000000  1
  Hg  Hg3  1  0.00000000  0.50000000  0.00000000  1
  P  P4  1  0.00000000  0.00000000  0.00000000  1
  P  P5  1  0.25000000  0.25000000  0.75000000  1
  P  P6  1  0.00000000  0.50000000  0.50000000  1
  P  P7  1  0.25000000  0.75000000  0.25000000  1
  P  P8  1  0.50000000  0.00000000  0.50000000  1
  P  P9  1  0.75000000  0.25000000  0.25000000  1
  P  P10  1  0.50000000  0.50000000  0.00000000  1
  P  P11  1  0.75000000  0.75000000  0.75000000  1
  Se  Se12  1  0.25000000  0.25000000  0.25000000  1
  Se  Se13  1  0.25000000  0.75000000  0.75000000  1
  Se  Se14  1  0.75000000  0.25000000  0.75000000  1
  Se  Se15  1  0.75000000  0.75000000  0.25000000  1
