# generated using pymatgen
data_YbBr3
_symmetry_space_group_name_H-M   'P 1'
_cell_length_a   7.48362026
_cell_length_b   7.48362026
_cell_length_c   17.16417496
_cell_angle_alpha   90.00000000
_cell_angle_beta   90.00000000
_cell_angle_gamma   120.00000000
_symmetry_Int_Tables_number   1
_chemical_formula_structural   YbBr3
_chemical_formula_sum   'Yb6 Br18'
_cell_volume   832.48621101
_cell_formula_units_Z   6
loop_
 _symmetry_equiv_pos_site_id
 _symmetry_equiv_pos_as_xyz
  1  'x, y, z'
loop_
 _atom_site_type_symbol
 _atom_site_label
 _atom_site_symmetry_multiplicity
 _atom_site_fract_x
 _atom_site_fract_y
 _atom_site_fract_z
 _atom_site_occupancy
  Yb  Yb0  1  0.33333333  0.66666667  0.49520267  1
  Yb  Yb1  1  0.33333333  0.66666667  0.83813067  1
  Yb  Yb2  1  0.00000000  0.00000000  0.82853600  1
  Yb  Yb3  1  0.00000000  0.00000000  0.17146400  1
  Yb  Yb4  1  0.66666667  0.33333333  0.16186933  1
  Yb  Yb5  1  0.66666667  0.33333333  0.50479733  1
  Br  Br6  1  0.65912867  0.65651833  0.24994233  1
  Br  Br7  1  0.34348167  0.00261033  0.24994233  1
  Br  Br8  1  0.99738967  0.34087133  0.24994233  1
  Br  Br9  1  0.66927700  0.99246200  0.08339100  1
  Br  Br10  1  0.32318500  0.33072300  0.08339100  1
  Br  Br11  1  0.00753800  0.67681500  0.08339100  1
  Br  Br12  1  0.32579533  0.98985167  0.58327567  1
  Br  Br13  1  0.01014833  0.33594367  0.58327567  1
  Br  Br14  1  0.66405633  0.67420467  0.58327567  1
  Br  Br15  1  0.33594367  0.32579533  0.41672433  1
  Br  Br16  1  0.98985167  0.66405633  0.41672433  1
  Br  Br17  1  0.67420467  0.01014833  0.41672433  1
  Br  Br18  1  0.99246200  0.32318500  0.91660900  1
  Br  Br19  1  0.67681500  0.66927700  0.91660900  1
  Br  Br20  1  0.33072300  0.00753800  0.91660900  1
  Br  Br21  1  0.00261033  0.65912867  0.75005767  1
  Br  Br22  1  0.65651833  0.99738967  0.75005767  1
  Br  Br23  1  0.34087133  0.34348167  0.75005767  1
