# generated using pymatgen
data_Sm4Si3Pd4
_symmetry_space_group_name_H-M   'P 1'
_cell_length_a   21.32062800
_cell_length_b   5.60624800
_cell_length_c   7.92735281
_cell_angle_alpha   90.00000000
_cell_angle_beta   108.90054504
_cell_angle_gamma   90.00000000
_symmetry_Int_Tables_number   1
_chemical_formula_structural   Sm4Si3Pd4
_chemical_formula_sum   'Sm16 Si12 Pd16'
_cell_volume   896.45685456
_cell_formula_units_Z   4
loop_
 _symmetry_equiv_pos_site_id
 _symmetry_equiv_pos_as_xyz
  1  'x, y, z'
loop_
 _atom_site_type_symbol
 _atom_site_label
 _atom_site_symmetry_multiplicity
 _atom_site_fract_x
 _atom_site_fract_y
 _atom_site_fract_z
 _atom_site_occupancy
  Sm  Sm0  1  0.32991650  0.12459550  0.60305100  1
  Sm  Sm1  1  0.32991650  0.87540450  0.10305100  1
  Sm  Sm2  1  0.17008350  0.62459550  0.89694900  1
  Sm  Sm3  1  0.43208350  0.63379150  0.82890400  1
  Sm  Sm4  1  0.43208350  0.36620850  0.32890400  1
  Sm  Sm5  1  0.06791650  0.86620850  0.17109600  1
  Sm  Sm6  1  0.06791650  0.13379150  0.67109600  1
  Sm  Sm7  1  0.17008350  0.37540450  0.39694900  1
  Sm  Sm8  1  0.82991650  0.62459550  0.60305100  1
  Sm  Sm9  1  0.82991650  0.37540450  0.10305100  1
  Sm  Sm10  1  0.67008350  0.12459550  0.89694900  1
  Sm  Sm11  1  0.93208350  0.13379150  0.82890400  1
  Sm  Sm12  1  0.93208350  0.86620850  0.32890400  1
  Sm  Sm13  1  0.56791650  0.36620850  0.17109600  1
  Sm  Sm14  1  0.56791650  0.63379150  0.67109600  1
  Sm  Sm15  1  0.67008350  0.87540450  0.39694900  1
  Si  Si16  1  0.32849100  0.37959300  0.94912500  1
  Si  Si17  1  0.17150900  0.12040700  0.05087500  1
  Si  Si18  1  0.17150900  0.87959300  0.55087500  1
  Si  Si19  1  0.00000000  0.34802900  0.25000000  1
  Si  Si20  1  0.32849100  0.62040700  0.44912500  1
  Si  Si21  1  0.00000000  0.65197100  0.75000000  1
  Si  Si22  1  0.82849100  0.87959300  0.94912500  1
  Si  Si23  1  0.67150900  0.62040700  0.05087500  1
  Si  Si24  1  0.67150900  0.37959300  0.55087500  1
  Si  Si25  1  0.50000000  0.84802900  0.25000000  1
  Si  Si26  1  0.82849100  0.12040700  0.44912500  1
  Si  Si27  1  0.50000000  0.15197100  0.75000000  1
  Pd  Pd28  1  0.43341600  0.13119500  0.98126900  1
  Pd  Pd29  1  0.22396350  0.86088450  0.30525500  1
  Pd  Pd30  1  0.43341600  0.86880500  0.48126900  1
  Pd  Pd31  1  0.06658400  0.36880500  0.01873100  1
  Pd  Pd32  1  0.22396350  0.13911550  0.80525500  1
  Pd  Pd33  1  0.27603650  0.36088450  0.19474500  1
  Pd  Pd34  1  0.27603650  0.63911550  0.69474500  1
  Pd  Pd35  1  0.06658400  0.63119500  0.51873100  1
  Pd  Pd36  1  0.93341600  0.63119500  0.98126900  1
  Pd  Pd37  1  0.72396350  0.36088450  0.30525500  1
  Pd  Pd38  1  0.93341600  0.36880500  0.48126900  1
  Pd  Pd39  1  0.56658400  0.86880500  0.01873100  1
  Pd  Pd40  1  0.72396350  0.63911550  0.80525500  1
  Pd  Pd41  1  0.77603650  0.86088450  0.19474500  1
  Pd  Pd42  1  0.77603650  0.13911550  0.69474500  1
  Pd  Pd43  1  0.56658400  0.13119500  0.51873100  1
