# generated using pymatgen
data_Cs2NaFeF6
_symmetry_space_group_name_H-M   'P 1'
_cell_length_a   6.37154572
_cell_length_b   6.37154572
_cell_length_c   31.05070398
_cell_angle_alpha   90.00000000
_cell_angle_beta   90.00000000
_cell_angle_gamma   120.00000000
_symmetry_Int_Tables_number   1
_chemical_formula_structural   Cs2NaFeF6
_chemical_formula_sum   'Cs12 Na6 Fe6 F36'
_cell_volume   1091.67079149
_cell_formula_units_Z   6
loop_
 _symmetry_equiv_pos_site_id
 _symmetry_equiv_pos_as_xyz
  1  'x, y, z'
loop_
 _atom_site_type_symbol
 _atom_site_label
 _atom_site_symmetry_multiplicity
 _atom_site_fract_x
 _atom_site_fract_y
 _atom_site_fract_z
 _atom_site_occupancy
  Cs  Cs0  1  0.00000000  0.00000000  0.12750200  1
  Cs  Cs1  1  0.66666667  0.33333333  0.20583133  1
  Cs  Cs2  1  0.00000000  0.00000000  0.28202300  1
  Cs  Cs3  1  0.66666667  0.33333333  0.05131033  1
  Cs  Cs4  1  0.66666667  0.33333333  0.46083533  1
  Cs  Cs5  1  0.33333333  0.66666667  0.53916467  1
  Cs  Cs6  1  0.66666667  0.33333333  0.61535633  1
  Cs  Cs7  1  0.33333333  0.66666667  0.38464367  1
  Cs  Cs8  1  0.33333333  0.66666667  0.79416867  1
  Cs  Cs9  1  0.00000000  0.00000000  0.87249800  1
  Cs  Cs10  1  0.33333333  0.66666667  0.94868967  1
  Cs  Cs11  1  0.00000000  0.00000000  0.71797700  1
  Na  Na12  1  0.33333333  0.66666667  0.06952367  1
  Na  Na13  1  0.33333333  0.66666667  0.26380967  1
  Na  Na14  1  0.00000000  0.00000000  0.40285700  1
  Na  Na15  1  0.00000000  0.00000000  0.59714300  1
  Na  Na16  1  0.66666667  0.33333333  0.73619033  1
  Na  Na17  1  0.66666667  0.33333333  0.93047633  1
  Fe  Fe18  1  0.00000000  0.00000000  0.00000000  1
  Fe  Fe19  1  0.33333333  0.66666667  0.16666667  1
  Fe  Fe20  1  0.66666667  0.33333333  0.33333333  1
  Fe  Fe21  1  1.00000000  1.00000000  0.50000000  1
  Fe  Fe22  1  0.33333333  0.66666667  0.66666667  1
  Fe  Fe23  1  0.66666667  0.33333333  0.83333333  1
  F  F24  1  0.47565433  0.95130867  0.12864167  1
  F  F25  1  0.47565433  0.52434567  0.12864167  1
  F  F26  1  0.04869133  0.52434567  0.12864167  1
  F  F27  1  0.61797533  0.80898767  0.20469167  1
  F  F28  1  0.19101233  0.38202467  0.20469167  1
  F  F29  1  0.19101233  0.80898767  0.20469167  1
  F  F30  1  0.51908567  0.03817133  0.29687433  1
  F  F31  1  0.51908567  0.48091433  0.29687433  1
  F  F32  1  0.96182867  0.48091433  0.29687433  1
  F  F33  1  0.70483800  0.85241900  0.03645900  1
  F  F34  1  0.14758100  0.29516200  0.03645900  1
  F  F35  1  0.14758100  0.85241900  0.03645900  1
  F  F36  1  0.14232100  0.28464200  0.46197500  1
  F  F37  1  0.14232100  0.85767900  0.46197500  1
  F  F38  1  0.71535800  0.85767900  0.46197500  1
  F  F39  1  0.28464200  0.14232100  0.53802500  1
  F  F40  1  0.85767900  0.71535800  0.53802500  1
  F  F41  1  0.85767900  0.14232100  0.53802500  1
  F  F42  1  0.18575233  0.37150467  0.63020767  1
  F  F43  1  0.18575233  0.81424767  0.63020767  1
  F  F44  1  0.62849533  0.81424767  0.63020767  1
  F  F45  1  0.37150467  0.18575233  0.36979233  1
  F  F46  1  0.81424767  0.62849533  0.36979233  1
  F  F47  1  0.81424767  0.18575233  0.36979233  1
  F  F48  1  0.80898767  0.61797533  0.79530833  1
  F  F49  1  0.80898767  0.19101233  0.79530833  1
  F  F50  1  0.38202467  0.19101233  0.79530833  1
  F  F51  1  0.95130867  0.47565433  0.87135833  1
  F  F52  1  0.52434567  0.04869133  0.87135833  1
  F  F53  1  0.52434567  0.47565433  0.87135833  1
  F  F54  1  0.85241900  0.70483800  0.96354100  1
  F  F55  1  0.85241900  0.14758100  0.96354100  1
  F  F56  1  0.29516200  0.14758100  0.96354100  1
  F  F57  1  0.03817133  0.51908567  0.70312567  1
  F  F58  1  0.48091433  0.96182867  0.70312567  1
  F  F59  1  0.48091433  0.51908567  0.70312567  1
