# generated using pymatgen
data_CoSn2H12(OF)6
_symmetry_space_group_name_H-M   'P 1'
_cell_length_a   6.78802467
_cell_length_b   7.08534358
_cell_length_c   7.21537021
_cell_angle_alpha   76.78836868
_cell_angle_beta   79.02389157
_cell_angle_gamma   70.52018844
_symmetry_Int_Tables_number   1
_chemical_formula_structural   CoSn2H12(OF)6
_chemical_formula_sum   'Co1 Sn2 H12 O6 F6'
_cell_volume   316.02894180
_cell_formula_units_Z   1
loop_
 _symmetry_equiv_pos_site_id
 _symmetry_equiv_pos_as_xyz
  1  'x, y, z'
loop_
 _atom_site_type_symbol
 _atom_site_label
 _atom_site_symmetry_multiplicity
 _atom_site_fract_x
 _atom_site_fract_y
 _atom_site_fract_z
 _atom_site_occupancy
  Co  Co0  1  0.00000000  0.00000000  0.00000000  1
  Sn  Sn1  1  0.66470175  0.67722650  0.63730175  1
  Sn  Sn2  1  0.33529825  0.32277350  0.36269825  1
  H  H3  1  0.75394825  0.75468650  0.04275025  1
  H  H4  1  0.24605175  0.24531350  0.95724975  1
  H  H5  1  0.77405275  0.37087000  0.06891225  1
  H  H6  1  0.22594725  0.62913000  0.93108775  1
  H  H7  1  0.07858600  0.80969650  0.36384350  1
  H  H8  1  0.92141400  0.19030350  0.63615650  1
  H  H9  1  0.35109025  0.08334975  0.81600850  1
  H  H10  1  0.64890975  0.91665025  0.18399150  1
  H  H11  1  0.89197825  0.25941625  0.25219100  1
  H  H12  1  0.10802175  0.74058375  0.74780900  1
  H  H13  1  0.25859975  0.91305375  0.27157000  1
  H  H14  1  0.74140025  0.08694625  0.72843000  1
  O  O15  1  0.18688400  0.76078725  0.84036925  1
  O  O16  1  0.81311600  0.23921275  0.15963075  1
  O  O17  1  0.21553825  0.15812025  0.88332000  1
  O  O18  1  0.78446175  0.84187975  0.11668000  1
  O  O19  1  0.83566425  0.15393625  0.75846100  1
  O  O20  1  0.16433575  0.84606375  0.24153900  1
  F  F21  1  0.97186600  0.71072750  0.58043050  1
  F  F22  1  0.02813400  0.28927250  0.41956950  1
  F  F23  1  0.57069825  0.98209575  0.68528250  1
  F  F24  1  0.42930175  0.01790425  0.31471750  1
  F  F25  1  0.28853250  0.40267075  0.07121625  1
  F  F26  1  0.71146750  0.59732925  0.92878375  1
