# generated using pymatgen
data_Lu4V4O13
_symmetry_space_group_name_H-M   'P 1'
_cell_length_a   12.12280400
_cell_length_b   7.18200600
_cell_length_c   12.47600752
_cell_angle_alpha   90.00000000
_cell_angle_beta   110.81950877
_cell_angle_gamma   90.00000000
_symmetry_Int_Tables_number   1
_chemical_formula_structural   Lu4V4O13
_chemical_formula_sum   'Lu16 V16 O52'
_cell_volume   1015.31056776
_cell_formula_units_Z   4
loop_
 _symmetry_equiv_pos_site_id
 _symmetry_equiv_pos_as_xyz
  1  'x, y, z'
loop_
 _atom_site_type_symbol
 _atom_site_label
 _atom_site_symmetry_multiplicity
 _atom_site_fract_x
 _atom_site_fract_y
 _atom_site_fract_z
 _atom_site_occupancy
  Lu  Lu0  1  0.25374300  0.00000000  0.24425600  1
  Lu  Lu1  1  0.50751450  0.75904250  0.27051000  1
  Lu  Lu2  1  0.00751450  0.74095750  0.27051000  1
  Lu  Lu3  1  0.24625700  0.50000000  0.75574400  1
  Lu  Lu4  1  0.49248550  0.75904250  0.72949000  1
  Lu  Lu5  1  0.00000000  0.50000000  0.00000000  1
  Lu  Lu6  1  0.99248550  0.74095750  0.72949000  1
  Lu  Lu7  1  0.00000000  0.00000000  0.00000000  1
  Lu  Lu8  1  0.75374300  0.50000000  0.24425600  1
  Lu  Lu9  1  0.00751450  0.25904250  0.27051000  1
  Lu  Lu10  1  0.50751450  0.24095750  0.27051000  1
  Lu  Lu11  1  0.74625700  0.00000000  0.75574400  1
  Lu  Lu12  1  0.99248550  0.25904250  0.72949000  1
  Lu  Lu13  1  0.50000000  0.00000000  0.00000000  1
  Lu  Lu14  1  0.49248550  0.24095750  0.72949000  1
  Lu  Lu15  1  0.50000000  0.50000000  0.00000000  1
  V  V16  1  0.75697900  0.50000000  0.75409100  1
  V  V17  1  0.75000000  0.75000000  0.00000000  1
  V  V18  1  0.50000000  0.00000000  0.50000000  1
  V  V19  1  0.25000000  0.75000000  0.00000000  1
  V  V20  1  0.00000000  0.00000000  0.50000000  1
  V  V21  1  0.74302100  0.00000000  0.24590900  1
  V  V22  1  0.75000000  0.25000000  0.50000000  1
  V  V23  1  0.75000000  0.75000000  0.50000000  1
  V  V24  1  0.25697900  0.00000000  0.75409100  1
  V  V25  1  0.25000000  0.25000000  0.00000000  1
  V  V26  1  0.00000000  0.50000000  0.50000000  1
  V  V27  1  0.75000000  0.25000000  0.00000000  1
  V  V28  1  0.50000000  0.50000000  0.50000000  1
  V  V29  1  0.24302100  0.50000000  0.24590900  1
  V  V30  1  0.25000000  0.75000000  0.50000000  1
  V  V31  1  0.25000000  0.25000000  0.50000000  1
  O  O32  1  0.75930200  0.19548800  0.15754500  1
  O  O33  1  0.28061200  0.50000000  0.94160300  1
  O  O34  1  0.75930200  0.80451200  0.15754500  1
  O  O35  1  0.05809500  0.76102800  0.92199400  1
  O  O36  1  0.06602700  0.50000000  0.67779900  1
  O  O37  1  0.57769200  0.00000000  0.19620000  1
  O  O38  1  0.05809500  0.23897200  0.92199400  1
  O  O39  1  0.79919400  0.76269900  0.67188700  1
  O  O40  1  0.92230800  0.50000000  0.80380000  1
  O  O41  1  0.44190500  0.26102800  0.07800600  1
  O  O42  1  0.80390600  0.50000000  0.49474300  1
  O  O43  1  0.44190500  0.73897200  0.07800600  1
  O  O44  1  0.79919400  0.23730100  0.67188700  1
  O  O45  1  0.74069800  0.69548800  0.84245500  1
  O  O46  1  0.58181800  0.71912100  0.46447000  1
  O  O47  1  0.57873800  0.50000000  0.67928200  1
  O  O48  1  0.21938800  0.00000000  0.05839700  1
  O  O49  1  0.74069800  0.30451200  0.84245500  1
  O  O50  1  0.08181800  0.78087900  0.46447000  1
  O  O51  1  0.41818200  0.71912100  0.53553000  1
  O  O52  1  0.92126200  0.00000000  0.32071800  1
  O  O53  1  0.91818200  0.78087900  0.53553000  1
  O  O54  1  0.70080600  0.26269900  0.32811300  1
  O  O55  1  0.69609400  0.00000000  0.50525700  1
  O  O56  1  0.70080600  0.73730100  0.32811300  1
  O  O57  1  0.43397300  0.00000000  0.32220100  1
  O  O58  1  0.25930200  0.69548800  0.15754500  1
  O  O59  1  0.78061200  0.00000000  0.94160300  1
  O  O60  1  0.25930200  0.30451200  0.15754500  1
  O  O61  1  0.55809500  0.26102800  0.92199400  1
  O  O62  1  0.56602700  0.00000000  0.67779900  1
  O  O63  1  0.07769200  0.50000000  0.19620000  1
  O  O64  1  0.55809500  0.73897200  0.92199400  1
  O  O65  1  0.29919400  0.26269900  0.67188700  1
  O  O66  1  0.42230800  0.00000000  0.80380000  1
  O  O67  1  0.94190500  0.76102800  0.07800600  1
  O  O68  1  0.30390600  0.00000000  0.49474300  1
  O  O69  1  0.94190500  0.23897200  0.07800600  1
  O  O70  1  0.29919400  0.73730100  0.67188700  1
  O  O71  1  0.24069800  0.19548800  0.84245500  1
  O  O72  1  0.08181800  0.21912100  0.46447000  1
  O  O73  1  0.07873800  0.00000000  0.67928200  1
  O  O74  1  0.71938800  0.50000000  0.05839700  1
  O  O75  1  0.24069800  0.80451200  0.84245500  1
  O  O76  1  0.58181800  0.28087900  0.46447000  1
  O  O77  1  0.91818200  0.21912100  0.53553000  1
  O  O78  1  0.42126200  0.50000000  0.32071800  1
  O  O79  1  0.41818200  0.28087900  0.53553000  1
  O  O80  1  0.20080600  0.76269900  0.32811300  1
  O  O81  1  0.19609400  0.50000000  0.50525700  1
  O  O82  1  0.20080600  0.23730100  0.32811300  1
  O  O83  1  0.93397300  0.50000000  0.32220100  1
