# generated using pymatgen
data_CsNi2F6
_symmetry_space_group_name_H-M   'P 1'
_cell_length_a   10.30131400
_cell_length_b   10.30131400
_cell_length_c   10.30131400
_cell_angle_alpha   90.00000000
_cell_angle_beta   90.00000000
_cell_angle_gamma   90.00000000
_symmetry_Int_Tables_number   1
_chemical_formula_structural   CsNi2F6
_chemical_formula_sum   'Cs8 Ni16 F48'
_cell_volume   1093.14526013
_cell_formula_units_Z   8
loop_
 _symmetry_equiv_pos_site_id
 _symmetry_equiv_pos_as_xyz
  1  'x, y, z'
loop_
 _atom_site_type_symbol
 _atom_site_label
 _atom_site_symmetry_multiplicity
 _atom_site_fract_x
 _atom_site_fract_y
 _atom_site_fract_z
 _atom_site_occupancy
  Cs  Cs0  1  0.25000000  0.75000000  0.25000000  1
  Cs  Cs1  1  0.00000000  0.00000000  0.50000000  1
  Cs  Cs2  1  0.25000000  0.25000000  0.75000000  1
  Cs  Cs3  1  0.00000000  0.50000000  0.00000000  1
  Cs  Cs4  1  0.75000000  0.75000000  0.75000000  1
  Cs  Cs5  1  0.50000000  0.00000000  0.00000000  1
  Cs  Cs6  1  0.75000000  0.25000000  0.25000000  1
  Cs  Cs7  1  0.50000000  0.50000000  0.50000000  1
  Ni  Ni8  1  0.62500000  0.87500000  0.37500000  1
  Ni  Ni9  1  0.87500000  0.87500000  0.12500000  1
  Ni  Ni10  1  0.37500000  0.12500000  0.37500000  1
  Ni  Ni11  1  0.12500000  0.12500000  0.12500000  1
  Ni  Ni12  1  0.62500000  0.37500000  0.87500000  1
  Ni  Ni13  1  0.87500000  0.37500000  0.62500000  1
  Ni  Ni14  1  0.37500000  0.62500000  0.87500000  1
  Ni  Ni15  1  0.12500000  0.62500000  0.62500000  1
  Ni  Ni16  1  0.12500000  0.87500000  0.87500000  1
  Ni  Ni17  1  0.37500000  0.87500000  0.62500000  1
  Ni  Ni18  1  0.87500000  0.12500000  0.87500000  1
  Ni  Ni19  1  0.62500000  0.12500000  0.62500000  1
  Ni  Ni20  1  0.12500000  0.37500000  0.37500000  1
  Ni  Ni21  1  0.37500000  0.37500000  0.12500000  1
  Ni  Ni22  1  0.87500000  0.62500000  0.37500000  1
  Ni  Ni23  1  0.62500000  0.62500000  0.12500000  1
  F  F24  1  0.05599100  0.25000000  0.25000000  1
  F  F25  1  0.50000000  0.00000000  0.30599100  1
  F  F26  1  0.00000000  0.00000000  0.19400900  1
  F  F27  1  0.44400900  0.25000000  0.25000000  1
  F  F28  1  0.69400900  0.00000000  0.50000000  1
  F  F29  1  0.25000000  0.25000000  0.44400900  1
  F  F30  1  0.25000000  0.05599100  0.25000000  1
  F  F31  1  0.50000000  0.19400900  0.50000000  1
  F  F32  1  0.50000000  0.80599100  0.50000000  1
  F  F33  1  0.25000000  0.44400900  0.25000000  1
  F  F34  1  0.30599100  0.00000000  0.50000000  1
  F  F35  1  0.25000000  0.25000000  0.05599100  1
  F  F36  1  0.05599100  0.75000000  0.75000000  1
  F  F37  1  0.50000000  0.50000000  0.80599100  1
  F  F38  1  0.00000000  0.50000000  0.69400900  1
  F  F39  1  0.44400900  0.75000000  0.75000000  1
  F  F40  1  0.69400900  0.50000000  0.00000000  1
  F  F41  1  0.25000000  0.75000000  0.94400900  1
  F  F42  1  0.25000000  0.55599100  0.75000000  1
  F  F43  1  0.50000000  0.69400900  0.00000000  1
  F  F44  1  0.50000000  0.30599100  0.00000000  1
  F  F45  1  0.25000000  0.94400900  0.75000000  1
  F  F46  1  0.30599100  0.50000000  0.00000000  1
  F  F47  1  0.25000000  0.75000000  0.55599100  1
  F  F48  1  0.55599100  0.25000000  0.75000000  1
  F  F49  1  0.00000000  0.00000000  0.80599100  1
  F  F50  1  0.50000000  0.00000000  0.69400900  1
  F  F51  1  0.94400900  0.25000000  0.75000000  1
  F  F52  1  0.19400900  0.00000000  0.00000000  1
  F  F53  1  0.75000000  0.25000000  0.94400900  1
  F  F54  1  0.75000000  0.05599100  0.75000000  1
  F  F55  1  0.00000000  0.19400900  0.00000000  1
  F  F56  1  0.00000000  0.80599100  0.00000000  1
  F  F57  1  0.75000000  0.44400900  0.75000000  1
  F  F58  1  0.80599100  0.00000000  0.00000000  1
  F  F59  1  0.75000000  0.25000000  0.55599100  1
  F  F60  1  0.55599100  0.75000000  0.25000000  1
  F  F61  1  0.00000000  0.50000000  0.30599100  1
  F  F62  1  0.50000000  0.50000000  0.19400900  1
  F  F63  1  0.94400900  0.75000000  0.25000000  1
  F  F64  1  0.19400900  0.50000000  0.50000000  1
  F  F65  1  0.75000000  0.75000000  0.44400900  1
  F  F66  1  0.75000000  0.55599100  0.25000000  1
  F  F67  1  0.00000000  0.69400900  0.50000000  1
  F  F68  1  0.00000000  0.30599100  0.50000000  1
  F  F69  1  0.75000000  0.94400900  0.25000000  1
  F  F70  1  0.80599100  0.50000000  0.50000000  1
  F  F71  1  0.75000000  0.75000000  0.05599100  1
