# generated using pymatgen
data_In2Te3
_symmetry_space_group_name_H-M   'P 1'
_cell_length_a   18.97440800
_cell_length_b   18.97440800
_cell_length_c   18.97440800
_cell_angle_alpha   90.00000000
_cell_angle_beta   90.00000000
_cell_angle_gamma   90.00000000
_symmetry_Int_Tables_number   1
_chemical_formula_structural   In2Te3
_chemical_formula_sum   'In72 Te108'
_cell_volume   6831.32117941
_cell_formula_units_Z   36
loop_
 _symmetry_equiv_pos_site_id
 _symmetry_equiv_pos_as_xyz
  1  'x, y, z'
loop_
 _atom_site_type_symbol
 _atom_site_label
 _atom_site_symmetry_multiplicity
 _atom_site_fract_x
 _atom_site_fract_y
 _atom_site_fract_z
 _atom_site_occupancy
  In  In0  1  0.74646200  0.07924950  0.92075050  1
  In  In1  1  0.25000000  0.08139600  0.75000000  1
  In  In2  1  0.24646200  0.42075050  0.07924950  1
  In  In3  1  0.92075050  0.25353800  0.92075050  1
  In  In4  1  0.42075050  0.24646200  0.07924950  1
  In  In5  1  0.57924950  0.07924950  0.75353800  1
  In  In6  1  0.75353800  0.42075050  0.92075050  1
  In  In7  1  0.25000000  0.41860400  0.75000000  1
  In  In8  1  0.57924950  0.24646200  0.92075050  1
  In  In9  1  0.25000000  0.25000000  0.91860400  1
  In  In10  1  0.08139600  0.25000000  0.75000000  1
  In  In11  1  0.42075050  0.07924950  0.24646200  1
  In  In12  1  0.07924950  0.25353800  0.07924950  1
  In  In13  1  0.92075050  0.42075050  0.75353800  1
  In  In14  1  0.25353800  0.07924950  0.07924950  1
  In  In15  1  0.25000000  0.25000000  0.58139600  1
  In  In16  1  0.41860400  0.25000000  0.75000000  1
  In  In17  1  0.07924950  0.42075050  0.24646200  1
  In  In18  1  0.74646200  0.57924950  0.42075050  1
  In  In19  1  0.25000000  0.58139600  0.25000000  1
  In  In20  1  0.24646200  0.92075050  0.57924950  1
  In  In21  1  0.92075050  0.75353800  0.42075050  1
  In  In22  1  0.42075050  0.74646200  0.57924950  1
  In  In23  1  0.57924950  0.57924950  0.25353800  1
  In  In24  1  0.75353800  0.92075050  0.42075050  1
  In  In25  1  0.25000000  0.91860400  0.25000000  1
  In  In26  1  0.57924950  0.74646200  0.42075050  1
  In  In27  1  0.25000000  0.75000000  0.41860400  1
  In  In28  1  0.08139600  0.75000000  0.25000000  1
  In  In29  1  0.42075050  0.57924950  0.74646200  1
  In  In30  1  0.07924950  0.75353800  0.57924950  1
  In  In31  1  0.92075050  0.92075050  0.25353800  1
  In  In32  1  0.25353800  0.57924950  0.57924950  1
  In  In33  1  0.25000000  0.75000000  0.08139600  1
  In  In34  1  0.41860400  0.75000000  0.25000000  1
  In  In35  1  0.07924950  0.92075050  0.74646200  1
  In  In36  1  0.24646200  0.07924950  0.42075050  1
  In  In37  1  0.75000000  0.08139600  0.25000000  1
  In  In38  1  0.74646200  0.42075050  0.57924950  1
  In  In39  1  0.42075050  0.25353800  0.42075050  1
  In  In40  1  0.92075050  0.24646200  0.57924950  1
  In  In41  1  0.07924950  0.07924950  0.25353800  1
  In  In42  1  0.25353800  0.42075050  0.42075050  1
  In  In43  1  0.75000000  0.41860400  0.25000000  1
  In  In44  1  0.07924950  0.24646200  0.42075050  1
  In  In45  1  0.75000000  0.25000000  0.41860400  1
  In  In46  1  0.58139600  0.25000000  0.25000000  1
  In  In47  1  0.92075050  0.07924950  0.74646200  1
  In  In48  1  0.57924950  0.25353800  0.57924950  1
  In  In49  1  0.42075050  0.42075050  0.25353800  1
  In  In50  1  0.75353800  0.07924950  0.57924950  1
  In  In51  1  0.75000000  0.25000000  0.08139600  1
  In  In52  1  0.91860400  0.25000000  0.25000000  1
  In  In53  1  0.57924950  0.42075050  0.74646200  1
  In  In54  1  0.24646200  0.57924950  0.92075050  1
  In  In55  1  0.75000000  0.58139600  0.75000000  1
  In  In56  1  0.74646200  0.92075050  0.07924950  1
  In  In57  1  0.42075050  0.75353800  0.92075050  1
  In  In58  1  0.92075050  0.74646200  0.07924950  1
  In  In59  1  0.07924950  0.57924950  0.75353800  1
  In  In60  1  0.25353800  0.92075050  0.92075050  1
  In  In61  1  0.75000000  0.91860400  0.75000000  1
  In  In62  1  0.07924950  0.74646200  0.92075050  1
  In  In63  1  0.75000000  0.75000000  0.91860400  1
  In  In64  1  0.58139600  0.75000000  0.75000000  1
  In  In65  1  0.92075050  0.57924950  0.24646200  1
  In  In66  1  0.57924950  0.75353800  0.07924950  1
  In  In67  1  0.42075050  0.92075050  0.75353800  1
  In  In68  1  0.75353800  0.57924950  0.07924950  1
  In  In69  1  0.75000000  0.75000000  0.58139600  1
  In  In70  1  0.91860400  0.75000000  0.75000000  1
  In  In71  1  0.57924950  0.92075050  0.24646200  1
  Te  Te72  1  0.34774500  0.00000000  0.00000000  1
  Te  Te73  1  0.50000000  0.00000000  0.15225500  1
  Te  Te74  1  0.00000000  0.34774500  0.00000000  1
  Te  Te75  1  0.34450700  0.00846700  0.65549300  1
  Te  Te76  1  0.17416500  0.32583500  0.17416500  1
  Te  Te77  1  0.15689200  0.34310800  0.84310800  1
  Te  Te78  1  0.49153300  0.15549300  0.65549300  1
  Te  Te79  1  0.15549300  0.00846700  0.84450700  1
  Te  Te80  1  0.34450700  0.34450700  0.99153300  1
  Te  Te81  1  0.34450700  0.15549300  0.50846700  1
  Te  Te82  1  0.17416500  0.17416500  0.32583500  1
  Te  Te83  1  0.15549300  0.34450700  0.50846700  1
  Te  Te84  1  0.32583500  0.32583500  0.32583500  1
  Te  Te85  1  0.65689200  0.15689200  0.15689200  1
  Te  Te86  1  0.00000000  0.00000000  0.00000000  1
  Te  Te87  1  0.15549300  0.15549300  0.99153300  1
  Te  Te88  1  0.65225500  0.00000000  0.00000000  1
  Te  Te89  1  0.50000000  0.00000000  0.84774500  1
  Te  Te90  1  0.84310800  0.34310800  0.15689200  1
  Te  Te91  1  0.32583500  0.17416500  0.17416500  1
  Te  Te92  1  0.00846700  0.34450700  0.65549300  1
  Te  Te93  1  0.49153300  0.34450700  0.84450700  1
  Te  Te94  1  0.00846700  0.15549300  0.84450700  1
  Te  Te95  1  0.50000000  0.15225500  0.00000000  1
  Te  Te96  1  0.34310800  0.15689200  0.84310800  1
  Te  Te97  1  0.34450700  0.49153300  0.84450700  1
  Te  Te98  1  0.15549300  0.49153300  0.65549300  1
  Te  Te99  1  0.34774500  0.50000000  0.50000000  1
  Te  Te100  1  0.50000000  0.50000000  0.65225500  1
  Te  Te101  1  0.00000000  0.84774500  0.50000000  1
  Te  Te102  1  0.34450700  0.50846700  0.15549300  1
  Te  Te103  1  0.17416500  0.82583500  0.67416500  1
  Te  Te104  1  0.15689200  0.84310800  0.34310800  1
  Te  Te105  1  0.49153300  0.65549300  0.15549300  1
  Te  Te106  1  0.15549300  0.50846700  0.34450700  1
  Te  Te107  1  0.34450700  0.84450700  0.49153300  1
  Te  Te108  1  0.34450700  0.65549300  0.00846700  1
  Te  Te109  1  0.17416500  0.67416500  0.82583500  1
  Te  Te110  1  0.15549300  0.84450700  0.00846700  1
  Te  Te111  1  0.32583500  0.82583500  0.82583500  1
  Te  Te112  1  0.65689200  0.65689200  0.65689200  1
  Te  Te113  1  0.00000000  0.50000000  0.50000000  1
  Te  Te114  1  0.15549300  0.65549300  0.49153300  1
  Te  Te115  1  0.65225500  0.50000000  0.50000000  1
  Te  Te116  1  0.50000000  0.50000000  0.34774500  1
  Te  Te117  1  0.84310800  0.84310800  0.65689200  1
  Te  Te118  1  0.32583500  0.67416500  0.67416500  1
  Te  Te119  1  0.00846700  0.84450700  0.15549300  1
  Te  Te120  1  0.49153300  0.84450700  0.34450700  1
  Te  Te121  1  0.00846700  0.65549300  0.34450700  1
  Te  Te122  1  0.50000000  0.65225500  0.50000000  1
  Te  Te123  1  0.34310800  0.65689200  0.34310800  1
  Te  Te124  1  0.34450700  0.99153300  0.34450700  1
  Te  Te125  1  0.15549300  0.99153300  0.15549300  1
  Te  Te126  1  0.84774500  0.00000000  0.50000000  1
  Te  Te127  1  0.00000000  0.00000000  0.65225500  1
  Te  Te128  1  0.50000000  0.34774500  0.50000000  1
  Te  Te129  1  0.84450700  0.00846700  0.15549300  1
  Te  Te130  1  0.67416500  0.32583500  0.67416500  1
  Te  Te131  1  0.65689200  0.34310800  0.34310800  1
  Te  Te132  1  0.99153300  0.15549300  0.15549300  1
  Te  Te133  1  0.65549300  0.00846700  0.34450700  1
  Te  Te134  1  0.84450700  0.34450700  0.49153300  1
  Te  Te135  1  0.84450700  0.15549300  0.00846700  1
  Te  Te136  1  0.67416500  0.17416500  0.82583500  1
  Te  Te137  1  0.65549300  0.34450700  0.00846700  1
  Te  Te138  1  0.82583500  0.32583500  0.82583500  1
  Te  Te139  1  0.15689200  0.15689200  0.65689200  1
  Te  Te140  1  0.50000000  0.00000000  0.50000000  1
  Te  Te141  1  0.65549300  0.15549300  0.49153300  1
  Te  Te142  1  0.15225500  0.00000000  0.50000000  1
  Te  Te143  1  0.00000000  0.00000000  0.34774500  1
  Te  Te144  1  0.34310800  0.34310800  0.65689200  1
  Te  Te145  1  0.82583500  0.17416500  0.67416500  1
  Te  Te146  1  0.50846700  0.34450700  0.15549300  1
  Te  Te147  1  0.99153300  0.34450700  0.34450700  1
  Te  Te148  1  0.50846700  0.15549300  0.34450700  1
  Te  Te149  1  0.00000000  0.15225500  0.50000000  1
  Te  Te150  1  0.84310800  0.15689200  0.34310800  1
  Te  Te151  1  0.84450700  0.49153300  0.34450700  1
  Te  Te152  1  0.65549300  0.49153300  0.15549300  1
  Te  Te153  1  0.84774500  0.50000000  0.00000000  1
  Te  Te154  1  0.00000000  0.50000000  0.15225500  1
  Te  Te155  1  0.50000000  0.84774500  0.00000000  1
  Te  Te156  1  0.84450700  0.50846700  0.65549300  1
  Te  Te157  1  0.67416500  0.82583500  0.17416500  1
  Te  Te158  1  0.65689200  0.84310800  0.84310800  1
  Te  Te159  1  0.99153300  0.65549300  0.65549300  1
  Te  Te160  1  0.65549300  0.50846700  0.84450700  1
  Te  Te161  1  0.84450700  0.84450700  0.99153300  1
  Te  Te162  1  0.84450700  0.65549300  0.50846700  1
  Te  Te163  1  0.67416500  0.67416500  0.32583500  1
  Te  Te164  1  0.65549300  0.84450700  0.50846700  1
  Te  Te165  1  0.82583500  0.82583500  0.32583500  1
  Te  Te166  1  0.15689200  0.65689200  0.15689200  1
  Te  Te167  1  0.50000000  0.50000000  0.00000000  1
  Te  Te168  1  0.65549300  0.65549300  0.99153300  1
  Te  Te169  1  0.15225500  0.50000000  0.00000000  1
  Te  Te170  1  0.00000000  0.50000000  0.84774500  1
  Te  Te171  1  0.34310800  0.84310800  0.15689200  1
  Te  Te172  1  0.82583500  0.67416500  0.17416500  1
  Te  Te173  1  0.50846700  0.84450700  0.65549300  1
  Te  Te174  1  0.99153300  0.84450700  0.84450700  1
  Te  Te175  1  0.50846700  0.65549300  0.84450700  1
  Te  Te176  1  0.00000000  0.65225500  0.00000000  1
  Te  Te177  1  0.84310800  0.65689200  0.84310800  1
  Te  Te178  1  0.84450700  0.99153300  0.84450700  1
  Te  Te179  1  0.65549300  0.99153300  0.65549300  1
