# generated using pymatgen
data_InCu6ClO8
_symmetry_space_group_name_H-M   'P 1'
_cell_length_a   9.22473600
_cell_length_b   9.22473600
_cell_length_c   9.22473600
_cell_angle_alpha   90.00000000
_cell_angle_beta   90.00000000
_cell_angle_gamma   90.00000000
_symmetry_Int_Tables_number   1
_chemical_formula_structural   InCu6ClO8
_chemical_formula_sum   'In4 Cu24 Cl4 O32'
_cell_volume   784.98586786
_cell_formula_units_Z   4
loop_
 _symmetry_equiv_pos_site_id
 _symmetry_equiv_pos_as_xyz
  1  'x, y, z'
loop_
 _atom_site_type_symbol
 _atom_site_label
 _atom_site_symmetry_multiplicity
 _atom_site_fract_x
 _atom_site_fract_y
 _atom_site_fract_z
 _atom_site_occupancy
  In  In0  1  0.00000000  0.00000000  0.00000000  1
  In  In1  1  0.00000000  0.50000000  0.50000000  1
  In  In2  1  0.50000000  0.00000000  0.50000000  1
  In  In3  1  0.50000000  0.50000000  0.00000000  1
  Cu  Cu4  1  0.25000000  0.25000000  0.00000000  1
  Cu  Cu5  1  0.00000000  0.75000000  0.75000000  1
  Cu  Cu6  1  0.75000000  0.00000000  0.75000000  1
  Cu  Cu7  1  0.25000000  0.75000000  0.00000000  1
  Cu  Cu8  1  0.00000000  0.25000000  0.75000000  1
  Cu  Cu9  1  0.25000000  0.00000000  0.75000000  1
  Cu  Cu10  1  0.25000000  0.75000000  0.50000000  1
  Cu  Cu11  1  0.00000000  0.25000000  0.25000000  1
  Cu  Cu12  1  0.75000000  0.50000000  0.25000000  1
  Cu  Cu13  1  0.25000000  0.25000000  0.50000000  1
  Cu  Cu14  1  0.00000000  0.75000000  0.25000000  1
  Cu  Cu15  1  0.25000000  0.50000000  0.25000000  1
  Cu  Cu16  1  0.75000000  0.25000000  0.50000000  1
  Cu  Cu17  1  0.50000000  0.75000000  0.25000000  1
  Cu  Cu18  1  0.25000000  0.00000000  0.25000000  1
  Cu  Cu19  1  0.75000000  0.75000000  0.50000000  1
  Cu  Cu20  1  0.50000000  0.25000000  0.25000000  1
  Cu  Cu21  1  0.75000000  0.00000000  0.25000000  1
  Cu  Cu22  1  0.75000000  0.75000000  0.00000000  1
  Cu  Cu23  1  0.50000000  0.25000000  0.75000000  1
  Cu  Cu24  1  0.25000000  0.50000000  0.75000000  1
  Cu  Cu25  1  0.75000000  0.25000000  0.00000000  1
  Cu  Cu26  1  0.50000000  0.75000000  0.75000000  1
  Cu  Cu27  1  0.75000000  0.50000000  0.75000000  1
  Cl  Cl28  1  0.50000000  0.00000000  0.00000000  1
  Cl  Cl29  1  0.50000000  0.50000000  0.50000000  1
  Cl  Cl30  1  0.00000000  0.00000000  0.50000000  1
  Cl  Cl31  1  0.00000000  0.50000000  0.00000000  1
  O  O32  1  0.35747067  0.85747067  0.64252933  1
  O  O33  1  0.35747067  0.64252933  0.85747067  1
  O  O34  1  0.14252933  0.85747067  0.85747067  1
  O  O35  1  0.14252933  0.35747067  0.64252933  1
  O  O36  1  0.14252933  0.64252933  0.64252933  1
  O  O37  1  0.35747067  0.35747067  0.85747067  1
  O  O38  1  0.14252933  0.14252933  0.85747067  1
  O  O39  1  0.35747067  0.14252933  0.64252933  1
  O  O40  1  0.35747067  0.35747067  0.14252933  1
  O  O41  1  0.35747067  0.14252933  0.35747067  1
  O  O42  1  0.14252933  0.35747067  0.35747067  1
  O  O43  1  0.14252933  0.85747067  0.14252933  1
  O  O44  1  0.14252933  0.14252933  0.14252933  1
  O  O45  1  0.35747067  0.85747067  0.35747067  1
  O  O46  1  0.14252933  0.64252933  0.35747067  1
  O  O47  1  0.35747067  0.64252933  0.14252933  1
  O  O48  1  0.85747067  0.85747067  0.14252933  1
  O  O49  1  0.85747067  0.64252933  0.35747067  1
  O  O50  1  0.64252933  0.85747067  0.35747067  1
  O  O51  1  0.64252933  0.35747067  0.14252933  1
  O  O52  1  0.64252933  0.64252933  0.14252933  1
  O  O53  1  0.85747067  0.35747067  0.35747067  1
  O  O54  1  0.64252933  0.14252933  0.35747067  1
  O  O55  1  0.85747067  0.14252933  0.14252933  1
  O  O56  1  0.85747067  0.35747067  0.64252933  1
  O  O57  1  0.85747067  0.14252933  0.85747067  1
  O  O58  1  0.64252933  0.35747067  0.85747067  1
  O  O59  1  0.64252933  0.85747067  0.64252933  1
  O  O60  1  0.64252933  0.14252933  0.64252933  1
  O  O61  1  0.85747067  0.85747067  0.85747067  1
  O  O62  1  0.64252933  0.64252933  0.85747067  1
  O  O63  1  0.85747067  0.64252933  0.64252933  1
