# generated using pymatgen
data_Cs2CrH2Cl5O
_symmetry_space_group_name_H-M   'P 1'
_cell_length_a   7.50116291
_cell_length_b   18.03724424
_cell_length_c   8.16350907
_cell_angle_alpha   90.00000000
_cell_angle_beta   90.00000000
_cell_angle_gamma   90.00000000
_symmetry_Int_Tables_number   1
_chemical_formula_structural   Cs2CrH2Cl5O
_chemical_formula_sum   'Cs8 Cr4 H8 Cl20 O4'
_cell_volume   1104.52528827
_cell_formula_units_Z   4
loop_
 _symmetry_equiv_pos_site_id
 _symmetry_equiv_pos_as_xyz
  1  'x, y, z'
loop_
 _atom_site_type_symbol
 _atom_site_label
 _atom_site_symmetry_multiplicity
 _atom_site_fract_x
 _atom_site_fract_y
 _atom_site_fract_z
 _atom_site_occupancy
  Cs  Cs0  1  0.00000000  0.02760700  0.75000000  1
  Cs  Cs1  1  0.50000000  0.47239300  0.25000000  1
  Cs  Cs2  1  0.00000000  0.25029825  0.25000000  1
  Cs  Cs3  1  0.50000000  0.24970175  0.75000000  1
  Cs  Cs4  1  0.50000000  0.52760700  0.75000000  1
  Cs  Cs5  1  0.00000000  0.97239300  0.25000000  1
  Cs  Cs6  1  0.50000000  0.75029825  0.25000000  1
  Cs  Cs7  1  0.00000000  0.74970175  0.75000000  1
  Cr  Cr8  1  0.00000000  0.38644900  0.75000000  1
  Cr  Cr9  1  0.50000000  0.11355100  0.25000000  1
  Cr  Cr10  1  0.50000000  0.88644900  0.75000000  1
  Cr  Cr11  1  0.00000000  0.61355100  0.25000000  1
  H  H12  1  0.50000000  0.03546800  0.84808650  1
  H  H13  1  0.00000000  0.46453200  0.15191350  1
  H  H14  1  0.00000000  0.46453200  0.34808650  1
  H  H15  1  0.50000000  0.03546800  0.65191350  1
  H  H16  1  0.00000000  0.53546800  0.84808650  1
  H  H17  1  0.50000000  0.96453200  0.15191350  1
  H  H18  1  0.50000000  0.96453200  0.34808650  1
  H  H19  1  0.00000000  0.53546800  0.65191350  1
  Cl  Cl20  1  0.00000000  0.25665600  0.75000000  1
  Cl  Cl21  1  0.50000000  0.24334400  0.25000000  1
  Cl  Cl22  1  0.77783700  0.39094600  0.95965750  1
  Cl  Cl23  1  0.27783700  0.10905400  0.04034250  1
  Cl  Cl24  1  0.72216300  0.10905400  0.45965750  1
  Cl  Cl25  1  0.22216300  0.39094600  0.54034250  1
  Cl  Cl26  1  0.72216300  0.10905400  0.04034250  1
  Cl  Cl27  1  0.22216300  0.39094600  0.95965750  1
  Cl  Cl28  1  0.77783700  0.39094600  0.54034250  1
  Cl  Cl29  1  0.27783700  0.10905400  0.45965750  1
  Cl  Cl30  1  0.50000000  0.75665600  0.75000000  1
  Cl  Cl31  1  0.00000000  0.74334400  0.25000000  1
  Cl  Cl32  1  0.27783700  0.89094600  0.95965750  1
  Cl  Cl33  1  0.77783700  0.60905400  0.04034250  1
  Cl  Cl34  1  0.22216300  0.60905400  0.45965750  1
  Cl  Cl35  1  0.72216300  0.89094600  0.54034250  1
  Cl  Cl36  1  0.22216300  0.60905400  0.04034250  1
  Cl  Cl37  1  0.72216300  0.89094600  0.95965750  1
  Cl  Cl38  1  0.27783700  0.89094600  0.54034250  1
  Cl  Cl39  1  0.77783700  0.60905400  0.45965750  1
  O  O40  1  0.50000000  0.00395600  0.75000000  1
  O  O41  1  0.00000000  0.49604400  0.25000000  1
  O  O42  1  0.00000000  0.50395600  0.75000000  1
  O  O43  1  0.50000000  0.99604400  0.25000000  1
