# generated using pymatgen
data_Cs2NaCoF6
_symmetry_space_group_name_H-M   'P 1'
_cell_length_a   6.27797613
_cell_length_b   6.27797613
_cell_length_c   30.52907680
_cell_angle_alpha   90.00000000
_cell_angle_beta   90.00000000
_cell_angle_gamma   120.00000000
_symmetry_Int_Tables_number   1
_chemical_formula_structural   Cs2NaCoF6
_chemical_formula_sum   'Cs12 Na6 Co6 F36'
_cell_volume   1042.03816010
_cell_formula_units_Z   6
loop_
 _symmetry_equiv_pos_site_id
 _symmetry_equiv_pos_as_xyz
  1  'x, y, z'
loop_
 _atom_site_type_symbol
 _atom_site_label
 _atom_site_symmetry_multiplicity
 _atom_site_fract_x
 _atom_site_fract_y
 _atom_site_fract_z
 _atom_site_occupancy
  Cs  Cs0  1  0.66666667  0.33333333  0.04978933  1
  Cs  Cs1  1  0.66666667  0.33333333  0.20550833  1
  Cs  Cs2  1  0.00000000  0.00000000  0.28354400  1
  Cs  Cs3  1  0.00000000  0.00000000  0.12782500  1
  Cs  Cs4  1  0.33333333  0.66666667  0.38312267  1
  Cs  Cs5  1  0.33333333  0.66666667  0.53884167  1
  Cs  Cs6  1  0.66666667  0.33333333  0.61687733  1
  Cs  Cs7  1  0.66666667  0.33333333  0.46115833  1
  Cs  Cs8  1  0.00000000  0.00000000  0.71645600  1
  Cs  Cs9  1  0.00000000  0.00000000  0.87217500  1
  Cs  Cs10  1  0.33333333  0.66666667  0.95021067  1
  Cs  Cs11  1  0.33333333  0.66666667  0.79449167  1
  Na  Na12  1  0.33333333  0.66666667  0.26224767  1
  Na  Na13  1  0.33333333  0.66666667  0.07108567  1
  Na  Na14  1  0.00000000  0.00000000  0.59558100  1
  Na  Na15  1  0.00000000  0.00000000  0.40441900  1
  Na  Na16  1  0.66666667  0.33333333  0.92891433  1
  Na  Na17  1  0.66666667  0.33333333  0.73775233  1
  Co  Co18  1  0.00000000  0.00000000  0.00000000  1
  Co  Co19  1  0.33333333  0.66666667  0.16666667  1
  Co  Co20  1  0.66666667  0.33333333  0.33333333  1
  Co  Co21  1  1.00000000  1.00000000  0.50000000  1
  Co  Co22  1  0.33333333  0.66666667  0.66666667  1
  Co  Co23  1  0.66666667  0.33333333  0.83333333  1
  F  F24  1  0.52336767  0.47663233  0.29814633  1
  F  F25  1  0.14329900  0.85670100  0.03518700  1
  F  F26  1  0.52336767  0.04673533  0.29814633  1
  F  F27  1  0.19435533  0.80564467  0.20352667  1
  F  F28  1  0.05537733  0.52768867  0.12980667  1
  F  F29  1  0.71340200  0.85670100  0.03518700  1
  F  F30  1  0.61128933  0.80564467  0.20352667  1
  F  F31  1  0.95326467  0.47663233  0.29814633  1
  F  F32  1  0.47231133  0.94462267  0.12980667  1
  F  F33  1  0.14329900  0.28659800  0.03518700  1
  F  F34  1  0.47231133  0.52768867  0.12980667  1
  F  F35  1  0.19435533  0.38871067  0.20352667  1
  F  F36  1  0.19003433  0.80996567  0.63147967  1
  F  F37  1  0.80996567  0.19003433  0.36852033  1
  F  F38  1  0.19003433  0.38006867  0.63147967  1
  F  F39  1  0.86102200  0.13897800  0.53686000  1
  F  F40  1  0.72204400  0.86102200  0.46314000  1
  F  F41  1  0.38006867  0.19003433  0.36852033  1
  F  F42  1  0.27795600  0.13897800  0.53686000  1
  F  F43  1  0.61993133  0.80996567  0.63147967  1
  F  F44  1  0.13897800  0.27795600  0.46314000  1
  F  F45  1  0.80996567  0.61993133  0.36852033  1
  F  F46  1  0.13897800  0.86102200  0.46314000  1
  F  F47  1  0.86102200  0.72204400  0.53686000  1
  F  F48  1  0.85670100  0.14329900  0.96481300  1
  F  F49  1  0.47663233  0.52336767  0.70185367  1
  F  F50  1  0.85670100  0.71340200  0.96481300  1
  F  F51  1  0.52768867  0.47231133  0.87019333  1
  F  F52  1  0.38871067  0.19435533  0.79647333  1
  F  F53  1  0.04673533  0.52336767  0.70185367  1
  F  F54  1  0.94462267  0.47231133  0.87019333  1
  F  F55  1  0.28659800  0.14329900  0.96481300  1
  F  F56  1  0.80564467  0.61128933  0.79647333  1
  F  F57  1  0.47663233  0.95326467  0.70185367  1
  F  F58  1  0.80564467  0.19435533  0.79647333  1
  F  F59  1  0.52768867  0.05537733  0.87019333  1
