# generated using pymatgen
data_Zr3S4
_symmetry_space_group_name_H-M   'P 1'
_cell_length_a   61.19808800
_cell_length_b   3.56825400
_cell_length_c   6.36999536
_cell_angle_alpha   90.00000000
_cell_angle_beta   90.60178809
_cell_angle_gamma   90.00000000
_symmetry_Int_Tables_number   1
_chemical_formula_structural   Zr3S4
_chemical_formula_sum   'Zr30 S40'
_cell_volume   1390.94121321
_cell_formula_units_Z   10
loop_
 _symmetry_equiv_pos_site_id
 _symmetry_equiv_pos_as_xyz
  1  'x, y, z'
loop_
 _atom_site_type_symbol
 _atom_site_label
 _atom_site_symmetry_multiplicity
 _atom_site_fract_x
 _atom_site_fract_y
 _atom_site_fract_z
 _atom_site_occupancy
  Zr  Zr0  1  0.65003500  0.00000000  0.93494800  1
  Zr  Zr1  1  0.74949500  0.50000000  0.71810600  1
  Zr  Zr2  1  0.84955200  0.00000000  0.53918800  1
  Zr  Zr3  1  0.94965400  0.00000000  0.84673700  1
  Zr  Zr4  1  0.95004600  0.50000000  0.35328100  1
  Zr  Zr5  1  0.54995400  0.00000000  0.64671900  1
  Zr  Zr6  1  0.55034600  0.50000000  0.15326300  1
  Zr  Zr7  1  0.59932800  0.00000000  0.29702300  1
  Zr  Zr8  1  0.65044800  0.50000000  0.46081200  1
  Zr  Zr9  1  0.75050500  0.00000000  0.28189400  1
  Zr  Zr10  1  0.80002700  0.50000000  0.40838300  1
  Zr  Zr11  1  0.84996500  0.50000000  0.06505200  1
  Zr  Zr12  1  0.90067200  0.50000000  0.70297700  1
  Zr  Zr13  1  0.00000000  0.50000000  0.00000000  1
  Zr  Zr14  1  0.69997300  0.00000000  0.59161700  1
  Zr  Zr15  1  0.15003500  0.50000000  0.93494800  1
  Zr  Zr16  1  0.24949500  0.00000000  0.71810600  1
  Zr  Zr17  1  0.34955200  0.50000000  0.53918800  1
  Zr  Zr18  1  0.44965400  0.50000000  0.84673700  1
  Zr  Zr19  1  0.45004600  0.00000000  0.35328100  1
  Zr  Zr20  1  0.04995400  0.50000000  0.64671900  1
  Zr  Zr21  1  0.05034600  0.00000000  0.15326300  1
  Zr  Zr22  1  0.09932800  0.50000000  0.29702300  1
  Zr  Zr23  1  0.15044800  0.00000000  0.46081200  1
  Zr  Zr24  1  0.25050500  0.50000000  0.28189400  1
  Zr  Zr25  1  0.30002700  0.00000000  0.40838300  1
  Zr  Zr26  1  0.34996500  0.00000000  0.06505200  1
  Zr  Zr27  1  0.40067200  0.00000000  0.70297700  1
  Zr  Zr28  1  0.50000000  0.00000000  0.00000000  1
  Zr  Zr29  1  0.19997300  0.50000000  0.59161700  1
  S  S30  1  0.92349800  0.00000000  0.50472500  1
  S  S31  1  0.52448100  0.00000000  0.32654900  1
  S  S32  1  0.62404600  0.00000000  0.62257900  1
  S  S33  1  0.62410900  0.50000000  0.11087400  1
  S  S34  1  0.72207800  0.50000000  0.39096700  1
  S  S35  1  0.72645200  0.00000000  0.91548700  1
  S  S36  1  0.77354800  0.50000000  0.08451300  1
  S  S37  1  0.82271000  0.00000000  0.20551600  1
  S  S38  1  0.82534800  0.50000000  0.73107900  1
  S  S39  1  0.87589100  0.00000000  0.88912600  1
  S  S40  1  0.92459500  0.50000000  0.03091400  1
  S  S41  1  0.97617100  0.00000000  0.19046000  1
  S  S42  1  0.97551900  0.50000000  0.67345100  1
  S  S43  1  0.52382900  0.50000000  0.80954000  1
  S  S44  1  0.57540500  0.00000000  0.96908600  1
  S  S45  1  0.57650200  0.50000000  0.49527500  1
  S  S46  1  0.67729000  0.50000000  0.79448400  1
  S  S47  1  0.67465200  0.00000000  0.26892100  1
  S  S48  1  0.77792200  0.00000000  0.60903300  1
  S  S49  1  0.87595400  0.50000000  0.37742100  1
  S  S50  1  0.42349800  0.50000000  0.50472500  1
  S  S51  1  0.02448100  0.50000000  0.32654900  1
  S  S52  1  0.12404600  0.50000000  0.62257900  1
  S  S53  1  0.12410900  0.00000000  0.11087400  1
  S  S54  1  0.22207800  0.00000000  0.39096700  1
  S  S55  1  0.22645200  0.50000000  0.91548700  1
  S  S56  1  0.27354800  0.00000000  0.08451300  1
  S  S57  1  0.32271000  0.50000000  0.20551600  1
  S  S58  1  0.32534800  0.00000000  0.73107900  1
  S  S59  1  0.37589100  0.50000000  0.88912600  1
  S  S60  1  0.42459500  0.00000000  0.03091400  1
  S  S61  1  0.47617100  0.50000000  0.19046000  1
  S  S62  1  0.47551900  0.00000000  0.67345100  1
  S  S63  1  0.02382900  0.00000000  0.80954000  1
  S  S64  1  0.07540500  0.50000000  0.96908600  1
  S  S65  1  0.07650200  0.00000000  0.49527500  1
  S  S66  1  0.17729000  0.00000000  0.79448400  1
  S  S67  1  0.17465200  0.50000000  0.26892100  1
  S  S68  1  0.27792200  0.50000000  0.60903300  1
  S  S69  1  0.37595400  0.00000000  0.37742100  1
