# generated using pymatgen
data_Rb3MnH5
_symmetry_space_group_name_H-M   'P 1'
_cell_length_a   8.00722200
_cell_length_b   8.00722200
_cell_length_c   12.09079400
_cell_angle_alpha   90.00000000
_cell_angle_beta   90.00000000
_cell_angle_gamma   90.00000000
_symmetry_Int_Tables_number   1
_chemical_formula_structural   Rb3MnH5
_chemical_formula_sum   'Rb12 Mn4 H20'
_cell_volume   775.20856205
_cell_formula_units_Z   4
loop_
 _symmetry_equiv_pos_site_id
 _symmetry_equiv_pos_as_xyz
  1  'x, y, z'
loop_
 _atom_site_type_symbol
 _atom_site_label
 _atom_site_symmetry_multiplicity
 _atom_site_fract_x
 _atom_site_fract_y
 _atom_site_fract_z
 _atom_site_occupancy
  Rb  Rb0  1  0.00000000  0.00000000  0.25000000  1
  Rb  Rb1  1  0.50000000  0.50000000  0.25000000  1
  Rb  Rb2  1  0.68648250  0.18648250  0.00000000  1
  Rb  Rb3  1  0.81351750  0.31351750  0.50000000  1
  Rb  Rb4  1  0.81351750  0.68648250  0.00000000  1
  Rb  Rb5  1  0.18648250  0.31351750  0.00000000  1
  Rb  Rb6  1  0.50000000  0.50000000  0.75000000  1
  Rb  Rb7  1  0.00000000  0.00000000  0.75000000  1
  Rb  Rb8  1  0.18648250  0.68648250  0.50000000  1
  Rb  Rb9  1  0.31351750  0.81351750  0.00000000  1
  Rb  Rb10  1  0.31351750  0.18648250  0.50000000  1
  Rb  Rb11  1  0.68648250  0.81351750  0.50000000  1
  Mn  Mn12  1  0.50000000  0.00000000  0.25000000  1
  Mn  Mn13  1  0.00000000  0.50000000  0.25000000  1
  Mn  Mn14  1  0.00000000  0.50000000  0.75000000  1
  Mn  Mn15  1  0.50000000  0.00000000  0.75000000  1
  H  H16  1  0.62449150  0.12449150  0.33691750  1
  H  H17  1  0.37550850  0.87550850  0.33691750  1
  H  H18  1  0.87550850  0.62449150  0.33691750  1
  H  H19  1  0.12449150  0.37550850  0.33691750  1
  H  H20  1  0.87550850  0.37550850  0.16308250  1
  H  H21  1  0.12449150  0.62449150  0.16308250  1
  H  H22  1  0.62449150  0.87550850  0.16308250  1
  H  H23  1  0.37550850  0.12449150  0.16308250  1
  H  H24  1  0.50000000  0.50000000  0.00000000  1
  H  H25  1  0.00000000  0.00000000  0.00000000  1
  H  H26  1  0.12449150  0.62449150  0.83691750  1
  H  H27  1  0.87550850  0.37550850  0.83691750  1
  H  H28  1  0.37550850  0.12449150  0.83691750  1
  H  H29  1  0.62449150  0.87550850  0.83691750  1
  H  H30  1  0.37550850  0.87550850  0.66308250  1
  H  H31  1  0.62449150  0.12449150  0.66308250  1
  H  H32  1  0.12449150  0.37550850  0.66308250  1
  H  H33  1  0.87550850  0.62449150  0.66308250  1
  H  H34  1  0.00000000  0.00000000  0.50000000  1
  H  H35  1  0.50000000  0.50000000  0.50000000  1
