# generated using pymatgen
data_La(ReSi)2
_symmetry_space_group_name_H-M   'P 1'
_cell_length_a   4.16382600
_cell_length_b   4.25546200
_cell_length_c   21.16099800
_cell_angle_alpha   90.00000000
_cell_angle_beta   90.00000000
_cell_angle_gamma   90.00000000
_symmetry_Int_Tables_number   1
_chemical_formula_structural   La(ReSi)2
_chemical_formula_sum   'La4 Re8 Si8'
_cell_volume   374.95179377
_cell_formula_units_Z   4
loop_
 _symmetry_equiv_pos_site_id
 _symmetry_equiv_pos_as_xyz
  1  'x, y, z'
loop_
 _atom_site_type_symbol
 _atom_site_label
 _atom_site_symmetry_multiplicity
 _atom_site_fract_x
 _atom_site_fract_y
 _atom_site_fract_z
 _atom_site_occupancy
  La  La0  1  0.00000000  0.75000000  0.66331200  1
  La  La1  1  0.50000000  0.75000000  0.83668800  1
  La  La2  1  0.50000000  0.25000000  0.16331200  1
  La  La3  1  0.00000000  0.25000000  0.33668800  1
  Re  Re4  1  0.00000000  0.75000000  0.96130300  1
  Re  Re5  1  0.00000000  0.25000000  0.53554500  1
  Re  Re6  1  0.50000000  0.75000000  0.53869700  1
  Re  Re7  1  0.50000000  0.25000000  0.96445500  1
  Re  Re8  1  0.50000000  0.25000000  0.46130300  1
  Re  Re9  1  0.50000000  0.75000000  0.03554500  1
  Re  Re10  1  0.00000000  0.25000000  0.03869700  1
  Re  Re11  1  0.00000000  0.75000000  0.46445500  1
  Si  Si12  1  0.00000000  0.25000000  0.77845900  1
  Si  Si13  1  0.50000000  0.25000000  0.72154100  1
  Si  Si14  1  0.50000000  0.25000000  0.60375700  1
  Si  Si15  1  0.00000000  0.25000000  0.89624300  1
  Si  Si16  1  0.50000000  0.75000000  0.27845900  1
  Si  Si17  1  0.00000000  0.75000000  0.22154100  1
  Si  Si18  1  0.00000000  0.75000000  0.10375700  1
  Si  Si19  1  0.50000000  0.75000000  0.39624300  1
