# generated using pymatgen
data_V2GaSn2
_symmetry_space_group_name_H-M   'P 1'
_cell_length_a   5.60917000
_cell_length_b   18.86320400
_cell_length_c   6.75201400
_cell_angle_alpha   90.00000000
_cell_angle_beta   90.00000000
_cell_angle_gamma   90.00000000
_symmetry_Int_Tables_number   1
_chemical_formula_structural   V2GaSn2
_chemical_formula_sum   'V16 Ga8 Sn16'
_cell_volume   714.40979150
_cell_formula_units_Z   8
loop_
 _symmetry_equiv_pos_site_id
 _symmetry_equiv_pos_as_xyz
  1  'x, y, z'
loop_
 _atom_site_type_symbol
 _atom_site_label
 _atom_site_symmetry_multiplicity
 _atom_site_fract_x
 _atom_site_fract_y
 _atom_site_fract_z
 _atom_site_occupancy
  V  V0  1  0.50000000  0.92608200  0.47178400  1
  V  V1  1  0.00000000  0.57391800  0.52821600  1
  V  V2  1  0.00000000  0.92608200  0.02821600  1
  V  V3  1  0.75000000  0.84116500  0.75000000  1
  V  V4  1  0.25000000  0.84116500  0.75000000  1
  V  V5  1  0.25000000  0.65883500  0.25000000  1
  V  V6  1  0.50000000  0.57391800  0.97178400  1
  V  V7  1  0.75000000  0.65883500  0.25000000  1
  V  V8  1  0.00000000  0.42608200  0.47178400  1
  V  V9  1  0.50000000  0.07391800  0.52821600  1
  V  V10  1  0.50000000  0.42608200  0.02821600  1
  V  V11  1  0.25000000  0.34116500  0.75000000  1
  V  V12  1  0.75000000  0.34116500  0.75000000  1
  V  V13  1  0.75000000  0.15883500  0.25000000  1
  V  V14  1  0.00000000  0.07391800  0.97178400  1
  V  V15  1  0.25000000  0.15883500  0.25000000  1
  Ga  Ga16  1  0.75000000  0.98185500  0.75000000  1
  Ga  Ga17  1  0.25000000  0.51814500  0.25000000  1
  Ga  Ga18  1  0.75000000  0.51814500  0.25000000  1
  Ga  Ga19  1  0.25000000  0.98185500  0.75000000  1
  Ga  Ga20  1  0.25000000  0.48185500  0.75000000  1
  Ga  Ga21  1  0.75000000  0.01814500  0.25000000  1
  Ga  Ga22  1  0.25000000  0.01814500  0.25000000  1
  Ga  Ga23  1  0.75000000  0.48185500  0.75000000  1
  Sn  Sn24  1  0.50000000  0.77827200  0.42228400  1
  Sn  Sn25  1  0.00000000  0.61134800  0.92300400  1
  Sn  Sn26  1  0.00000000  0.72172800  0.57771600  1
  Sn  Sn27  1  0.00000000  0.77827200  0.07771600  1
  Sn  Sn28  1  0.50000000  0.72172800  0.92228400  1
  Sn  Sn29  1  0.50000000  0.61134800  0.57699600  1
  Sn  Sn30  1  0.50000000  0.88865200  0.07699600  1
  Sn  Sn31  1  0.00000000  0.88865200  0.42300400  1
  Sn  Sn32  1  0.00000000  0.27827200  0.42228400  1
  Sn  Sn33  1  0.50000000  0.11134800  0.92300400  1
  Sn  Sn34  1  0.50000000  0.22172800  0.57771600  1
  Sn  Sn35  1  0.50000000  0.27827200  0.07771600  1
  Sn  Sn36  1  0.00000000  0.22172800  0.92228400  1
  Sn  Sn37  1  0.00000000  0.11134800  0.57699600  1
  Sn  Sn38  1  0.00000000  0.38865200  0.07699600  1
  Sn  Sn39  1  0.50000000  0.38865200  0.42300400  1
