# generated using pymatgen
data_Ba5Na2Ru3O14
_symmetry_space_group_name_H-M   'P 1'
_cell_length_a   5.98071000
_cell_length_b   10.29808400
_cell_length_c   24.51998000
_cell_angle_alpha   90.00000000
_cell_angle_beta   90.00000000
_cell_angle_gamma   90.00000000
_symmetry_Int_Tables_number   1
_chemical_formula_structural   Ba5Na2Ru3O14
_chemical_formula_sum   'Ba20 Na8 Ru12 O56'
_cell_volume   1510.18198729
_cell_formula_units_Z   4
loop_
 _symmetry_equiv_pos_site_id
 _symmetry_equiv_pos_as_xyz
  1  'x, y, z'
loop_
 _atom_site_type_symbol
 _atom_site_label
 _atom_site_symmetry_multiplicity
 _atom_site_fract_x
 _atom_site_fract_y
 _atom_site_fract_z
 _atom_site_occupancy
  Ba  Ba0  1  0.50000000  0.50557200  0.84890500  1
  Ba  Ba1  1  0.50000000  0.17018900  0.06428000  1
  Ba  Ba2  1  0.50000000  0.82981100  0.56428000  1
  Ba  Ba3  1  0.50000000  0.49442800  0.34890500  1
  Ba  Ba4  1  0.50000000  0.49409800  0.67107400  1
  Ba  Ba5  1  0.50000000  0.16134000  0.45551500  1
  Ba  Ba6  1  0.50000000  0.16384900  0.75723000  1
  Ba  Ba7  1  0.50000000  0.83615100  0.25723000  1
  Ba  Ba8  1  0.50000000  0.83866000  0.95551500  1
  Ba  Ba9  1  0.50000000  0.50590200  0.17107400  1
  Ba  Ba10  1  0.00000000  0.00557200  0.84890500  1
  Ba  Ba11  1  0.00000000  0.67018900  0.06428000  1
  Ba  Ba12  1  0.00000000  0.32981100  0.56428000  1
  Ba  Ba13  1  0.00000000  0.99442800  0.34890500  1
  Ba  Ba14  1  0.00000000  0.99409800  0.67107400  1
  Ba  Ba15  1  0.00000000  0.66134000  0.45551500  1
  Ba  Ba16  1  0.00000000  0.66384900  0.75723000  1
  Ba  Ba17  1  0.00000000  0.33615100  0.25723000  1
  Ba  Ba18  1  0.00000000  0.33866000  0.95551500  1
  Ba  Ba19  1  0.00000000  0.00590200  0.17107400  1
  Na  Na20  1  0.50000000  0.83837600  0.10434600  1
  Na  Na21  1  0.50000000  0.15560500  0.90558900  1
  Na  Na22  1  0.50000000  0.16162400  0.60434600  1
  Na  Na23  1  0.50000000  0.84439500  0.40558900  1
  Na  Na24  1  0.00000000  0.33837600  0.10434600  1
  Na  Na25  1  0.00000000  0.65560500  0.90558900  1
  Na  Na26  1  0.00000000  0.66162400  0.60434600  1
  Na  Na27  1  0.00000000  0.34439500  0.40558900  1
  Ru  Ru28  1  0.50000000  0.50662700  0.00841300  1
  Ru  Ru29  1  0.50000000  0.83211500  0.81389700  1
  Ru  Ru30  1  0.50000000  0.82701700  0.70093700  1
  Ru  Ru31  1  0.50000000  0.16788500  0.31389700  1
  Ru  Ru32  1  0.50000000  0.17298300  0.20093700  1
  Ru  Ru33  1  0.50000000  0.49337300  0.50841300  1
  Ru  Ru34  1  0.00000000  0.00662700  0.00841300  1
  Ru  Ru35  1  0.00000000  0.33211500  0.81389700  1
  Ru  Ru36  1  0.00000000  0.32701700  0.70093700  1
  Ru  Ru37  1  0.00000000  0.66788500  0.31389700  1
  Ru  Ru38  1  0.00000000  0.67298300  0.20093700  1
  Ru  Ru39  1  0.00000000  0.99337300  0.50841300  1
  O  O40  1  0.77978300  0.10712000  0.53908700  1
  O  O41  1  0.72618600  0.90298300  0.75606700  1
  O  O42  1  0.73249550  0.74777450  0.66029400  1
  O  O43  1  0.26320750  0.76108150  0.85616800  1
  O  O44  1  0.22207700  0.05623500  0.95589800  1
  O  O45  1  0.50000000  0.99311800  0.84941600  1
  O  O46  1  0.27381400  0.09701700  0.25606700  1
  O  O47  1  0.50000000  0.67681300  0.75877700  1
  O  O48  1  0.50000000  0.00688200  0.34941600  1
  O  O49  1  0.50000000  0.64574900  0.05457100  1
  O  O50  1  0.77978300  0.89288000  0.03908700  1
  O  O51  1  0.22207700  0.94376500  0.45589800  1
  O  O52  1  0.73679250  0.76108150  0.85616800  1
  O  O53  1  0.77792300  0.05623500  0.95589800  1
  O  O54  1  0.73249550  0.25222550  0.16029400  1
  O  O55  1  0.22021700  0.10712000  0.53908700  1
  O  O56  1  0.73679250  0.23891850  0.35616800  1
  O  O57  1  0.77792300  0.94376500  0.45589800  1
  O  O58  1  0.26750450  0.74777450  0.66029400  1
  O  O59  1  0.26320750  0.23891850  0.35616800  1
  O  O60  1  0.50000000  0.01864500  0.15851100  1
  O  O61  1  0.22021700  0.89288000  0.03908700  1
  O  O62  1  0.50000000  0.35425100  0.55457100  1
  O  O63  1  0.27381400  0.90298300  0.75606700  1
  O  O64  1  0.72618600  0.09701700  0.25606700  1
  O  O65  1  0.50000000  0.98135500  0.65851100  1
  O  O66  1  0.50000000  0.32318700  0.25877700  1
  O  O67  1  0.26750450  0.25222550  0.16029400  1
  O  O68  1  0.27978300  0.60712000  0.53908700  1
  O  O69  1  0.22618600  0.40298300  0.75606700  1
  O  O70  1  0.23249550  0.24777450  0.66029400  1
  O  O71  1  0.76320750  0.26108150  0.85616800  1
  O  O72  1  0.72207700  0.55623500  0.95589800  1
  O  O73  1  0.00000000  0.49311800  0.84941600  1
  O  O74  1  0.77381400  0.59701700  0.25606700  1
  O  O75  1  0.00000000  0.17681300  0.75877700  1
  O  O76  1  0.00000000  0.50688200  0.34941600  1
  O  O77  1  0.00000000  0.14574900  0.05457100  1
  O  O78  1  0.27978300  0.39288000  0.03908700  1
  O  O79  1  0.72207700  0.44376500  0.45589800  1
  O  O80  1  0.23679250  0.26108150  0.85616800  1
  O  O81  1  0.27792300  0.55623500  0.95589800  1
  O  O82  1  0.23249550  0.75222550  0.16029400  1
  O  O83  1  0.72021700  0.60712000  0.53908700  1
  O  O84  1  0.23679250  0.73891850  0.35616800  1
  O  O85  1  0.27792300  0.44376500  0.45589800  1
  O  O86  1  0.76750450  0.24777450  0.66029400  1
  O  O87  1  0.76320750  0.73891850  0.35616800  1
  O  O88  1  0.00000000  0.51864500  0.15851100  1
  O  O89  1  0.72021700  0.39288000  0.03908700  1
  O  O90  1  0.00000000  0.85425100  0.55457100  1
  O  O91  1  0.77381400  0.40298300  0.75606700  1
  O  O92  1  0.22618600  0.59701700  0.25606700  1
  O  O93  1  0.00000000  0.48135500  0.65851100  1
  O  O94  1  0.00000000  0.82318700  0.25877700  1
  O  O95  1  0.76750450  0.75222550  0.16029400  1
