# generated using pymatgen
data_Li2Cr(PO4)2
_symmetry_space_group_name_H-M   'P 1'
_cell_length_a   4.88428700
_cell_length_b   17.43711500
_cell_length_c   6.59633722
_cell_angle_alpha   90.00000000
_cell_angle_beta   94.51524197
_cell_angle_gamma   90.00000000
_symmetry_Int_Tables_number   1
_chemical_formula_structural   Li2Cr(PO4)2
_chemical_formula_sum   'Li8 Cr4 P8 O32'
_cell_volume   560.05244250
_cell_formula_units_Z   4
loop_
 _symmetry_equiv_pos_site_id
 _symmetry_equiv_pos_as_xyz
  1  'x, y, z'
loop_
 _atom_site_type_symbol
 _atom_site_label
 _atom_site_symmetry_multiplicity
 _atom_site_fract_x
 _atom_site_fract_y
 _atom_site_fract_z
 _atom_site_occupancy
  Li  Li0  1  0.53358900  0.12014900  0.25767300  1
  Li  Li1  1  0.03479100  0.38234900  0.73519400  1
  Li  Li2  1  0.01233600  0.05429400  0.04287300  1
  Li  Li3  1  0.98766400  0.55429400  0.95712700  1
  Li  Li4  1  0.55476300  0.30362200  0.93560300  1
  Li  Li5  1  0.46641100  0.62014900  0.74232700  1
  Li  Li6  1  0.96520900  0.88234900  0.26480600  1
  Li  Li7  1  0.44523700  0.80362200  0.06439700  1
  Cr  Cr8  1  0.46143800  0.62947400  0.26818700  1
  Cr  Cr9  1  0.94889100  0.87158600  0.75832700  1
  Cr  Cr10  1  0.53856200  0.12947400  0.73181300  1
  Cr  Cr11  1  0.05110900  0.37158600  0.24167300  1
  P  P12  1  0.07416200  0.21343200  0.96884900  1
  P  P13  1  0.57441300  0.28523500  0.46723400  1
  P  P14  1  0.48016600  0.96395500  0.97214300  1
  P  P15  1  0.92583800  0.71343200  0.03115100  1
  P  P16  1  0.02240200  0.03491900  0.52911000  1
  P  P17  1  0.97759800  0.53491900  0.47089000  1
  P  P18  1  0.42558700  0.78523500  0.53276600  1
  P  P19  1  0.51983400  0.46395500  0.02785700  1
  O  O20  1  0.88314300  0.05907000  0.32193200  1
  O  O21  1  0.16824900  0.93874000  0.96023700  1
  O  O22  1  0.87702500  0.80215300  0.99726800  1
  O  O23  1  0.71770900  0.30837800  0.27251900  1
  O  O24  1  0.69401900  0.32419200  0.66196400  1
  O  O25  1  0.38081600  0.43282500  0.21408900  1
  O  O26  1  0.60193700  0.19659700  0.49030700  1
  O  O27  1  0.38000800  0.43356000  0.83022600  1
  O  O28  1  0.83175100  0.43874000  0.03976300  1
  O  O29  1  0.52387900  0.55399800  0.03300900  1
  O  O30  1  0.47612100  0.05399800  0.96699100  1
  O  O31  1  0.32624500  0.06376800  0.53870400  1
  O  O32  1  0.11891400  0.56843600  0.28718400  1
  O  O33  1  0.61918400  0.93282500  0.78591100  1
  O  O34  1  0.88108600  0.06843600  0.71281600  1
  O  O35  1  0.77569900  0.69556300  0.22418100  1
  O  O36  1  0.22430100  0.19556300  0.77581900  1
  O  O37  1  0.73742600  0.80741100  0.56454300  1
  O  O38  1  0.30598100  0.82419200  0.33803600  1
  O  O39  1  0.26257400  0.30741100  0.43545700  1
  O  O40  1  0.18177100  0.16548400  0.14992100  1
  O  O41  1  0.12297500  0.30215300  0.00273200  1
  O  O42  1  0.75753800  0.19829100  0.92742300  1
  O  O43  1  0.61999200  0.93356000  0.16977400  1
  O  O44  1  0.03204500  0.94579100  0.53878700  1
  O  O45  1  0.28229100  0.80837800  0.72748100  1
  O  O46  1  0.24246200  0.69829100  0.07257700  1
  O  O47  1  0.39806300  0.69659700  0.50969300  1
  O  O48  1  0.96795500  0.44579100  0.46121300  1
  O  O49  1  0.81822900  0.66548400  0.85007900  1
  O  O50  1  0.11685700  0.55907000  0.67806800  1
  O  O51  1  0.67375500  0.56376800  0.46129600  1
