# generated using pymatgen
data_Yb(CeS2)2
_symmetry_space_group_name_H-M   'P 1'
_cell_length_a   8.50316800
_cell_length_b   8.50316800
_cell_length_c   8.56878000
_cell_angle_alpha   90.00000000
_cell_angle_beta   90.00000000
_cell_angle_gamma   90.00000000
_symmetry_Int_Tables_number   1
_chemical_formula_structural   Yb(CeS2)2
_chemical_formula_sum   'Yb4 Ce8 S16'
_cell_volume   619.55592121
_cell_formula_units_Z   4
loop_
 _symmetry_equiv_pos_site_id
 _symmetry_equiv_pos_as_xyz
  1  'x, y, z'
loop_
 _atom_site_type_symbol
 _atom_site_label
 _atom_site_symmetry_multiplicity
 _atom_site_fract_x
 _atom_site_fract_y
 _atom_site_fract_z
 _atom_site_occupancy
  Yb  Yb0  1  0.00000000  0.00000000  0.50000000  1
  Yb  Yb1  1  0.50000000  0.00000000  0.25000000  1
  Yb  Yb2  1  0.50000000  0.50000000  0.00000000  1
  Yb  Yb3  1  0.00000000  0.50000000  0.75000000  1
  Ce  Ce4  1  0.75000000  0.12816800  0.87500000  1
  Ce  Ce5  1  0.37183200  0.25000000  0.62500000  1
  Ce  Ce6  1  0.75000000  0.37183200  0.37500000  1
  Ce  Ce7  1  0.12816800  0.25000000  0.12500000  1
  Ce  Ce8  1  0.25000000  0.62816800  0.37500000  1
  Ce  Ce9  1  0.87183200  0.75000000  0.12500000  1
  Ce  Ce10  1  0.25000000  0.87183200  0.87500000  1
  Ce  Ce11  1  0.62816800  0.75000000  0.62500000  1
  S  S12  1  0.17764400  0.92586200  0.19835300  1
  S  S13  1  0.42586200  0.17764400  0.94835300  1
  S  S14  1  0.07413800  0.32235600  0.44835300  1
  S  S15  1  0.42586200  0.32235600  0.30164700  1
  S  S16  1  0.32235600  0.57413800  0.69835300  1
  S  S17  1  0.32235600  0.92586200  0.55164700  1
  S  S18  1  0.07413800  0.17764400  0.80164700  1
  S  S19  1  0.17764400  0.57413800  0.05164700  1
  S  S20  1  0.67764400  0.42586200  0.69835300  1
  S  S21  1  0.92586200  0.67764400  0.44835300  1
  S  S22  1  0.57413800  0.82235600  0.94835300  1
  S  S23  1  0.92586200  0.82235600  0.80164700  1
  S  S24  1  0.82235600  0.07413800  0.19835300  1
  S  S25  1  0.82235600  0.42586200  0.05164700  1
  S  S26  1  0.57413800  0.67764400  0.30164700  1
  S  S27  1  0.67764400  0.07413800  0.55164700  1
