# generated using pymatgen
data_V6H4O13
_symmetry_space_group_name_H-M   'P 1'
_cell_length_a   12.49869400
_cell_length_b   4.08388800
_cell_length_c   10.11767278
_cell_angle_alpha   90.00000000
_cell_angle_beta   101.12664972
_cell_angle_gamma   90.00000000
_symmetry_Int_Tables_number   1
_chemical_formula_structural   V6H4O13
_chemical_formula_sum   'V12 H8 O26'
_cell_volume   506.73156822
_cell_formula_units_Z   2
loop_
 _symmetry_equiv_pos_site_id
 _symmetry_equiv_pos_as_xyz
  1  'x, y, z'
loop_
 _atom_site_type_symbol
 _atom_site_label
 _atom_site_symmetry_multiplicity
 _atom_site_fract_x
 _atom_site_fract_y
 _atom_site_fract_z
 _atom_site_occupancy
  V  V0  1  0.85669800  0.50000000  0.00186500  1
  V  V1  1  0.64330200  0.00000000  0.99813500  1
  V  V2  1  0.90534300  0.50000000  0.37311700  1
  V  V3  1  0.59465700  0.00000000  0.62688300  1
  V  V4  1  0.71106300  0.00000000  0.37439100  1
  V  V5  1  0.78893700  0.50000000  0.62560900  1
  V  V6  1  0.35669800  0.00000000  0.00186500  1
  V  V7  1  0.14330200  0.50000000  0.99813500  1
  V  V8  1  0.40534300  0.00000000  0.37311700  1
  V  V9  1  0.09465700  0.50000000  0.62688300  1
  V  V10  1  0.21106300  0.50000000  0.37439100  1
  V  V11  1  0.28893700  0.00000000  0.62560900  1
  H  H12  1  0.69414600  0.50000000  0.12146800  1
  H  H13  1  0.80585400  0.00000000  0.87853200  1
  H  H14  1  0.90559900  0.00000000  0.50035700  1
  H  H15  1  0.59440100  0.50000000  0.49964300  1
  H  H16  1  0.19414600  0.00000000  0.12146800  1
  H  H17  1  0.30585400  0.50000000  0.87853200  1
  H  H18  1  0.40559900  0.50000000  0.50035700  1
  H  H19  1  0.09440100  0.00000000  0.49964300  1
  O  O20  1  0.68316300  0.50000000  0.02273700  1
  O  O21  1  0.81683700  0.00000000  0.97726300  1
  O  O22  1  0.88562000  0.00000000  0.40128400  1
  O  O23  1  0.61438000  0.50000000  0.59871600  1
  O  O24  1  0.74551100  0.50000000  0.40827000  1
  O  O25  1  0.75448900  0.00000000  0.59173000  1
  O  O26  1  0.00000000  0.50000000  0.00000000  1
  O  O27  1  0.88103300  0.50000000  0.20116500  1
  O  O28  1  0.61896700  0.00000000  0.79883500  1
  O  O29  1  0.68529400  0.00000000  0.20301300  1
  O  O30  1  0.81470600  0.50000000  0.79698700  1
  O  O31  1  0.56767100  0.00000000  0.42160700  1
  O  O32  1  0.93232900  0.50000000  0.57839300  1
  O  O33  1  0.18316300  0.00000000  0.02273700  1
  O  O34  1  0.31683700  0.50000000  0.97726300  1
  O  O35  1  0.38562000  0.50000000  0.40128400  1
  O  O36  1  0.11438000  0.00000000  0.59871600  1
  O  O37  1  0.24551100  0.00000000  0.40827000  1
  O  O38  1  0.25448900  0.50000000  0.59173000  1
  O  O39  1  0.50000000  0.00000000  0.00000000  1
  O  O40  1  0.38103300  0.00000000  0.20116500  1
  O  O41  1  0.11896700  0.50000000  0.79883500  1
  O  O42  1  0.18529400  0.50000000  0.20301300  1
  O  O43  1  0.31470600  0.00000000  0.79698700  1
  O  O44  1  0.06767100  0.50000000  0.42160700  1
  O  O45  1  0.43232900  0.00000000  0.57839300  1
