# generated using pymatgen
data_Zr9(In2Co)7
_symmetry_space_group_name_H-M   'P 1'
_cell_length_a   13.37844400
_cell_length_b   13.37844400
_cell_length_c   13.37844400
_cell_angle_alpha   90.00000000
_cell_angle_beta   90.00000000
_cell_angle_gamma   90.00000000
_symmetry_Int_Tables_number   1
_chemical_formula_structural   Zr9(In2Co)7
_chemical_formula_sum   'Zr36 In56 Co28'
_cell_volume   2394.51088328
_cell_formula_units_Z   4
loop_
 _symmetry_equiv_pos_site_id
 _symmetry_equiv_pos_as_xyz
  1  'x, y, z'
loop_
 _atom_site_type_symbol
 _atom_site_label
 _atom_site_symmetry_multiplicity
 _atom_site_fract_x
 _atom_site_fract_y
 _atom_site_fract_z
 _atom_site_occupancy
  Zr  Zr0  1  0.37891333  0.62108667  0.87891333  1
  Zr  Zr1  1  0.37891333  0.12108667  0.62108667  1
  Zr  Zr2  1  0.37891333  0.37891333  0.87891333  1
  Zr  Zr3  1  0.12108667  0.87891333  0.87891333  1
  Zr  Zr4  1  0.50000000  0.00000000  0.00000000  1
  Zr  Zr5  1  0.12108667  0.12108667  0.87891333  1
  Zr  Zr6  1  0.12108667  0.62108667  0.62108667  1
  Zr  Zr7  1  0.12108667  0.37891333  0.62108667  1
  Zr  Zr8  1  0.37891333  0.87891333  0.62108667  1
  Zr  Zr9  1  0.37891333  0.12108667  0.37891333  1
  Zr  Zr10  1  0.37891333  0.62108667  0.12108667  1
  Zr  Zr11  1  0.37891333  0.87891333  0.37891333  1
  Zr  Zr12  1  0.12108667  0.37891333  0.37891333  1
  Zr  Zr13  1  0.50000000  0.50000000  0.50000000  1
  Zr  Zr14  1  0.12108667  0.62108667  0.37891333  1
  Zr  Zr15  1  0.12108667  0.12108667  0.12108667  1
  Zr  Zr16  1  0.12108667  0.87891333  0.12108667  1
  Zr  Zr17  1  0.37891333  0.37891333  0.12108667  1
  Zr  Zr18  1  0.87891333  0.62108667  0.37891333  1
  Zr  Zr19  1  0.87891333  0.12108667  0.12108667  1
  Zr  Zr20  1  0.87891333  0.37891333  0.37891333  1
  Zr  Zr21  1  0.62108667  0.87891333  0.37891333  1
  Zr  Zr22  1  0.00000000  0.00000000  0.50000000  1
  Zr  Zr23  1  0.62108667  0.12108667  0.37891333  1
  Zr  Zr24  1  0.62108667  0.62108667  0.12108667  1
  Zr  Zr25  1  0.62108667  0.37891333  0.12108667  1
  Zr  Zr26  1  0.87891333  0.87891333  0.12108667  1
  Zr  Zr27  1  0.87891333  0.12108667  0.87891333  1
  Zr  Zr28  1  0.87891333  0.62108667  0.62108667  1
  Zr  Zr29  1  0.87891333  0.87891333  0.87891333  1
  Zr  Zr30  1  0.62108667  0.37891333  0.87891333  1
  Zr  Zr31  1  0.00000000  0.50000000  0.00000000  1
  Zr  Zr32  1  0.62108667  0.62108667  0.87891333  1
  Zr  Zr33  1  0.62108667  0.12108667  0.62108667  1
  Zr  Zr34  1  0.62108667  0.87891333  0.62108667  1
  Zr  Zr35  1  0.87891333  0.37891333  0.62108667  1
  In  In36  1  0.00000000  0.82878700  0.67121300  1
  In  In37  1  0.17121300  0.00000000  0.67121300  1
  In  In38  1  0.32878700  0.00000000  0.82878700  1
  In  In39  1  0.67121300  0.17121300  0.00000000  1
  In  In40  1  0.50000000  0.82878700  0.82878700  1
  In  In41  1  0.32878700  0.17121300  0.00000000  1
  In  In42  1  0.67121300  0.82878700  0.00000000  1
  In  In43  1  0.50000000  0.17121300  0.82878700  1
  In  In44  1  0.67121300  0.00000000  0.82878700  1
  In  In45  1  0.32878700  0.82878700  0.00000000  1
  In  In46  1  0.00000000  0.17121300  0.67121300  1
  In  In47  1  0.82878700  0.00000000  0.67121300  1
  In  In48  1  0.25000000  0.75000000  0.75000000  1
  In  In49  1  0.25000000  0.25000000  0.75000000  1
  In  In50  1  0.00000000  0.32878700  0.17121300  1
  In  In51  1  0.17121300  0.50000000  0.17121300  1
  In  In52  1  0.32878700  0.50000000  0.32878700  1
  In  In53  1  0.67121300  0.67121300  0.50000000  1
  In  In54  1  0.50000000  0.32878700  0.32878700  1
  In  In55  1  0.32878700  0.67121300  0.50000000  1
  In  In56  1  0.67121300  0.32878700  0.50000000  1
  In  In57  1  0.50000000  0.67121300  0.32878700  1
  In  In58  1  0.67121300  0.50000000  0.32878700  1
  In  In59  1  0.32878700  0.32878700  0.50000000  1
  In  In60  1  0.00000000  0.67121300  0.17121300  1
  In  In61  1  0.82878700  0.50000000  0.17121300  1
  In  In62  1  0.25000000  0.25000000  0.25000000  1
  In  In63  1  0.25000000  0.75000000  0.25000000  1
  In  In64  1  0.50000000  0.82878700  0.17121300  1
  In  In65  1  0.67121300  0.00000000  0.17121300  1
  In  In66  1  0.82878700  0.00000000  0.32878700  1
  In  In67  1  0.17121300  0.17121300  0.50000000  1
  In  In68  1  0.00000000  0.82878700  0.32878700  1
  In  In69  1  0.82878700  0.17121300  0.50000000  1
  In  In70  1  0.17121300  0.82878700  0.50000000  1
  In  In71  1  0.00000000  0.17121300  0.32878700  1
  In  In72  1  0.17121300  0.00000000  0.32878700  1
  In  In73  1  0.82878700  0.82878700  0.50000000  1
  In  In74  1  0.50000000  0.17121300  0.17121300  1
  In  In75  1  0.32878700  0.00000000  0.17121300  1
  In  In76  1  0.75000000  0.75000000  0.25000000  1
  In  In77  1  0.75000000  0.25000000  0.25000000  1
  In  In78  1  0.50000000  0.32878700  0.67121300  1
  In  In79  1  0.67121300  0.50000000  0.67121300  1
  In  In80  1  0.82878700  0.50000000  0.82878700  1
  In  In81  1  0.17121300  0.67121300  0.00000000  1
  In  In82  1  0.00000000  0.32878700  0.82878700  1
  In  In83  1  0.82878700  0.67121300  0.00000000  1
  In  In84  1  0.17121300  0.32878700  0.00000000  1
  In  In85  1  0.00000000  0.67121300  0.82878700  1
  In  In86  1  0.17121300  0.50000000  0.82878700  1
  In  In87  1  0.82878700  0.32878700  0.00000000  1
  In  In88  1  0.50000000  0.67121300  0.67121300  1
  In  In89  1  0.32878700  0.50000000  0.67121300  1
  In  In90  1  0.75000000  0.25000000  0.75000000  1
  In  In91  1  0.75000000  0.75000000  0.75000000  1
  Co  Co92  1  0.00000000  0.00000000  0.77959000  1
  Co  Co93  1  0.00000000  0.00000000  0.00000000  1
  Co  Co94  1  0.50000000  0.72041000  0.00000000  1
  Co  Co95  1  0.77959000  0.00000000  0.00000000  1
  Co  Co96  1  0.50000000  0.00000000  0.72041000  1
  Co  Co97  1  0.50000000  0.27959000  0.00000000  1
  Co  Co98  1  0.22041000  0.00000000  0.00000000  1
  Co  Co99  1  0.00000000  0.50000000  0.27959000  1
  Co  Co100  1  0.00000000  0.50000000  0.50000000  1
  Co  Co101  1  0.50000000  0.22041000  0.50000000  1
  Co  Co102  1  0.77959000  0.50000000  0.50000000  1
  Co  Co103  1  0.50000000  0.50000000  0.22041000  1
  Co  Co104  1  0.50000000  0.77959000  0.50000000  1
  Co  Co105  1  0.22041000  0.50000000  0.50000000  1
  Co  Co106  1  0.50000000  0.00000000  0.27959000  1
  Co  Co107  1  0.50000000  0.00000000  0.50000000  1
  Co  Co108  1  0.00000000  0.72041000  0.50000000  1
  Co  Co109  1  0.27959000  0.00000000  0.50000000  1
  Co  Co110  1  0.00000000  0.00000000  0.22041000  1
  Co  Co111  1  0.00000000  0.27959000  0.50000000  1
  Co  Co112  1  0.72041000  0.00000000  0.50000000  1
  Co  Co113  1  0.50000000  0.50000000  0.77959000  1
  Co  Co114  1  0.50000000  0.50000000  0.00000000  1
  Co  Co115  1  0.00000000  0.22041000  0.00000000  1
  Co  Co116  1  0.27959000  0.50000000  0.00000000  1
  Co  Co117  1  0.00000000  0.50000000  0.72041000  1
  Co  Co118  1  0.00000000  0.77959000  0.00000000  1
  Co  Co119  1  0.72041000  0.50000000  0.00000000  1
