# generated using pymatgen
data_Ba11(Cd4Bi7)2
_symmetry_space_group_name_H-M   'P 1'
_cell_length_a   28.77894200
_cell_length_b   5.02523400
_cell_length_c   17.20853014
_cell_angle_alpha   90.00000000
_cell_angle_beta   91.40370393
_cell_angle_gamma   90.00000000
_symmetry_Int_Tables_number   1
_chemical_formula_structural   Ba11(Cd4Bi7)2
_chemical_formula_sum   'Ba22 Cd16 Bi28'
_cell_volume   2487.96658056
_cell_formula_units_Z   2
loop_
 _symmetry_equiv_pos_site_id
 _symmetry_equiv_pos_as_xyz
  1  'x, y, z'
loop_
 _atom_site_type_symbol
 _atom_site_label
 _atom_site_symmetry_multiplicity
 _atom_site_fract_x
 _atom_site_fract_y
 _atom_site_fract_z
 _atom_site_occupancy
  Ba  Ba0  1  0.75289900  0.50000000  0.29818800  1
  Ba  Ba1  1  0.61835900  0.00000000  0.15976600  1
  Ba  Ba2  1  0.85565500  0.00000000  0.46562700  1
  Ba  Ba3  1  0.84513400  0.50000000  0.09937800  1
  Ba  Ba4  1  0.50922200  0.50000000  0.36628000  1
  Ba  Ba5  1  0.00000000  0.50000000  0.00000000  1
  Ba  Ba6  1  0.74710100  0.00000000  0.70181200  1
  Ba  Ba7  1  0.65486600  0.00000000  0.90062200  1
  Ba  Ba8  1  0.64434500  0.50000000  0.53437300  1
  Ba  Ba9  1  0.88164100  0.50000000  0.84023400  1
  Ba  Ba10  1  0.99077800  0.00000000  0.63372000  1
  Ba  Ba11  1  0.25289900  0.00000000  0.29818800  1
  Ba  Ba12  1  0.11835900  0.50000000  0.15976600  1
  Ba  Ba13  1  0.35565500  0.50000000  0.46562700  1
  Ba  Ba14  1  0.34513400  0.00000000  0.09937800  1
  Ba  Ba15  1  0.00922200  0.00000000  0.36628000  1
  Ba  Ba16  1  0.50000000  0.00000000  0.00000000  1
  Ba  Ba17  1  0.24710100  0.50000000  0.70181200  1
  Ba  Ba18  1  0.15486600  0.50000000  0.90062200  1
  Ba  Ba19  1  0.14434500  0.00000000  0.53437300  1
  Ba  Ba20  1  0.38164100  0.00000000  0.84023400  1
  Ba  Ba21  1  0.49077800  0.50000000  0.63372000  1
  Cd  Cd22  1  0.70259300  0.50000000  0.04073400  1
  Cd  Cd23  1  0.62815000  0.00000000  0.38826900  1
  Cd  Cd24  1  0.79740700  0.00000000  0.95926600  1
  Cd  Cd25  1  0.90589400  0.50000000  0.31462500  1
  Cd  Cd26  1  0.87185000  0.50000000  0.61173100  1
  Cd  Cd27  1  0.56018200  0.50000000  0.84263400  1
  Cd  Cd28  1  0.93981800  0.00000000  0.15736600  1
  Cd  Cd29  1  0.59410600  0.00000000  0.68537500  1
  Cd  Cd30  1  0.20259300  0.00000000  0.04073400  1
  Cd  Cd31  1  0.12815000  0.50000000  0.38826900  1
  Cd  Cd32  1  0.29740700  0.50000000  0.95926600  1
  Cd  Cd33  1  0.40589400  0.00000000  0.31462500  1
  Cd  Cd34  1  0.37185000  0.00000000  0.61173100  1
  Cd  Cd35  1  0.06018200  0.00000000  0.84263400  1
  Cd  Cd36  1  0.43981800  0.50000000  0.15736600  1
  Cd  Cd37  1  0.09410600  0.50000000  0.68537500  1
  Bi  Bi38  1  0.94281500  0.50000000  0.48249200  1
  Bi  Bi39  1  0.59422900  0.50000000  0.01265000  1
  Bi  Bi40  1  0.85079500  0.00000000  0.26127100  1
  Bi  Bi41  1  0.90577100  0.00000000  0.98735000  1
  Bi  Bi42  1  0.64920500  0.50000000  0.73872900  1
  Bi  Bi43  1  0.62996400  0.50000000  0.30056300  1
  Bi  Bi44  1  0.74304000  0.00000000  0.11722400  1
  Bi  Bi45  1  0.55718500  0.00000000  0.51750800  1
  Bi  Bi46  1  0.77116500  0.50000000  0.53953600  1
  Bi  Bi47  1  0.50969800  0.00000000  0.79103400  1
  Bi  Bi48  1  0.72883500  0.00000000  0.46046400  1
  Bi  Bi49  1  0.87003600  0.00000000  0.69943700  1
  Bi  Bi50  1  0.99030200  0.50000000  0.20896600  1
  Bi  Bi51  1  0.75696000  0.50000000  0.88277600  1
  Bi  Bi52  1  0.44281500  0.00000000  0.48249200  1
  Bi  Bi53  1  0.09422900  0.00000000  0.01265000  1
  Bi  Bi54  1  0.35079500  0.50000000  0.26127100  1
  Bi  Bi55  1  0.40577100  0.50000000  0.98735000  1
  Bi  Bi56  1  0.14920500  0.00000000  0.73872900  1
  Bi  Bi57  1  0.12996400  0.00000000  0.30056300  1
  Bi  Bi58  1  0.24304000  0.50000000  0.11722400  1
  Bi  Bi59  1  0.05718500  0.50000000  0.51750800  1
  Bi  Bi60  1  0.27116500  0.00000000  0.53953600  1
  Bi  Bi61  1  0.00969800  0.50000000  0.79103400  1
  Bi  Bi62  1  0.22883500  0.50000000  0.46046400  1
  Bi  Bi63  1  0.37003600  0.50000000  0.69943700  1
  Bi  Bi64  1  0.49030200  0.00000000  0.20896600  1
  Bi  Bi65  1  0.25696000  0.00000000  0.88277600  1
