# generated using pymatgen
data_LaCu3(RuO3)4
_symmetry_space_group_name_H-M   'P 1'
_cell_length_a   7.54542800
_cell_length_b   7.54542800
_cell_length_c   7.54542800
_cell_angle_alpha   90.00000000
_cell_angle_beta   90.00000000
_cell_angle_gamma   90.00000000
_symmetry_Int_Tables_number   1
_chemical_formula_structural   LaCu3(RuO3)4
_chemical_formula_sum   'La2 Cu6 Ru8 O24'
_cell_volume   429.58750207
_cell_formula_units_Z   2
loop_
 _symmetry_equiv_pos_site_id
 _symmetry_equiv_pos_as_xyz
  1  'x, y, z'
loop_
 _atom_site_type_symbol
 _atom_site_label
 _atom_site_symmetry_multiplicity
 _atom_site_fract_x
 _atom_site_fract_y
 _atom_site_fract_z
 _atom_site_occupancy
  La  La0  1  0.00000000  0.00000000  0.00000000  1
  La  La1  1  0.50000000  0.50000000  0.50000000  1
  Cu  Cu2  1  0.50000000  0.00000000  0.00000000  1
  Cu  Cu3  1  0.00000000  0.00000000  0.50000000  1
  Cu  Cu4  1  0.00000000  0.50000000  0.00000000  1
  Cu  Cu5  1  0.00000000  0.50000000  0.50000000  1
  Cu  Cu6  1  0.50000000  0.50000000  0.00000000  1
  Cu  Cu7  1  0.50000000  0.00000000  0.50000000  1
  Ru  Ru8  1  0.25000000  0.25000000  0.25000000  1
  Ru  Ru9  1  0.75000000  0.25000000  0.25000000  1
  Ru  Ru10  1  0.25000000  0.25000000  0.75000000  1
  Ru  Ru11  1  0.25000000  0.75000000  0.25000000  1
  Ru  Ru12  1  0.75000000  0.75000000  0.75000000  1
  Ru  Ru13  1  0.25000000  0.75000000  0.75000000  1
  Ru  Ru14  1  0.75000000  0.75000000  0.25000000  1
  Ru  Ru15  1  0.75000000  0.25000000  0.75000000  1
  O  O16  1  0.30614000  0.17272900  0.00000000  1
  O  O17  1  0.00000000  0.69386000  0.17272900  1
  O  O18  1  0.32727100  0.50000000  0.80614000  1
  O  O19  1  0.17272900  0.00000000  0.69386000  1
  O  O20  1  0.50000000  0.80614000  0.32727100  1
  O  O21  1  0.80614000  0.32727100  0.50000000  1
  O  O22  1  0.19386000  0.32727100  0.50000000  1
  O  O23  1  0.17272900  0.00000000  0.30614000  1
  O  O24  1  0.69386000  0.17272900  0.00000000  1
  O  O25  1  0.00000000  0.30614000  0.17272900  1
  O  O26  1  0.32727100  0.50000000  0.19386000  1
  O  O27  1  0.50000000  0.19386000  0.32727100  1
  O  O28  1  0.80614000  0.67272900  0.50000000  1
  O  O29  1  0.50000000  0.19386000  0.67272900  1
  O  O30  1  0.82727100  0.00000000  0.30614000  1
  O  O31  1  0.67272900  0.50000000  0.19386000  1
  O  O32  1  0.00000000  0.30614000  0.82727100  1
  O  O33  1  0.30614000  0.82727100  0.00000000  1
  O  O34  1  0.69386000  0.82727100  0.00000000  1
  O  O35  1  0.67272900  0.50000000  0.80614000  1
  O  O36  1  0.19386000  0.67272900  0.50000000  1
  O  O37  1  0.50000000  0.80614000  0.67272900  1
  O  O38  1  0.82727100  0.00000000  0.69386000  1
  O  O39  1  0.00000000  0.69386000  0.82727100  1
