# generated using pymatgen
data_Cr6PbO18
_symmetry_space_group_name_H-M   'P 1'
_cell_length_a   10.51046000
_cell_length_b   7.40198800
_cell_length_c   8.27882417
_cell_angle_alpha   90.00000000
_cell_angle_beta   108.57635693
_cell_angle_gamma   90.00000000
_symmetry_Int_Tables_number   1
_chemical_formula_structural   Cr6PbO18
_chemical_formula_sum   'Cr12 Pb2 O36'
_cell_volume   610.52191639
_cell_formula_units_Z   2
loop_
 _symmetry_equiv_pos_site_id
 _symmetry_equiv_pos_as_xyz
  1  'x, y, z'
loop_
 _atom_site_type_symbol
 _atom_site_label
 _atom_site_symmetry_multiplicity
 _atom_site_fract_x
 _atom_site_fract_y
 _atom_site_fract_z
 _atom_site_occupancy
  Cr  Cr0  1  0.41402750  0.75596750  0.15602400  1
  Cr  Cr1  1  0.75000000  0.75000000  0.50000000  1
  Cr  Cr2  1  0.58597250  0.24403250  0.84397600  1
  Cr  Cr3  1  0.41402750  0.24403250  0.15602400  1
  Cr  Cr4  1  0.75000000  0.25000000  0.50000000  1
  Cr  Cr5  1  0.58597250  0.75596750  0.84397600  1
  Cr  Cr6  1  0.91402750  0.25596750  0.15602400  1
  Cr  Cr7  1  0.25000000  0.25000000  0.50000000  1
  Cr  Cr8  1  0.08597250  0.74403250  0.84397600  1
  Cr  Cr9  1  0.91402750  0.74403250  0.15602400  1
  Cr  Cr10  1  0.25000000  0.75000000  0.50000000  1
  Cr  Cr11  1  0.08597250  0.25596750  0.84397600  1
  Pb  Pb12  1  0.00000000  0.00000000  0.50000000  1
  Pb  Pb13  1  0.50000000  0.50000000  0.50000000  1
  O  O14  1  0.50000000  0.75061500  0.00000000  1
  O  O15  1  0.33595750  0.25495650  0.33682300  1
  O  O16  1  0.66404250  0.25495650  0.66317700  1
  O  O17  1  0.75000000  0.75000000  0.00000000  1
  O  O18  1  0.58293700  0.25439200  0.33669000  1
  O  O19  1  0.41706300  0.74560800  0.66331000  1
  O  O20  1  0.91806200  0.00000000  0.17214600  1
  O  O21  1  0.24586400  0.00000000  0.50009100  1
  O  O22  1  0.58338700  0.00000000  0.83326000  1
  O  O23  1  0.50000000  0.24938500  0.00000000  1
  O  O24  1  0.33595750  0.74504350  0.33682300  1
  O  O25  1  0.75000000  0.25000000  0.00000000  1
  O  O26  1  0.58293700  0.74560800  0.33669000  1
  O  O27  1  0.66404250  0.74504350  0.66317700  1
  O  O28  1  0.41706300  0.25439200  0.66331000  1
  O  O29  1  0.41661300  0.00000000  0.16674000  1
  O  O30  1  0.75413600  0.00000000  0.49990900  1
  O  O31  1  0.08193800  0.00000000  0.82785400  1
  O  O32  1  0.00000000  0.25061500  0.00000000  1
  O  O33  1  0.83595750  0.75495650  0.33682300  1
  O  O34  1  0.16404250  0.75495650  0.66317700  1
  O  O35  1  0.25000000  0.25000000  0.00000000  1
  O  O36  1  0.08293700  0.75439200  0.33669000  1
  O  O37  1  0.91706300  0.24560800  0.66331000  1
  O  O38  1  0.41806200  0.50000000  0.17214600  1
  O  O39  1  0.74586400  0.50000000  0.50009100  1
  O  O40  1  0.08338700  0.50000000  0.83326000  1
  O  O41  1  0.00000000  0.74938500  0.00000000  1
  O  O42  1  0.83595750  0.24504350  0.33682300  1
  O  O43  1  0.25000000  0.75000000  0.00000000  1
  O  O44  1  0.08293700  0.24560800  0.33669000  1
  O  O45  1  0.16404250  0.24504350  0.66317700  1
  O  O46  1  0.91706300  0.75439200  0.66331000  1
  O  O47  1  0.91661300  0.50000000  0.16674000  1
  O  O48  1  0.25413600  0.50000000  0.49990900  1
  O  O49  1  0.58193800  0.50000000  0.82785400  1
