# generated using pymatgen
data_Rb8In11
_symmetry_space_group_name_H-M   'P 1'
_cell_length_a   10.36484994
_cell_length_b   10.36484994
_cell_length_c   52.82484918
_cell_angle_alpha   90.00000000
_cell_angle_beta   90.00000000
_cell_angle_gamma   120.00000000
_symmetry_Int_Tables_number   1
_chemical_formula_structural   Rb8In11
_chemical_formula_sum   'Rb48 In66'
_cell_volume   4914.67648421
_cell_formula_units_Z   6
loop_
 _symmetry_equiv_pos_site_id
 _symmetry_equiv_pos_as_xyz
  1  'x, y, z'
loop_
 _atom_site_type_symbol
 _atom_site_label
 _atom_site_symmetry_multiplicity
 _atom_site_fract_x
 _atom_site_fract_y
 _atom_site_fract_z
 _atom_site_occupancy
  Rb  Rb0  1  0.03633333  0.73763967  0.14487667  1
  Rb  Rb1  1  0.96536033  0.36966667  0.18845667  1
  Rb  Rb2  1  0.40430633  0.03463967  0.18845667  1
  Rb  Rb3  1  0.36966667  0.96536033  0.31154333  1
  Rb  Rb4  1  0.33333333  0.66666667  0.08718167  1
  Rb  Rb5  1  0.00000000  0.00000000  0.07948500  1
  Rb  Rb6  1  0.26236033  0.29869367  0.14487667  1
  Rb  Rb7  1  0.66666667  0.33333333  0.25384833  1
  Rb  Rb8  1  0.63033333  0.59569367  0.18845667  1
  Rb  Rb9  1  0.59569367  0.63033333  0.31154333  1
  Rb  Rb10  1  0.29700000  0.36797300  0.02179000  1
  Rb  Rb11  1  0.63202700  0.92902700  0.02179000  1
  Rb  Rb12  1  0.33333333  0.66666667  0.24615167  1
  Rb  Rb13  1  0.03463967  0.40430633  0.31154333  1
  Rb  Rb14  1  0.07097300  0.70300000  0.02179000  1
  Rb  Rb15  1  0.70130633  0.96366667  0.14487667  1
  Rb  Rb16  1  0.70300000  0.07097300  0.47821000  1
  Rb  Rb17  1  0.63202700  0.70300000  0.52179000  1
  Rb  Rb18  1  0.07097300  0.36797300  0.52179000  1
  Rb  Rb19  1  0.03633333  0.29869367  0.64487667  1
  Rb  Rb20  1  0.00000000  0.00000000  0.42051500  1
  Rb  Rb21  1  0.66666667  0.33333333  0.41281833  1
  Rb  Rb22  1  0.92902700  0.63202700  0.47821000  1
  Rb  Rb23  1  0.33333333  0.66666667  0.58718167  1
  Rb  Rb24  1  0.29700000  0.92902700  0.52179000  1
  Rb  Rb25  1  0.26236033  0.96366667  0.64487667  1
  Rb  Rb26  1  0.96366667  0.70130633  0.35512333  1
  Rb  Rb27  1  0.29869367  0.26236033  0.35512333  1
  Rb  Rb28  1  0.00000000  0.00000000  0.57948500  1
  Rb  Rb29  1  0.70130633  0.73763967  0.64487667  1
  Rb  Rb30  1  0.73763967  0.03633333  0.35512333  1
  Rb  Rb31  1  0.36797300  0.29700000  0.47821000  1
  Rb  Rb32  1  0.36966667  0.40430633  0.81154333  1
  Rb  Rb33  1  0.29869367  0.03633333  0.85512333  1
  Rb  Rb34  1  0.73763967  0.70130633  0.85512333  1
  Rb  Rb35  1  0.70300000  0.63202700  0.97821000  1
  Rb  Rb36  1  0.66666667  0.33333333  0.75384833  1
  Rb  Rb37  1  0.33333333  0.66666667  0.74615167  1
  Rb  Rb38  1  0.59569367  0.96536033  0.81154333  1
  Rb  Rb39  1  0.00000000  0.00000000  0.92051500  1
  Rb  Rb40  1  0.96366667  0.26236033  0.85512333  1
  Rb  Rb41  1  0.92902700  0.29700000  0.97821000  1
  Rb  Rb42  1  0.63033333  0.03463967  0.68845667  1
  Rb  Rb43  1  0.96536033  0.59569367  0.68845667  1
  Rb  Rb44  1  0.66666667  0.33333333  0.91281833  1
  Rb  Rb45  1  0.36797300  0.07097300  0.97821000  1
  Rb  Rb46  1  0.40430633  0.36966667  0.68845667  1
  Rb  Rb47  1  0.03463967  0.63033333  0.81154333  1
  In  In48  1  0.66666667  0.33333333  0.13223033  1
  In  In49  1  0.00000000  0.00000000  0.29889700  1
  In  In50  1  0.95416033  0.34123567  0.11323667  1
  In  In51  1  0.37917300  0.05374200  0.05343000  1
  In  In52  1  0.87291067  0.53957733  0.08333333  1
  In  In53  1  0.00000000  0.00000000  0.20110300  1
  In  In54  1  0.65876433  0.61292467  0.11323667  1
  In  In55  1  0.79375600  0.79375600  0.25000000  1
  In  In56  1  0.38707533  0.04583967  0.11323667  1
  In  In57  1  0.67456900  0.62082700  0.05343000  1
  In  In58  1  0.00000000  0.20624400  0.25000000  1
  In  In59  1  0.99209767  0.71250633  0.27990333  1
  In  In60  1  0.66666667  0.33333333  0.03443633  1
  In  In61  1  0.28749367  0.27959133  0.27990333  1
  In  In62  1  0.94625800  0.32543100  0.05343000  1
  In  In63  1  0.27959133  0.28749367  0.22009667  1
  In  In64  1  0.66666667  0.12708933  0.08333333  1
  In  In65  1  0.00790233  0.72040867  0.22009667  1
  In  In66  1  0.20624400  1.00000000  0.25000000  1
  In  In67  1  0.46042267  0.33333333  0.08333333  1
  In  In68  1  0.71250633  0.99209767  0.22009667  1
  In  In69  1  0.72040867  0.00790233  0.27990333  1
  In  In70  1  0.33333333  0.66666667  0.46556367  1
  In  In71  1  0.66666667  0.33333333  0.63223033  1
  In  In72  1  0.62082700  0.67456900  0.44657000  1
  In  In73  1  0.04583967  0.38707533  0.38676333  1
  In  In74  1  0.53957733  0.87291067  0.41666667  1
  In  In75  1  0.66666667  0.33333333  0.53443633  1
  In  In76  1  0.32543100  0.94625800  0.44657000  1
  In  In77  1  0.46042267  0.12708933  0.58333333  1
  In  In78  1  0.05374200  0.37917300  0.44657000  1
  In  In79  1  0.34123567  0.95416033  0.38676333  1
  In  In80  1  0.66666667  0.53957733  0.58333333  1
  In  In81  1  0.65876433  0.04583967  0.61323667  1
  In  In82  1  0.33333333  0.66666667  0.36776967  1
  In  In83  1  0.95416033  0.61292467  0.61323667  1
  In  In84  1  0.61292467  0.65876433  0.38676333  1
  In  In85  1  0.94625800  0.62082700  0.55343000  1
  In  In86  1  0.33333333  0.46042267  0.41666667  1
  In  In87  1  0.67456900  0.05374200  0.55343000  1
  In  In88  1  0.87291067  0.33333333  0.58333333  1
  In  In89  1  0.12708933  0.66666667  0.41666667  1
  In  In90  1  0.37917300  0.32543100  0.55343000  1
  In  In91  1  0.38707533  0.34123567  0.61323667  1
  In  In92  1  0.00000000  0.00000000  0.79889700  1
  In  In93  1  0.33333333  0.66666667  0.96556367  1
  In  In94  1  0.28749367  0.00790233  0.77990333  1
  In  In95  1  0.71250633  0.72040867  0.72009667  1
  In  In96  1  0.20624400  0.20624400  0.75000000  1
  In  In97  1  0.33333333  0.66666667  0.86776967  1
  In  In98  1  0.99209767  0.27959133  0.77990333  1
  In  In99  1  0.12708933  0.46042267  0.91666667  1
  In  In100  1  0.72040867  0.71250633  0.77990333  1
  In  In101  1  0.00790233  0.28749367  0.72009667  1
  In  In102  1  0.33333333  0.87291067  0.91666667  1
  In  In103  1  0.32543100  0.37917300  0.94657000  1
  In  In104  1  0.00000000  1.00000000  0.70110300  1
  In  In105  1  0.62082700  0.94625800  0.94657000  1
  In  In106  1  0.27959133  0.99209767  0.72009667  1
  In  In107  1  0.61292467  0.95416033  0.88676333  1
  In  In108  1  0.00000000  0.79375600  0.75000000  1
  In  In109  1  0.34123567  0.38707533  0.88676333  1
  In  In110  1  0.53957733  0.66666667  0.91666667  1
  In  In111  1  0.79375600  0.00000000  0.75000000  1
  In  In112  1  0.04583967  0.65876433  0.88676333  1
  In  In113  1  0.05374200  0.67456900  0.94657000  1
