# generated using pymatgen
data_Ba4Zr(RuO4)3
_symmetry_space_group_name_H-M   'P 1'
_cell_length_a   5.88540445
_cell_length_b   5.88540445
_cell_length_c   29.23628576
_cell_angle_alpha   90.00000000
_cell_angle_beta   90.00000000
_cell_angle_gamma   120.00000000
_symmetry_Int_Tables_number   1
_chemical_formula_structural   Ba4Zr(RuO4)3
_chemical_formula_sum   'Ba12 Zr3 Ru9 O36'
_cell_volume   877.01184101
_cell_formula_units_Z   3
loop_
 _symmetry_equiv_pos_site_id
 _symmetry_equiv_pos_as_xyz
  1  'x, y, z'
loop_
 _atom_site_type_symbol
 _atom_site_label
 _atom_site_symmetry_multiplicity
 _atom_site_fract_x
 _atom_site_fract_y
 _atom_site_fract_z
 _atom_site_occupancy
  Ba  Ba0  1  0.00000000  0.00000000  0.28664100  1
  Ba  Ba1  1  0.66666667  0.33333333  0.04669233  1
  Ba  Ba2  1  0.00000000  0.00000000  0.12847400  1
  Ba  Ba3  1  0.66666667  0.33333333  0.20485933  1
  Ba  Ba4  1  0.66666667  0.33333333  0.61997433  1
  Ba  Ba5  1  0.33333333  0.66666667  0.38002567  1
  Ba  Ba6  1  0.66666667  0.33333333  0.46180733  1
  Ba  Ba7  1  0.33333333  0.66666667  0.53819267  1
  Ba  Ba8  1  0.33333333  0.66666667  0.95330767  1
  Ba  Ba9  1  0.00000000  0.00000000  0.71335900  1
  Ba  Ba10  1  0.33333333  0.66666667  0.79514067  1
  Ba  Ba11  1  0.00000000  0.00000000  0.87152600  1
  Zr  Zr12  1  0.00000000  0.00000000  0.00000000  1
  Zr  Zr13  1  0.66666667  0.33333333  0.33333333  1
  Zr  Zr14  1  0.33333333  0.66666667  0.66666667  1
  Ru  Ru15  1  0.33333333  0.66666667  0.25408467  1
  Ru  Ru16  1  0.33333333  0.66666667  0.16666667  1
  Ru  Ru17  1  0.33333333  0.66666667  0.07924867  1
  Ru  Ru18  1  0.00000000  0.00000000  0.58741800  1
  Ru  Ru19  1  1.00000000  1.00000000  0.50000000  1
  Ru  Ru20  1  0.00000000  0.00000000  0.41258200  1
  Ru  Ru21  1  0.66666667  0.33333333  0.92075133  1
  Ru  Ru22  1  0.66666667  0.33333333  0.83333333  1
  Ru  Ru23  1  0.66666667  0.33333333  0.74591533  1
  O  O24  1  0.00670800  0.50335400  0.29230500  1
  O  O25  1  0.49664600  0.99329200  0.29230500  1
  O  O26  1  0.49664600  0.50335400  0.29230500  1
  O  O27  1  0.17002067  0.82997933  0.04102833  1
  O  O28  1  0.65995867  0.82997933  0.04102833  1
  O  O29  1  0.17002067  0.34004133  0.04102833  1
  O  O30  1  0.02237200  0.51118600  0.12311500  1
  O  O31  1  0.48881400  0.97762800  0.12311500  1
  O  O32  1  0.17785267  0.35570533  0.21021833  1
  O  O33  1  0.64429467  0.82214733  0.21021833  1
  O  O34  1  0.17785267  0.82214733  0.21021833  1
  O  O35  1  0.48881400  0.51118600  0.12311500  1
  O  O36  1  0.67337467  0.83668733  0.62563833  1
  O  O37  1  0.16331267  0.32662533  0.62563833  1
  O  O38  1  0.16331267  0.83668733  0.62563833  1
  O  O39  1  0.83668733  0.16331267  0.37436167  1
  O  O40  1  0.32662533  0.16331267  0.37436167  1
  O  O41  1  0.83668733  0.67337467  0.37436167  1
  O  O42  1  0.68903867  0.84451933  0.45644833  1
  O  O43  1  0.15548067  0.31096133  0.45644833  1
  O  O44  1  0.84451933  0.68903867  0.54355167  1
  O  O45  1  0.31096133  0.15548067  0.54355167  1
  O  O46  1  0.84451933  0.15548067  0.54355167  1
  O  O47  1  0.15548067  0.84451933  0.45644833  1
  O  O48  1  0.34004133  0.17002067  0.95897167  1
  O  O49  1  0.82997933  0.65995867  0.95897167  1
  O  O50  1  0.82997933  0.17002067  0.95897167  1
  O  O51  1  0.50335400  0.49664600  0.70769500  1
  O  O52  1  0.99329200  0.49664600  0.70769500  1
  O  O53  1  0.50335400  0.00670800  0.70769500  1
  O  O54  1  0.35570533  0.17785267  0.78978167  1
  O  O55  1  0.82214733  0.64429467  0.78978167  1
  O  O56  1  0.51118600  0.02237200  0.87688500  1
  O  O57  1  0.97762800  0.48881400  0.87688500  1
  O  O58  1  0.51118600  0.48881400  0.87688500  1
  O  O59  1  0.82214733  0.17785267  0.78978167  1
