# generated using pymatgen
data_Cd3(BiO2)10
_symmetry_space_group_name_H-M   'P 1'
_cell_length_a   14.52602400
_cell_length_b   10.07391400
_cell_length_c   10.32987730
_cell_angle_alpha   90.00000000
_cell_angle_beta   134.49985459
_cell_angle_gamma   90.00000000
_symmetry_Int_Tables_number   1
_chemical_formula_structural   Cd3(BiO2)10
_chemical_formula_sum   'Cd6 Bi20 O40'
_cell_volume   1078.16020094
_cell_formula_units_Z   2
loop_
 _symmetry_equiv_pos_site_id
 _symmetry_equiv_pos_as_xyz
  1  'x, y, z'
loop_
 _atom_site_type_symbol
 _atom_site_label
 _atom_site_symmetry_multiplicity
 _atom_site_fract_x
 _atom_site_fract_y
 _atom_site_fract_z
 _atom_site_occupancy
  Cd  Cd0  1  0.00000000  0.00030300  0.00000000  1
  Cd  Cd1  1  0.68614550  0.99329750  0.86894000  1
  Cd  Cd2  1  0.81385450  0.49329750  0.13106000  1
  Cd  Cd3  1  0.50000000  0.50030300  0.00000000  1
  Cd  Cd4  1  0.18614550  0.49329750  0.86894000  1
  Cd  Cd5  1  0.31385450  0.99329750  0.13106000  1
  Bi  Bi6  1  0.99641900  0.82275400  0.68134400  1
  Bi  Bi7  1  0.18284150  0.68405550  0.18948900  1
  Bi  Bi8  1  0.00358100  0.82275400  0.31865600  1
  Bi  Bi9  1  0.16563100  0.49510500  0.50088800  1
  Bi  Bi10  1  0.18123400  0.31616000  0.17612200  1
  Bi  Bi11  1  0.31715850  0.18405550  0.81051100  1
  Bi  Bi12  1  0.33436900  0.99510500  0.49911200  1
  Bi  Bi13  1  0.51401250  0.67163450  0.70282500  1
  Bi  Bi14  1  0.31876600  0.81616000  0.82387800  1
  Bi  Bi15  1  0.48598750  0.67163450  0.29717500  1
  Bi  Bi16  1  0.49641900  0.32275400  0.68134400  1
  Bi  Bi17  1  0.68284150  0.18405550  0.18948900  1
  Bi  Bi18  1  0.50358100  0.32275400  0.31865600  1
  Bi  Bi19  1  0.66563100  0.99510500  0.50088800  1
  Bi  Bi20  1  0.68123400  0.81616000  0.17612200  1
  Bi  Bi21  1  0.81715850  0.68405550  0.81051100  1
  Bi  Bi22  1  0.83436900  0.49510500  0.49911200  1
  Bi  Bi23  1  0.01401250  0.17163450  0.70282500  1
  Bi  Bi24  1  0.81876600  0.31616000  0.82387800  1
  Bi  Bi25  1  0.98598750  0.17163450  0.29717500  1
  O  O26  1  0.13176000  0.86615300  0.01037900  1
  O  O27  1  0.23491050  0.50911450  0.37579200  1
  O  O28  1  0.37740500  0.64007500  0.75541600  1
  O  O29  1  0.12802500  0.75471900  0.61269100  1
  O  O30  1  0.17405100  0.82412500  0.34947600  1
  O  O31  1  0.87197500  0.75471900  0.38730900  1
  O  O32  1  0.25513750  0.49689150  0.14028100  1
  O  O33  1  0.50986200  0.12310300  0.74240600  1
  O  O34  1  0.36824000  0.36615300  0.98962100  1
  O  O35  1  0.99013800  0.62310300  0.25759400  1
  O  O36  1  0.17696000  0.17841500  0.00430200  1
  O  O37  1  0.00551250  0.37135250  0.26575300  1
  O  O38  1  0.49448750  0.87135250  0.73424700  1
  O  O39  1  0.32594900  0.32412500  0.65052400  1
  O  O40  1  0.62804750  0.75289250  0.63769800  1
  O  O41  1  0.24486250  0.99689150  0.85971900  1
  O  O42  1  0.26508950  0.00911450  0.62420800  1
  O  O43  1  0.37195250  0.75289250  0.36230200  1
  O  O44  1  0.12259500  0.14007500  0.24458400  1
  O  O45  1  0.32304000  0.67841500  0.99569800  1
  O  O46  1  0.63176000  0.36615300  0.01037900  1
  O  O47  1  0.73491050  0.00911450  0.37579200  1
  O  O48  1  0.87740500  0.14007500  0.75541600  1
  O  O49  1  0.62802500  0.25471900  0.61269100  1
  O  O50  1  0.67405100  0.32412500  0.34947600  1
  O  O51  1  0.37197500  0.25471900  0.38730900  1
  O  O52  1  0.75513750  0.99689150  0.14028100  1
  O  O53  1  0.00986200  0.62310300  0.74240600  1
  O  O54  1  0.86824000  0.86615300  0.98962100  1
  O  O55  1  0.49013800  0.12310300  0.25759400  1
  O  O56  1  0.67696000  0.67841500  0.00430200  1
  O  O57  1  0.50551250  0.87135250  0.26575300  1
  O  O58  1  0.99448750  0.37135250  0.73424700  1
  O  O59  1  0.82594900  0.82412500  0.65052400  1
  O  O60  1  0.12804750  0.25289250  0.63769800  1
  O  O61  1  0.74486250  0.49689150  0.85971900  1
  O  O62  1  0.76508950  0.50911450  0.62420800  1
  O  O63  1  0.87195250  0.25289250  0.36230200  1
  O  O64  1  0.62259500  0.64007500  0.24458400  1
  O  O65  1  0.82304000  0.17841500  0.99569800  1
