# generated using pymatgen
data_Ti5Fe11O24
_symmetry_space_group_name_H-M   'P 1'
_cell_length_a   7.51033657
_cell_length_b   7.57095503
_cell_length_c   8.89580769
_cell_angle_alpha   113.03177573
_cell_angle_beta   113.09354971
_cell_angle_gamma   85.61903568
_symmetry_Int_Tables_number   1
_chemical_formula_structural   Ti5Fe11O24
_chemical_formula_sum   'Ti5 Fe11 O24'
_cell_volume   426.41874921
_cell_formula_units_Z   1
loop_
 _symmetry_equiv_pos_site_id
 _symmetry_equiv_pos_as_xyz
  1  'x, y, z'
loop_
 _atom_site_type_symbol
 _atom_site_label
 _atom_site_symmetry_multiplicity
 _atom_site_fract_x
 _atom_site_fract_y
 _atom_site_fract_z
 _atom_site_occupancy
  Ti  Ti0  1  0.52631000  0.03587100  0.34797600  1
  Ti  Ti1  1  0.53081300  0.53659500  0.35110700  1
  Ti  Ti2  1  0.02604800  0.53100500  0.33872900  1
  Ti  Ti3  1  0.27767100  0.28572700  0.86287800  1
  Ti  Ti4  1  0.78730600  0.77820700  0.86610400  1
  Fe  Fe5  1  0.96748300  0.97235400  0.64722200  1
  Fe  Fe6  1  0.96825800  0.46810300  0.64348300  1
  Fe  Fe7  1  0.23123500  0.72637500  0.15534500  1
  Fe  Fe8  1  0.28163700  0.77876100  0.85359700  1
  Fe  Fe9  1  0.46739900  0.46838100  0.64968900  1
  Fe  Fe10  1  0.21228700  0.20811100  0.14539000  1
  Fe  Fe11  1  0.46915600  0.96921100  0.64399400  1
  Fe  Fe12  1  0.71861500  0.21264500  0.13895900  1
  Fe  Fe13  1  0.78318000  0.28403700  0.85692200  1
  Fe  Fe14  1  0.72964400  0.72918400  0.15433300  1
  Fe  Fe15  1  0.02982100  0.03129400  0.35370100  1
  O  O16  1  0.53267700  0.71386300  0.25975700  1
  O  O17  1  0.68967600  0.03891300  0.57814100  1
  O  O18  1  0.05207200  0.19740600  0.88749000  1
  O  O19  1  0.77677000  0.48755800  0.74974800  1
  O  O20  1  0.04782200  0.19950600  0.59548900  1
  O  O21  1  0.20467300  0.53661900  0.89505900  1
  O  O22  1  0.02807400  0.23367300  0.26773600  1
  O  O23  1  0.19452800  0.54974600  0.59107800  1
  O  O24  1  0.31693000  0.93724300  0.09859300  1
  O  O25  1  0.54767700  0.69763300  0.89114400  1
  O  O26  1  0.46720300  0.29467700  0.41113900  1
  O  O27  1  0.28011500  0.97385800  0.75293700  1
  O  O28  1  0.71972600  0.02691300  0.26316200  1
  O  O29  1  0.54236100  0.69426800  0.58172000  1
  O  O30  1  0.43945900  0.30982400  0.09406200  1
  O  O31  1  0.69847700  0.02375900  0.88579800  1
  O  O32  1  0.78800800  0.46579200  0.41004100  1
  O  O33  1  0.97081300  0.78119700  0.75796400  1
  O  O34  1  0.81502900  0.45962300  0.11239200  1
  O  O35  1  0.96281700  0.79587900  0.40989500  1
  O  O36  1  0.22394000  0.53477400  0.26553100  1
  O  O37  1  0.95062900  0.81135300  0.09425300  1
  O  O38  1  0.30006200  0.95823800  0.40308000  1
  O  O39  1  0.46292700  0.27613900  0.75400500  1
