# generated using pymatgen
data_VHO2
_symmetry_space_group_name_H-M   'P 1'
_cell_length_a   3.13600400
_cell_length_b   4.66554300
_cell_length_c   10.02131600
_cell_angle_alpha   90.00000000
_cell_angle_beta   90.00000000
_cell_angle_gamma   90.00000000
_symmetry_Int_Tables_number   1
_chemical_formula_structural   VHO2
_chemical_formula_sum   'V4 H4 O8'
_cell_volume   146.62349297
_cell_formula_units_Z   4
loop_
 _symmetry_equiv_pos_site_id
 _symmetry_equiv_pos_as_xyz
  1  'x, y, z'
loop_
 _atom_site_type_symbol
 _atom_site_label
 _atom_site_symmetry_multiplicity
 _atom_site_fract_x
 _atom_site_fract_y
 _atom_site_fract_z
 _atom_site_occupancy
  V  V0  1  0.25000000  0.05948200  0.64411200  1
  V  V1  1  0.25000000  0.44051800  0.14411200  1
  V  V2  1  0.75000000  0.94051800  0.35588800  1
  V  V3  1  0.75000000  0.55948200  0.85588800  1
  H  H4  1  0.25000000  0.39211200  0.40887700  1
  H  H5  1  0.25000000  0.10788800  0.90887700  1
  H  H6  1  0.75000000  0.60788800  0.59112300  1
  H  H7  1  0.75000000  0.89211200  0.09112300  1
  O  O8  1  0.25000000  0.69032200  0.30178000  1
  O  O9  1  0.25000000  0.80967800  0.80178000  1
  O  O10  1  0.75000000  0.30967800  0.69822000  1
  O  O11  1  0.75000000  0.19032200  0.19822000  1
  O  O12  1  0.25000000  0.18992400  0.44209300  1
  O  O13  1  0.25000000  0.31007600  0.94209300  1
  O  O14  1  0.75000000  0.81007600  0.55790700  1
  O  O15  1  0.75000000  0.68992400  0.05790700  1
