# generated using pymatgen
data_Na3(CoO2)4
_symmetry_space_group_name_H-M   'P 1'
_cell_length_a   11.32026200
_cell_length_b   5.90209000
_cell_length_c   5.04593630
_cell_angle_alpha   90.00000000
_cell_angle_beta   107.14279970
_cell_angle_gamma   90.00000000
_symmetry_Int_Tables_number   1
_chemical_formula_structural   Na3(CoO2)4
_chemical_formula_sum   'Na6 Co8 O16'
_cell_volume   322.15730687
_cell_formula_units_Z   2
loop_
 _symmetry_equiv_pos_site_id
 _symmetry_equiv_pos_as_xyz
  1  'x, y, z'
loop_
 _atom_site_type_symbol
 _atom_site_label
 _atom_site_symmetry_multiplicity
 _atom_site_fract_x
 _atom_site_fract_y
 _atom_site_fract_z
 _atom_site_occupancy
  Na  Na0  1  0.00000000  0.26542800  0.50000000  1
  Na  Na1  1  0.00000000  0.73457200  0.50000000  1
  Na  Na2  1  0.00000000  0.00000000  0.00000000  1
  Na  Na3  1  0.50000000  0.76542800  0.50000000  1
  Na  Na4  1  0.50000000  0.23457200  0.50000000  1
  Na  Na5  1  0.50000000  0.50000000  0.00000000  1
  Co  Co6  1  0.24708400  0.50000000  0.49504400  1
  Co  Co7  1  0.25000000  0.75000000  0.00000000  1
  Co  Co8  1  0.25291600  0.00000000  0.50495600  1
  Co  Co9  1  0.25000000  0.25000000  0.00000000  1
  Co  Co10  1  0.74708400  0.00000000  0.49504400  1
  Co  Co11  1  0.75000000  0.25000000  0.00000000  1
  Co  Co12  1  0.75291600  0.50000000  0.50495600  1
  Co  Co13  1  0.75000000  0.75000000  0.00000000  1
  O  O14  1  0.15512600  0.50000000  0.75458800  1
  O  O15  1  0.34500500  0.74030800  0.73007900  1
  O  O16  1  0.15499500  0.75969200  0.26992100  1
  O  O17  1  0.34487400  0.00000000  0.24541200  1
  O  O18  1  0.16074000  0.00000000  0.77654900  1
  O  O19  1  0.34500500  0.25969200  0.73007900  1
  O  O20  1  0.15499500  0.24030800  0.26992100  1
  O  O21  1  0.33926000  0.50000000  0.22345100  1
  O  O22  1  0.65512600  0.00000000  0.75458800  1
  O  O23  1  0.84500500  0.24030800  0.73007900  1
  O  O24  1  0.65499500  0.25969200  0.26992100  1
  O  O25  1  0.84487400  0.50000000  0.24541200  1
  O  O26  1  0.66074000  0.50000000  0.77654900  1
  O  O27  1  0.84500500  0.75969200  0.73007900  1
  O  O28  1  0.65499500  0.74030800  0.26992100  1
  O  O29  1  0.83926000  0.00000000  0.22345100  1
