# generated using pymatgen
data_K11LiMn4O16
_symmetry_space_group_name_H-M   'P 1'
_cell_length_a   7.96443110
_cell_length_b   7.96443110
_cell_length_c   17.79520190
_cell_angle_alpha   90.00000000
_cell_angle_beta   90.00000000
_cell_angle_gamma   90.00000000
_symmetry_Int_Tables_number   1
_chemical_formula_structural   K11LiMn4O16
_chemical_formula_sum   'K22 Li2 Mn8 O32'
_cell_volume   1128.78814218
_cell_formula_units_Z   2
loop_
 _symmetry_equiv_pos_site_id
 _symmetry_equiv_pos_as_xyz
  1  'x, y, z'
loop_
 _atom_site_type_symbol
 _atom_site_label
 _atom_site_symmetry_multiplicity
 _atom_site_fract_x
 _atom_site_fract_y
 _atom_site_fract_z
 _atom_site_occupancy
  K  K0  1  0.50000000  0.50000000  0.79147900  1
  K  K1  1  0.50000000  0.00000000  0.00000000  1
  K  K2  1  0.50000000  0.00000000  0.75000000  1
  K  K3  1  0.30552000  0.30552000  0.62217450  1
  K  K4  1  0.19448000  0.80552000  0.87782550  1
  K  K5  1  0.00000000  0.00000000  0.70852100  1
  K  K6  1  0.50000000  0.00000000  0.50000000  1
  K  K7  1  0.80552000  0.19448000  0.87782550  1
  K  K8  1  0.69448000  0.69448000  0.62217450  1
  K  K9  1  0.00000000  0.50000000  0.75000000  1
  K  K10  1  0.50000000  0.50000000  0.00000000  1
  K  K11  1  0.00000000  0.00000000  0.29147900  1
  K  K12  1  0.00000000  0.50000000  0.50000000  1
  K  K13  1  0.00000000  0.50000000  0.25000000  1
  K  K14  1  0.80552000  0.80552000  0.12217450  1
  K  K15  1  0.69448000  0.30552000  0.37782550  1
  K  K16  1  0.50000000  0.50000000  0.20852100  1
  K  K17  1  0.00000000  0.50000000  0.00000000  1
  K  K18  1  0.30552000  0.69448000  0.37782550  1
  K  K19  1  0.19448000  0.19448000  0.12217450  1
  K  K20  1  0.50000000  0.00000000  0.25000000  1
  K  K21  1  0.00000000  0.00000000  0.50000000  1
  Li  Li22  1  0.50000000  0.50000000  0.50000000  1
  Li  Li23  1  0.00000000  0.00000000  0.00000000  1
  Mn  Mn24  1  0.24346500  0.75653500  0.62351550  1
  Mn  Mn25  1  0.25653500  0.25653500  0.87648450  1
  Mn  Mn26  1  0.74346500  0.74346500  0.87648450  1
  Mn  Mn27  1  0.75653500  0.24346500  0.62351550  1
  Mn  Mn28  1  0.74346500  0.25653500  0.12351550  1
  Mn  Mn29  1  0.75653500  0.75653500  0.37648450  1
  Mn  Mn30  1  0.24346500  0.24346500  0.37648450  1
  Mn  Mn31  1  0.25653500  0.74346500  0.12351550  1
  O  O32  1  0.69813900  0.30186100  0.71295450  1
  O  O33  1  0.85419700  0.85419700  0.94320600  1
  O  O34  1  0.03154850  0.72112650  0.61367650  1
  O  O35  1  0.72112650  0.03154850  0.61367650  1
  O  O36  1  0.30186100  0.69813900  0.71295450  1
  O  O37  1  0.96845150  0.27887350  0.61367650  1
  O  O38  1  0.46845150  0.22112650  0.88632350  1
  O  O39  1  0.64580300  0.35419700  0.55679400  1
  O  O40  1  0.80186100  0.80186100  0.78704550  1
  O  O41  1  0.14580300  0.14580300  0.94320600  1
  O  O42  1  0.77887350  0.53154850  0.88632350  1
  O  O43  1  0.19813900  0.19813900  0.78704550  1
  O  O44  1  0.27887350  0.96845150  0.61367650  1
  O  O45  1  0.35419700  0.64580300  0.55679400  1
  O  O46  1  0.22112650  0.46845150  0.88632350  1
  O  O47  1  0.53154850  0.77887350  0.88632350  1
  O  O48  1  0.19813900  0.80186100  0.21295450  1
  O  O49  1  0.35419700  0.35419700  0.44320600  1
  O  O50  1  0.53154850  0.22112650  0.11367650  1
  O  O51  1  0.22112650  0.53154850  0.11367650  1
  O  O52  1  0.80186100  0.19813900  0.21295450  1
  O  O53  1  0.46845150  0.77887350  0.11367650  1
  O  O54  1  0.96845150  0.72112650  0.38632350  1
  O  O55  1  0.14580300  0.85419700  0.05679400  1
  O  O56  1  0.30186100  0.30186100  0.28704550  1
  O  O57  1  0.64580300  0.64580300  0.44320600  1
  O  O58  1  0.27887350  0.03154850  0.38632350  1
  O  O59  1  0.69813900  0.69813900  0.28704550  1
  O  O60  1  0.77887350  0.46845150  0.11367650  1
  O  O61  1  0.85419700  0.14580300  0.05679400  1
  O  O62  1  0.72112650  0.96845150  0.38632350  1
  O  O63  1  0.03154850  0.27887350  0.38632350  1
