# generated using pymatgen
data_Co8As3O16
_symmetry_space_group_name_H-M   'P 1'
_cell_length_a   10.47383200
_cell_length_b   6.16218200
_cell_length_c   9.91292162
_cell_angle_alpha   90.00000000
_cell_angle_beta   110.20812982
_cell_angle_gamma   90.00000000
_symmetry_Int_Tables_number   1
_chemical_formula_structural   Co8As3O16
_chemical_formula_sum   'Co16 As6 O32'
_cell_volume   600.41311130
_cell_formula_units_Z   2
loop_
 _symmetry_equiv_pos_site_id
 _symmetry_equiv_pos_as_xyz
  1  'x, y, z'
loop_
 _atom_site_type_symbol
 _atom_site_label
 _atom_site_symmetry_multiplicity
 _atom_site_fract_x
 _atom_site_fract_y
 _atom_site_fract_z
 _atom_site_occupancy
  Co  Co0  1  0.75000000  0.25000000  0.00000000  1
  Co  Co1  1  0.50525800  0.75965200  0.25525100  1
  Co  Co2  1  0.50525800  0.24034800  0.25525100  1
  Co  Co3  1  0.25218000  0.00000000  0.26712700  1
  Co  Co4  1  0.74782000  0.00000000  0.73287300  1
  Co  Co5  1  0.49474200  0.75965200  0.74474900  1
  Co  Co6  1  0.49474200  0.24034800  0.74474900  1
  Co  Co7  1  0.75000000  0.75000000  0.00000000  1
  Co  Co8  1  0.25000000  0.75000000  0.00000000  1
  Co  Co9  1  0.00525800  0.25965200  0.25525100  1
  Co  Co10  1  0.00525800  0.74034800  0.25525100  1
  Co  Co11  1  0.75218000  0.50000000  0.26712700  1
  Co  Co12  1  0.24782000  0.50000000  0.73287300  1
  Co  Co13  1  0.99474200  0.25965200  0.74474900  1
  Co  Co14  1  0.99474200  0.74034800  0.74474900  1
  Co  Co15  1  0.25000000  0.25000000  0.00000000  1
  As  As16  1  0.00000000  0.00000000  0.00000000  1
  As  As17  1  0.18918700  0.00000000  0.58109500  1
  As  As18  1  0.81081300  0.00000000  0.41890500  1
  As  As19  1  0.50000000  0.50000000  0.00000000  1
  As  As20  1  0.68918700  0.50000000  0.58109500  1
  As  As21  1  0.31081300  0.50000000  0.41890500  1
  O  O22  1  0.12543700  0.00000000  0.39117500  1
  O  O23  1  0.38542150  0.28905650  0.88376400  1
  O  O24  1  0.38542150  0.71094350  0.88376400  1
  O  O25  1  0.10796400  0.00000000  0.88311900  1
  O  O26  1  0.36707500  0.00000000  0.13531300  1
  O  O27  1  0.63493100  0.00000000  0.36846200  1
  O  O28  1  0.36897900  0.26536600  0.36540600  1
  O  O29  1  0.36897900  0.73463400  0.36540600  1
  O  O30  1  0.63102100  0.26536600  0.63459400  1
  O  O31  1  0.63102100  0.73463400  0.63459400  1
  O  O32  1  0.36506900  0.00000000  0.63153800  1
  O  O33  1  0.63292500  0.00000000  0.86468700  1
  O  O34  1  0.89203600  0.00000000  0.11688100  1
  O  O35  1  0.61457850  0.28905650  0.11623600  1
  O  O36  1  0.61457850  0.71094350  0.11623600  1
  O  O37  1  0.87456300  0.00000000  0.60882500  1
  O  O38  1  0.62543700  0.50000000  0.39117500  1
  O  O39  1  0.88542150  0.78905650  0.88376400  1
  O  O40  1  0.88542150  0.21094350  0.88376400  1
  O  O41  1  0.60796400  0.50000000  0.88311900  1
  O  O42  1  0.86707500  0.50000000  0.13531300  1
  O  O43  1  0.13493100  0.50000000  0.36846200  1
  O  O44  1  0.86897900  0.76536600  0.36540600  1
  O  O45  1  0.86897900  0.23463400  0.36540600  1
  O  O46  1  0.13102100  0.76536600  0.63459400  1
  O  O47  1  0.13102100  0.23463400  0.63459400  1
  O  O48  1  0.86506900  0.50000000  0.63153800  1
  O  O49  1  0.13292500  0.50000000  0.86468700  1
  O  O50  1  0.39203600  0.50000000  0.11688100  1
  O  O51  1  0.11457850  0.78905650  0.11623600  1
  O  O52  1  0.11457850  0.21094350  0.11623600  1
  O  O53  1  0.37456300  0.50000000  0.60882500  1
