# generated using pymatgen
data_Sc3Re2Si3
_symmetry_space_group_name_H-M   'P 1'
_cell_length_a   19.51299800
_cell_length_b   5.29978000
_cell_length_c   13.79794172
_cell_angle_alpha   90.00000000
_cell_angle_beta   128.59356947
_cell_angle_gamma   90.00000000
_symmetry_Int_Tables_number   1
_chemical_formula_structural   Sc3Re2Si3
_chemical_formula_sum   'Sc24 Re16 Si24'
_cell_volume   1115.25817005
_cell_formula_units_Z   8
loop_
 _symmetry_equiv_pos_site_id
 _symmetry_equiv_pos_as_xyz
  1  'x, y, z'
loop_
 _atom_site_type_symbol
 _atom_site_label
 _atom_site_symmetry_multiplicity
 _atom_site_fract_x
 _atom_site_fract_y
 _atom_site_fract_z
 _atom_site_occupancy
  Sc  Sc0  1  0.37807400  0.26563700  0.78983100  1
  Sc  Sc1  1  0.83509850  0.51403350  0.38732000  1
  Sc  Sc2  1  0.62192600  0.26563700  0.21016900  1
  Sc  Sc3  1  0.06700650  0.02852450  0.38679000  1
  Sc  Sc4  1  0.09240000  0.78235100  0.91956800  1
  Sc  Sc5  1  0.16490150  0.51403350  0.61268000  1
  Sc  Sc6  1  0.85967450  0.97830250  0.25929800  1
  Sc  Sc7  1  0.33975800  0.77670000  0.88932800  1
  Sc  Sc8  1  0.14032550  0.97830250  0.74070200  1
  Sc  Sc9  1  0.90760000  0.78235100  0.08043200  1
  Sc  Sc10  1  0.66024200  0.77670000  0.11067200  1
  Sc  Sc11  1  0.93299350  0.02852450  0.61321000  1
  Sc  Sc12  1  0.87807400  0.76563700  0.78983100  1
  Sc  Sc13  1  0.33509850  0.01403350  0.38732000  1
  Sc  Sc14  1  0.12192600  0.76563700  0.21016900  1
  Sc  Sc15  1  0.56700650  0.52852450  0.38679000  1
  Sc  Sc16  1  0.59240000  0.28235100  0.91956800  1
  Sc  Sc17  1  0.66490150  0.01403350  0.61268000  1
  Sc  Sc18  1  0.35967450  0.47830250  0.25929800  1
  Sc  Sc19  1  0.83975800  0.27670000  0.88932800  1
  Sc  Sc20  1  0.64032550  0.47830250  0.74070200  1
  Sc  Sc21  1  0.40760000  0.28235100  0.08043200  1
  Sc  Sc22  1  0.16024200  0.27670000  0.11067200  1
  Sc  Sc23  1  0.43299350  0.52852450  0.61321000  1
  Re  Re24  1  0.96066350  0.51596950  0.31828200  1
  Re  Re25  1  0.03933650  0.51596950  0.68171800  1
  Re  Re26  1  0.01969250  0.29464650  0.16390200  1
  Re  Re27  1  0.76063000  0.56916600  0.04523900  1
  Re  Re28  1  0.26403750  0.31377750  0.53384900  1
  Re  Re29  1  0.98030750  0.29464650  0.83609800  1
  Re  Re30  1  0.73596250  0.31377750  0.46615100  1
  Re  Re31  1  0.23937000  0.56916600  0.95476100  1
  Re  Re32  1  0.46066350  0.01596950  0.31828200  1
  Re  Re33  1  0.53933650  0.01596950  0.68171800  1
  Re  Re34  1  0.51969250  0.79464650  0.16390200  1
  Re  Re35  1  0.26063000  0.06916600  0.04523900  1
  Re  Re36  1  0.76403750  0.81377750  0.53384900  1
  Re  Re37  1  0.48030750  0.79464650  0.83609800  1
  Re  Re38  1  0.23596250  0.81377750  0.46615100  1
  Re  Re39  1  0.73937000  0.06916600  0.95476100  1
  Si  Si40  1  0.00000000  0.53322800  0.00000000  1
  Si  Si41  1  0.32760600  0.68754400  0.68088500  1
  Si  Si42  1  0.00000000  0.02929700  0.00000000  1
  Si  Si43  1  0.77977950  0.01132350  0.37053000  1
  Si  Si44  1  0.11957100  0.27138500  0.87864000  1
  Si  Si45  1  0.88042900  0.27138500  0.12136000  1
  Si  Si46  1  0.22022050  0.01132350  0.62947000  1
  Si  Si47  1  0.89507100  0.52814300  0.63284400  1
  Si  Si48  1  0.00000000  0.26574400  0.50000000  1
  Si  Si49  1  0.00000000  0.76292600  0.50000000  1
  Si  Si50  1  0.10492900  0.52814300  0.36715600  1
  Si  Si51  1  0.67239400  0.68754400  0.31911500  1
  Si  Si52  1  0.50000000  0.03322800  0.00000000  1
  Si  Si53  1  0.82760600  0.18754400  0.68088500  1
  Si  Si54  1  0.50000000  0.52929700  0.00000000  1
  Si  Si55  1  0.27977950  0.51132350  0.37053000  1
  Si  Si56  1  0.61957100  0.77138500  0.87864000  1
  Si  Si57  1  0.38042900  0.77138500  0.12136000  1
  Si  Si58  1  0.72022050  0.51132350  0.62947000  1
  Si  Si59  1  0.39507100  0.02814300  0.63284400  1
  Si  Si60  1  0.50000000  0.76574400  0.50000000  1
  Si  Si61  1  0.50000000  0.26292600  0.50000000  1
  Si  Si62  1  0.60492900  0.02814300  0.36715600  1
  Si  Si63  1  0.17239400  0.18754400  0.31911500  1
