# generated using pymatgen
data_Sr2YAlCu2O7
_symmetry_space_group_name_H-M   'P 1'
_cell_length_a   5.42651800
_cell_length_b   5.54406200
_cell_length_c   22.78096600
_cell_angle_alpha   90.00000000
_cell_angle_beta   90.00000000
_cell_angle_gamma   90.00000000
_symmetry_Int_Tables_number   1
_chemical_formula_structural   Sr2YAlCu2O7
_chemical_formula_sum   'Sr8 Y4 Al4 Cu8 O28'
_cell_volume   685.36427400
_cell_formula_units_Z   4
loop_
 _symmetry_equiv_pos_site_id
 _symmetry_equiv_pos_as_xyz
  1  'x, y, z'
loop_
 _atom_site_type_symbol
 _atom_site_label
 _atom_site_symmetry_multiplicity
 _atom_site_fract_x
 _atom_site_fract_y
 _atom_site_fract_z
 _atom_site_occupancy
  Sr  Sr0  1  0.01256600  0.98546300  0.84583200  1
  Sr  Sr1  1  0.51256600  0.51453700  0.65416800  1
  Sr  Sr2  1  0.01256600  0.98546300  0.65416800  1
  Sr  Sr3  1  0.51256600  0.51453700  0.84583200  1
  Sr  Sr4  1  0.51256600  0.48546300  0.34583200  1
  Sr  Sr5  1  0.01256600  0.01453700  0.15416800  1
  Sr  Sr6  1  0.51256600  0.48546300  0.15416800  1
  Sr  Sr7  1  0.01256600  0.01453700  0.34583200  1
  Y  Y8  1  0.51414300  0.50000000  0.00000000  1
  Y  Y9  1  0.01414300  0.00000000  0.00000000  1
  Y  Y10  1  0.01414300  0.00000000  0.50000000  1
  Y  Y11  1  0.51414300  0.50000000  0.50000000  1
  Al  Al12  1  0.99523300  0.43238500  0.75000000  1
  Al  Al13  1  0.49523300  0.06761500  0.75000000  1
  Al  Al14  1  0.49523300  0.93238500  0.25000000  1
  Al  Al15  1  0.99523300  0.56761500  0.25000000  1
  Cu  Cu16  1  0.51674850  0.99986550  0.92713550  1
  Cu  Cu17  1  0.01674850  0.50013450  0.57286450  1
  Cu  Cu18  1  0.51674850  0.99986550  0.57286450  1
  Cu  Cu19  1  0.01674850  0.50013450  0.92713550  1
  Cu  Cu20  1  0.01674850  0.49986550  0.42713550  1
  Cu  Cu21  1  0.51674850  0.00013450  0.07286450  1
  Cu  Cu22  1  0.01674850  0.49986550  0.07286450  1
  Cu  Cu23  1  0.51674850  0.00013450  0.42713550  1
  O  O24  1  0.17584500  0.15841200  0.75000000  1
  O  O25  1  0.67584500  0.34158800  0.75000000  1
  O  O26  1  0.26250950  0.75481750  0.93937750  1
  O  O27  1  0.76250950  0.74518250  0.56062250  1
  O  O28  1  0.26250950  0.75481750  0.56062250  1
  O  O29  1  0.76250950  0.74518250  0.93937750  1
  O  O30  1  0.77092700  0.24599200  0.93170800  1
  O  O31  1  0.27092700  0.25400800  0.56829200  1
  O  O32  1  0.77092700  0.24599200  0.56829200  1
  O  O33  1  0.27092700  0.25400800  0.93170800  1
  O  O34  1  0.05463750  0.56276250  0.81879650  1
  O  O35  1  0.55463750  0.93723750  0.68120350  1
  O  O36  1  0.05463750  0.56276250  0.68120350  1
  O  O37  1  0.55463750  0.93723750  0.81879650  1
  O  O38  1  0.67584500  0.65841200  0.25000000  1
  O  O39  1  0.17584500  0.84158800  0.25000000  1
  O  O40  1  0.76250950  0.25481750  0.43937750  1
  O  O41  1  0.26250950  0.24518250  0.06062250  1
  O  O42  1  0.76250950  0.25481750  0.06062250  1
  O  O43  1  0.26250950  0.24518250  0.43937750  1
  O  O44  1  0.27092700  0.74599200  0.43170800  1
  O  O45  1  0.77092700  0.75400800  0.06829200  1
  O  O46  1  0.27092700  0.74599200  0.06829200  1
  O  O47  1  0.77092700  0.75400800  0.43170800  1
  O  O48  1  0.55463750  0.06276250  0.31879650  1
  O  O49  1  0.05463750  0.43723750  0.18120350  1
  O  O50  1  0.55463750  0.06276250  0.18120350  1
  O  O51  1  0.05463750  0.43723750  0.31879650  1
