# generated using pymatgen
data_Mn(CuCl2)2
_symmetry_space_group_name_H-M   'P 1'
_cell_length_a   7.55624800
_cell_length_b   10.51110200
_cell_length_c   3.84713100
_cell_angle_alpha   90.00000000
_cell_angle_beta   90.00000000
_cell_angle_gamma   90.00000000
_symmetry_Int_Tables_number   1
_chemical_formula_structural   Mn(CuCl2)2
_chemical_formula_sum   'Mn2 Cu4 Cl8'
_cell_volume   305.55643097
_cell_formula_units_Z   2
loop_
 _symmetry_equiv_pos_site_id
 _symmetry_equiv_pos_as_xyz
  1  'x, y, z'
loop_
 _atom_site_type_symbol
 _atom_site_label
 _atom_site_symmetry_multiplicity
 _atom_site_fract_x
 _atom_site_fract_y
 _atom_site_fract_z
 _atom_site_occupancy
  Mn  Mn0  1  0.22202600  0.00000000  0.00000000  1
  Mn  Mn1  1  0.72202600  0.50000000  0.00000000  1
  Cu  Cu2  1  0.66698400  0.82880500  0.50000000  1
  Cu  Cu3  1  0.66698400  0.17119500  0.50000000  1
  Cu  Cu4  1  0.16698400  0.32880500  0.50000000  1
  Cu  Cu5  1  0.16698400  0.67119500  0.50000000  1
  Cl  Cl6  1  0.25599550  0.23760750  0.00000000  1
  Cl  Cl7  1  0.48448500  0.00000000  0.50000000  1
  Cl  Cl8  1  0.01753000  0.00000000  0.50000000  1
  Cl  Cl9  1  0.25599550  0.76239250  0.00000000  1
  Cl  Cl10  1  0.75599550  0.73760750  0.00000000  1
  Cl  Cl11  1  0.98448500  0.50000000  0.50000000  1
  Cl  Cl12  1  0.51753000  0.50000000  0.50000000  1
  Cl  Cl13  1  0.75599550  0.26239250  0.00000000  1
