# generated using pymatgen
data_Sn2P3O10
_symmetry_space_group_name_H-M   'P 1'
_cell_length_a   12.01366000
_cell_length_b   10.16788800
_cell_length_c   9.60527956
_cell_angle_alpha   90.00000000
_cell_angle_beta   118.74297475
_cell_angle_gamma   90.00000000
_symmetry_Int_Tables_number   1
_chemical_formula_structural   Sn2P3O10
_chemical_formula_sum   'Sn8 P12 O40'
_cell_volume   1028.74934162
_cell_formula_units_Z   4
loop_
 _symmetry_equiv_pos_site_id
 _symmetry_equiv_pos_as_xyz
  1  'x, y, z'
loop_
 _atom_site_type_symbol
 _atom_site_label
 _atom_site_symmetry_multiplicity
 _atom_site_fract_x
 _atom_site_fract_y
 _atom_site_fract_z
 _atom_site_occupancy
  Sn  Sn0  1  0.18123950  0.46073650  0.08418600  1
  Sn  Sn1  1  0.81876050  0.46073650  0.41581400  1
  Sn  Sn2  1  0.18123950  0.53926350  0.58418600  1
  Sn  Sn3  1  0.81876050  0.53926350  0.91581400  1
  Sn  Sn4  1  0.68123950  0.96073650  0.08418600  1
  Sn  Sn5  1  0.31876050  0.96073650  0.41581400  1
  Sn  Sn6  1  0.68123950  0.03926350  0.58418600  1
  Sn  Sn7  1  0.31876050  0.03926350  0.91581400  1
  P  P8  1  0.00000000  0.89733900  0.25000000  1
  P  P9  1  0.85367450  0.72716650  0.35242900  1
  P  P10  1  0.00000000  0.10266100  0.75000000  1
  P  P11  1  0.14632550  0.72716650  0.14757100  1
  P  P12  1  0.14632550  0.27283350  0.64757100  1
  P  P13  1  0.85367450  0.27283350  0.85242900  1
  P  P14  1  0.50000000  0.39733900  0.25000000  1
  P  P15  1  0.35367450  0.22716650  0.35242900  1
  P  P16  1  0.50000000  0.60266100  0.75000000  1
  P  P17  1  0.64632550  0.22716650  0.14757100  1
  P  P18  1  0.64632550  0.77283350  0.64757100  1
  P  P19  1  0.35367450  0.77283350  0.85242900  1
  O  O20  1  0.11138050  0.32453550  0.48246100  1
  O  O21  1  0.61826400  0.52204800  0.84808500  1
  O  O22  1  0.98274250  0.79839950  0.36820500  1
  O  O23  1  0.38173600  0.47795200  0.15191500  1
  O  O24  1  0.74921150  0.33281450  0.21202500  1
  O  O25  1  0.82368100  0.60446000  0.24338600  1
  O  O26  1  0.98274250  0.20160050  0.86820500  1
  O  O27  1  0.82368100  0.39554000  0.74338600  1
  O  O28  1  0.61826400  0.47795200  0.34808500  1
  O  O29  1  0.25078850  0.66718550  0.78797500  1
  O  O30  1  0.17631900  0.60446000  0.25661400  1
  O  O31  1  0.11138050  0.67546450  0.98246100  1
  O  O32  1  0.17631900  0.39554000  0.75661400  1
  O  O33  1  0.01725750  0.20160050  0.63179500  1
  O  O34  1  0.38173600  0.52204800  0.65191500  1
  O  O35  1  0.88861950  0.67546450  0.51753900  1
  O  O36  1  0.74921150  0.66718550  0.71202500  1
  O  O37  1  0.88861950  0.32453550  0.01753900  1
  O  O38  1  0.01725750  0.79839950  0.13179500  1
  O  O39  1  0.25078850  0.33281450  0.28797500  1
  O  O40  1  0.61138050  0.82453550  0.48246100  1
  O  O41  1  0.11826400  0.02204800  0.84808500  1
  O  O42  1  0.48274250  0.29839950  0.36820500  1
  O  O43  1  0.88173600  0.97795200  0.15191500  1
  O  O44  1  0.24921150  0.83281450  0.21202500  1
  O  O45  1  0.32368100  0.10446000  0.24338600  1
  O  O46  1  0.48274250  0.70160050  0.86820500  1
  O  O47  1  0.32368100  0.89554000  0.74338600  1
  O  O48  1  0.11826400  0.97795200  0.34808500  1
  O  O49  1  0.75078850  0.16718550  0.78797500  1
  O  O50  1  0.67631900  0.10446000  0.25661400  1
  O  O51  1  0.61138050  0.17546450  0.98246100  1
  O  O52  1  0.67631900  0.89554000  0.75661400  1
  O  O53  1  0.51725750  0.70160050  0.63179500  1
  O  O54  1  0.88173600  0.02204800  0.65191500  1
  O  O55  1  0.38861950  0.17546450  0.51753900  1
  O  O56  1  0.24921150  0.16718550  0.71202500  1
  O  O57  1  0.38861950  0.82453550  0.01753900  1
  O  O58  1  0.51725750  0.29839950  0.13179500  1
  O  O59  1  0.75078850  0.83281450  0.28797500  1
