# generated using pymatgen
data_V3H5O8
_symmetry_space_group_name_H-M   'P 1'
_cell_length_a   19.39228800
_cell_length_b   3.10578600
_cell_length_c   4.81111524
_cell_angle_alpha   90.00000000
_cell_angle_beta   104.32578908
_cell_angle_gamma   90.00000000
_symmetry_Int_Tables_number   1
_chemical_formula_structural   V3H5O8
_chemical_formula_sum   'V6 H10 O16'
_cell_volume   280.75486701
_cell_formula_units_Z   2
loop_
 _symmetry_equiv_pos_site_id
 _symmetry_equiv_pos_as_xyz
  1  'x, y, z'
loop_
 _atom_site_type_symbol
 _atom_site_label
 _atom_site_symmetry_multiplicity
 _atom_site_fract_x
 _atom_site_fract_y
 _atom_site_fract_z
 _atom_site_occupancy
  V  V0  1  0.00125200  0.00000000  0.51845400  1
  V  V1  1  0.31925900  0.50000000  0.62230200  1
  V  V2  1  0.17951300  0.00000000  0.37716000  1
  V  V3  1  0.50125200  0.50000000  0.51845400  1
  V  V4  1  0.81925900  0.00000000  0.62230200  1
  V  V5  1  0.67951300  0.50000000  0.37716000  1
  H  H6  1  0.08315300  0.50000000  0.90261800  1
  H  H7  1  0.49533800  0.00000000  0.04266300  1
  H  H8  1  0.41321300  0.00000000  0.09423500  1
  H  H9  1  0.31159200  0.00000000  0.07428300  1
  H  H10  1  0.18856300  0.50000000  0.92781400  1
  H  H11  1  0.58315300  0.00000000  0.90261800  1
  H  H12  1  0.99533800  0.50000000  0.04266300  1
  H  H13  1  0.91321300  0.50000000  0.09423500  1
  H  H14  1  0.81159200  0.50000000  0.07428300  1
  H  H15  1  0.68856300  0.00000000  0.92781400  1
  O  O16  1  0.03033600  0.50000000  0.79923500  1
  O  O17  1  0.46786600  0.00000000  0.20574200  1
  O  O18  1  0.40609800  0.50000000  0.58060600  1
  O  O19  1  0.09286400  0.00000000  0.42264600  1
  O  O20  1  0.33910600  0.00000000  0.91991800  1
  O  O21  1  0.16274300  0.50000000  0.08759800  1
  O  O22  1  0.21699900  0.50000000  0.64284400  1
  O  O23  1  0.28270200  0.00000000  0.35961500  1
  O  O24  1  0.53033600  0.00000000  0.79923500  1
  O  O25  1  0.96786600  0.50000000  0.20574200  1
  O  O26  1  0.90609800  0.00000000  0.58060600  1
  O  O27  1  0.59286400  0.50000000  0.42264600  1
  O  O28  1  0.83910600  0.50000000  0.91991800  1
  O  O29  1  0.66274300  0.00000000  0.08759800  1
  O  O30  1  0.71699900  0.00000000  0.64284400  1
  O  O31  1  0.78270200  0.50000000  0.35961500  1
