# generated using pymatgen
data_Mn2NiO4
_symmetry_space_group_name_H-M   'P 1'
_cell_length_a   10.34037000
_cell_length_b   6.09367800
_cell_length_c   10.33141781
_cell_angle_alpha   90.00000000
_cell_angle_beta   108.75311915
_cell_angle_gamma   90.00000000
_symmetry_Int_Tables_number   1
_chemical_formula_structural   Mn2NiO4
_chemical_formula_sum   'Mn16 Ni8 O32'
_cell_volume   616.43233918
_cell_formula_units_Z   8
loop_
 _symmetry_equiv_pos_site_id
 _symmetry_equiv_pos_as_xyz
  1  'x, y, z'
loop_
 _atom_site_type_symbol
 _atom_site_label
 _atom_site_symmetry_multiplicity
 _atom_site_fract_x
 _atom_site_fract_y
 _atom_site_fract_z
 _atom_site_occupancy
  Mn  Mn0  1  0.56874300  0.00000000  0.68794400  1
  Mn  Mn1  1  0.24765050  0.24670550  0.49947500  1
  Mn  Mn2  1  0.75213800  0.00000000  0.24840300  1
  Mn  Mn3  1  0.24765050  0.75329450  0.49947500  1
  Mn  Mn4  1  0.93016600  0.00000000  0.81344000  1
  Mn  Mn5  1  0.25152750  0.75213250  0.00011200  1
  Mn  Mn6  1  0.25152750  0.24786750  0.00011200  1
  Mn  Mn7  1  0.43314200  0.00000000  0.31377100  1
  Mn  Mn8  1  0.06874300  0.50000000  0.68794400  1
  Mn  Mn9  1  0.74765050  0.74670550  0.49947500  1
  Mn  Mn10  1  0.25213800  0.50000000  0.24840300  1
  Mn  Mn11  1  0.74765050  0.25329450  0.49947500  1
  Mn  Mn12  1  0.43016600  0.50000000  0.81344000  1
  Mn  Mn13  1  0.75152750  0.25213250  0.00011200  1
  Mn  Mn14  1  0.75152750  0.74786750  0.00011200  1
  Mn  Mn15  1  0.93314200  0.50000000  0.31377100  1
  Ni  Ni16  1  0.07154100  0.00000000  0.18438900  1
  Ni  Ni17  1  0.99976000  0.00000000  0.49883500  1
  Ni  Ni18  1  0.24912800  0.00000000  0.75079500  1
  Ni  Ni19  1  0.49919000  0.00000000  0.00041200  1
  Ni  Ni20  1  0.57154100  0.50000000  0.18438900  1
  Ni  Ni21  1  0.49976000  0.50000000  0.49883500  1
  Ni  Ni22  1  0.74912800  0.50000000  0.75079500  1
  Ni  Ni23  1  0.99919000  0.50000000  0.00041200  1
  O  O24  1  0.36283600  0.77192000  0.88704300  1
  O  O25  1  0.13763400  0.00000000  0.88678200  1
  O  O26  1  0.35872100  0.27723100  0.37681800  1
  O  O27  1  0.64332500  0.00000000  0.89827600  1
  O  O28  1  0.36283600  0.22808000  0.88704300  1
  O  O29  1  0.64249100  0.00000000  0.38029000  1
  O  O30  1  0.63330050  0.27034450  0.61168300  1
  O  O31  1  0.13896200  0.00000000  0.38926500  1
  O  O32  1  0.85485800  0.00000000  0.60265300  1
  O  O33  1  0.35872100  0.72276900  0.37681800  1
  O  O34  1  0.36072700  0.00000000  0.60988300  1
  O  O35  1  0.64086100  0.77883200  0.12564600  1
  O  O36  1  0.35973800  0.00000000  0.10719100  1
  O  O37  1  0.63330050  0.72965550  0.61168300  1
  O  O38  1  0.86866100  0.00000000  0.12611600  1
  O  O39  1  0.64086100  0.22116800  0.12564600  1
  O  O40  1  0.86283600  0.27192000  0.88704300  1
  O  O41  1  0.63763400  0.50000000  0.88678200  1
  O  O42  1  0.85872100  0.77723100  0.37681800  1
  O  O43  1  0.14332500  0.50000000  0.89827600  1
  O  O44  1  0.86283600  0.72808000  0.88704300  1
  O  O45  1  0.14249100  0.50000000  0.38029000  1
  O  O46  1  0.13330050  0.77034450  0.61168300  1
  O  O47  1  0.63896200  0.50000000  0.38926500  1
  O  O48  1  0.35485800  0.50000000  0.60265300  1
  O  O49  1  0.85872100  0.22276900  0.37681800  1
  O  O50  1  0.86072700  0.50000000  0.60988300  1
  O  O51  1  0.14086100  0.27883200  0.12564600  1
  O  O52  1  0.85973800  0.50000000  0.10719100  1
  O  O53  1  0.13330050  0.22965550  0.61168300  1
  O  O54  1  0.36866100  0.50000000  0.12611600  1
  O  O55  1  0.14086100  0.72116800  0.12564600  1
