# generated using pymatgen
data_Zr2HBr2
_symmetry_space_group_name_H-M   'P 1'
_cell_length_a   20.44813400
_cell_length_b   3.53349400
_cell_length_c   5.97616690
_cell_angle_alpha   90.00000000
_cell_angle_beta   100.01905745
_cell_angle_gamma   90.00000000
_symmetry_Int_Tables_number   1
_chemical_formula_structural   Zr2HBr2
_chemical_formula_sum   'Zr8 H4 Br8'
_cell_volume   425.21318414
_cell_formula_units_Z   4
loop_
 _symmetry_equiv_pos_site_id
 _symmetry_equiv_pos_as_xyz
  1  'x, y, z'
loop_
 _atom_site_type_symbol
 _atom_site_label
 _atom_site_symmetry_multiplicity
 _atom_site_fract_x
 _atom_site_fract_y
 _atom_site_fract_z
 _atom_site_occupancy
  Zr  Zr0  1  0.18678900  0.00000000  0.95104000  1
  Zr  Zr1  1  0.31321100  0.50000000  0.04896000  1
  Zr  Zr2  1  0.31560500  0.00000000  0.54968300  1
  Zr  Zr3  1  0.18439500  0.50000000  0.45031700  1
  Zr  Zr4  1  0.68678900  0.50000000  0.95104000  1
  Zr  Zr5  1  0.81321100  0.00000000  0.04896000  1
  Zr  Zr6  1  0.81560500  0.50000000  0.54968300  1
  Zr  Zr7  1  0.68439500  0.00000000  0.45031700  1
  H  H8  1  0.21810700  0.00000000  0.61776000  1
  H  H9  1  0.28189300  0.50000000  0.38224000  1
  H  H10  1  0.71810700  0.50000000  0.61776000  1
  H  H11  1  0.78189300  0.00000000  0.38224000  1
  Br  Br12  1  0.09280500  0.00000000  0.22694900  1
  Br  Br13  1  0.40719500  0.50000000  0.77305100  1
  Br  Br14  1  0.40937900  0.00000000  0.27418500  1
  Br  Br15  1  0.09062100  0.50000000  0.72581500  1
  Br  Br16  1  0.59280500  0.50000000  0.22694900  1
  Br  Br17  1  0.90719500  0.00000000  0.77305100  1
  Br  Br18  1  0.90937900  0.50000000  0.27418500  1
  Br  Br19  1  0.59062100  0.00000000  0.72581500  1
