# generated using pymatgen
data_Ni3TeMo2O11
_symmetry_space_group_name_H-M   'P 1'
_cell_length_a   9.67823000
_cell_length_b   8.86392000
_cell_length_c   10.29998148
_cell_angle_alpha   90.00000000
_cell_angle_beta   103.32028109
_cell_angle_gamma   90.00000000
_symmetry_Int_Tables_number   1
_chemical_formula_structural   Ni3TeMo2O11
_chemical_formula_sum   'Ni12 Te4 Mo8 O44'
_cell_volume   859.83380140
_cell_formula_units_Z   4
loop_
 _symmetry_equiv_pos_site_id
 _symmetry_equiv_pos_as_xyz
  1  'x, y, z'
loop_
 _atom_site_type_symbol
 _atom_site_label
 _atom_site_symmetry_multiplicity
 _atom_site_fract_x
 _atom_site_fract_y
 _atom_site_fract_z
 _atom_site_occupancy
  Ni  Ni0  1  0.76403800  0.32424100  0.86857200  1
  Ni  Ni1  1  0.23596200  0.67575900  0.13142800  1
  Ni  Ni2  1  0.23596200  0.32424100  0.13142800  1
  Ni  Ni3  1  0.76185100  0.50000000  0.61085900  1
  Ni  Ni4  1  0.76403800  0.67575900  0.86857200  1
  Ni  Ni5  1  0.23814900  0.50000000  0.38914100  1
  Ni  Ni6  1  0.26403800  0.82424100  0.86857200  1
  Ni  Ni7  1  0.73596200  0.17575900  0.13142800  1
  Ni  Ni8  1  0.73596200  0.82424100  0.13142800  1
  Ni  Ni9  1  0.26185100  0.00000000  0.61085900  1
  Ni  Ni10  1  0.26403800  0.17575900  0.86857200  1
  Ni  Ni11  1  0.73814900  0.00000000  0.38914100  1
  Te  Te12  1  0.08572300  0.50000000  0.81622100  1
  Te  Te13  1  0.91427700  0.50000000  0.18377900  1
  Te  Te14  1  0.58572300  0.00000000  0.81622100  1
  Te  Te15  1  0.41427700  0.00000000  0.18377900  1
  Mo  Mo16  1  0.00000000  0.78763500  0.50000000  1
  Mo  Mo17  1  0.53095500  0.50000000  0.23918400  1
  Mo  Mo18  1  0.00000000  0.21236500  0.50000000  1
  Mo  Mo19  1  0.46904500  0.50000000  0.76081600  1
  Mo  Mo20  1  0.50000000  0.28763500  0.50000000  1
  Mo  Mo21  1  0.03095500  0.00000000  0.23918400  1
  Mo  Mo22  1  0.50000000  0.71236500  0.50000000  1
  Mo  Mo23  1  0.96904500  0.00000000  0.76081600  1
  O  O24  1  0.12612650  0.15645050  0.19788500  1
  O  O25  1  0.86337700  0.33434400  0.06761400  1
  O  O26  1  0.11553200  0.66322300  0.44274700  1
  O  O27  1  0.13662300  0.33434400  0.93238600  1
  O  O28  1  0.12018650  0.15363250  0.67043500  1
  O  O29  1  0.88446800  0.66322300  0.55725300  1
  O  O30  1  0.11859400  0.50000000  0.19221200  1
  O  O31  1  0.13662300  0.66565600  0.93238600  1
  O  O32  1  0.88446800  0.33677700  0.55725300  1
  O  O33  1  0.12612650  0.84354950  0.19788500  1
  O  O34  1  0.87387350  0.15645050  0.80211500  1
  O  O35  1  0.12018650  0.84636750  0.67043500  1
  O  O36  1  0.86337700  0.66565600  0.06761400  1
  O  O37  1  0.88140600  0.50000000  0.80778800  1
  O  O38  1  0.39357100  0.50000000  0.56204000  1
  O  O39  1  0.60642900  0.50000000  0.43796000  1
  O  O40  1  0.87981350  0.84636750  0.32956500  1
  O  O41  1  0.87387350  0.84354950  0.80211500  1
  O  O42  1  0.63352600  0.50000000  0.89386400  1
  O  O43  1  0.87981350  0.15363250  0.32956500  1
  O  O44  1  0.36647400  0.50000000  0.10613600  1
  O  O45  1  0.11553200  0.33677700  0.44274700  1
  O  O46  1  0.62612650  0.65645050  0.19788500  1
  O  O47  1  0.36337700  0.83434400  0.06761400  1
  O  O48  1  0.61553200  0.16322300  0.44274700  1
  O  O49  1  0.63662300  0.83434400  0.93238600  1
  O  O50  1  0.62018650  0.65363250  0.67043500  1
  O  O51  1  0.38446800  0.16322300  0.55725300  1
  O  O52  1  0.61859400  0.00000000  0.19221200  1
  O  O53  1  0.63662300  0.16565600  0.93238600  1
  O  O54  1  0.38446800  0.83677700  0.55725300  1
  O  O55  1  0.62612650  0.34354950  0.19788500  1
  O  O56  1  0.37387350  0.65645050  0.80211500  1
  O  O57  1  0.62018650  0.34636750  0.67043500  1
  O  O58  1  0.36337700  0.16565600  0.06761400  1
  O  O59  1  0.38140600  0.00000000  0.80778800  1
  O  O60  1  0.89357100  0.00000000  0.56204000  1
  O  O61  1  0.10642900  0.00000000  0.43796000  1
  O  O62  1  0.37981350  0.34636750  0.32956500  1
  O  O63  1  0.37387350  0.34354950  0.80211500  1
  O  O64  1  0.13352600  0.00000000  0.89386400  1
  O  O65  1  0.37981350  0.65363250  0.32956500  1
  O  O66  1  0.86647400  0.00000000  0.10613600  1
  O  O67  1  0.61553200  0.83677700  0.44274700  1
