# generated using pymatgen
data_Ba2Co4ClO7
_symmetry_space_group_name_H-M   'P 1'
_cell_length_a   5.74301344
_cell_length_b   5.74301344
_cell_length_c   46.01976346
_cell_angle_alpha   90.00000000
_cell_angle_beta   90.00000000
_cell_angle_gamma   120.00000000
_symmetry_Int_Tables_number   1
_chemical_formula_structural   Ba2Co4ClO7
_chemical_formula_sum   'Ba12 Co24 Cl6 O42'
_cell_volume   1314.48211010
_cell_formula_units_Z   6
loop_
 _symmetry_equiv_pos_site_id
 _symmetry_equiv_pos_as_xyz
  1  'x, y, z'
loop_
 _atom_site_type_symbol
 _atom_site_label
 _atom_site_symmetry_multiplicity
 _atom_site_fract_x
 _atom_site_fract_y
 _atom_site_fract_z
 _atom_site_occupancy
  Ba  Ba0  1  0.33333333  0.66666667  0.23657267  1
  Ba  Ba1  1  0.33333333  0.66666667  0.09676067  1
  Ba  Ba2  1  0.00000000  0.00000000  0.28908100  1
  Ba  Ba3  1  0.66666667  0.33333333  0.04425233  1
  Ba  Ba4  1  0.00000000  0.00000000  0.56990600  1
  Ba  Ba5  1  0.00000000  0.00000000  0.43009400  1
  Ba  Ba6  1  0.66666667  0.33333333  0.62241433  1
  Ba  Ba7  1  0.33333333  0.66666667  0.37758567  1
  Ba  Ba8  1  0.66666667  0.33333333  0.90323933  1
  Ba  Ba9  1  0.66666667  0.33333333  0.76342733  1
  Ba  Ba10  1  0.33333333  0.66666667  0.95574767  1
  Ba  Ba11  1  0.00000000  0.00000000  0.71091900  1
  Co  Co12  1  0.00000000  0.00000000  0.21976300  1
  Co  Co13  1  0.66666667  0.33333333  0.23078233  1
  Co  Co14  1  0.66666667  0.33333333  0.11357033  1
  Co  Co15  1  0.33333333  0.66666667  0.16666667  1
  Co  Co16  1  0.00000000  0.00000000  0.10255100  1
  Co  Co17  1  0.83333333  0.16666667  0.16666667  1
  Co  Co18  1  0.33333333  0.16666667  0.16666667  1
  Co  Co19  1  0.83333333  0.66666667  0.16666667  1
  Co  Co20  1  0.66666667  0.33333333  0.55309633  1
  Co  Co21  1  0.33333333  0.66666667  0.56411567  1
  Co  Co22  1  0.33333333  0.66666667  0.44690367  1
  Co  Co23  1  1.00000000  1.00000000  0.50000000  1
  Co  Co24  1  0.66666667  0.33333333  0.43588433  1
  Co  Co25  1  0.50000000  0.50000000  0.50000000  1
  Co  Co26  1  0.00000000  0.50000000  0.50000000  1
  Co  Co27  1  0.50000000  0.00000000  0.50000000  1
  Co  Co28  1  0.33333333  0.66666667  0.88642967  1
  Co  Co29  1  0.00000000  0.00000000  0.89744900  1
  Co  Co30  1  0.00000000  0.00000000  0.78023700  1
  Co  Co31  1  0.66666667  0.33333333  0.83333333  1
  Co  Co32  1  0.33333333  0.66666667  0.76921767  1
  Co  Co33  1  0.16666667  0.83333333  0.83333333  1
  Co  Co34  1  0.66666667  0.83333333  0.83333333  1
  Co  Co35  1  0.16666667  0.33333333  0.83333333  1
  Cl  Cl36  1  0.33333333  0.66666667  0.30650067  1
  Cl  Cl37  1  0.33333333  0.66666667  0.02683267  1
  Cl  Cl38  1  0.00000000  0.00000000  0.63983400  1
  Cl  Cl39  1  0.00000000  0.00000000  0.36016600  1
  Cl  Cl40  1  0.66666667  0.33333333  0.97316733  1
  Cl  Cl41  1  0.66666667  0.33333333  0.69349933  1
  O  O42  1  0.84682533  0.69365067  0.24411467  1
  O  O43  1  0.16110833  0.83889167  0.18887167  1
  O  O44  1  0.50555833  0.01111667  0.14446167  1
  O  O45  1  0.81984133  0.18015867  0.08921867  1
  O  O46  1  0.84682533  0.15317467  0.24411467  1
  O  O47  1  0.30634933  0.15317467  0.24411467  1
  O  O48  1  0.67778333  0.83889167  0.18887167  1
  O  O49  1  0.66666667  0.33333333  0.18797633  1
  O  O50  1  0.50555833  0.49444167  0.14446167  1
  O  O51  1  0.81984133  0.63968267  0.08921867  1
  O  O52  1  0.16110833  0.32221667  0.18887167  1
  O  O53  1  0.98888333  0.49444167  0.14446167  1
  O  O54  1  0.36031733  0.18015867  0.08921867  1
  O  O55  1  0.00000000  0.00000000  0.14535700  1
  O  O56  1  0.51349200  0.02698400  0.57744800  1
  O  O57  1  0.82777500  0.17222500  0.52220500  1
  O  O58  1  0.17222500  0.34445000  0.47779500  1
  O  O59  1  0.48650800  0.51349200  0.42255200  1
  O  O60  1  0.51349200  0.48650800  0.57744800  1
  O  O61  1  0.97301600  0.48650800  0.57744800  1
  O  O62  1  0.34445000  0.17222500  0.52220500  1
  O  O63  1  0.33333333  0.66666667  0.52130967  1
  O  O64  1  0.17222500  0.82777500  0.47779500  1
  O  O65  1  0.48650800  0.97301600  0.42255200  1
  O  O66  1  0.82777500  0.65555000  0.52220500  1
  O  O67  1  0.65555000  0.82777500  0.47779500  1
  O  O68  1  0.02698400  0.51349200  0.42255200  1
  O  O69  1  0.66666667  0.33333333  0.47869033  1
  O  O70  1  0.18015867  0.36031733  0.91078133  1
  O  O71  1  0.49444167  0.50555833  0.85553833  1
  O  O72  1  0.83889167  0.67778333  0.81112833  1
  O  O73  1  0.15317467  0.84682533  0.75588533  1
  O  O74  1  0.18015867  0.81984133  0.91078133  1
  O  O75  1  0.63968267  0.81984133  0.91078133  1
  O  O76  1  0.01111667  0.50555833  0.85553833  1
  O  O77  1  0.00000000  0.00000000  0.85464300  1
  O  O78  1  0.83889167  0.16110833  0.81112833  1
  O  O79  1  0.15317467  0.30634933  0.75588533  1
  O  O80  1  0.49444167  0.98888333  0.85553833  1
  O  O81  1  0.32221667  0.16110833  0.81112833  1
  O  O82  1  0.69365067  0.84682533  0.75588533  1
  O  O83  1  0.33333333  0.66666667  0.81202367  1
