# generated using pymatgen
data_Sm2Ga9Ru5
_symmetry_space_group_name_H-M   'P 1'
_cell_length_a   6.21890200
_cell_length_b   6.21890200
_cell_length_c   13.66364200
_cell_angle_alpha   90.00000000
_cell_angle_beta   90.00000000
_cell_angle_gamma   90.00000000
_symmetry_Int_Tables_number   1
_chemical_formula_structural   Sm2Ga9Ru5
_chemical_formula_sum   'Sm4 Ga18 Ru10'
_cell_volume   528.43783030
_cell_formula_units_Z   2
loop_
 _symmetry_equiv_pos_site_id
 _symmetry_equiv_pos_as_xyz
  1  'x, y, z'
loop_
 _atom_site_type_symbol
 _atom_site_label
 _atom_site_symmetry_multiplicity
 _atom_site_fract_x
 _atom_site_fract_y
 _atom_site_fract_z
 _atom_site_occupancy
  Sm  Sm0  1  0.50000000  0.00000000  0.00000000  1
  Sm  Sm1  1  0.00000000  0.50000000  0.00000000  1
  Sm  Sm2  1  0.00000000  0.50000000  0.50000000  1
  Sm  Sm3  1  0.50000000  0.00000000  0.50000000  1
  Ga  Ga4  1  0.70911250  0.29088750  0.15013450  1
  Ga  Ga5  1  0.79088750  0.79088750  0.34986550  1
  Ga  Ga6  1  0.29088750  0.70911250  0.15013450  1
  Ga  Ga7  1  0.70911250  0.70911250  0.15013450  1
  Ga  Ga8  1  0.79088750  0.20911250  0.34986550  1
  Ga  Ga9  1  0.20911250  0.79088750  0.34986550  1
  Ga  Ga10  1  0.20911250  0.20911250  0.34986550  1
  Ga  Ga11  1  0.00000000  0.00000000  0.00000000  1
  Ga  Ga12  1  0.29088750  0.29088750  0.15013450  1
  Ga  Ga13  1  0.20911250  0.79088750  0.65013450  1
  Ga  Ga14  1  0.29088750  0.29088750  0.84986550  1
  Ga  Ga15  1  0.79088750  0.20911250  0.65013450  1
  Ga  Ga16  1  0.20911250  0.20911250  0.65013450  1
  Ga  Ga17  1  0.29088750  0.70911250  0.84986550  1
  Ga  Ga18  1  0.70911250  0.29088750  0.84986550  1
  Ga  Ga19  1  0.70911250  0.70911250  0.84986550  1
  Ga  Ga20  1  0.50000000  0.50000000  0.50000000  1
  Ga  Ga21  1  0.79088750  0.79088750  0.65013450  1
  Ru  Ru22  1  0.00000000  0.00000000  0.17885600  1
  Ru  Ru23  1  0.50000000  0.50000000  0.32114400  1
  Ru  Ru24  1  0.50000000  0.00000000  0.25000000  1
  Ru  Ru25  1  0.00000000  0.50000000  0.25000000  1
  Ru  Ru26  1  0.50000000  0.50000000  0.00000000  1
  Ru  Ru27  1  0.50000000  0.50000000  0.67885600  1
  Ru  Ru28  1  0.00000000  0.00000000  0.82114400  1
  Ru  Ru29  1  0.00000000  0.50000000  0.75000000  1
  Ru  Ru30  1  0.50000000  0.00000000  0.75000000  1
  Ru  Ru31  1  0.00000000  0.00000000  0.50000000  1
