# generated using pymatgen
data_TmMn4(CuO4)3
_symmetry_space_group_name_H-M   'P 1'
_cell_length_a   7.39372400
_cell_length_b   7.39372400
_cell_length_c   7.39372400
_cell_angle_alpha   90.00000000
_cell_angle_beta   90.00000000
_cell_angle_gamma   90.00000000
_symmetry_Int_Tables_number   1
_chemical_formula_structural   TmMn4(CuO4)3
_chemical_formula_sum   'Tm2 Mn8 Cu6 O24'
_cell_volume   404.19385289
_cell_formula_units_Z   2
loop_
 _symmetry_equiv_pos_site_id
 _symmetry_equiv_pos_as_xyz
  1  'x, y, z'
loop_
 _atom_site_type_symbol
 _atom_site_label
 _atom_site_symmetry_multiplicity
 _atom_site_fract_x
 _atom_site_fract_y
 _atom_site_fract_z
 _atom_site_occupancy
  Tm  Tm0  1  0.00000000  0.00000000  0.00000000  1
  Tm  Tm1  1  0.50000000  0.50000000  0.50000000  1
  Mn  Mn2  1  0.25000000  0.75000000  0.25000000  1
  Mn  Mn3  1  0.25000000  0.25000000  0.75000000  1
  Mn  Mn4  1  0.25000000  0.25000000  0.25000000  1
  Mn  Mn5  1  0.75000000  0.25000000  0.25000000  1
  Mn  Mn6  1  0.75000000  0.25000000  0.75000000  1
  Mn  Mn7  1  0.75000000  0.75000000  0.25000000  1
  Mn  Mn8  1  0.75000000  0.75000000  0.75000000  1
  Mn  Mn9  1  0.25000000  0.75000000  0.75000000  1
  Cu  Cu10  1  0.50000000  0.00000000  0.00000000  1
  Cu  Cu11  1  0.00000000  0.50000000  0.00000000  1
  Cu  Cu12  1  0.00000000  0.00000000  0.50000000  1
  Cu  Cu13  1  0.00000000  0.50000000  0.50000000  1
  Cu  Cu14  1  0.50000000  0.00000000  0.50000000  1
  Cu  Cu15  1  0.50000000  0.50000000  0.00000000  1
  O  O16  1  0.16921100  0.00000000  0.30053700  1
  O  O17  1  0.69946300  0.16921100  0.00000000  1
  O  O18  1  0.33078900  0.50000000  0.80053700  1
  O  O19  1  0.19946300  0.33078900  0.50000000  1
  O  O20  1  0.33078900  0.50000000  0.19946300  1
  O  O21  1  0.16921100  0.00000000  0.69946300  1
  O  O22  1  0.80053700  0.33078900  0.50000000  1
  O  O23  1  0.30053700  0.16921100  0.00000000  1
  O  O24  1  0.50000000  0.19946300  0.33078900  1
  O  O25  1  0.00000000  0.69946300  0.16921100  1
  O  O26  1  0.00000000  0.30053700  0.16921100  1
  O  O27  1  0.50000000  0.80053700  0.33078900  1
  O  O28  1  0.66921100  0.50000000  0.80053700  1
  O  O29  1  0.19946300  0.66921100  0.50000000  1
  O  O30  1  0.83078900  0.00000000  0.30053700  1
  O  O31  1  0.69946300  0.83078900  0.00000000  1
  O  O32  1  0.83078900  0.00000000  0.69946300  1
  O  O33  1  0.66921100  0.50000000  0.19946300  1
  O  O34  1  0.30053700  0.83078900  0.00000000  1
  O  O35  1  0.80053700  0.66921100  0.50000000  1
  O  O36  1  0.00000000  0.69946300  0.83078900  1
  O  O37  1  0.50000000  0.19946300  0.66921100  1
  O  O38  1  0.50000000  0.80053700  0.66921100  1
  O  O39  1  0.00000000  0.30053700  0.83078900  1
