# generated using pymatgen
data_NaMgFe(SO4)3
_symmetry_space_group_name_H-M   'P 1'
_cell_length_a   8.61982944
_cell_length_b   8.61982944
_cell_length_c   22.34832025
_cell_angle_alpha   90.00000000
_cell_angle_beta   90.00000000
_cell_angle_gamma   120.00000000
_symmetry_Int_Tables_number   1
_chemical_formula_structural   NaMgFe(SO4)3
_chemical_formula_sum   'Na6 Mg6 Fe6 S18 O72'
_cell_volume   1438.04628026
_cell_formula_units_Z   6
loop_
 _symmetry_equiv_pos_site_id
 _symmetry_equiv_pos_as_xyz
  1  'x, y, z'
loop_
 _atom_site_type_symbol
 _atom_site_label
 _atom_site_symmetry_multiplicity
 _atom_site_fract_x
 _atom_site_fract_y
 _atom_site_fract_z
 _atom_site_occupancy
  Na  Na0  1  0.00000000  0.00000000  0.00000000  1
  Na  Na1  1  0.33333333  0.66666667  0.16666667  1
  Na  Na2  1  0.66666667  0.33333333  0.33333333  1
  Na  Na3  1  1.00000000  0.00000000  0.50000000  1
  Na  Na4  1  0.33333333  0.66666667  0.66666667  1
  Na  Na5  1  0.66666667  0.33333333  0.83333333  1
  Mg  Mg6  1  0.00000000  0.00000000  0.14790100  1
  Mg  Mg7  1  0.66666667  0.33333333  0.18543233  1
  Mg  Mg8  1  0.66666667  0.33333333  0.48123433  1
  Mg  Mg9  1  0.33333333  0.66666667  0.51876567  1
  Mg  Mg10  1  0.33333333  0.66666667  0.81456767  1
  Mg  Mg11  1  0.00000000  0.00000000  0.85209900  1
  Fe  Fe12  1  0.33333333  0.66666667  0.01814767  1
  Fe  Fe13  1  0.33333333  0.66666667  0.31518567  1
  Fe  Fe14  1  0.00000000  0.00000000  0.35148100  1
  Fe  Fe15  1  0.00000000  0.00000000  0.64851900  1
  Fe  Fe16  1  0.66666667  0.33333333  0.68481433  1
  Fe  Fe17  1  0.66666667  0.33333333  0.98185233  1
  S  S18  1  0.95769167  0.32680633  0.08232333  1
  S  S19  1  0.36911467  0.04230833  0.08232333  1
  S  S20  1  0.67319367  0.63088533  0.08232333  1
  S  S21  1  0.99347300  0.70244800  0.25101000  1
  S  S22  1  0.29755200  0.29102500  0.25101000  1
  S  S23  1  0.70897500  0.00652700  0.25101000  1
  S  S24  1  0.62435833  0.66013967  0.41565667  1
  S  S25  1  0.03578133  0.37564167  0.41565667  1
  S  S26  1  0.33986033  0.96421867  0.41565667  1
  S  S27  1  0.66013967  0.03578133  0.58434333  1
  S  S28  1  0.96421867  0.62435833  0.58434333  1
  S  S29  1  0.37564167  0.33986033  0.58434333  1
  S  S30  1  0.29102500  0.99347300  0.74899000  1
  S  S31  1  0.70244800  0.70897500  0.74899000  1
  S  S32  1  0.00652700  0.29755200  0.74899000  1
  S  S33  1  0.32680633  0.36911467  0.91767667  1
  S  S34  1  0.63088533  0.95769167  0.91767667  1
  S  S35  1  0.04230833  0.67319367  0.91767667  1
  O  O36  1  0.81774900  0.02947300  0.30605200  1
  O  O37  1  0.97052700  0.78827600  0.30605200  1
  O  O38  1  0.98471967  0.17182533  0.08489633  1
  O  O39  1  0.21172400  0.18225100  0.30605200  1
  O  O40  1  0.13652733  0.49578767  0.07726267  1
  O  O41  1  0.87035200  0.34246700  0.13622900  1
  O  O42  1  0.18710567  0.01528033  0.08489633  1
  O  O43  1  0.35926033  0.86347267  0.07726267  1
  O  O44  1  0.50421233  0.64073967  0.07726267  1
  O  O45  1  0.00913367  0.80544833  0.19710433  1
  O  O46  1  0.83849200  0.52043900  0.24843700  1
  O  O47  1  0.47211500  0.12964800  0.13622900  1
  O  O48  1  0.19455167  0.20368533  0.19710433  1
  O  O49  1  0.82817467  0.81289433  0.08489633  1
  O  O50  1  0.65753300  0.52788500  0.13622900  1
  O  O51  1  0.16245433  0.69259367  0.25607067  1
  O  O52  1  0.30740633  0.46986067  0.25607067  1
  O  O53  1  0.47956100  0.31805300  0.24843700  1
  O  O54  1  0.79631467  0.99086633  0.19710433  1
  O  O55  1  0.53013933  0.83754567  0.25607067  1
  O  O56  1  0.45494267  0.15108233  0.02728133  1
  O  O57  1  0.68194700  0.16150800  0.24843700  1
  O  O58  1  0.69613967  0.54505733  0.02728133  1
  O  O59  1  0.84891767  0.30386033  0.02728133  1
  O  O60  1  0.48441567  0.36280633  0.63938533  1
  O  O61  1  0.63719367  0.12160933  0.63938533  1
  O  O62  1  0.65138633  0.50515867  0.41822967  1
  O  O63  1  0.87839067  0.51558433  0.63938533  1
  O  O64  1  0.80319400  0.82912100  0.41059600  1
  O  O65  1  0.53701867  0.67580033  0.46956233  1
  O  O66  1  0.85377233  0.34861367  0.41822967  1
  O  O67  1  0.02592700  0.19680600  0.41059600  1
  O  O68  1  0.17087900  0.97407300  0.41059600  1
  O  O69  1  0.67580033  0.13878167  0.53043767  1
  O  O70  1  0.50515867  0.85377233  0.58177033  1
  O  O71  1  0.13878167  0.46298133  0.46956233  1
  O  O72  1  0.86121833  0.53701867  0.53043767  1
  O  O73  1  0.49484133  0.14622767  0.41822967  1
  O  O74  1  0.32419967  0.86121833  0.46956233  1
  O  O75  1  0.82912100  0.02592700  0.58940400  1
  O  O76  1  0.97407300  0.80319400  0.58940400  1
  O  O77  1  0.14622767  0.65138633  0.58177033  1
  O  O78  1  0.46298133  0.32419967  0.53043767  1
  O  O79  1  0.19680600  0.17087900  0.58940400  1
  O  O80  1  0.12160933  0.48441567  0.36061467  1
  O  O81  1  0.34861367  0.49484133  0.58177033  1
  O  O82  1  0.36280633  0.87839067  0.36061467  1
  O  O83  1  0.51558433  0.63719367  0.36061467  1
  O  O84  1  0.15108233  0.69613967  0.97271867  1
  O  O85  1  0.30386033  0.45494267  0.97271867  1
  O  O86  1  0.31805300  0.83849200  0.75156300  1
  O  O87  1  0.54505733  0.84891767  0.97271867  1
  O  O88  1  0.46986067  0.16245433  0.74392933  1
  O  O89  1  0.20368533  0.00913367  0.80289567  1
  O  O90  1  0.52043900  0.68194700  0.75156300  1
  O  O91  1  0.69259367  0.53013933  0.74392933  1
  O  O92  1  0.83754567  0.30740633  0.74392933  1
  O  O93  1  0.34246700  0.47211500  0.86377100  1
  O  O94  1  0.17182533  0.18710567  0.91510367  1
  O  O95  1  0.80544833  0.79631467  0.80289567  1
  O  O96  1  0.52788500  0.87035200  0.86377100  1
  O  O97  1  0.16150800  0.47956100  0.75156300  1
  O  O98  1  0.99086633  0.19455167  0.80289567  1
  O  O99  1  0.49578767  0.35926033  0.92273733  1
  O  O100  1  0.64073967  0.13652733  0.92273733  1
  O  O101  1  0.81289433  0.98471967  0.91510367  1
  O  O102  1  0.12964800  0.65753300  0.86377100  1
  O  O103  1  0.86347267  0.50421233  0.92273733  1
  O  O104  1  0.78827600  0.81774900  0.69394800  1
  O  O105  1  0.01528033  0.82817467  0.91510367  1
  O  O106  1  0.02947300  0.21172400  0.69394800  1
  O  O107  1  0.18225100  0.97052700  0.69394800  1
