# generated using pymatgen
data_Ce2Fe17
_symmetry_space_group_name_H-M   'P 1'
_cell_length_a   8.42600719
_cell_length_b   8.42600719
_cell_length_c   12.62049740
_cell_angle_alpha   90.00000000
_cell_angle_beta   90.00000000
_cell_angle_gamma   120.00000000
_symmetry_Int_Tables_number   1
_chemical_formula_structural   Ce2Fe17
_chemical_formula_sum   'Ce6 Fe51'
_cell_volume   775.98040376
_cell_formula_units_Z   3
loop_
 _symmetry_equiv_pos_site_id
 _symmetry_equiv_pos_as_xyz
  1  'x, y, z'
loop_
 _atom_site_type_symbol
 _atom_site_label
 _atom_site_symmetry_multiplicity
 _atom_site_fract_x
 _atom_site_fract_y
 _atom_site_fract_z
 _atom_site_occupancy
  Ce  Ce0  1  0.33333333  0.66666667  0.32491267  1
  Ce  Ce1  1  0.33333333  0.66666667  0.00842067  1
  Ce  Ce2  1  0.00000000  0.00000000  0.65824600  1
  Ce  Ce3  1  0.00000000  0.00000000  0.34175400  1
  Ce  Ce4  1  0.66666667  0.33333333  0.99157933  1
  Ce  Ce5  1  0.66666667  0.33333333  0.67508733  1
  Fe  Fe6  1  0.16615033  0.33230067  0.17598567  1
  Fe  Fe7  1  0.16615033  0.83384967  0.17598567  1
  Fe  Fe8  1  0.33333333  0.66666667  0.76188467  1
  Fe  Fe9  1  0.33333333  0.66666667  0.57144867  1
  Fe  Fe10  1  0.16666667  0.33333333  0.83333333  1
  Fe  Fe11  1  0.33333333  0.16666667  0.16666667  1
  Fe  Fe12  1  0.83333333  0.16666667  0.16666667  1
  Fe  Fe13  1  0.96254867  0.33333333  0.33333333  1
  Fe  Fe14  1  0.00000000  0.29588200  0.00000000  1
  Fe  Fe15  1  0.70411800  0.70411800  0.00000000  1
  Fe  Fe16  1  0.37078467  0.33333333  0.33333333  1
  Fe  Fe17  1  0.00000000  0.70411800  0.00000000  1
  Fe  Fe18  1  0.29588200  0.29588200  0.00000000  1
  Fe  Fe19  1  0.50051633  0.49948367  0.15734767  1
  Fe  Fe20  1  0.50051633  0.00103267  0.15734767  1
  Fe  Fe21  1  0.99896733  0.49948367  0.15734767  1
  Fe  Fe22  1  0.66769933  0.83384967  0.17598567  1
  Fe  Fe23  1  0.83281700  0.66563400  0.50931900  1
  Fe  Fe24  1  0.83281700  0.16718300  0.50931900  1
  Fe  Fe25  1  0.00000000  0.00000000  0.09521800  1
  Fe  Fe26  1  0.00000000  0.00000000  0.90478200  1
  Fe  Fe27  1  0.83333333  0.66666667  0.16666667  1
  Fe  Fe28  1  0.00000000  0.50000000  0.50000000  1
  Fe  Fe29  1  0.50000000  0.50000000  0.50000000  1
  Fe  Fe30  1  0.62921533  0.66666667  0.66666667  1
  Fe  Fe31  1  0.66666667  0.62921533  0.33333333  1
  Fe  Fe32  1  0.37078467  0.03745133  0.33333333  1
  Fe  Fe33  1  0.03745133  0.66666667  0.66666667  1
  Fe  Fe34  1  0.66666667  0.03745133  0.33333333  1
  Fe  Fe35  1  0.96254867  0.62921533  0.33333333  1
  Fe  Fe36  1  0.16718300  0.83281700  0.49068100  1
  Fe  Fe37  1  0.16718300  0.33436600  0.49068100  1
  Fe  Fe38  1  0.66563400  0.83281700  0.49068100  1
  Fe  Fe39  1  0.33436600  0.16718300  0.50931900  1
  Fe  Fe40  1  0.49948367  0.99896733  0.84265233  1
  Fe  Fe41  1  0.49948367  0.50051633  0.84265233  1
  Fe  Fe42  1  0.66666667  0.33333333  0.42855133  1
  Fe  Fe43  1  0.66666667  0.33333333  0.23811533  1
  Fe  Fe44  1  0.50000000  0.00000000  0.50000000  1
  Fe  Fe45  1  0.66666667  0.83333333  0.83333333  1
  Fe  Fe46  1  0.16666667  0.83333333  0.83333333  1
  Fe  Fe47  1  0.29588200  0.00000000  0.00000000  1
  Fe  Fe48  1  0.33333333  0.96254867  0.66666667  1
  Fe  Fe49  1  0.03745133  0.37078467  0.66666667  1
  Fe  Fe50  1  0.70411800  0.00000000  0.00000000  1
  Fe  Fe51  1  0.33333333  0.37078467  0.66666667  1
  Fe  Fe52  1  0.62921533  0.96254867  0.66666667  1
  Fe  Fe53  1  0.83384967  0.16615033  0.82401433  1
  Fe  Fe54  1  0.83384967  0.66769933  0.82401433  1
  Fe  Fe55  1  0.33230067  0.16615033  0.82401433  1
  Fe  Fe56  1  0.00103267  0.50051633  0.84265233  1
