# generated using pymatgen
data_Zr6Co16Ge7
_symmetry_space_group_name_H-M   'P 1'
_cell_length_a   11.58094800
_cell_length_b   11.58094800
_cell_length_c   11.58094800
_cell_angle_alpha   90.00000000
_cell_angle_beta   90.00000000
_cell_angle_gamma   90.00000000
_symmetry_Int_Tables_number   1
_chemical_formula_structural   Zr6Co16Ge7
_chemical_formula_sum   'Zr24 Co64 Ge28'
_cell_volume   1553.21771338
_cell_formula_units_Z   4
loop_
 _symmetry_equiv_pos_site_id
 _symmetry_equiv_pos_as_xyz
  1  'x, y, z'
loop_
 _atom_site_type_symbol
 _atom_site_label
 _atom_site_symmetry_multiplicity
 _atom_site_fract_x
 _atom_site_fract_y
 _atom_site_fract_z
 _atom_site_occupancy
  Zr  Zr0  1  0.29443700  0.00000000  0.00000000  1
  Zr  Zr1  1  0.50000000  0.00000000  0.79443700  1
  Zr  Zr2  1  0.70556300  0.00000000  0.00000000  1
  Zr  Zr3  1  0.00000000  0.00000000  0.70556300  1
  Zr  Zr4  1  0.50000000  0.79443700  0.00000000  1
  Zr  Zr5  1  0.50000000  0.20556300  0.00000000  1
  Zr  Zr6  1  0.29443700  0.50000000  0.50000000  1
  Zr  Zr7  1  0.50000000  0.50000000  0.29443700  1
  Zr  Zr8  1  0.70556300  0.50000000  0.50000000  1
  Zr  Zr9  1  0.00000000  0.50000000  0.20556300  1
  Zr  Zr10  1  0.50000000  0.29443700  0.50000000  1
  Zr  Zr11  1  0.50000000  0.70556300  0.50000000  1
  Zr  Zr12  1  0.79443700  0.00000000  0.50000000  1
  Zr  Zr13  1  0.00000000  0.00000000  0.29443700  1
  Zr  Zr14  1  0.20556300  0.00000000  0.50000000  1
  Zr  Zr15  1  0.50000000  0.00000000  0.20556300  1
  Zr  Zr16  1  0.00000000  0.79443700  0.50000000  1
  Zr  Zr17  1  0.00000000  0.20556300  0.50000000  1
  Zr  Zr18  1  0.79443700  0.50000000  0.00000000  1
  Zr  Zr19  1  0.00000000  0.50000000  0.79443700  1
  Zr  Zr20  1  0.20556300  0.50000000  0.00000000  1
  Zr  Zr21  1  0.50000000  0.50000000  0.70556300  1
  Zr  Zr22  1  0.00000000  0.29443700  0.00000000  1
  Zr  Zr23  1  0.00000000  0.70556300  0.00000000  1
  Co  Co24  1  0.37918600  0.87918600  0.62081400  1
  Co  Co25  1  0.33005667  0.16994333  0.83005667  1
  Co  Co26  1  0.37918600  0.12081400  0.62081400  1
  Co  Co27  1  0.33005667  0.66994333  0.66994333  1
  Co  Co28  1  0.16994333  0.33005667  0.83005667  1
  Co  Co29  1  0.16994333  0.66994333  0.83005667  1
  Co  Co30  1  0.33005667  0.33005667  0.66994333  1
  Co  Co31  1  0.12081400  0.87918600  0.87918600  1
  Co  Co32  1  0.16994333  0.16994333  0.66994333  1
  Co  Co33  1  0.12081400  0.12081400  0.87918600  1
  Co  Co34  1  0.12081400  0.62081400  0.62081400  1
  Co  Co35  1  0.12081400  0.37918600  0.62081400  1
  Co  Co36  1  0.37918600  0.37918600  0.87918600  1
  Co  Co37  1  0.33005667  0.83005667  0.83005667  1
  Co  Co38  1  0.37918600  0.62081400  0.87918600  1
  Co  Co39  1  0.16994333  0.83005667  0.66994333  1
  Co  Co40  1  0.37918600  0.37918600  0.12081400  1
  Co  Co41  1  0.33005667  0.66994333  0.33005667  1
  Co  Co42  1  0.37918600  0.62081400  0.12081400  1
  Co  Co43  1  0.33005667  0.16994333  0.16994333  1
  Co  Co44  1  0.16994333  0.83005667  0.33005667  1
  Co  Co45  1  0.16994333  0.16994333  0.33005667  1
  Co  Co46  1  0.33005667  0.83005667  0.16994333  1
  Co  Co47  1  0.12081400  0.37918600  0.37918600  1
  Co  Co48  1  0.16994333  0.66994333  0.16994333  1
  Co  Co49  1  0.12081400  0.62081400  0.37918600  1
  Co  Co50  1  0.12081400  0.12081400  0.12081400  1
  Co  Co51  1  0.12081400  0.87918600  0.12081400  1
  Co  Co52  1  0.37918600  0.87918600  0.37918600  1
  Co  Co53  1  0.33005667  0.33005667  0.33005667  1
  Co  Co54  1  0.37918600  0.12081400  0.37918600  1
  Co  Co55  1  0.16994333  0.33005667  0.16994333  1
  Co  Co56  1  0.87918600  0.87918600  0.12081400  1
  Co  Co57  1  0.83005667  0.16994333  0.33005667  1
  Co  Co58  1  0.87918600  0.12081400  0.12081400  1
  Co  Co59  1  0.83005667  0.66994333  0.16994333  1
  Co  Co60  1  0.66994333  0.33005667  0.33005667  1
  Co  Co61  1  0.66994333  0.66994333  0.33005667  1
  Co  Co62  1  0.83005667  0.33005667  0.16994333  1
  Co  Co63  1  0.62081400  0.87918600  0.37918600  1
  Co  Co64  1  0.66994333  0.16994333  0.16994333  1
  Co  Co65  1  0.62081400  0.12081400  0.37918600  1
  Co  Co66  1  0.62081400  0.62081400  0.12081400  1
  Co  Co67  1  0.62081400  0.37918600  0.12081400  1
  Co  Co68  1  0.87918600  0.37918600  0.37918600  1
  Co  Co69  1  0.83005667  0.83005667  0.33005667  1
  Co  Co70  1  0.87918600  0.62081400  0.37918600  1
  Co  Co71  1  0.66994333  0.83005667  0.16994333  1
  Co  Co72  1  0.87918600  0.37918600  0.62081400  1
  Co  Co73  1  0.83005667  0.66994333  0.83005667  1
  Co  Co74  1  0.87918600  0.62081400  0.62081400  1
  Co  Co75  1  0.83005667  0.16994333  0.66994333  1
  Co  Co76  1  0.66994333  0.83005667  0.83005667  1
  Co  Co77  1  0.66994333  0.16994333  0.83005667  1
  Co  Co78  1  0.83005667  0.83005667  0.66994333  1
  Co  Co79  1  0.62081400  0.37918600  0.87918600  1
  Co  Co80  1  0.66994333  0.66994333  0.66994333  1
  Co  Co81  1  0.62081400  0.62081400  0.87918600  1
  Co  Co82  1  0.62081400  0.12081400  0.62081400  1
  Co  Co83  1  0.62081400  0.87918600  0.62081400  1
  Co  Co84  1  0.87918600  0.87918600  0.87918600  1
  Co  Co85  1  0.83005667  0.33005667  0.83005667  1
  Co  Co86  1  0.87918600  0.12081400  0.87918600  1
  Co  Co87  1  0.66994333  0.33005667  0.66994333  1
  Ge  Ge88  1  0.75000000  0.00000000  0.75000000  1
  Ge  Ge89  1  0.25000000  0.25000000  0.00000000  1
  Ge  Ge90  1  0.00000000  0.00000000  0.00000000  1
  Ge  Ge91  1  0.25000000  0.75000000  0.00000000  1
  Ge  Ge92  1  0.25000000  0.00000000  0.75000000  1
  Ge  Ge93  1  0.00000000  0.75000000  0.75000000  1
  Ge  Ge94  1  0.00000000  0.25000000  0.75000000  1
  Ge  Ge95  1  0.75000000  0.50000000  0.25000000  1
  Ge  Ge96  1  0.25000000  0.75000000  0.50000000  1
  Ge  Ge97  1  0.00000000  0.50000000  0.50000000  1
  Ge  Ge98  1  0.25000000  0.25000000  0.50000000  1
  Ge  Ge99  1  0.25000000  0.50000000  0.25000000  1
  Ge  Ge100  1  0.00000000  0.25000000  0.25000000  1
  Ge  Ge101  1  0.00000000  0.75000000  0.25000000  1
  Ge  Ge102  1  0.25000000  0.00000000  0.25000000  1
  Ge  Ge103  1  0.75000000  0.25000000  0.50000000  1
  Ge  Ge104  1  0.50000000  0.00000000  0.50000000  1
  Ge  Ge105  1  0.75000000  0.75000000  0.50000000  1
  Ge  Ge106  1  0.75000000  0.00000000  0.25000000  1
  Ge  Ge107  1  0.50000000  0.75000000  0.25000000  1
  Ge  Ge108  1  0.50000000  0.25000000  0.25000000  1
  Ge  Ge109  1  0.25000000  0.50000000  0.75000000  1
  Ge  Ge110  1  0.75000000  0.75000000  0.00000000  1
  Ge  Ge111  1  0.50000000  0.50000000  0.00000000  1
  Ge  Ge112  1  0.75000000  0.25000000  0.00000000  1
  Ge  Ge113  1  0.75000000  0.50000000  0.75000000  1
  Ge  Ge114  1  0.50000000  0.25000000  0.75000000  1
  Ge  Ge115  1  0.50000000  0.75000000  0.75000000  1
