# generated using pymatgen
data_InCu(WO4)2
_symmetry_space_group_name_H-M   'P 1'
_cell_length_a   9.77117800
_cell_length_b   11.83969800
_cell_length_c   5.08392207
_cell_angle_alpha   90.00000000
_cell_angle_beta   92.22852729
_cell_angle_gamma   90.00000000
_symmetry_Int_Tables_number   1
_chemical_formula_structural   InCu(WO4)2
_chemical_formula_sum   'In4 Cu4 W8 O32'
_cell_volume   587.70291481
_cell_formula_units_Z   4
loop_
 _symmetry_equiv_pos_site_id
 _symmetry_equiv_pos_as_xyz
  1  'x, y, z'
loop_
 _atom_site_type_symbol
 _atom_site_label
 _atom_site_symmetry_multiplicity
 _atom_site_fract_x
 _atom_site_fract_y
 _atom_site_fract_z
 _atom_site_occupancy
  In  In0  1  0.50000000  0.33256000  0.75000000  1
  In  In1  1  0.50000000  0.66744000  0.25000000  1
  In  In2  1  0.00000000  0.83256000  0.75000000  1
  In  In3  1  0.00000000  0.16744000  0.25000000  1
  Cu  Cu4  1  0.50000000  0.84971400  0.75000000  1
  Cu  Cu5  1  0.50000000  0.15028600  0.25000000  1
  Cu  Cu6  1  0.00000000  0.34971400  0.75000000  1
  Cu  Cu7  1  0.00000000  0.65028600  0.25000000  1
  W  W8  1  0.25539850  0.91469150  0.25590600  1
  W  W9  1  0.74460150  0.08530850  0.74409400  1
  W  W10  1  0.25539850  0.08530850  0.75590600  1
  W  W11  1  0.74460150  0.91469150  0.24409400  1
  W  W12  1  0.75539850  0.41469150  0.25590600  1
  W  W13  1  0.24460150  0.58530850  0.74409400  1
  W  W14  1  0.75539850  0.58530850  0.75590600  1
  W  W15  1  0.24460150  0.41469150  0.24409400  1
  O  O16  1  0.37201200  0.68302300  0.89704800  1
  O  O17  1  0.35482650  0.05022050  0.44427200  1
  O  O18  1  0.64517350  0.05022050  0.05572800  1
  O  O19  1  0.38108950  0.81399150  0.40498400  1
  O  O20  1  0.61891050  0.18600850  0.59501600  1
  O  O21  1  0.38108950  0.18600850  0.90498400  1
  O  O22  1  0.37201200  0.31697700  0.39704800  1
  O  O23  1  0.85623350  0.94688250  0.93221700  1
  O  O24  1  0.35482650  0.94977950  0.94427200  1
  O  O25  1  0.14376650  0.05311750  0.06778300  1
  O  O26  1  0.64517350  0.94977950  0.55572800  1
  O  O27  1  0.62798800  0.68302300  0.60295200  1
  O  O28  1  0.62798800  0.31697700  0.10295200  1
  O  O29  1  0.85623350  0.05311750  0.43221700  1
  O  O30  1  0.61891050  0.81399150  0.09501600  1
  O  O31  1  0.14376650  0.94688250  0.56778300  1
  O  O32  1  0.87201200  0.18302300  0.89704800  1
  O  O33  1  0.85482650  0.55022050  0.44427200  1
  O  O34  1  0.14517350  0.55022050  0.05572800  1
  O  O35  1  0.88108950  0.31399150  0.40498400  1
  O  O36  1  0.11891050  0.68600850  0.59501600  1
  O  O37  1  0.88108950  0.68600850  0.90498400  1
  O  O38  1  0.87201200  0.81697700  0.39704800  1
  O  O39  1  0.35623350  0.44688250  0.93221700  1
  O  O40  1  0.85482650  0.44977950  0.94427200  1
  O  O41  1  0.64376650  0.55311750  0.06778300  1
  O  O42  1  0.14517350  0.44977950  0.55572800  1
  O  O43  1  0.12798800  0.18302300  0.60295200  1
  O  O44  1  0.12798800  0.81697700  0.10295200  1
  O  O45  1  0.35623350  0.55311750  0.43221700  1
  O  O46  1  0.11891050  0.31399150  0.09501600  1
  O  O47  1  0.64376650  0.44688250  0.56778300  1
