# generated using pymatgen
data_Ba2Pr(CuO2)4
_symmetry_space_group_name_H-M   'P 1'
_cell_length_a   3.92911000
_cell_length_b   27.63121200
_cell_length_c   3.94970800
_cell_angle_alpha   90.00000000
_cell_angle_beta   90.00000000
_cell_angle_gamma   90.00000000
_symmetry_Int_Tables_number   1
_chemical_formula_structural   Ba2Pr(CuO2)4
_chemical_formula_sum   'Ba4 Pr2 Cu8 O16'
_cell_volume   428.80428066
_cell_formula_units_Z   2
loop_
 _symmetry_equiv_pos_site_id
 _symmetry_equiv_pos_as_xyz
  1  'x, y, z'
loop_
 _atom_site_type_symbol
 _atom_site_label
 _atom_site_symmetry_multiplicity
 _atom_site_fract_x
 _atom_site_fract_y
 _atom_site_fract_z
 _atom_site_occupancy
  Ba  Ba0  1  0.50000000  0.86298100  0.50000000  1
  Ba  Ba1  1  0.00000000  0.63701900  0.50000000  1
  Ba  Ba2  1  0.00000000  0.36298100  0.50000000  1
  Ba  Ba3  1  0.50000000  0.13701900  0.50000000  1
  Pr  Pr4  1  0.50000000  0.00000000  0.50000000  1
  Pr  Pr5  1  0.00000000  0.50000000  0.50000000  1
  Cu  Cu6  1  0.00000000  0.93493900  0.00000000  1
  Cu  Cu7  1  0.50000000  0.56506100  0.00000000  1
  Cu  Cu8  1  0.00000000  0.78699800  0.00000000  1
  Cu  Cu9  1  0.50000000  0.71300200  0.00000000  1
  Cu  Cu10  1  0.50000000  0.43493900  0.00000000  1
  Cu  Cu11  1  0.00000000  0.06506100  0.00000000  1
  Cu  Cu12  1  0.50000000  0.28699800  0.00000000  1
  Cu  Cu13  1  0.00000000  0.21300200  0.00000000  1
  O  O14  1  0.50000000  0.78142100  0.00000000  1
  O  O15  1  0.00000000  0.71857900  0.00000000  1
  O  O16  1  0.50000000  0.94421400  0.00000000  1
  O  O17  1  0.00000000  0.55578600  0.00000000  1
  O  O18  1  0.00000000  0.94365500  0.50000000  1
  O  O19  1  0.50000000  0.55634500  0.50000000  1
  O  O20  1  0.00000000  0.85370400  0.00000000  1
  O  O21  1  0.50000000  0.64629600  0.00000000  1
  O  O22  1  0.00000000  0.28142100  0.00000000  1
  O  O23  1  0.50000000  0.21857900  0.00000000  1
  O  O24  1  0.00000000  0.44421400  0.00000000  1
  O  O25  1  0.50000000  0.05578600  0.00000000  1
  O  O26  1  0.50000000  0.44365500  0.50000000  1
  O  O27  1  0.00000000  0.05634500  0.50000000  1
  O  O28  1  0.50000000  0.35370400  0.00000000  1
  O  O29  1  0.00000000  0.14629600  0.00000000  1
