# generated using pymatgen
data_CsFe2Se3
_symmetry_space_group_name_H-M   'P 1'
_cell_length_a   9.85609800
_cell_length_b   12.36728400
_cell_length_c   5.46875100
_cell_angle_alpha   90.00000000
_cell_angle_beta   90.00000000
_cell_angle_gamma   90.00000000
_symmetry_Int_Tables_number   1
_chemical_formula_structural   CsFe2Se3
_chemical_formula_sum   'Cs4 Fe8 Se12'
_cell_volume   666.60335758
_cell_formula_units_Z   4
loop_
 _symmetry_equiv_pos_site_id
 _symmetry_equiv_pos_as_xyz
  1  'x, y, z'
loop_
 _atom_site_type_symbol
 _atom_site_label
 _atom_site_symmetry_multiplicity
 _atom_site_fract_x
 _atom_site_fract_y
 _atom_site_fract_z
 _atom_site_occupancy
  Cs  Cs0  1  0.50000000  0.16459000  0.75000000  1
  Cs  Cs1  1  0.50000000  0.83541000  0.25000000  1
  Cs  Cs2  1  0.00000000  0.66459000  0.75000000  1
  Cs  Cs3  1  0.00000000  0.33541000  0.25000000  1
  Fe  Fe4  1  0.12838800  0.00000000  0.00000000  1
  Fe  Fe5  1  0.12838800  0.00000000  0.50000000  1
  Fe  Fe6  1  0.87161200  0.00000000  0.00000000  1
  Fe  Fe7  1  0.87161200  0.00000000  0.50000000  1
  Fe  Fe8  1  0.62838800  0.50000000  0.00000000  1
  Fe  Fe9  1  0.62838800  0.50000000  0.50000000  1
  Fe  Fe10  1  0.37161200  0.50000000  0.00000000  1
  Fe  Fe11  1  0.37161200  0.50000000  0.50000000  1
  Se  Se12  1  0.50000000  0.62643500  0.75000000  1
  Se  Se13  1  0.50000000  0.37356500  0.25000000  1
  Se  Se14  1  0.26570050  0.89287950  0.75000000  1
  Se  Se15  1  0.26570050  0.10712050  0.25000000  1
  Se  Se16  1  0.73429950  0.10712050  0.25000000  1
  Se  Se17  1  0.73429950  0.89287950  0.75000000  1
  Se  Se18  1  0.00000000  0.12643500  0.75000000  1
  Se  Se19  1  0.00000000  0.87356500  0.25000000  1
  Se  Se20  1  0.76570050  0.39287950  0.75000000  1
  Se  Se21  1  0.76570050  0.60712050  0.25000000  1
  Se  Se22  1  0.23429950  0.60712050  0.25000000  1
  Se  Se23  1  0.23429950  0.39287950  0.75000000  1
