# generated using pymatgen
data_Co5Se4(BrO6)2
_symmetry_space_group_name_H-M   'P 1'
_cell_length_a   6.56487188
_cell_length_b   7.88462619
_cell_length_c   7.97099082
_cell_angle_alpha   66.26087115
_cell_angle_beta   73.68480163
_cell_angle_gamma   81.31890095
_symmetry_Int_Tables_number   1
_chemical_formula_structural   Co5Se4(BrO6)2
_chemical_formula_sum   'Co5 Se4 Br2 O12'
_cell_volume   362.13538702
_cell_formula_units_Z   1
loop_
 _symmetry_equiv_pos_site_id
 _symmetry_equiv_pos_as_xyz
  1  'x, y, z'
loop_
 _atom_site_type_symbol
 _atom_site_label
 _atom_site_symmetry_multiplicity
 _atom_site_fract_x
 _atom_site_fract_y
 _atom_site_fract_z
 _atom_site_occupancy
  Co  Co0  1  0.00000000  0.00000000  0.00000000  1
  Co  Co1  1  0.32374750  0.87553750  0.65251000  1
  Co  Co2  1  0.67625250  0.12446250  0.34749000  1
  Co  Co3  1  0.11769850  0.69597450  0.42890750  1
  Co  Co4  1  0.88230150  0.30402550  0.57109250  1
  Se  Se5  1  0.79493250  0.83492850  0.77527500  1
  Se  Se6  1  0.20506750  0.16507150  0.22472500  1
  Se  Se7  1  0.65241250  0.69441050  0.31983150  1
  Se  Se8  1  0.34758750  0.30558950  0.68016850  1
  Br  Br9  1  0.80313400  0.33233600  0.97752650  1
  Br  Br10  1  0.19686600  0.66766400  0.02247350  1
  O  O11  1  0.73677700  0.92087600  0.22051600  1
  O  O12  1  0.26322300  0.07912400  0.77948400  1
  O  O13  1  0.64264800  0.90098600  0.61242600  1
  O  O14  1  0.35735200  0.09901400  0.38757400  1
  O  O15  1  0.83225150  0.58879850  0.46124600  1
  O  O16  1  0.16774850  0.41120150  0.53875400  1
  O  O17  1  0.04163600  0.80179200  0.63502700  1
  O  O18  1  0.95836400  0.19820800  0.36497300  1
  O  O19  1  0.41854250  0.70244250  0.48583900  1
  O  O20  1  0.58145750  0.29755750  0.51416100  1
  O  O21  1  0.16045600  0.95800200  0.21043600  1
  O  O22  1  0.83954400  0.04199800  0.78956400  1
