# generated using pymatgen
data_Cu4Bi5PbS11
_symmetry_space_group_name_H-M   'P 1'
_cell_length_a   17.71249600
_cell_length_b   3.95347200
_cell_length_c   27.19403970
_cell_angle_alpha   90.00000000
_cell_angle_beta   92.19716704
_cell_angle_gamma   90.00000000
_symmetry_Int_Tables_number   1
_chemical_formula_structural   Cu4Bi5PbS11
_chemical_formula_sum   'Cu16 Bi20 Pb4 S44'
_cell_volume   1902.88592896
_cell_formula_units_Z   4
loop_
 _symmetry_equiv_pos_site_id
 _symmetry_equiv_pos_as_xyz
  1  'x, y, z'
loop_
 _atom_site_type_symbol
 _atom_site_label
 _atom_site_symmetry_multiplicity
 _atom_site_fract_x
 _atom_site_fract_y
 _atom_site_fract_z
 _atom_site_occupancy
  Cu  Cu0  1  0.87099800  0.50000000  0.57786900  1
  Cu  Cu1  1  0.80463600  0.50000000  0.21249600  1
  Cu  Cu2  1  0.69536400  0.00000000  0.78750400  1
  Cu  Cu3  1  0.79843200  0.00000000  0.97379900  1
  Cu  Cu4  1  0.99111700  0.50000000  0.23335600  1
  Cu  Cu5  1  0.50888300  0.00000000  0.76664400  1
  Cu  Cu6  1  0.70156800  0.50000000  0.02620100  1
  Cu  Cu7  1  0.62900200  0.00000000  0.42213100  1
  Cu  Cu8  1  0.37099800  0.00000000  0.57786900  1
  Cu  Cu9  1  0.30463600  0.00000000  0.21249600  1
  Cu  Cu10  1  0.19536400  0.50000000  0.78750400  1
  Cu  Cu11  1  0.29843200  0.50000000  0.97379900  1
  Cu  Cu12  1  0.49111700  0.00000000  0.23335600  1
  Cu  Cu13  1  0.00888300  0.50000000  0.76664400  1
  Cu  Cu14  1  0.20156800  0.00000000  0.02620100  1
  Cu  Cu15  1  0.12900200  0.50000000  0.42213100  1
  Bi  Bi16  1  0.81529500  0.50000000  0.44775100  1
  Bi  Bi17  1  0.94078800  0.00000000  0.34455300  1
  Bi  Bi18  1  0.67107000  0.50000000  0.29470200  1
  Bi  Bi19  1  0.87240600  0.50000000  0.84960400  1
  Bi  Bi20  1  0.82893000  0.00000000  0.70529800  1
  Bi  Bi21  1  0.62759400  0.00000000  0.15039600  1
  Bi  Bi22  1  0.62825300  0.50000000  0.89990000  1
  Bi  Bi23  1  0.55921200  0.50000000  0.65544700  1
  Bi  Bi24  1  0.68470500  0.00000000  0.55224900  1
  Bi  Bi25  1  0.87174700  0.00000000  0.10010000  1
  Bi  Bi26  1  0.31529500  0.00000000  0.44775100  1
  Bi  Bi27  1  0.44078800  0.50000000  0.34455300  1
  Bi  Bi28  1  0.17107000  0.00000000  0.29470200  1
  Bi  Bi29  1  0.37240600  0.00000000  0.84960400  1
  Bi  Bi30  1  0.32893000  0.50000000  0.70529800  1
  Bi  Bi31  1  0.12759400  0.50000000  0.15039600  1
  Bi  Bi32  1  0.12825300  0.00000000  0.89990000  1
  Bi  Bi33  1  0.05921200  0.00000000  0.65544700  1
  Bi  Bi34  1  0.18470500  0.50000000  0.55224900  1
  Bi  Bi35  1  0.37174700  0.50000000  0.10010000  1
  Pb  Pb36  1  0.00000000  0.50000000  0.00000000  1
  Pb  Pb37  1  0.00000000  0.00000000  0.50000000  1
  Pb  Pb38  1  0.50000000  0.00000000  0.00000000  1
  Pb  Pb39  1  0.50000000  0.50000000  0.50000000  1
  S  S40  1  0.84590700  0.00000000  0.53390000  1
  S  S41  1  0.98814300  0.00000000  0.92301000  1
  S  S42  1  0.93886900  0.00000000  0.77256500  1
  S  S43  1  0.76432000  0.50000000  0.77781300  1
  S  S44  1  0.59612000  0.00000000  0.34181700  1
  S  S45  1  0.53768600  0.00000000  0.57441100  1
  S  S46  1  0.90388000  0.50000000  0.65818300  1
  S  S47  1  0.73568000  0.00000000  0.22218700  1
  S  S48  1  0.79019400  0.00000000  0.88984400  1
  S  S49  1  0.51185700  0.50000000  0.07699000  1
  S  S50  1  0.66167700  0.00000000  0.98849200  1
  S  S51  1  0.59330200  0.00000000  0.83620200  1
  S  S52  1  0.70980600  0.50000000  0.11015600  1
  S  S53  1  0.90669800  0.50000000  0.16379800  1
  S  S54  1  0.61007800  0.00000000  0.71491100  1
  S  S55  1  0.56113100  0.50000000  0.22743500  1
  S  S56  1  0.83832300  0.50000000  0.01150800  1
  S  S57  1  0.79854100  0.00000000  0.37906800  1
  S  S58  1  0.96231400  0.50000000  0.42558900  1
  S  S59  1  0.70145900  0.50000000  0.62093200  1
  S  S60  1  0.88992200  0.50000000  0.28508900  1
  S  S61  1  0.65409300  0.50000000  0.46610000  1
  S  S62  1  0.34590700  0.50000000  0.53390000  1
  S  S63  1  0.48814300  0.50000000  0.92301000  1
  S  S64  1  0.43886900  0.50000000  0.77256500  1
  S  S65  1  0.26432000  0.00000000  0.77781300  1
  S  S66  1  0.09612000  0.50000000  0.34181700  1
  S  S67  1  0.03768600  0.50000000  0.57441100  1
  S  S68  1  0.40388000  0.00000000  0.65818300  1
  S  S69  1  0.23568000  0.50000000  0.22218700  1
  S  S70  1  0.29019400  0.50000000  0.88984400  1
  S  S71  1  0.01185700  0.00000000  0.07699000  1
  S  S72  1  0.16167700  0.50000000  0.98849200  1
  S  S73  1  0.09330200  0.50000000  0.83620200  1
  S  S74  1  0.20980600  0.00000000  0.11015600  1
  S  S75  1  0.40669800  0.00000000  0.16379800  1
  S  S76  1  0.11007800  0.50000000  0.71491100  1
  S  S77  1  0.06113100  0.00000000  0.22743500  1
  S  S78  1  0.33832300  0.00000000  0.01150800  1
  S  S79  1  0.29854100  0.50000000  0.37906800  1
  S  S80  1  0.46231400  0.00000000  0.42558900  1
  S  S81  1  0.20145900  0.00000000  0.62093200  1
  S  S82  1  0.38992200  0.00000000  0.28508900  1
  S  S83  1  0.15409300  0.00000000  0.46610000  1
