# generated using pymatgen
data_Zr2Cr2F3
_symmetry_space_group_name_H-M   'P 1'
_cell_length_a   8.68520200
_cell_length_b   9.94356800
_cell_length_c   5.84927540
_cell_angle_alpha   90.00000000
_cell_angle_beta   93.62660772
_cell_angle_gamma   90.00000000
_symmetry_Int_Tables_number   1
_chemical_formula_structural   Zr2Cr2F3
_chemical_formula_sum   'Zr8 Cr8 F12'
_cell_volume   504.14292631
_cell_formula_units_Z   4
loop_
 _symmetry_equiv_pos_site_id
 _symmetry_equiv_pos_as_xyz
  1  'x, y, z'
loop_
 _atom_site_type_symbol
 _atom_site_label
 _atom_site_symmetry_multiplicity
 _atom_site_fract_x
 _atom_site_fract_y
 _atom_site_fract_z
 _atom_site_occupancy
  Zr  Zr0  1  0.16372000  0.00000000  0.19578000  1
  Zr  Zr1  1  0.45484850  0.76957950  0.37116000  1
  Zr  Zr2  1  0.45484850  0.23042050  0.37116000  1
  Zr  Zr3  1  0.78663700  0.00000000  0.19239200  1
  Zr  Zr4  1  0.66372000  0.50000000  0.19578000  1
  Zr  Zr5  1  0.95484850  0.26957950  0.37116000  1
  Zr  Zr6  1  0.95484850  0.73042050  0.37116000  1
  Zr  Zr7  1  0.28663700  0.50000000  0.19239200  1
  Cr  Cr8  1  0.71683750  0.25042050  0.89262800  1
  Cr  Cr9  1  0.01483700  0.00000000  0.58880100  1
  Cr  Cr10  1  0.66723400  0.00000000  0.63224600  1
  Cr  Cr11  1  0.71683750  0.74957950  0.89262800  1
  Cr  Cr12  1  0.21683750  0.75042050  0.89262800  1
  Cr  Cr13  1  0.51483700  0.50000000  0.58880100  1
  Cr  Cr14  1  0.16723400  0.50000000  0.63224600  1
  Cr  Cr15  1  0.21683750  0.24957950  0.89262800  1
  F  F16  1  0.39176600  0.00000000  0.35011900  1
  F  F17  1  0.38554050  0.18730850  0.70090500  1
  F  F18  1  0.38554050  0.81269150  0.70090500  1
  F  F19  1  0.56607700  0.14435100  0.08277300  1
  F  F20  1  0.56607700  0.85564900  0.08277300  1
  F  F21  1  0.97320000  0.00000000  0.94572900  1
  F  F22  1  0.89176600  0.50000000  0.35011900  1
  F  F23  1  0.88554050  0.68730850  0.70090500  1
  F  F24  1  0.88554050  0.31269150  0.70090500  1
  F  F25  1  0.06607700  0.64435100  0.08277300  1
  F  F26  1  0.06607700  0.35564900  0.08277300  1
  F  F27  1  0.47320000  0.50000000  0.94572900  1
