# generated using pymatgen
data_Sr5La5Cu(NiO5)4
_symmetry_space_group_name_H-M   'P 1'
_cell_length_a   6.85316372
_cell_length_b   8.63078607
_cell_length_c   8.65338858
_cell_angle_alpha   89.90036076
_cell_angle_beta   112.30009056
_cell_angle_gamma   97.31074213
_symmetry_Int_Tables_number   1
_chemical_formula_structural   Sr5La5Cu(NiO5)4
_chemical_formula_sum   'Sr5 La5 Cu1 Ni4 O20'
_cell_volume   469.09759183
_cell_formula_units_Z   1
loop_
 _symmetry_equiv_pos_site_id
 _symmetry_equiv_pos_as_xyz
  1  'x, y, z'
loop_
 _atom_site_type_symbol
 _atom_site_label
 _atom_site_symmetry_multiplicity
 _atom_site_fract_x
 _atom_site_fract_y
 _atom_site_fract_z
 _atom_site_occupancy
  Sr  Sr0  1  0.28181600  0.12934200  0.38365600  1
  Sr  Sr1  1  0.28213600  0.32886700  0.98628200  1
  Sr  Sr2  1  0.28245700  0.52702800  0.58264000  1
  Sr  Sr3  1  0.28158200  0.72762700  0.18596000  1
  Sr  Sr4  1  0.71424900  0.87164000  0.61560900  1
  La  La5  1  0.72567400  0.07284700  0.21854200  1
  La  La6  1  0.72260600  0.27031500  0.81227900  1
  La  La7  1  0.72095200  0.47253500  0.41716100  1
  La  La8  1  0.72234600  0.67150100  0.01283500  1
  La  La9  1  0.27174400  0.92747100  0.78113500  1
  Cu  Cu10  1  0.00732600  0.00021200  0.00263300  1
  Ni  Ni11  1  0.00632300  0.20133200  0.60135200  1
  Ni  Ni12  1  0.00431300  0.40094800  0.20159800  1
  Ni  Ni13  1  0.00706300  0.59939000  0.80201800  1
  Ni  Ni14  1  0.99992900  0.80037400  0.40001800  1
  O  O15  1  0.00040400  0.09926900  0.80054200  1
  O  O16  1  0.99479900  0.99938300  0.49749700  1
  O  O17  1  0.67307700  0.17831100  0.50289200  1
  O  O18  1  0.98990300  0.30269800  0.39268900  1
  O  O19  1  0.34959700  0.03294000  0.09909400  1
  O  O20  1  0.98368300  0.19790500  0.09577300  1
  O  O21  1  0.67522200  0.37261400  0.10744800  1
  O  O22  1  0.99037400  0.49599100  0.00191400  1
  O  O23  1  0.34579600  0.22479700  0.70418000  1
  O  O24  1  0.99665700  0.39936900  0.69765900  1
  O  O25  1  0.67457300  0.55712400  0.70621500  1
  O  O26  1  0.99663600  0.70080200  0.59464700  1
  O  O27  1  0.34008000  0.43479900  0.30105700  1
  O  O28  1  0.98870800  0.60275600  0.29800300  1
  O  O29  1  0.67935800  0.76462600  0.30233200  1
  O  O30  1  0.98268000  0.89610600  0.19876600  1
  O  O31  1  0.34518500  0.64200000  0.89799000  1
  O  O32  1  0.99936500  0.79765600  0.89933000  1
  O  O33  1  0.64840300  0.96573700  0.89918700  1
  O  O34  1  0.31498600  0.83368900  0.49906500  1
