# generated using pymatgen
data_K2NaVOF5
_symmetry_space_group_name_H-M   'P 1'
_cell_length_a   5.99912710
_cell_length_b   5.99912710
_cell_length_c   8.37129409
_cell_angle_alpha   90.00000000
_cell_angle_beta   90.00000000
_cell_angle_gamma   90.00000000
_symmetry_Int_Tables_number   1
_chemical_formula_structural   K2NaVOF5
_chemical_formula_sum   'K4 Na2 V2 O2 F10'
_cell_volume   301.27890578
_cell_formula_units_Z   2
loop_
 _symmetry_equiv_pos_site_id
 _symmetry_equiv_pos_as_xyz
  1  'x, y, z'
loop_
 _atom_site_type_symbol
 _atom_site_label
 _atom_site_symmetry_multiplicity
 _atom_site_fract_x
 _atom_site_fract_y
 _atom_site_fract_z
 _atom_site_occupancy
  K  K0  1  0.00000000  0.50000000  0.25552925  1
  K  K1  1  0.50000000  0.00000000  0.25552925  1
  K  K2  1  0.50000000  0.00000000  0.75552925  1
  K  K3  1  0.00000000  0.50000000  0.75552925  1
  Na  Na4  1  0.50000000  0.50000000  0.00269275  1
  Na  Na5  1  0.00000000  0.00000000  0.50269275  1
  V  V6  1  0.50000000  0.50000000  0.51765150  1
  V  V7  1  0.00000000  0.00000000  0.01765150  1
  O  O8  1  0.00000000  0.00000000  0.21891400  1
  O  O9  1  0.50000000  0.50000000  0.71891400  1
  F  F10  1  0.00000000  0.00000000  0.77447825  1
  F  F11  1  0.23119412  0.23119412  0.99387200  1
  F  F12  1  0.76880588  0.23119412  0.99387200  1
  F  F13  1  0.73119412  0.26880588  0.49387200  1
  F  F14  1  0.26880588  0.26880588  0.49387200  1
  F  F15  1  0.50000000  0.50000000  0.27447825  1
  F  F16  1  0.73119412  0.73119412  0.49387200  1
  F  F17  1  0.26880588  0.73119412  0.49387200  1
  F  F18  1  0.23119412  0.76880588  0.99387200  1
  F  F19  1  0.76880588  0.76880588  0.99387200  1
