# generated using pymatgen
data_Cs2NaVF6
_symmetry_space_group_name_H-M   'P 1'
_cell_length_a   6.37397376
_cell_length_b   6.37397376
_cell_length_c   31.29927592
_cell_angle_alpha   90.00000000
_cell_angle_beta   90.00000000
_cell_angle_gamma   120.00000000
_symmetry_Int_Tables_number   1
_chemical_formula_structural   Cs2NaVF6
_chemical_formula_sum   'Cs12 Na6 V6 F36'
_cell_volume   1101.24884220
_cell_formula_units_Z   6
loop_
 _symmetry_equiv_pos_site_id
 _symmetry_equiv_pos_as_xyz
  1  'x, y, z'
loop_
 _atom_site_type_symbol
 _atom_site_label
 _atom_site_symmetry_multiplicity
 _atom_site_fract_x
 _atom_site_fract_y
 _atom_site_fract_z
 _atom_site_occupancy
  Cs  Cs0  1  0.00000000  0.00000000  0.71761700  1
  Cs  Cs1  1  0.33333333  0.66666667  0.94904967  1
  Cs  Cs2  1  0.33333333  0.66666667  0.79466667  1
  Cs  Cs3  1  0.00000000  0.00000000  0.87200000  1
  Cs  Cs4  1  0.66666667  0.33333333  0.05095033  1
  Cs  Cs5  1  0.00000000  0.00000000  0.28238300  1
  Cs  Cs6  1  0.00000000  0.00000000  0.12800000  1
  Cs  Cs7  1  0.66666667  0.33333333  0.20533333  1
  Cs  Cs8  1  0.33333333  0.66666667  0.38428367  1
  Cs  Cs9  1  0.66666667  0.33333333  0.61571633  1
  Cs  Cs10  1  0.66666667  0.33333333  0.46133333  1
  Cs  Cs11  1  0.33333333  0.66666667  0.53866667  1
  Na  Na12  1  0.66666667  0.33333333  0.93040333  1
  Na  Na13  1  0.66666667  0.33333333  0.73626333  1
  Na  Na14  1  0.33333333  0.66666667  0.26373667  1
  Na  Na15  1  0.33333333  0.66666667  0.06959667  1
  Na  Na16  1  0.00000000  0.00000000  0.59707000  1
  Na  Na17  1  0.00000000  0.00000000  0.40293000  1
  V  V18  1  0.00000000  0.00000000  0.00000000  1
  V  V19  1  0.66666667  0.33333333  0.83333333  1
  V  V20  1  0.66666667  0.33333333  0.33333333  1
  V  V21  1  0.33333333  0.66666667  0.16666667  1
  V  V22  1  0.33333333  0.66666667  0.66666667  1
  V  V23  1  1.00000000  1.00000000  0.50000000  1
  F  F24  1  0.48210100  0.51789900  0.70285000  1
  F  F25  1  0.80958833  0.61917667  0.79473967  1
  F  F26  1  0.29753533  0.14876767  0.96381667  1
  F  F27  1  0.38082333  0.19041167  0.79473967  1
  F  F28  1  0.85123233  0.14876767  0.96381667  1
  F  F29  1  0.80958833  0.19041167  0.79473967  1
  F  F30  1  0.03579800  0.51789900  0.70285000  1
  F  F31  1  0.48210100  0.96420200  0.70285000  1
  F  F32  1  0.95251000  0.47625500  0.87192700  1
  F  F33  1  0.85123233  0.70246467  0.96381667  1
  F  F34  1  0.52374500  0.04749000  0.87192700  1
  F  F35  1  0.52374500  0.47625500  0.87192700  1
  F  F36  1  0.14876767  0.85123233  0.03618333  1
  F  F37  1  0.47625500  0.95251000  0.12807300  1
  F  F38  1  0.96420200  0.48210100  0.29715000  1
  F  F39  1  0.04749000  0.52374500  0.12807300  1
  F  F40  1  0.51789900  0.48210100  0.29715000  1
  F  F41  1  0.47625500  0.52374500  0.12807300  1
  F  F42  1  0.70246467  0.85123233  0.03618333  1
  F  F43  1  0.14876767  0.29753533  0.03618333  1
  F  F44  1  0.61917667  0.80958833  0.20526033  1
  F  F45  1  0.51789900  0.03579800  0.29715000  1
  F  F46  1  0.19041167  0.38082333  0.20526033  1
  F  F47  1  0.19041167  0.80958833  0.20526033  1
  F  F48  1  0.81543433  0.18456567  0.36951667  1
  F  F49  1  0.14292167  0.28584333  0.46140633  1
  F  F50  1  0.63086867  0.81543433  0.63048333  1
  F  F51  1  0.71415667  0.85707833  0.46140633  1
  F  F52  1  0.18456567  0.81543433  0.63048333  1
  F  F53  1  0.14292167  0.85707833  0.46140633  1
  F  F54  1  0.36913133  0.18456567  0.36951667  1
  F  F55  1  0.81543433  0.63086867  0.36951667  1
  F  F56  1  0.28584333  0.14292167  0.53859367  1
  F  F57  1  0.18456567  0.36913133  0.63048333  1
  F  F58  1  0.85707833  0.71415667  0.53859367  1
  F  F59  1  0.85707833  0.14292167  0.53859367  1
