# generated using pymatgen
data_Bi2Te2W3O16
_symmetry_space_group_name_H-M   'P 1'
_cell_length_a   21.78921200
_cell_length_b   5.61718600
_cell_length_c   13.08626277
_cell_angle_alpha   90.00000000
_cell_angle_beta   124.16711253
_cell_angle_gamma   90.00000000
_symmetry_Int_Tables_number   1
_chemical_formula_structural   Bi2Te2W3O16
_chemical_formula_sum   'Bi8 Te8 W12 O64'
_cell_volume   1325.23560073
_cell_formula_units_Z   4
loop_
 _symmetry_equiv_pos_site_id
 _symmetry_equiv_pos_as_xyz
  1  'x, y, z'
loop_
 _atom_site_type_symbol
 _atom_site_label
 _atom_site_symmetry_multiplicity
 _atom_site_fract_x
 _atom_site_fract_y
 _atom_site_fract_z
 _atom_site_occupancy
  Bi  Bi0  1  0.22282350  0.66777950  0.84328700  1
  Bi  Bi1  1  0.72282350  0.83222050  0.34328700  1
  Bi  Bi2  1  0.27717650  0.16777950  0.65671300  1
  Bi  Bi3  1  0.77717650  0.33222050  0.15671300  1
  Bi  Bi4  1  0.72282350  0.16777950  0.84328700  1
  Bi  Bi5  1  0.22282350  0.33222050  0.34328700  1
  Bi  Bi6  1  0.77717650  0.66777950  0.65671300  1
  Bi  Bi7  1  0.27717650  0.83222050  0.15671300  1
  Te  Te8  1  0.40446950  0.69531150  0.84388800  1
  Te  Te9  1  0.59553050  0.30468850  0.15611200  1
  Te  Te10  1  0.09553050  0.19531150  0.65611200  1
  Te  Te11  1  0.90446950  0.80468850  0.34388800  1
  Te  Te12  1  0.90446950  0.19531150  0.84388800  1
  Te  Te13  1  0.09553050  0.80468850  0.15611200  1
  Te  Te14  1  0.59553050  0.69531150  0.65611200  1
  Te  Te15  1  0.40446950  0.30468850  0.34388800  1
  W  W16  1  0.12604650  0.63613450  0.46235700  1
  W  W17  1  0.87395350  0.36386550  0.53764300  1
  W  W18  1  0.87395350  0.63613450  0.03764300  1
  W  W19  1  0.00000000  0.87092200  0.75000000  1
  W  W20  1  0.12604650  0.36386550  0.96235700  1
  W  W21  1  0.00000000  0.12907800  0.25000000  1
  W  W22  1  0.62604650  0.13613450  0.46235700  1
  W  W23  1  0.37395350  0.86386550  0.53764300  1
  W  W24  1  0.37395350  0.13613450  0.03764300  1
  W  W25  1  0.50000000  0.37092200  0.75000000  1
  W  W26  1  0.62604650  0.86386550  0.96235700  1
  W  W27  1  0.50000000  0.62907800  0.25000000  1
  O  O28  1  0.04164650  0.15268850  0.87648900  1
  O  O29  1  0.87417100  0.44326500  0.40006000  1
  O  O30  1  0.95835350  0.15268850  0.62351100  1
  O  O31  1  0.19429950  0.10154650  0.72186900  1
  O  O32  1  0.69429950  0.39845350  0.22186900  1
  O  O33  1  0.95196450  0.65205150  0.62424800  1
  O  O34  1  0.19663250  0.38599150  0.49225900  1
  O  O35  1  0.19663250  0.61400850  0.99225900  1
  O  O36  1  0.08613400  0.91371200  0.74018200  1
  O  O37  1  0.12582900  0.55673500  0.59994000  1
  O  O38  1  0.69407350  0.62800650  0.02965500  1
  O  O39  1  0.04803550  0.65205150  0.87575200  1
  O  O40  1  0.30592650  0.37199350  0.97034500  1
  O  O41  1  0.80336750  0.61400850  0.50774100  1
  O  O42  1  0.80570050  0.89845350  0.27813100  1
  O  O43  1  0.62582900  0.94326500  0.09994000  1
  O  O44  1  0.80592650  0.12800650  0.47034500  1
  O  O45  1  0.87904650  0.61202450  0.20467400  1
  O  O46  1  0.95196450  0.34794850  0.12424800  1
  O  O47  1  0.30570050  0.60154650  0.77813100  1
  O  O48  1  0.04164650  0.84731150  0.37648900  1
  O  O49  1  0.37417100  0.05673500  0.90006000  1
  O  O50  1  0.04803550  0.34794850  0.37575200  1
  O  O51  1  0.12095350  0.61202450  0.29532600  1
  O  O52  1  0.80336750  0.38599150  0.00774100  1
  O  O53  1  0.87904650  0.38797550  0.70467400  1
  O  O54  1  0.91386600  0.91371200  0.75981800  1
  O  O55  1  0.95835350  0.84731150  0.12351100  1
  O  O56  1  0.12095350  0.38797550  0.79532600  1
  O  O57  1  0.19407350  0.87199350  0.52965500  1
  O  O58  1  0.91386600  0.08628800  0.25981800  1
  O  O59  1  0.08613400  0.08628800  0.24018200  1
  O  O60  1  0.54164650  0.65268850  0.87648900  1
  O  O61  1  0.37417100  0.94326500  0.40006000  1
  O  O62  1  0.45835350  0.65268850  0.62351100  1
  O  O63  1  0.69429950  0.60154650  0.72186900  1
  O  O64  1  0.19429950  0.89845350  0.22186900  1
  O  O65  1  0.45196450  0.15205150  0.62424800  1
  O  O66  1  0.69663250  0.88599150  0.49225900  1
  O  O67  1  0.69663250  0.11400850  0.99225900  1
  O  O68  1  0.58613400  0.41371200  0.74018200  1
  O  O69  1  0.62582900  0.05673500  0.59994000  1
  O  O70  1  0.19407350  0.12800650  0.02965500  1
  O  O71  1  0.54803550  0.15205150  0.87575200  1
  O  O72  1  0.80592650  0.87199350  0.97034500  1
  O  O73  1  0.30336750  0.11400850  0.50774100  1
  O  O74  1  0.30570050  0.39845350  0.27813100  1
  O  O75  1  0.12582900  0.44326500  0.09994000  1
  O  O76  1  0.30592650  0.62800650  0.47034500  1
  O  O77  1  0.37904650  0.11202450  0.20467400  1
  O  O78  1  0.45196450  0.84794850  0.12424800  1
  O  O79  1  0.80570050  0.10154650  0.77813100  1
  O  O80  1  0.54164650  0.34731150  0.37648900  1
  O  O81  1  0.87417100  0.55673500  0.90006000  1
  O  O82  1  0.54803550  0.84794850  0.37575200  1
  O  O83  1  0.62095350  0.11202450  0.29532600  1
  O  O84  1  0.30336750  0.88599150  0.00774100  1
  O  O85  1  0.37904650  0.88797550  0.70467400  1
  O  O86  1  0.41386600  0.41371200  0.75981800  1
  O  O87  1  0.45835350  0.34731150  0.12351100  1
  O  O88  1  0.62095350  0.88797550  0.79532600  1
  O  O89  1  0.69407350  0.37199350  0.52965500  1
  O  O90  1  0.41386600  0.58628800  0.25981800  1
  O  O91  1  0.58613400  0.58628800  0.24018200  1
