# generated using pymatgen
data_HfBe2Bi
_symmetry_space_group_name_H-M   'P 1'
_cell_length_a   6.69506600
_cell_length_b   6.69506600
_cell_length_c   6.69506600
_cell_angle_alpha   90.00000000
_cell_angle_beta   90.00000000
_cell_angle_gamma   90.00000000
_symmetry_Int_Tables_number   1
_chemical_formula_structural   HfBe2Bi
_chemical_formula_sum   'Hf4 Be8 Bi4'
_cell_volume   300.09902742
_cell_formula_units_Z   4
loop_
 _symmetry_equiv_pos_site_id
 _symmetry_equiv_pos_as_xyz
  1  'x, y, z'
loop_
 _atom_site_type_symbol
 _atom_site_label
 _atom_site_symmetry_multiplicity
 _atom_site_fract_x
 _atom_site_fract_y
 _atom_site_fract_z
 _atom_site_occupancy
  Hf  Hf0  1  0.25000000  0.25000000  0.75000000  1
  Hf  Hf1  1  0.25000000  0.75000000  0.25000000  1
  Hf  Hf2  1  0.75000000  0.25000000  0.25000000  1
  Hf  Hf3  1  0.75000000  0.75000000  0.75000000  1
  Be  Be4  1  0.00000000  0.00000000  0.00000000  1
  Be  Be5  1  0.25000000  0.25000000  0.25000000  1
  Be  Be6  1  0.00000000  0.50000000  0.50000000  1
  Be  Be7  1  0.25000000  0.75000000  0.75000000  1
  Be  Be8  1  0.50000000  0.00000000  0.50000000  1
  Be  Be9  1  0.75000000  0.25000000  0.75000000  1
  Be  Be10  1  0.50000000  0.50000000  0.00000000  1
  Be  Be11  1  0.75000000  0.75000000  0.25000000  1
  Bi  Bi12  1  0.50000000  0.00000000  0.00000000  1
  Bi  Bi13  1  0.50000000  0.50000000  0.50000000  1
  Bi  Bi14  1  0.00000000  0.00000000  0.50000000  1
  Bi  Bi15  1  0.00000000  0.50000000  0.00000000  1
