# generated using pymatgen
data_Eu(ClO4)3
_symmetry_space_group_name_H-M   'P 1'
_cell_length_a   9.62345584
_cell_length_b   9.62345584
_cell_length_c   5.98430800
_cell_angle_alpha   90.00000000
_cell_angle_beta   90.00000000
_cell_angle_gamma   120.00000000
_symmetry_Int_Tables_number   1
_chemical_formula_structural   Eu(ClO4)3
_chemical_formula_sum   'Eu2 Cl6 O24'
_cell_volume   479.96181277
_cell_formula_units_Z   2
loop_
 _symmetry_equiv_pos_site_id
 _symmetry_equiv_pos_as_xyz
  1  'x, y, z'
loop_
 _atom_site_type_symbol
 _atom_site_label
 _atom_site_symmetry_multiplicity
 _atom_site_fract_x
 _atom_site_fract_y
 _atom_site_fract_z
 _atom_site_occupancy
  Eu  Eu0  1  0.33333333  0.66666667  0.25000000  1
  Eu  Eu1  1  0.66666667  0.33333333  0.75000000  1
  Cl  Cl2  1  0.38651600  0.29231500  0.25000000  1
  Cl  Cl3  1  0.90579900  0.61348400  0.25000000  1
  Cl  Cl4  1  0.29231500  0.90579900  0.75000000  1
  Cl  Cl5  1  0.61348400  0.70768500  0.75000000  1
  Cl  Cl6  1  0.70768500  0.09420100  0.25000000  1
  Cl  Cl7  1  0.09420100  0.38651600  0.75000000  1
  O  O8  1  0.02190000  0.21593500  0.75000000  1
  O  O9  1  0.02378100  0.55995100  0.25000000  1
  O  O10  1  0.19403500  0.97810000  0.75000000  1
  O  O11  1  0.44004900  0.46383000  0.25000000  1
  O  O12  1  0.54685800  0.74393300  0.94869100  1
  O  O13  1  0.45314200  0.25606700  0.05130900  1
  O  O14  1  0.21593500  0.19403500  0.25000000  1
  O  O15  1  0.25606700  0.80292500  0.94869100  1
  O  O16  1  0.80292500  0.54685800  0.05130900  1
  O  O17  1  0.97621900  0.44004900  0.75000000  1
  O  O18  1  0.97810000  0.78406500  0.25000000  1
  O  O19  1  0.19707500  0.45314200  0.55130900  1
  O  O20  1  0.53617000  0.97621900  0.25000000  1
  O  O21  1  0.74393300  0.19707500  0.05130900  1
  O  O22  1  0.80596500  0.02190000  0.25000000  1
  O  O23  1  0.46383000  0.02378100  0.75000000  1
  O  O24  1  0.55995100  0.53617000  0.75000000  1
  O  O25  1  0.45314200  0.25606700  0.44869100  1
  O  O26  1  0.78406500  0.80596500  0.75000000  1
  O  O27  1  0.74393300  0.19707500  0.44869100  1
  O  O28  1  0.80292500  0.54685800  0.44869100  1
  O  O29  1  0.25606700  0.80292500  0.55130900  1
  O  O30  1  0.19707500  0.45314200  0.94869100  1
  O  O31  1  0.54685800  0.74393300  0.55130900  1
