# generated using pymatgen
data_CsV(MoO4)2
_symmetry_space_group_name_H-M   'P 1'
_cell_length_a   5.81261038
_cell_length_b   5.81261038
_cell_length_c   8.33510834
_cell_angle_alpha   90.00000000
_cell_angle_beta   90.00000000
_cell_angle_gamma   120.00000000
_symmetry_Int_Tables_number   1
_chemical_formula_structural   CsV(MoO4)2
_chemical_formula_sum   'Cs1 V1 Mo2 O8'
_cell_volume   243.88455998
_cell_formula_units_Z   1
loop_
 _symmetry_equiv_pos_site_id
 _symmetry_equiv_pos_as_xyz
  1  'x, y, z'
loop_
 _atom_site_type_symbol
 _atom_site_label
 _atom_site_symmetry_multiplicity
 _atom_site_fract_x
 _atom_site_fract_y
 _atom_site_fract_z
 _atom_site_occupancy
  Cs  Cs0  1  0.00000000  0.00000000  0.00000000  1
  V  V1  1  0.00000000  0.00000000  0.50000000  1
  Mo  Mo2  1  0.33333333  0.66666667  0.29055000  1
  Mo  Mo3  1  0.66666667  0.33333333  0.70945000  1
  O  O4  1  0.66666667  0.33333333  0.91995700  1
  O  O5  1  0.33333333  0.66666667  0.08004300  1
  O  O6  1  0.16253825  0.32507650  0.35600300  1
  O  O7  1  0.83746175  0.16253825  0.64399700  1
  O  O8  1  0.67492350  0.83746175  0.35600300  1
  O  O9  1  0.16253825  0.83746175  0.35600300  1
  O  O10  1  0.83746175  0.67492350  0.64399700  1
  O  O11  1  0.32507650  0.16253825  0.64399700  1
