# generated using pymatgen
data_K2Cr4Co(HO4)4
_symmetry_space_group_name_H-M   'P 1'
_cell_length_a   6.96476700
_cell_length_b   7.82987221
_cell_length_c   7.98691902
_cell_angle_alpha   89.85502923
_cell_angle_beta   98.32245042
_cell_angle_gamma   116.25132344
_symmetry_Int_Tables_number   1
_chemical_formula_structural   K2Cr4Co(HO4)4
_chemical_formula_sum   'K2 Cr4 Co1 H4 O16'
_cell_volume   385.58803658
_cell_formula_units_Z   1
loop_
 _symmetry_equiv_pos_site_id
 _symmetry_equiv_pos_as_xyz
  1  'x, y, z'
loop_
 _atom_site_type_symbol
 _atom_site_label
 _atom_site_symmetry_multiplicity
 _atom_site_fract_x
 _atom_site_fract_y
 _atom_site_fract_z
 _atom_site_occupancy
  K  K0  1  0.29297200  0.73845100  0.17278200  1
  K  K1  1  0.70702800  0.26154900  0.82721800  1
  Cr  Cr2  1  0.26147800  0.20501000  0.16449500  1
  Cr  Cr3  1  0.73852200  0.79499000  0.83550500  1
  Cr  Cr4  1  0.27074000  0.50207800  0.66769700  1
  Cr  Cr5  1  0.72926000  0.49792200  0.33230300  1
  Co  Co6  1  0.00000000  0.00000000  0.50000000  1
  H  H7  1  0.19355200  0.91883200  0.77510300  1
  H  H8  1  0.80644800  0.08116800  0.22489700  1
  H  H9  1  0.74187400  0.15234800  0.38296500  1
  H  H10  1  0.25812600  0.84765200  0.61703500  1
  O  O11  1  0.85138300  0.71974400  0.41465900  1
  O  O12  1  0.72169800  0.34542700  0.47532000  1
  O  O13  1  0.45448100  0.44345900  0.24320100  1
  O  O14  1  0.04386500  0.21604400  0.07315200  1
  O  O15  1  0.20567000  0.06050100  0.32208700  1
  O  O16  1  0.75551000  0.04205300  0.33375900  1
  O  O17  1  0.24449000  0.95794700  0.66624100  1
  O  O18  1  0.27830200  0.65457300  0.52468000  1
  O  O19  1  0.79433000  0.93949900  0.67791300  1
  O  O20  1  0.14861700  0.28025600  0.58534100  1
  O  O21  1  0.15192800  0.53108000  0.81778900  1
  O  O22  1  0.54551900  0.55654100  0.75679900  1
  O  O23  1  0.95613500  0.78395600  0.92684800  1
  O  O24  1  0.63242200  0.87188400  0.96773700  1
  O  O25  1  0.36757800  0.12811600  0.03226300  1
  O  O26  1  0.84807200  0.46892000  0.18221100  1
