# generated using pymatgen
data_Sm(GdS2)2
_symmetry_space_group_name_H-M   'P 1'
_cell_length_a   8.45495200
_cell_length_b   8.45495200
_cell_length_c   8.42549000
_cell_angle_alpha   90.00000000
_cell_angle_beta   90.00000000
_cell_angle_gamma   90.00000000
_symmetry_Int_Tables_number   1
_chemical_formula_structural   Sm(GdS2)2
_chemical_formula_sum   'Sm4 Gd8 S16'
_cell_volume   602.30637548
_cell_formula_units_Z   4
loop_
 _symmetry_equiv_pos_site_id
 _symmetry_equiv_pos_as_xyz
  1  'x, y, z'
loop_
 _atom_site_type_symbol
 _atom_site_label
 _atom_site_symmetry_multiplicity
 _atom_site_fract_x
 _atom_site_fract_y
 _atom_site_fract_z
 _atom_site_occupancy
  Sm  Sm0  1  0.50000000  0.00000000  0.25000000  1
  Sm  Sm1  1  0.50000000  0.50000000  0.50000000  1
  Sm  Sm2  1  0.00000000  0.50000000  0.75000000  1
  Sm  Sm3  1  0.00000000  0.00000000  0.00000000  1
  Gd  Gd4  1  0.75000000  0.62623900  0.12500000  1
  Gd  Gd5  1  0.87376100  0.25000000  0.37500000  1
  Gd  Gd6  1  0.75000000  0.87376100  0.62500000  1
  Gd  Gd7  1  0.62623900  0.25000000  0.87500000  1
  Gd  Gd8  1  0.25000000  0.12623900  0.62500000  1
  Gd  Gd9  1  0.37376100  0.75000000  0.87500000  1
  Gd  Gd10  1  0.25000000  0.37376100  0.12500000  1
  Gd  Gd11  1  0.12623900  0.75000000  0.37500000  1
  S  S12  1  0.67561350  0.92655650  0.94819050  1
  S  S13  1  0.92655650  0.17561350  0.69819050  1
  S  S14  1  0.57344350  0.32438650  0.19819050  1
  S  S15  1  0.92655650  0.32438650  0.05180950  1
  S  S16  1  0.82438650  0.57344350  0.44819050  1
  S  S17  1  0.32438650  0.42655650  0.80180950  1
  S  S18  1  0.57344350  0.17561350  0.55180950  1
  S  S19  1  0.17561350  0.07344350  0.30180950  1
  S  S20  1  0.17561350  0.42655650  0.44819050  1
  S  S21  1  0.42655650  0.67561350  0.19819050  1
  S  S22  1  0.07344350  0.82438650  0.69819050  1
  S  S23  1  0.42655650  0.82438650  0.55180950  1
  S  S24  1  0.32438650  0.07344350  0.94819050  1
  S  S25  1  0.82438650  0.92655650  0.30180950  1
  S  S26  1  0.07344350  0.67561350  0.05180950  1
  S  S27  1  0.67561350  0.57344350  0.80180950  1
