# generated using pymatgen
data_BaRe2Sn
_symmetry_space_group_name_H-M   'P 1'
_cell_length_a   7.03200600
_cell_length_b   7.03200600
_cell_length_c   7.03200600
_cell_angle_alpha   90.00000000
_cell_angle_beta   90.00000000
_cell_angle_gamma   90.00000000
_symmetry_Int_Tables_number   1
_chemical_formula_structural   BaRe2Sn
_chemical_formula_sum   'Ba4 Re8 Sn4'
_cell_volume   347.72642685
_cell_formula_units_Z   4
loop_
 _symmetry_equiv_pos_site_id
 _symmetry_equiv_pos_as_xyz
  1  'x, y, z'
loop_
 _atom_site_type_symbol
 _atom_site_label
 _atom_site_symmetry_multiplicity
 _atom_site_fract_x
 _atom_site_fract_y
 _atom_site_fract_z
 _atom_site_occupancy
  Ba  Ba0  1  0.25000000  0.25000000  0.75000000  1
  Ba  Ba1  1  0.25000000  0.75000000  0.25000000  1
  Ba  Ba2  1  0.75000000  0.25000000  0.25000000  1
  Ba  Ba3  1  0.75000000  0.75000000  0.75000000  1
  Re  Re4  1  0.25000000  0.25000000  0.25000000  1
  Re  Re5  1  0.00000000  0.00000000  0.00000000  1
  Re  Re6  1  0.25000000  0.75000000  0.75000000  1
  Re  Re7  1  0.00000000  0.50000000  0.50000000  1
  Re  Re8  1  0.75000000  0.25000000  0.75000000  1
  Re  Re9  1  0.50000000  0.00000000  0.50000000  1
  Re  Re10  1  0.75000000  0.75000000  0.25000000  1
  Re  Re11  1  0.50000000  0.50000000  0.00000000  1
  Sn  Sn12  1  0.50000000  0.00000000  0.00000000  1
  Sn  Sn13  1  0.50000000  0.50000000  0.50000000  1
  Sn  Sn14  1  0.00000000  0.00000000  0.50000000  1
  Sn  Sn15  1  0.00000000  0.50000000  0.00000000  1
