# generated using pymatgen
data_Rb5Si2NiO8
_symmetry_space_group_name_H-M   'P 1'
_cell_length_a   8.77826400
_cell_length_b   10.38085800
_cell_length_c   13.93194242
_cell_angle_alpha   90.00000000
_cell_angle_beta   98.38007805
_cell_angle_gamma   90.00000000
_symmetry_Int_Tables_number   1
_chemical_formula_structural   Rb5Si2NiO8
_chemical_formula_sum   'Rb20 Si8 Ni4 O32'
_cell_volume   1256.00594224
_cell_formula_units_Z   4
loop_
 _symmetry_equiv_pos_site_id
 _symmetry_equiv_pos_as_xyz
  1  'x, y, z'
loop_
 _atom_site_type_symbol
 _atom_site_label
 _atom_site_symmetry_multiplicity
 _atom_site_fract_x
 _atom_site_fract_y
 _atom_site_fract_z
 _atom_site_occupancy
  Rb  Rb0  1  0.74157400  0.82664300  0.34693500  1
  Rb  Rb1  1  0.60744300  0.64579200  0.08609400  1
  Rb  Rb2  1  0.74157400  0.17335700  0.84693500  1
  Rb  Rb3  1  0.60744300  0.35420800  0.58609400  1
  Rb  Rb4  1  0.50000000  0.15203600  0.25000000  1
  Rb  Rb5  1  0.50000000  0.84796400  0.75000000  1
  Rb  Rb6  1  0.39255700  0.64579200  0.41390600  1
  Rb  Rb7  1  0.25842600  0.82664300  0.15306500  1
  Rb  Rb8  1  0.39255700  0.35420800  0.91390600  1
  Rb  Rb9  1  0.25842600  0.17335700  0.65306500  1
  Rb  Rb10  1  0.24157400  0.32664300  0.34693500  1
  Rb  Rb11  1  0.10744300  0.14579200  0.08609400  1
  Rb  Rb12  1  0.24157400  0.67335700  0.84693500  1
  Rb  Rb13  1  0.10744300  0.85420800  0.58609400  1
  Rb  Rb14  1  0.00000000  0.65203600  0.25000000  1
  Rb  Rb15  1  0.00000000  0.34796400  0.75000000  1
  Rb  Rb16  1  0.89255700  0.14579200  0.41390600  1
  Rb  Rb17  1  0.75842600  0.32664300  0.15306500  1
  Rb  Rb18  1  0.89255700  0.85420800  0.91390600  1
  Rb  Rb19  1  0.75842600  0.67335700  0.65306500  1
  Si  Si20  1  0.74803900  0.96811700  0.12637600  1
  Si  Si21  1  0.74803900  0.03188300  0.62637600  1
  Si  Si22  1  0.25196100  0.96811700  0.37362400  1
  Si  Si23  1  0.25196100  0.03188300  0.87362400  1
  Si  Si24  1  0.24803900  0.46811700  0.12637600  1
  Si  Si25  1  0.24803900  0.53188300  0.62637600  1
  Si  Si26  1  0.75196100  0.46811700  0.37362400  1
  Si  Si27  1  0.75196100  0.53188300  0.87362400  1
  Ni  Ni28  1  0.50000000  0.00000000  0.50000000  1
  Ni  Ni29  1  0.50000000  0.00000000  0.00000000  1
  Ni  Ni30  1  0.00000000  0.50000000  0.50000000  1
  Ni  Ni31  1  0.00000000  0.50000000  0.00000000  1
  O  O32  1  0.78409100  0.06201500  0.21929500  1
  O  O33  1  0.70999900  0.05218500  0.02044900  1
  O  O34  1  0.78409100  0.93798500  0.71929500  1
  O  O35  1  0.70999900  0.94781500  0.52044900  1
  O  O36  1  0.55803950  0.91732650  0.11566200  1
  O  O37  1  0.63886150  0.34699150  0.38134400  1
  O  O38  1  0.55803950  0.08267350  0.61566200  1
  O  O39  1  0.36113850  0.34699150  0.11865600  1
  O  O40  1  0.63886150  0.65300850  0.88134400  1
  O  O41  1  0.44196050  0.91732650  0.38433800  1
  O  O42  1  0.36113850  0.65300850  0.61865600  1
  O  O43  1  0.44196050  0.08267350  0.88433800  1
  O  O44  1  0.29000100  0.05218500  0.47955100  1
  O  O45  1  0.21590900  0.06201500  0.28070500  1
  O  O46  1  0.29000100  0.94781500  0.97955100  1
  O  O47  1  0.21590900  0.93798500  0.78070500  1
  O  O48  1  0.28409100  0.56201500  0.21929500  1
  O  O49  1  0.20999900  0.55218500  0.02044900  1
  O  O50  1  0.28409100  0.43798500  0.71929500  1
  O  O51  1  0.20999900  0.44781500  0.52044900  1
  O  O52  1  0.05803950  0.41732650  0.11566200  1
  O  O53  1  0.13886150  0.84699150  0.38134400  1
  O  O54  1  0.05803950  0.58267350  0.61566200  1
  O  O55  1  0.86113850  0.84699150  0.11865600  1
  O  O56  1  0.13886150  0.15300850  0.88134400  1
  O  O57  1  0.94196050  0.41732650  0.38433800  1
  O  O58  1  0.86113850  0.15300850  0.61865600  1
  O  O59  1  0.94196050  0.58267350  0.88433800  1
  O  O60  1  0.79000100  0.55218500  0.47955100  1
  O  O61  1  0.71590900  0.56201500  0.28070500  1
  O  O62  1  0.79000100  0.44781500  0.97955100  1
  O  O63  1  0.71590900  0.43798500  0.78070500  1
