# generated using pymatgen
data_CdSnAs2
_symmetry_space_group_name_H-M   'P 1'
_cell_length_a   8.25137800
_cell_length_b   4.41568000
_cell_length_c   39.89633979
_cell_angle_alpha   90.00000000
_cell_angle_beta   90.61747154
_cell_angle_gamma   90.00000000
_symmetry_Int_Tables_number   1
_chemical_formula_structural   CdSnAs2
_chemical_formula_sum   'Cd12 Sn12 As24'
_cell_volume   1453.55647315
_cell_formula_units_Z   12
loop_
 _symmetry_equiv_pos_site_id
 _symmetry_equiv_pos_as_xyz
  1  'x, y, z'
loop_
 _atom_site_type_symbol
 _atom_site_label
 _atom_site_symmetry_multiplicity
 _atom_site_fract_x
 _atom_site_fract_y
 _atom_site_fract_z
 _atom_site_occupancy
  Cd  Cd0  1  0.83928800  0.50000000  0.58800000  1
  Cd  Cd1  1  0.50681200  0.50000000  0.51230900  1
  Cd  Cd2  1  0.50616100  0.50000000  0.75342500  1
  Cd  Cd3  1  0.67245500  0.00000000  0.67099000  1
  Cd  Cd4  1  0.83822700  0.50000000  0.83534600  1
  Cd  Cd5  1  0.67008300  0.00000000  0.91660600  1
  Cd  Cd6  1  0.33928800  0.00000000  0.58800000  1
  Cd  Cd7  1  0.00681200  0.00000000  0.51230900  1
  Cd  Cd8  1  0.00616100  0.00000000  0.75342500  1
  Cd  Cd9  1  0.17245500  0.50000000  0.67099000  1
  Cd  Cd10  1  0.33822700  0.00000000  0.83534600  1
  Cd  Cd11  1  0.17008300  0.50000000  0.91660600  1
  Sn  Sn12  1  0.50144000  0.50000000  0.99558000  1
  Sn  Sn13  1  0.83912800  0.50000000  0.08783100  1
  Sn  Sn14  1  0.67135300  0.00000000  0.16965400  1
  Sn  Sn15  1  0.50388900  0.50000000  0.25289700  1
  Sn  Sn16  1  0.83808100  0.50000000  0.33525600  1
  Sn  Sn17  1  0.67083700  0.00000000  0.41791400  1
  Sn  Sn18  1  0.00144000  0.00000000  0.99558000  1
  Sn  Sn19  1  0.33912800  0.00000000  0.08783100  1
  Sn  Sn20  1  0.17135300  0.50000000  0.16965400  1
  Sn  Sn21  1  0.00388900  0.00000000  0.25289700  1
  Sn  Sn22  1  0.33808100  0.00000000  0.33525600  1
  Sn  Sn23  1  0.17083700  0.50000000  0.41791400  1
  As  As24  1  0.83079800  0.50000000  0.01960100  1
  As  As25  1  0.66112400  0.00000000  0.10151700  1
  As  As26  1  0.99429300  0.00000000  0.18446800  1
  As  As27  1  0.82711300  0.50000000  0.26691700  1
  As  As28  1  0.66092600  0.00000000  0.34910400  1
  As  As29  1  0.99857900  0.00000000  0.44062300  1
  As  As30  1  0.82796600  0.50000000  0.51926200  1
  As  As31  1  0.66199900  0.00000000  0.60279600  1
  As  As32  1  0.99501200  0.00000000  0.68485100  1
  As  As33  1  0.82881500  0.50000000  0.76633600  1
  As  As34  1  0.66098100  0.00000000  0.84858000  1
  As  As35  1  0.99448700  0.00000000  0.93014000  1
  As  As36  1  0.33079800  0.00000000  0.01960100  1
  As  As37  1  0.16112400  0.50000000  0.10151700  1
  As  As38  1  0.49429300  0.50000000  0.18446800  1
  As  As39  1  0.32711300  0.00000000  0.26691700  1
  As  As40  1  0.16092600  0.50000000  0.34910400  1
  As  As41  1  0.49857900  0.50000000  0.44062300  1
  As  As42  1  0.32796600  0.00000000  0.51926200  1
  As  As43  1  0.16199900  0.50000000  0.60279600  1
  As  As44  1  0.49501200  0.50000000  0.68485100  1
  As  As45  1  0.32881500  0.00000000  0.76633600  1
  As  As46  1  0.16098100  0.50000000  0.84858000  1
  As  As47  1  0.49448700  0.50000000  0.93014000  1
