# generated using pymatgen
data_K6Yb3(PS4)5
_symmetry_space_group_name_H-M   'P 1'
_cell_length_a   27.82225000
_cell_length_b   12.97825000
_cell_length_c   25.94157104
_cell_angle_alpha   90.00000000
_cell_angle_beta   118.32032313
_cell_angle_gamma   90.00000000
_symmetry_Int_Tables_number   1
_chemical_formula_structural   K6Yb3(PS4)5
_chemical_formula_sum   'K48 Yb24 P40 S160'
_cell_volume   8245.93424704
_cell_formula_units_Z   8
loop_
 _symmetry_equiv_pos_site_id
 _symmetry_equiv_pos_as_xyz
  1  'x, y, z'
loop_
 _atom_site_type_symbol
 _atom_site_label
 _atom_site_symmetry_multiplicity
 _atom_site_fract_x
 _atom_site_fract_y
 _atom_site_fract_z
 _atom_site_occupancy
  K  K0  1  0.53137700  0.67898000  0.02190700  1
  K  K1  1  0.06870850  0.78714950  0.73018000  1
  K  K2  1  0.17724850  0.59900350  0.86148800  1
  K  K3  1  0.92725600  0.20838100  0.76860500  1
  K  K4  1  0.71720300  0.78963000  0.07382200  1
  K  K5  1  0.96862300  0.17898000  0.47809300  1
  K  K6  1  0.66800800  0.83371700  0.57768400  1
  K  K7  1  0.83199200  0.66628300  0.42231600  1
  K  K8  1  0.42725600  0.29161900  0.26860500  1
  K  K9  1  0.32275150  0.90099650  0.13851200  1
  K  K10  1  0.56870850  0.71285050  0.23018000  1
  K  K11  1  0.66800800  0.16628300  0.07768400  1
  K  K12  1  0.07274400  0.20838100  0.73139500  1
  K  K13  1  0.78279700  0.28963000  0.42617800  1
  K  K14  1  0.82275150  0.59900350  0.63851200  1
  K  K15  1  0.57274400  0.29161900  0.23139500  1
  K  K16  1  0.43129150  0.71285050  0.26982000  1
  K  K17  1  0.93129150  0.78714950  0.76982000  1
  K  K18  1  0.83199200  0.33371700  0.92231600  1
  K  K19  1  0.78279700  0.71037000  0.92617800  1
  K  K20  1  0.67724850  0.90099650  0.36148800  1
  K  K21  1  0.71720300  0.21037000  0.57382200  1
  K  K22  1  0.96862300  0.82102000  0.97809300  1
  K  K23  1  0.53137700  0.32102000  0.52190700  1
  K  K24  1  0.03137700  0.17898000  0.02190700  1
  K  K25  1  0.56870850  0.28714950  0.73018000  1
  K  K26  1  0.67724850  0.09900350  0.86148800  1
  K  K27  1  0.42725600  0.70838100  0.76860500  1
  K  K28  1  0.21720300  0.28963000  0.07382200  1
  K  K29  1  0.46862300  0.67898000  0.47809300  1
  K  K30  1  0.16800800  0.33371700  0.57768400  1
  K  K31  1  0.33199200  0.16628300  0.42231600  1
  K  K32  1  0.92725600  0.79161900  0.26860500  1
  K  K33  1  0.82275150  0.40099650  0.13851200  1
  K  K34  1  0.06870850  0.21285050  0.23018000  1
  K  K35  1  0.16800800  0.66628300  0.07768400  1
  K  K36  1  0.57274400  0.70838100  0.73139500  1
  K  K37  1  0.28279700  0.78963000  0.42617800  1
  K  K38  1  0.32275150  0.09900350  0.63851200  1
  K  K39  1  0.07274400  0.79161900  0.23139500  1
  K  K40  1  0.93129150  0.21285050  0.26982000  1
  K  K41  1  0.43129150  0.28714950  0.76982000  1
  K  K42  1  0.33199200  0.83371700  0.92231600  1
  K  K43  1  0.28279700  0.21037000  0.92617800  1
  K  K44  1  0.17724850  0.40099650  0.36148800  1
  K  K45  1  0.21720300  0.71037000  0.57382200  1
  K  K46  1  0.46862300  0.32102000  0.97809300  1
  K  K47  1  0.03137700  0.82102000  0.52190700  1
  Yb  Yb48  1  0.01373950  0.49014850  0.87760100  1
  Yb  Yb49  1  0.87419950  0.99102250  0.56196100  1
  Yb  Yb50  1  0.51373950  0.00985150  0.37760100  1
  Yb  Yb51  1  0.73291950  0.46786750  0.74298300  1
  Yb  Yb52  1  0.48626050  0.00985150  0.12239900  1
  Yb  Yb53  1  0.73291950  0.53213250  0.24298300  1
  Yb  Yb54  1  0.62580050  0.50897750  0.43803900  1
  Yb  Yb55  1  0.76708050  0.96786750  0.75701700  1
  Yb  Yb56  1  0.98626050  0.49014850  0.62239900  1
  Yb  Yb57  1  0.37419950  0.50897750  0.06196100  1
  Yb  Yb58  1  0.12580050  0.99102250  0.93803900  1
  Yb  Yb59  1  0.76708050  0.03213250  0.25701700  1
  Yb  Yb60  1  0.51373950  0.99014850  0.87760100  1
  Yb  Yb61  1  0.37419950  0.49102250  0.56196100  1
  Yb  Yb62  1  0.01373950  0.50985150  0.37760100  1
  Yb  Yb63  1  0.23291950  0.96786750  0.74298300  1
  Yb  Yb64  1  0.98626050  0.50985150  0.12239900  1
  Yb  Yb65  1  0.23291950  0.03213250  0.24298300  1
  Yb  Yb66  1  0.12580050  0.00897750  0.43803900  1
  Yb  Yb67  1  0.26708050  0.46786750  0.75701700  1
  Yb  Yb68  1  0.48626050  0.99014850  0.62239900  1
  Yb  Yb69  1  0.87419950  0.00897750  0.06196100  1
  Yb  Yb70  1  0.62580050  0.49102250  0.93803900  1
  Yb  Yb71  1  0.26708050  0.53213250  0.25701700  1
  P  P72  1  0.62702500  0.03919900  0.18987500  1
  P  P73  1  0.91632550  0.26192050  0.59357400  1
  P  P74  1  0.06902800  0.73714800  0.90884500  1
  P  P75  1  0.56902800  0.76285200  0.40884500  1
  P  P76  1  0.67726200  0.52843600  0.33651700  1
  P  P77  1  0.41632550  0.23807950  0.09357400  1
  P  P78  1  0.66876450  0.49908850  0.59379700  1
  P  P79  1  0.83123550  0.99908850  0.90620300  1
  P  P80  1  0.93097200  0.73714800  0.59115500  1
  P  P81  1  0.82273800  0.02843600  0.16348300  1
  P  P82  1  0.87297500  0.46080100  0.81012500  1
  P  P83  1  0.66876450  0.50091150  0.09379700  1
  P  P84  1  0.67726200  0.47156400  0.83651700  1
  P  P85  1  0.82273800  0.97156400  0.66348300  1
  P  P86  1  0.62702500  0.96080100  0.68987500  1
  P  P87  1  0.87297500  0.53919900  0.31012500  1
  P  P88  1  0.58367450  0.23807950  0.40642600  1
  P  P89  1  0.43097200  0.76285200  0.09115500  1
  P  P90  1  0.83123550  0.00091150  0.40620300  1
  P  P91  1  0.08367450  0.26192050  0.90642600  1
  P  P92  1  0.12702500  0.53919900  0.18987500  1
  P  P93  1  0.41632550  0.76192050  0.59357400  1
  P  P94  1  0.56902800  0.23714800  0.90884500  1
  P  P95  1  0.06902800  0.26285200  0.40884500  1
  P  P96  1  0.17726200  0.02843600  0.33651700  1
  P  P97  1  0.91632550  0.73807950  0.09357400  1
  P  P98  1  0.16876450  0.99908850  0.59379700  1
  P  P99  1  0.33123550  0.49908850  0.90620300  1
  P  P100  1  0.43097200  0.23714800  0.59115500  1
  P  P101  1  0.32273800  0.52843600  0.16348300  1
  P  P102  1  0.37297500  0.96080100  0.81012500  1
  P  P103  1  0.16876450  0.00091150  0.09379700  1
  P  P104  1  0.17726200  0.97156400  0.83651700  1
  P  P105  1  0.32273800  0.47156400  0.66348300  1
  P  P106  1  0.12702500  0.46080100  0.68987500  1
  P  P107  1  0.37297500  0.03919900  0.31012500  1
  P  P108  1  0.08367450  0.73807950  0.40642600  1
  P  P109  1  0.93097200  0.26285200  0.09115500  1
  P  P110  1  0.33123550  0.50091150  0.40620300  1
  P  P111  1  0.58367450  0.76192050  0.90642600  1
  S  S112  1  0.59447550  0.45498450  0.03003400  1
  S  S113  1  0.08686350  0.35923650  0.97000400  1
  S  S114  1  0.82181050  0.37002550  0.74190600  1
  S  S115  1  0.70692200  0.38638000  0.15370200  1
  S  S116  1  0.80817700  0.09806300  0.70111500  1
  S  S117  1  0.90552450  0.95498450  0.46996600  1
  S  S118  1  0.79307800  0.88638000  0.34629800  1
  S  S119  1  0.92802300  0.37265300  0.87714700  1
  S  S120  1  0.44683400  0.15937900  0.17107800  1
  S  S121  1  0.55316600  0.15937900  0.32892200  1
  S  S122  1  0.79307800  0.11362000  0.84629800  1
  S  S123  1  0.34993750  0.73018350  0.04866300  1
  S  S124  1  0.72506400  0.52469300  0.42497900  1
  S  S125  1  0.44886450  0.84492250  0.16589800  1
  S  S126  1  0.80349650  0.15996350  0.19446400  1
  S  S127  1  0.70692200  0.61362000  0.65370200  1
  S  S128  1  0.40313650  0.52336450  0.18415800  1
  S  S129  1  0.15961100  0.20572100  0.92987300  1
  S  S130  1  0.84993750  0.76981650  0.54866300  1
  S  S131  1  0.69182300  0.40193700  0.29888500  1
  S  S132  1  0.82869100  0.54682600  0.83821100  1
  S  S133  1  0.78490450  0.03471950  0.44623500  1
  S  S134  1  0.45335800  0.85010500  0.03976900  1
  S  S135  1  0.34038900  0.29427900  0.07012700  1
  S  S136  1  0.05113550  0.65507750  0.83410200  1
  S  S137  1  0.59686350  0.52336450  0.31584200  1
  S  S138  1  0.77493600  0.02469300  0.07502100  1
  S  S139  1  0.80817700  0.90193700  0.20111500  1
  S  S140  1  0.04664200  0.64989500  0.96023100  1
  S  S141  1  0.91544800  0.54988300  0.78009700  1
  S  S142  1  0.67130900  0.04682600  0.66178900  1
  S  S143  1  0.57197700  0.87265300  0.62285300  1
  S  S144  1  0.66114350  0.62950050  0.13542500  1
  S  S145  1  0.91313650  0.35923650  0.52999600  1
  S  S146  1  0.02520400  0.87169700  0.88816600  1
  S  S147  1  0.66114350  0.37049950  0.63542500  1
  S  S148  1  0.92802300  0.62734700  0.37714700  1
  S  S149  1  0.82869100  0.45317400  0.33821100  1
  S  S150  1  0.67818950  0.12997450  0.25809400  1
  S  S151  1  0.84038900  0.20572100  0.57012700  1
  S  S152  1  0.08455200  0.54988300  0.71990300  1
  S  S153  1  0.57197700  0.12734700  0.12285300  1
  S  S154  1  0.69650350  0.34003650  0.80553600  1
  S  S155  1  0.15006250  0.76981650  0.95133700  1
  S  S156  1  0.41544800  0.95011700  0.28009700  1
  S  S157  1  0.80349650  0.84003650  0.69446400  1
  S  S158  1  0.90313650  0.97663550  0.68415800  1
  S  S159  1  0.94886450  0.65507750  0.66589800  1
  S  S160  1  0.65006250  0.73018350  0.45133700  1
  S  S161  1  0.65961100  0.29427900  0.42987300  1
  S  S162  1  0.90552450  0.04501550  0.96996600  1
  S  S163  1  0.96538400  0.13853600  0.60270900  1
  S  S164  1  0.41313650  0.14076350  0.02999600  1
  S  S165  1  0.94683400  0.34062100  0.67107800  1
  S  S166  1  0.82181050  0.62997450  0.24190600  1
  S  S167  1  0.69182300  0.59806300  0.79888500  1
  S  S168  1  0.52520400  0.62830300  0.38816600  1
  S  S169  1  0.46538400  0.36146400  0.10270900  1
  S  S170  1  0.78490450  0.96528050  0.94623500  1
  S  S171  1  0.09686350  0.97663550  0.81584200  1
  S  S172  1  0.71509550  0.53471950  0.05376500  1
  S  S173  1  0.83885650  0.87049950  0.86457500  1
  S  S174  1  0.47479600  0.62830300  0.11183400  1
  S  S175  1  0.05316600  0.34062100  0.82892200  1
  S  S176  1  0.53461600  0.36146400  0.39729100  1
  S  S177  1  0.69650350  0.65996350  0.30553600  1
  S  S178  1  0.72506400  0.47530700  0.92497900  1
  S  S179  1  0.97479600  0.87169700  0.61183400  1
  S  S180  1  0.95335800  0.64989500  0.53976900  1
  S  S181  1  0.55113550  0.84492250  0.33410200  1
  S  S182  1  0.03461600  0.13853600  0.89729100  1
  S  S183  1  0.83885650  0.12950050  0.36457500  1
  S  S184  1  0.67130900  0.95317400  0.16178900  1
  S  S185  1  0.54664200  0.85010500  0.46023100  1
  S  S186  1  0.58455200  0.95011700  0.21990300  1
  S  S187  1  0.71509550  0.46528050  0.55376500  1
  S  S188  1  0.58686350  0.14076350  0.47000400  1
  S  S189  1  0.59447550  0.54501550  0.53003400  1
  S  S190  1  0.67818950  0.87002550  0.75809400  1
  S  S191  1  0.77493600  0.97530700  0.57502100  1
  S  S192  1  0.09447550  0.95498450  0.03003400  1
  S  S193  1  0.58686350  0.85923650  0.97000400  1
  S  S194  1  0.32181050  0.87002550  0.74190600  1
  S  S195  1  0.20692200  0.88638000  0.15370200  1
  S  S196  1  0.30817700  0.59806300  0.70111500  1
  S  S197  1  0.40552450  0.45498450  0.46996600  1
  S  S198  1  0.29307800  0.38638000  0.34629800  1
  S  S199  1  0.42802300  0.87265300  0.87714700  1
  S  S200  1  0.94683400  0.65937900  0.17107800  1
  S  S201  1  0.05316600  0.65937900  0.32892200  1
  S  S202  1  0.29307800  0.61362000  0.84629800  1
  S  S203  1  0.84993750  0.23018350  0.04866300  1
  S  S204  1  0.22506400  0.02469300  0.42497900  1
  S  S205  1  0.94886450  0.34492250  0.16589800  1
  S  S206  1  0.30349650  0.65996350  0.19446400  1
  S  S207  1  0.20692200  0.11362000  0.65370200  1
  S  S208  1  0.90313650  0.02336450  0.18415800  1
  S  S209  1  0.65961100  0.70572100  0.92987300  1
  S  S210  1  0.34993750  0.26981650  0.54866300  1
  S  S211  1  0.19182300  0.90193700  0.29888500  1
  S  S212  1  0.32869100  0.04682600  0.83821100  1
  S  S213  1  0.28490450  0.53471950  0.44623500  1
  S  S214  1  0.95335800  0.35010500  0.03976900  1
  S  S215  1  0.84038900  0.79427900  0.07012700  1
  S  S216  1  0.55113550  0.15507750  0.83410200  1
  S  S217  1  0.09686350  0.02336450  0.31584200  1
  S  S218  1  0.27493600  0.52469300  0.07502100  1
  S  S219  1  0.30817700  0.40193700  0.20111500  1
  S  S220  1  0.54664200  0.14989500  0.96023100  1
  S  S221  1  0.41544800  0.04988300  0.78009700  1
  S  S222  1  0.17130900  0.54682600  0.66178900  1
  S  S223  1  0.07197700  0.37265300  0.62285300  1
  S  S224  1  0.16114350  0.12950050  0.13542500  1
  S  S225  1  0.41313650  0.85923650  0.52999600  1
  S  S226  1  0.52520400  0.37169700  0.88816600  1
  S  S227  1  0.16114350  0.87049950  0.63542500  1
  S  S228  1  0.42802300  0.12734700  0.37714700  1
  S  S229  1  0.32869100  0.95317400  0.33821100  1
  S  S230  1  0.17818950  0.62997450  0.25809400  1
  S  S231  1  0.34038900  0.70572100  0.57012700  1
  S  S232  1  0.58455200  0.04988300  0.71990300  1
  S  S233  1  0.07197700  0.62734700  0.12285300  1
  S  S234  1  0.19650350  0.84003650  0.80553600  1
  S  S235  1  0.65006250  0.26981650  0.95133700  1
  S  S236  1  0.91544800  0.45011700  0.28009700  1
  S  S237  1  0.30349650  0.34003650  0.69446400  1
  S  S238  1  0.40313650  0.47663550  0.68415800  1
  S  S239  1  0.44886450  0.15507750  0.66589800  1
  S  S240  1  0.15006250  0.23018350  0.45133700  1
  S  S241  1  0.15961100  0.79427900  0.42987300  1
  S  S242  1  0.40552450  0.54501550  0.96996600  1
  S  S243  1  0.46538400  0.63853600  0.60270900  1
  S  S244  1  0.91313650  0.64076350  0.02999600  1
  S  S245  1  0.44683400  0.84062100  0.67107800  1
  S  S246  1  0.32181050  0.12997450  0.24190600  1
  S  S247  1  0.19182300  0.09806300  0.79888500  1
  S  S248  1  0.02520400  0.12830300  0.38816600  1
  S  S249  1  0.96538400  0.86146400  0.10270900  1
  S  S250  1  0.28490450  0.46528050  0.94623500  1
  S  S251  1  0.59686350  0.47663550  0.81584200  1
  S  S252  1  0.21509550  0.03471950  0.05376500  1
  S  S253  1  0.33885650  0.37049950  0.86457500  1
  S  S254  1  0.97479600  0.12830300  0.11183400  1
  S  S255  1  0.55316600  0.84062100  0.82892200  1
  S  S256  1  0.03461600  0.86146400  0.39729100  1
  S  S257  1  0.19650350  0.15996350  0.30553600  1
  S  S258  1  0.22506400  0.97530700  0.92497900  1
  S  S259  1  0.47479600  0.37169700  0.61183400  1
  S  S260  1  0.45335800  0.14989500  0.53976900  1
  S  S261  1  0.05113550  0.34492250  0.33410200  1
  S  S262  1  0.53461600  0.63853600  0.89729100  1
  S  S263  1  0.33885650  0.62950050  0.36457500  1
  S  S264  1  0.17130900  0.45317400  0.16178900  1
  S  S265  1  0.04664200  0.35010500  0.46023100  1
  S  S266  1  0.08455200  0.45011700  0.21990300  1
  S  S267  1  0.21509550  0.96528050  0.55376500  1
  S  S268  1  0.08686350  0.64076350  0.47000400  1
  S  S269  1  0.09447550  0.04501550  0.53003400  1
  S  S270  1  0.17818950  0.37002550  0.75809400  1
  S  S271  1  0.27493600  0.47530700  0.57502100  1
