# generated using pymatgen
data_La7P12Pd17
_symmetry_space_group_name_H-M   'P 1'
_cell_length_a   24.76465400
_cell_length_b   4.12343000
_cell_length_c   13.77475463
_cell_angle_alpha   90.00000000
_cell_angle_beta   112.28120249
_cell_angle_gamma   90.00000000
_symmetry_Int_Tables_number   1
_chemical_formula_structural   La7P12Pd17
_chemical_formula_sum   'La14 P24 Pd34'
_cell_volume   1301.58746453
_cell_formula_units_Z   2
loop_
 _symmetry_equiv_pos_site_id
 _symmetry_equiv_pos_as_xyz
  1  'x, y, z'
loop_
 _atom_site_type_symbol
 _atom_site_label
 _atom_site_symmetry_multiplicity
 _atom_site_fract_x
 _atom_site_fract_y
 _atom_site_fract_z
 _atom_site_occupancy
  La  La0  1  0.00000000  0.50000000  0.50000000  1
  La  La1  1  0.13492200  0.50000000  0.00038600  1
  La  La2  1  0.36507800  0.00000000  0.99961400  1
  La  La3  1  0.26651100  0.50000000  0.31367800  1
  La  La4  1  0.23348900  0.00000000  0.68632200  1
  La  La5  1  0.08251000  0.50000000  0.26248800  1
  La  La6  1  0.41749000  0.00000000  0.73751200  1
  La  La7  1  0.50000000  0.00000000  0.50000000  1
  La  La8  1  0.63492200  0.00000000  0.00038600  1
  La  La9  1  0.86507800  0.50000000  0.99961400  1
  La  La10  1  0.76651100  0.00000000  0.31367800  1
  La  La11  1  0.73348900  0.50000000  0.68632200  1
  La  La12  1  0.58251000  0.00000000  0.26248800  1
  La  La13  1  0.91749000  0.50000000  0.73751200  1
  P  P14  1  0.43982400  0.50000000  0.92623500  1
  P  P15  1  0.06017600  0.00000000  0.07376500  1
  P  P16  1  0.11281100  0.00000000  0.82739600  1
  P  P17  1  0.38718900  0.50000000  0.17260400  1
  P  P18  1  0.31203400  0.50000000  0.61895600  1
  P  P19  1  0.18796600  0.00000000  0.38104400  1
  P  P20  1  0.13552900  0.50000000  0.57938500  1
  P  P21  1  0.36447100  0.00000000  0.42061500  1
  P  P22  1  0.48926800  0.50000000  0.67233100  1
  P  P23  1  0.01073200  0.00000000  0.32766900  1
  P  P24  1  0.26641800  0.50000000  0.88200000  1
  P  P25  1  0.23358200  0.00000000  0.11800000  1
  P  P26  1  0.93982400  0.00000000  0.92623500  1
  P  P27  1  0.56017600  0.50000000  0.07376500  1
  P  P28  1  0.61281100  0.50000000  0.82739600  1
  P  P29  1  0.88718900  0.00000000  0.17260400  1
  P  P30  1  0.81203400  0.00000000  0.61895600  1
  P  P31  1  0.68796600  0.50000000  0.38104400  1
  P  P32  1  0.63552900  0.00000000  0.57938500  1
  P  P33  1  0.86447100  0.50000000  0.42061500  1
  P  P34  1  0.98926800  0.00000000  0.67233100  1
  P  P35  1  0.51073200  0.50000000  0.32766900  1
  P  P36  1  0.76641800  0.00000000  0.88200000  1
  P  P37  1  0.73358200  0.50000000  0.11800000  1
  Pd  Pd38  1  0.16117500  0.00000000  0.19307400  1
  Pd  Pd39  1  0.33882500  0.50000000  0.80692600  1
  Pd  Pd40  1  0.47405900  0.50000000  0.12526200  1
  Pd  Pd41  1  0.02594100  0.00000000  0.87473800  1
  Pd  Pd42  1  0.10956700  0.00000000  0.45824300  1
  Pd  Pd43  1  0.39043300  0.50000000  0.54175700  1
  Pd  Pd44  1  0.00000000  0.50000000  0.00000000  1
  Pd  Pd45  1  0.45224200  0.00000000  0.25422000  1
  Pd  Pd46  1  0.04775800  0.50000000  0.74578000  1
  Pd  Pd47  1  0.20306700  0.50000000  0.48671000  1
  Pd  Pd48  1  0.29693300  0.00000000  0.51329000  1
  Pd  Pd49  1  0.33439100  0.00000000  0.22213400  1
  Pd  Pd50  1  0.16560900  0.50000000  0.77786600  1
  Pd  Pd51  1  0.09372200  0.00000000  0.64518000  1
  Pd  Pd52  1  0.40627800  0.50000000  0.35482000  1
  Pd  Pd53  1  0.28179200  0.50000000  0.07077800  1
  Pd  Pd54  1  0.21820800  0.00000000  0.92922200  1
  Pd  Pd55  1  0.66117500  0.50000000  0.19307400  1
  Pd  Pd56  1  0.83882500  0.00000000  0.80692600  1
  Pd  Pd57  1  0.97405900  0.00000000  0.12526200  1
  Pd  Pd58  1  0.52594100  0.50000000  0.87473800  1
  Pd  Pd59  1  0.60956700  0.50000000  0.45824300  1
  Pd  Pd60  1  0.89043300  0.00000000  0.54175700  1
  Pd  Pd61  1  0.50000000  0.00000000  0.00000000  1
  Pd  Pd62  1  0.95224200  0.50000000  0.25422000  1
  Pd  Pd63  1  0.54775800  0.00000000  0.74578000  1
  Pd  Pd64  1  0.70306700  0.00000000  0.48671000  1
  Pd  Pd65  1  0.79693300  0.50000000  0.51329000  1
  Pd  Pd66  1  0.83439100  0.50000000  0.22213400  1
  Pd  Pd67  1  0.66560900  0.00000000  0.77786600  1
  Pd  Pd68  1  0.59372200  0.50000000  0.64518000  1
  Pd  Pd69  1  0.90627800  0.00000000  0.35482000  1
  Pd  Pd70  1  0.78179200  0.00000000  0.07077800  1
  Pd  Pd71  1  0.71820800  0.50000000  0.92922200  1
