# generated using pymatgen
data_Ce2Zn2Cu5
_symmetry_space_group_name_H-M   'P 1'
_cell_length_a   5.21954825
_cell_length_b   5.21954825
_cell_length_c   37.89541992
_cell_angle_alpha   90.00000000
_cell_angle_beta   90.00000000
_cell_angle_gamma   120.00000000
_symmetry_Int_Tables_number   1
_chemical_formula_structural   Ce2Zn2Cu5
_chemical_formula_sum   'Ce12 Zn12 Cu30'
_cell_volume   894.09401742
_cell_formula_units_Z   6
loop_
 _symmetry_equiv_pos_site_id
 _symmetry_equiv_pos_as_xyz
  1  'x, y, z'
loop_
 _atom_site_type_symbol
 _atom_site_label
 _atom_site_symmetry_multiplicity
 _atom_site_fract_x
 _atom_site_fract_y
 _atom_site_fract_z
 _atom_site_occupancy
  Ce  Ce0  1  0.00000000  0.00000000  0.05575000  1
  Ce  Ce1  1  0.66666667  0.33333333  0.18127433  1
  Ce  Ce2  1  0.00000000  0.00000000  0.15205900  1
  Ce  Ce3  1  0.66666667  0.33333333  0.27758333  1
  Ce  Ce4  1  0.66666667  0.33333333  0.38908333  1
  Ce  Ce5  1  0.33333333  0.66666667  0.51460767  1
  Ce  Ce6  1  0.66666667  0.33333333  0.48539233  1
  Ce  Ce7  1  0.33333333  0.66666667  0.61091667  1
  Ce  Ce8  1  0.33333333  0.66666667  0.72241667  1
  Ce  Ce9  1  0.00000000  0.00000000  0.84794100  1
  Ce  Ce10  1  0.33333333  0.66666667  0.81872567  1
  Ce  Ce11  1  0.00000000  0.00000000  0.94425000  1
  Zn  Zn12  1  0.50000000  0.50000000  0.00000000  1
  Zn  Zn13  1  0.33333333  0.66666667  0.16666667  1
  Zn  Zn14  1  0.50000000  0.00000000  0.00000000  1
  Zn  Zn15  1  0.00000000  0.50000000  0.00000000  1
  Zn  Zn16  1  0.16666667  0.83333333  0.33333333  1
  Zn  Zn17  1  1.00000000  1.00000000  0.50000000  1
  Zn  Zn18  1  0.16666667  0.33333333  0.33333333  1
  Zn  Zn19  1  0.66666667  0.83333333  0.33333333  1
  Zn  Zn20  1  0.83333333  0.16666667  0.66666667  1
  Zn  Zn21  1  0.66666667  0.33333333  0.83333333  1
  Zn  Zn22  1  0.83333333  0.66666667  0.66666667  1
  Zn  Zn23  1  0.33333333  0.16666667  0.66666667  1
  Cu  Cu24  1  0.16741233  0.83258767  0.22394867  1
  Cu  Cu25  1  0.00149133  0.50074567  0.10938467  1
  Cu  Cu26  1  0.16741233  0.33482467  0.22394867  1
  Cu  Cu27  1  0.66666667  0.33333333  0.05631833  1
  Cu  Cu28  1  0.49925433  0.99850867  0.10938467  1
  Cu  Cu29  1  0.49925433  0.50074567  0.10938467  1
  Cu  Cu30  1  0.66517533  0.83258767  0.22394867  1
  Cu  Cu31  1  0.33333333  0.66666667  0.27785267  1
  Cu  Cu32  1  0.00000000  0.00000000  0.27701500  1
  Cu  Cu33  1  0.33333333  0.66666667  0.05548067  1
  Cu  Cu34  1  0.83407900  0.16592100  0.55728200  1
  Cu  Cu35  1  0.66815800  0.83407900  0.44271800  1
  Cu  Cu36  1  0.83407900  0.66815800  0.55728200  1
  Cu  Cu37  1  0.33333333  0.66666667  0.38965167  1
  Cu  Cu38  1  0.16592100  0.33184200  0.44271800  1
  Cu  Cu39  1  0.16592100  0.83407900  0.44271800  1
  Cu  Cu40  1  0.33184200  0.16592100  0.55728200  1
  Cu  Cu41  1  0.00000000  0.00000000  0.61118600  1
  Cu  Cu42  1  0.66666667  0.33333333  0.61034833  1
  Cu  Cu43  1  0.00000000  0.00000000  0.38881400  1
  Cu  Cu44  1  0.50074567  0.49925433  0.89061533  1
  Cu  Cu45  1  0.33482467  0.16741233  0.77605133  1
  Cu  Cu46  1  0.50074567  0.00149133  0.89061533  1
  Cu  Cu47  1  0.00000000  0.00000000  0.72298500  1
  Cu  Cu48  1  0.83258767  0.66517533  0.77605133  1
  Cu  Cu49  1  0.83258767  0.16741233  0.77605133  1
  Cu  Cu50  1  0.99850867  0.49925433  0.89061533  1
  Cu  Cu51  1  0.66666667  0.33333333  0.94451933  1
  Cu  Cu52  1  0.33333333  0.66666667  0.94368167  1
  Cu  Cu53  1  0.66666667  0.33333333  0.72214733  1
