# generated using pymatgen
data_Cs2Na2IrO4
_symmetry_space_group_name_H-M   'P 1'
_cell_length_a   12.08875200
_cell_length_b   6.03134200
_cell_length_c   9.76526882
_cell_angle_alpha   90.00000000
_cell_angle_beta   103.97938488
_cell_angle_gamma   90.00000000
_symmetry_Int_Tables_number   1
_chemical_formula_structural   Cs2Na2IrO4
_chemical_formula_sum   'Cs8 Na8 Ir4 O16'
_cell_volume   690.91190402
_cell_formula_units_Z   4
loop_
 _symmetry_equiv_pos_site_id
 _symmetry_equiv_pos_as_xyz
  1  'x, y, z'
loop_
 _atom_site_type_symbol
 _atom_site_label
 _atom_site_symmetry_multiplicity
 _atom_site_fract_x
 _atom_site_fract_y
 _atom_site_fract_z
 _atom_site_occupancy
  Cs  Cs0  1  0.66694300  0.00000000  0.86378800  1
  Cs  Cs1  1  0.83305700  0.50000000  0.13621200  1
  Cs  Cs2  1  0.67018700  0.00000000  0.24144900  1
  Cs  Cs3  1  0.82981300  0.50000000  0.75855100  1
  Cs  Cs4  1  0.16694300  0.50000000  0.86378800  1
  Cs  Cs5  1  0.33305700  0.00000000  0.13621200  1
  Cs  Cs6  1  0.17018700  0.50000000  0.24144900  1
  Cs  Cs7  1  0.32981300  0.00000000  0.75855100  1
  Na  Na8  1  0.97385200  0.00000000  0.34040600  1
  Na  Na9  1  0.78343000  0.00000000  0.57423000  1
  Na  Na10  1  0.52614800  0.50000000  0.65959400  1
  Na  Na11  1  0.71657000  0.50000000  0.42577000  1
  Na  Na12  1  0.47385200  0.50000000  0.34040600  1
  Na  Na13  1  0.28343000  0.50000000  0.57423000  1
  Na  Na14  1  0.02614800  0.00000000  0.65959400  1
  Na  Na15  1  0.21657000  0.00000000  0.42577000  1
  Ir  Ir16  1  0.00000000  0.00000000  0.00000000  1
  Ir  Ir17  1  0.00000000  0.50000000  0.50000000  1
  Ir  Ir18  1  0.50000000  0.50000000  0.00000000  1
  Ir  Ir19  1  0.50000000  0.00000000  0.50000000  1
  O  O20  1  0.61668600  0.22744000  0.53046600  1
  O  O21  1  0.88331400  0.72744000  0.46953400  1
  O  O22  1  0.87511200  0.00000000  0.09275000  1
  O  O23  1  0.89515100  0.00000000  0.81410800  1
  O  O24  1  0.88331400  0.27256000  0.46953400  1
  O  O25  1  0.62488800  0.50000000  0.90725000  1
  O  O26  1  0.60484900  0.50000000  0.18589200  1
  O  O27  1  0.61668600  0.77256000  0.53046600  1
  O  O28  1  0.11668600  0.72744000  0.53046600  1
  O  O29  1  0.38331400  0.22744000  0.46953400  1
  O  O30  1  0.37511200  0.50000000  0.09275000  1
  O  O31  1  0.39515100  0.50000000  0.81410800  1
  O  O32  1  0.38331400  0.77256000  0.46953400  1
  O  O33  1  0.12488800  0.00000000  0.90725000  1
  O  O34  1  0.10484900  0.00000000  0.18589200  1
  O  O35  1  0.11668600  0.27256000  0.53046600  1
