# generated using pymatgen
data_Zr10C9
_symmetry_space_group_name_H-M   'P 1'
_cell_length_a   16.36633400
_cell_length_b   6.70097600
_cell_length_c   11.08966415
_cell_angle_alpha   90.00000000
_cell_angle_beta   119.40396299
_cell_angle_gamma   90.00000000
_symmetry_Int_Tables_number   1
_chemical_formula_structural   Zr10C9
_chemical_formula_sum   'Zr40 C36'
_cell_volume   1059.53593365
_cell_formula_units_Z   4
loop_
 _symmetry_equiv_pos_site_id
 _symmetry_equiv_pos_as_xyz
  1  'x, y, z'
loop_
 _atom_site_type_symbol
 _atom_site_label
 _atom_site_symmetry_multiplicity
 _atom_site_fract_x
 _atom_site_fract_y
 _atom_site_fract_z
 _atom_site_occupancy
  Zr  Zr0  1  0.14893950  0.62735350  0.94743600  1
  Zr  Zr1  1  0.15592650  0.12284150  0.95645900  1
  Zr  Zr2  1  0.05220050  0.38328950  0.64836000  1
  Zr  Zr3  1  0.94779950  0.61671050  0.35164000  1
  Zr  Zr4  1  0.84407350  0.87715850  0.04354100  1
  Zr  Zr5  1  0.05201500  0.86636700  0.64538300  1
  Zr  Zr6  1  0.25192000  0.62424200  0.75029200  1
  Zr  Zr7  1  0.94798500  0.13363300  0.35461700  1
  Zr  Zr8  1  0.15592650  0.87715850  0.45645900  1
  Zr  Zr9  1  0.85106050  0.37264650  0.05256400  1
  Zr  Zr10  1  0.24808000  0.12424200  0.74970800  1
  Zr  Zr11  1  0.05201500  0.13363300  0.14538300  1
  Zr  Zr12  1  0.14893950  0.37264650  0.44743600  1
  Zr  Zr13  1  0.94779950  0.38328950  0.85164000  1
  Zr  Zr14  1  0.85106050  0.62735350  0.55256400  1
  Zr  Zr15  1  0.05220050  0.61671050  0.14836000  1
  Zr  Zr16  1  0.75192000  0.87575800  0.25029200  1
  Zr  Zr17  1  0.94798500  0.86636700  0.85461700  1
  Zr  Zr18  1  0.84407350  0.12284150  0.54354100  1
  Zr  Zr19  1  0.74808000  0.37575800  0.24970800  1
  Zr  Zr20  1  0.64893950  0.12735350  0.94743600  1
  Zr  Zr21  1  0.65592650  0.62284150  0.95645900  1
  Zr  Zr22  1  0.55220050  0.88328950  0.64836000  1
  Zr  Zr23  1  0.44779950  0.11671050  0.35164000  1
  Zr  Zr24  1  0.34407350  0.37715850  0.04354100  1
  Zr  Zr25  1  0.55201500  0.36636700  0.64538300  1
  Zr  Zr26  1  0.75192000  0.12424200  0.75029200  1
  Zr  Zr27  1  0.44798500  0.63363300  0.35461700  1
  Zr  Zr28  1  0.65592650  0.37715850  0.45645900  1
  Zr  Zr29  1  0.35106050  0.87264650  0.05256400  1
  Zr  Zr30  1  0.74808000  0.62424200  0.74970800  1
  Zr  Zr31  1  0.55201500  0.63363300  0.14538300  1
  Zr  Zr32  1  0.64893950  0.87264650  0.44743600  1
  Zr  Zr33  1  0.44779950  0.88328950  0.85164000  1
  Zr  Zr34  1  0.35106050  0.12735350  0.55256400  1
  Zr  Zr35  1  0.55220050  0.11671050  0.14836000  1
  Zr  Zr36  1  0.25192000  0.37575800  0.25029200  1
  Zr  Zr37  1  0.44798500  0.36636700  0.85461700  1
  Zr  Zr38  1  0.34407350  0.62284150  0.54354100  1
  Zr  Zr39  1  0.24808000  0.87575800  0.24970800  1
  C  C40  1  0.80145300  0.12250600  0.15012800  1
  C  C41  1  0.19854700  0.87749400  0.84987200  1
  C  C42  1  0.79868350  0.62607750  0.14770600  1
  C  C43  1  0.09929950  0.12397950  0.54996400  1
  C  C44  1  0.20131650  0.37392250  0.85229400  1
  C  C45  1  0.00000000  0.37664400  0.25000000  1
  C  C46  1  0.09814300  0.62654900  0.55126100  1
  C  C47  1  0.40185700  0.12654900  0.94873900  1
  C  C48  1  0.30145300  0.37749400  0.65012800  1
  C  C49  1  0.70131650  0.12607750  0.35229400  1
  C  C50  1  0.40070050  0.62397950  0.95003600  1
  C  C51  1  0.29868350  0.87392250  0.64770600  1
  C  C52  1  0.59929950  0.37602050  0.04996400  1
  C  C53  1  0.69854700  0.62250600  0.34987200  1
  C  C54  1  0.90185700  0.37345100  0.44873900  1
  C  C55  1  0.59814300  0.87345100  0.05126100  1
  C  C56  1  0.00000000  0.62335600  0.75000000  1
  C  C57  1  0.90070050  0.87602050  0.45003600  1
  C  C58  1  0.30145300  0.62250600  0.15012800  1
  C  C59  1  0.69854700  0.37749400  0.84987200  1
  C  C60  1  0.29868350  0.12607750  0.14770600  1
  C  C61  1  0.59929950  0.62397950  0.54996400  1
  C  C62  1  0.70131650  0.87392250  0.85229400  1
  C  C63  1  0.50000000  0.87664400  0.25000000  1
  C  C64  1  0.59814300  0.12654900  0.55126100  1
  C  C65  1  0.90185700  0.62654900  0.94873900  1
  C  C66  1  0.80145300  0.87749400  0.65012800  1
  C  C67  1  0.20131650  0.62607750  0.35229400  1
  C  C68  1  0.90070050  0.12397950  0.95003600  1
  C  C69  1  0.79868350  0.37392250  0.64770600  1
  C  C70  1  0.09929950  0.87602050  0.04996400  1
  C  C71  1  0.19854700  0.12250600  0.34987200  1
  C  C72  1  0.40185700  0.87345100  0.44873900  1
  C  C73  1  0.09814300  0.37345100  0.05126100  1
  C  C74  1  0.50000000  0.12335600  0.75000000  1
  C  C75  1  0.40070050  0.37602050  0.45003600  1
