# generated using pymatgen
data_Eu4Ir
_symmetry_space_group_name_H-M   'P 1'
_cell_length_a   9.16139400
_cell_length_b   9.16139400
_cell_length_c   8.44263400
_cell_angle_alpha   90.00000000
_cell_angle_beta   90.00000000
_cell_angle_gamma   90.00000000
_symmetry_Int_Tables_number   1
_chemical_formula_structural   Eu4Ir
_chemical_formula_sum   'Eu16 Ir4'
_cell_volume   708.59989642
_cell_formula_units_Z   4
loop_
 _symmetry_equiv_pos_site_id
 _symmetry_equiv_pos_as_xyz
  1  'x, y, z'
loop_
 _atom_site_type_symbol
 _atom_site_label
 _atom_site_symmetry_multiplicity
 _atom_site_fract_x
 _atom_site_fract_y
 _atom_site_fract_z
 _atom_site_occupancy
  Eu  Eu0  1  0.00000000  0.69453300  0.57012100  1
  Eu  Eu1  1  0.00000000  0.19453300  0.17987900  1
  Eu  Eu2  1  0.80546700  0.00000000  0.82012100  1
  Eu  Eu3  1  0.00000000  0.30546700  0.57012100  1
  Eu  Eu4  1  0.69453300  0.00000000  0.42987900  1
  Eu  Eu5  1  0.50000000  0.30546700  0.67987900  1
  Eu  Eu6  1  0.69453300  0.50000000  0.32012100  1
  Eu  Eu7  1  0.30546700  0.00000000  0.42987900  1
  Eu  Eu8  1  0.50000000  0.19453300  0.07012100  1
  Eu  Eu9  1  0.50000000  0.69453300  0.67987900  1
  Eu  Eu10  1  0.30546700  0.50000000  0.32012100  1
  Eu  Eu11  1  0.50000000  0.80546700  0.07012100  1
  Eu  Eu12  1  0.19453300  0.50000000  0.92987900  1
  Eu  Eu13  1  0.00000000  0.80546700  0.17987900  1
  Eu  Eu14  1  0.19453300  0.00000000  0.82012100  1
  Eu  Eu15  1  0.80546700  0.50000000  0.92987900  1
  Ir  Ir16  1  0.50000000  0.00000000  0.75000000  1
  Ir  Ir17  1  0.00000000  0.00000000  0.50000000  1
  Ir  Ir18  1  0.00000000  0.50000000  0.25000000  1
  Ir  Ir19  1  0.50000000  0.50000000  0.00000000  1
