# generated using pymatgen
data_InAgSe2
_symmetry_space_group_name_H-M   'P 1'
_cell_length_a   8.04516541
_cell_length_b   8.04643553
_cell_length_c   11.50670397
_cell_angle_alpha   90.00000000
_cell_angle_beta   90.00000000
_cell_angle_gamma   90.00000000
_symmetry_Int_Tables_number   1
_chemical_formula_structural   InAgSe2
_chemical_formula_sum   'In8 Ag8 Se16'
_cell_volume   744.88538568
_cell_formula_units_Z   8
loop_
 _symmetry_equiv_pos_site_id
 _symmetry_equiv_pos_as_xyz
  1  'x, y, z'
loop_
 _atom_site_type_symbol
 _atom_site_label
 _atom_site_symmetry_multiplicity
 _atom_site_fract_x
 _atom_site_fract_y
 _atom_site_fract_z
 _atom_site_occupancy
  In  In0  1  0.12052519  0.75000000  0.75000000  1
  In  In1  1  0.87052519  0.00000000  0.00000000  1
  In  In2  1  0.62052519  0.75000000  0.25000000  1
  In  In3  1  0.37052519  0.00000000  0.50000000  1
  In  In4  1  0.62052519  0.25000000  0.75000000  1
  In  In5  1  0.37052519  0.50000000  0.00000000  1
  In  In6  1  0.12052519  0.25000000  0.25000000  1
  In  In7  1  0.87052519  0.50000000  0.50000000  1
  Ag  Ag8  1  0.12542866  0.25000000  0.75000000  1
  Ag  Ag9  1  0.37542866  0.00000000  0.00000000  1
  Ag  Ag10  1  0.62542866  0.25000000  0.25000000  1
  Ag  Ag11  1  0.87542866  0.00000000  0.50000000  1
  Ag  Ag12  1  0.62542866  0.75000000  0.75000000  1
  Ag  Ag13  1  0.87542866  0.50000000  0.00000000  1
  Ag  Ag14  1  0.12542866  0.75000000  0.25000000  1
  Ag  Ag15  1  0.37542866  0.50000000  0.50000000  1
  Se  Se16  1  0.37414486  0.00030589  0.73919244  1
  Se  Se17  1  0.87414486  0.99969411  0.76080756  1
  Se  Se18  1  0.62414486  0.75030589  0.01080756  1
  Se  Se19  1  0.62414486  0.24969411  0.98919244  1
  Se  Se20  1  0.87414486  0.00030589  0.23919244  1
  Se  Se21  1  0.37414486  0.99969411  0.26080756  1
  Se  Se22  1  0.12414486  0.75030589  0.51080756  1
  Se  Se23  1  0.12414486  0.24969411  0.48919244  1
  Se  Se24  1  0.87414486  0.50030589  0.73919244  1
  Se  Se25  1  0.37414486  0.49969411  0.76080756  1
  Se  Se26  1  0.12414486  0.25030589  0.01080756  1
  Se  Se27  1  0.12414486  0.74969411  0.98919244  1
  Se  Se28  1  0.37414486  0.50030589  0.23919244  1
  Se  Se29  1  0.87414486  0.49969411  0.26080756  1
  Se  Se30  1  0.62414486  0.25030589  0.51080756  1
  Se  Se31  1  0.62414486  0.74969411  0.48919244  1
