# generated using pymatgen
data_YbCd6
_symmetry_space_group_name_H-M   'P 1'
_cell_length_a   15.81682000
_cell_length_b   15.81682000
_cell_length_c   15.81682000
_cell_angle_alpha   90.00000000
_cell_angle_beta   90.00000000
_cell_angle_gamma   90.00000000
_symmetry_Int_Tables_number   1
_chemical_formula_structural   YbCd6
_chemical_formula_sum   'Yb24 Cd144'
_cell_volume   3956.92224921
_cell_formula_units_Z   24
loop_
 _symmetry_equiv_pos_site_id
 _symmetry_equiv_pos_as_xyz
  1  'x, y, z'
loop_
 _atom_site_type_symbol
 _atom_site_label
 _atom_site_symmetry_multiplicity
 _atom_site_fract_x
 _atom_site_fract_y
 _atom_site_fract_z
 _atom_site_occupancy
  Yb  Yb0  1  0.31268650  0.49782950  0.80055650  1
  Yb  Yb1  1  0.18731350  0.00217050  0.30055650  1
  Yb  Yb2  1  0.69944350  0.18731350  0.99782950  1
  Yb  Yb3  1  0.18731350  0.99782950  0.69944350  1
  Yb  Yb4  1  0.19944350  0.31268650  0.50217050  1
  Yb  Yb5  1  0.99782950  0.69944350  0.18731350  1
  Yb  Yb6  1  0.00217050  0.30055650  0.18731350  1
  Yb  Yb7  1  0.50217050  0.19944350  0.31268650  1
  Yb  Yb8  1  0.30055650  0.18731350  0.00217050  1
  Yb  Yb9  1  0.31268650  0.50217050  0.19944350  1
  Yb  Yb10  1  0.80055650  0.31268650  0.49782950  1
  Yb  Yb11  1  0.49782950  0.80055650  0.31268650  1
  Yb  Yb12  1  0.81268650  0.99782950  0.30055650  1
  Yb  Yb13  1  0.68731350  0.50217050  0.80055650  1
  Yb  Yb14  1  0.19944350  0.68731350  0.49782950  1
  Yb  Yb15  1  0.68731350  0.49782950  0.19944350  1
  Yb  Yb16  1  0.69944350  0.81268650  0.00217050  1
  Yb  Yb17  1  0.49782950  0.19944350  0.68731350  1
  Yb  Yb18  1  0.50217050  0.80055650  0.68731350  1
  Yb  Yb19  1  0.00217050  0.69944350  0.81268650  1
  Yb  Yb20  1  0.80055650  0.68731350  0.50217050  1
  Yb  Yb21  1  0.81268650  0.00217050  0.69944350  1
  Yb  Yb22  1  0.30055650  0.81268650  0.99782950  1
  Yb  Yb23  1  0.99782950  0.30055650  0.81268650  1
  Cd  Cd24  1  0.40677950  0.73863950  0.49930450  1
  Cd  Cd25  1  0.15685900  0.15685900  0.84314100  1
  Cd  Cd26  1  0.20017200  0.65291000  0.88666900  1
  Cd  Cd27  1  0.00000000  0.40517500  0.00000000  1
  Cd  Cd28  1  0.40445150  0.00342050  0.34538650  1
  Cd  Cd29  1  0.06668100  0.06668100  0.06668100  1
  Cd  Cd30  1  0.00069550  0.09322050  0.23863950  1
  Cd  Cd31  1  0.65291000  0.88666900  0.20017200  1
  Cd  Cd32  1  0.73863950  0.49930450  0.40677950  1
  Cd  Cd33  1  0.50000000  0.00000000  0.19125800  1
  Cd  Cd34  1  0.16167350  0.38269050  0.29795750  1
  Cd  Cd35  1  0.17526050  0.17526050  0.17526050  1
  Cd  Cd36  1  0.61333100  0.29982800  0.15291000  1
  Cd  Cd37  1  0.50069550  0.40677950  0.26136050  1
  Cd  Cd38  1  0.84314100  0.15685900  0.15685900  1
  Cd  Cd39  1  0.20204250  0.66167350  0.11730950  1
  Cd  Cd40  1  0.20204250  0.33832650  0.88269050  1
  Cd  Cd41  1  0.34709000  0.11333100  0.20017200  1
  Cd  Cd42  1  0.66167350  0.11730950  0.20204250  1
  Cd  Cd43  1  0.49657950  0.15461350  0.90445150  1
  Cd  Cd44  1  0.49930450  0.40677950  0.73863950  1
  Cd  Cd45  1  0.00000000  0.19125800  0.50000000  1
  Cd  Cd46  1  0.99657950  0.34538650  0.59554850  1
  Cd  Cd47  1  0.09322050  0.23863950  0.00069550  1
  Cd  Cd48  1  0.50000000  0.30874200  0.00000000  1
  Cd  Cd49  1  0.26136050  0.50069550  0.40677950  1
  Cd  Cd50  1  0.23863950  0.00069550  0.09322050  1
  Cd  Cd51  1  0.15685900  0.84314100  0.15685900  1
  Cd  Cd52  1  0.00000000  0.50000000  0.30874200  1
  Cd  Cd53  1  0.09322050  0.76136050  0.99930450  1
  Cd  Cd54  1  0.40677950  0.26136050  0.50069550  1
  Cd  Cd55  1  0.00000000  0.00000000  0.59482500  1
  Cd  Cd56  1  0.29982800  0.15291000  0.61333100  1
  Cd  Cd57  1  0.11730950  0.20204250  0.66167350  1
  Cd  Cd58  1  0.11333100  0.20017200  0.34709000  1
  Cd  Cd59  1  0.29795750  0.83832650  0.61730950  1
  Cd  Cd60  1  0.32473950  0.67526050  0.32473950  1
  Cd  Cd61  1  0.32473950  0.32473950  0.67526050  1
  Cd  Cd62  1  0.84709000  0.38666900  0.29982800  1
  Cd  Cd63  1  0.88269050  0.20204250  0.33832650  1
  Cd  Cd64  1  0.38269050  0.29795750  0.16167350  1
  Cd  Cd65  1  0.20017200  0.34709000  0.11333100  1
  Cd  Cd66  1  0.34538650  0.59554850  0.99657950  1
  Cd  Cd67  1  0.38666900  0.29982800  0.84709000  1
  Cd  Cd68  1  0.19125800  0.50000000  0.00000000  1
  Cd  Cd69  1  0.76136050  0.99930450  0.09322050  1
  Cd  Cd70  1  0.34538650  0.40445150  0.00342050  1
  Cd  Cd71  1  0.50342050  0.15461350  0.09554850  1
  Cd  Cd72  1  0.00000000  0.00000000  0.40517500  1
  Cd  Cd73  1  0.29982800  0.84709000  0.38666900  1
  Cd  Cd74  1  0.99930450  0.09322050  0.76136050  1
  Cd  Cd75  1  0.43331900  0.43331900  0.56668100  1
  Cd  Cd76  1  0.30874200  0.00000000  0.50000000  1
  Cd  Cd77  1  0.83832650  0.61730950  0.29795750  1
  Cd  Cd78  1  0.56668100  0.43331900  0.43331900  1
  Cd  Cd79  1  0.09554850  0.50342050  0.15461350  1
  Cd  Cd80  1  0.15461350  0.90445150  0.49657950  1
  Cd  Cd81  1  0.90445150  0.49657950  0.15461350  1
  Cd  Cd82  1  0.40517500  0.00000000  0.00000000  1
  Cd  Cd83  1  0.00000000  0.59482500  0.00000000  1
  Cd  Cd84  1  0.00342050  0.34538650  0.40445150  1
  Cd  Cd85  1  0.61730950  0.29795750  0.83832650  1
  Cd  Cd86  1  0.33832650  0.88269050  0.20204250  1
  Cd  Cd87  1  0.67526050  0.32473950  0.32473950  1
  Cd  Cd88  1  0.43331900  0.56668100  0.43331900  1
  Cd  Cd89  1  0.15291000  0.61333100  0.29982800  1
  Cd  Cd90  1  0.34314100  0.34314100  0.34314100  1
  Cd  Cd91  1  0.29795750  0.16167350  0.38269050  1
  Cd  Cd92  1  0.59482500  0.00000000  0.00000000  1
  Cd  Cd93  1  0.15461350  0.09554850  0.50342050  1
  Cd  Cd94  1  0.59554850  0.99657950  0.34538650  1
  Cd  Cd95  1  0.88666900  0.20017200  0.65291000  1
  Cd  Cd96  1  0.90677950  0.23863950  0.99930450  1
  Cd  Cd97  1  0.65685900  0.65685900  0.34314100  1
  Cd  Cd98  1  0.70017200  0.15291000  0.38666900  1
  Cd  Cd99  1  0.50000000  0.90517500  0.50000000  1
  Cd  Cd100  1  0.90445150  0.50342050  0.84538650  1
  Cd  Cd101  1  0.56668100  0.56668100  0.56668100  1
  Cd  Cd102  1  0.50069550  0.59322050  0.73863950  1
  Cd  Cd103  1  0.15291000  0.38666900  0.70017200  1
  Cd  Cd104  1  0.23863950  0.99930450  0.90677950  1
  Cd  Cd105  1  0.00000000  0.50000000  0.69125800  1
  Cd  Cd106  1  0.66167350  0.88269050  0.79795750  1
  Cd  Cd107  1  0.67526050  0.67526050  0.67526050  1
  Cd  Cd108  1  0.11333100  0.79982800  0.65291000  1
  Cd  Cd109  1  0.00069550  0.90677950  0.76136050  1
  Cd  Cd110  1  0.34314100  0.65685900  0.65685900  1
  Cd  Cd111  1  0.70204250  0.16167350  0.61730950  1
  Cd  Cd112  1  0.70204250  0.83832650  0.38269050  1
  Cd  Cd113  1  0.84709000  0.61333100  0.70017200  1
  Cd  Cd114  1  0.16167350  0.61730950  0.70204250  1
  Cd  Cd115  1  0.99657950  0.65461350  0.40445150  1
  Cd  Cd116  1  0.99930450  0.90677950  0.23863950  1
  Cd  Cd117  1  0.50000000  0.69125800  0.00000000  1
  Cd  Cd118  1  0.49657950  0.84538650  0.09554850  1
  Cd  Cd119  1  0.59322050  0.73863950  0.50069550  1
  Cd  Cd120  1  0.00000000  0.80874200  0.50000000  1
  Cd  Cd121  1  0.76136050  0.00069550  0.90677950  1
  Cd  Cd122  1  0.73863950  0.50069550  0.59322050  1
  Cd  Cd123  1  0.65685900  0.34314100  0.65685900  1
  Cd  Cd124  1  0.50000000  0.00000000  0.80874200  1
  Cd  Cd125  1  0.59322050  0.26136050  0.49930450  1
  Cd  Cd126  1  0.90677950  0.76136050  0.00069550  1
  Cd  Cd127  1  0.50000000  0.50000000  0.09482500  1
  Cd  Cd128  1  0.79982800  0.65291000  0.11333100  1
  Cd  Cd129  1  0.61730950  0.70204250  0.16167350  1
  Cd  Cd130  1  0.61333100  0.70017200  0.84709000  1
  Cd  Cd131  1  0.79795750  0.33832650  0.11730950  1
  Cd  Cd132  1  0.82473950  0.17526050  0.82473950  1
  Cd  Cd133  1  0.82473950  0.82473950  0.17526050  1
  Cd  Cd134  1  0.34709000  0.88666900  0.79982800  1
  Cd  Cd135  1  0.38269050  0.70204250  0.83832650  1
  Cd  Cd136  1  0.88269050  0.79795750  0.66167350  1
  Cd  Cd137  1  0.70017200  0.84709000  0.61333100  1
  Cd  Cd138  1  0.84538650  0.09554850  0.49657950  1
  Cd  Cd139  1  0.88666900  0.79982800  0.34709000  1
  Cd  Cd140  1  0.69125800  0.00000000  0.50000000  1
  Cd  Cd141  1  0.26136050  0.49930450  0.59322050  1
  Cd  Cd142  1  0.84538650  0.90445150  0.50342050  1
  Cd  Cd143  1  0.00342050  0.65461350  0.59554850  1
  Cd  Cd144  1  0.50000000  0.50000000  0.90517500  1
  Cd  Cd145  1  0.79982800  0.34709000  0.88666900  1
  Cd  Cd146  1  0.49930450  0.59322050  0.26136050  1
  Cd  Cd147  1  0.93331900  0.93331900  0.06668100  1
  Cd  Cd148  1  0.80874200  0.50000000  0.00000000  1
  Cd  Cd149  1  0.33832650  0.11730950  0.79795750  1
  Cd  Cd150  1  0.06668100  0.93331900  0.93331900  1
  Cd  Cd151  1  0.59554850  0.00342050  0.65461350  1
  Cd  Cd152  1  0.65461350  0.40445150  0.99657950  1
  Cd  Cd153  1  0.40445150  0.99657950  0.65461350  1
  Cd  Cd154  1  0.90517500  0.50000000  0.50000000  1
  Cd  Cd155  1  0.50000000  0.09482500  0.50000000  1
  Cd  Cd156  1  0.50342050  0.84538650  0.90445150  1
  Cd  Cd157  1  0.11730950  0.79795750  0.33832650  1
  Cd  Cd158  1  0.83832650  0.38269050  0.70204250  1
  Cd  Cd159  1  0.17526050  0.82473950  0.82473950  1
  Cd  Cd160  1  0.93331900  0.06668100  0.93331900  1
  Cd  Cd161  1  0.65291000  0.11333100  0.79982800  1
  Cd  Cd162  1  0.84314100  0.84314100  0.84314100  1
  Cd  Cd163  1  0.79795750  0.66167350  0.88269050  1
  Cd  Cd164  1  0.09482500  0.50000000  0.50000000  1
  Cd  Cd165  1  0.65461350  0.59554850  0.00342050  1
  Cd  Cd166  1  0.09554850  0.49657950  0.84538650  1
  Cd  Cd167  1  0.38666900  0.70017200  0.15291000  1
