# generated using pymatgen
data_Sc13Cu13O33
_symmetry_space_group_name_H-M   'P 1'
_cell_length_a   11.42603600
_cell_length_b   3.42417800
_cell_length_c   36.25867887
_cell_angle_alpha   90.00000000
_cell_angle_beta   92.22591202
_cell_angle_gamma   90.00000000
_symmetry_Int_Tables_number   1
_chemical_formula_structural   Sc13Cu13O33
_chemical_formula_sum   'Sc26 Cu26 O66'
_cell_volume   1417.54246391
_cell_formula_units_Z   2
loop_
 _symmetry_equiv_pos_site_id
 _symmetry_equiv_pos_as_xyz
  1  'x, y, z'
loop_
 _atom_site_type_symbol
 _atom_site_label
 _atom_site_symmetry_multiplicity
 _atom_site_fract_x
 _atom_site_fract_y
 _atom_site_fract_z
 _atom_site_occupancy
  Sc  Sc0  1  0.72333700  0.00000000  0.03913200  1
  Sc  Sc1  1  0.68831000  0.50000000  0.11508700  1
  Sc  Sc2  1  0.67215900  0.00000000  0.19279600  1
  Sc  Sc3  1  0.60542300  0.50000000  0.26832000  1
  Sc  Sc4  1  0.59450400  0.00000000  0.34649200  1
  Sc  Sc5  1  0.52849200  0.50000000  0.42245100  1
  Sc  Sc6  1  0.51818600  0.00000000  0.50064300  1
  Sc  Sc7  1  0.95370600  0.00000000  0.57680300  1
  Sc  Sc8  1  0.91847900  0.50000000  0.65239300  1
  Sc  Sc9  1  0.90126900  0.00000000  0.72991000  1
  Sc  Sc10  1  0.85126700  0.50000000  0.80722400  1
  Sc  Sc11  1  0.81473600  0.00000000  0.88506700  1
  Sc  Sc12  1  0.78034500  0.50000000  0.96314000  1
  Sc  Sc13  1  0.22333700  0.50000000  0.03913200  1
  Sc  Sc14  1  0.18831000  0.00000000  0.11508700  1
  Sc  Sc15  1  0.17215900  0.50000000  0.19279600  1
  Sc  Sc16  1  0.10542300  0.00000000  0.26832000  1
  Sc  Sc17  1  0.09450400  0.50000000  0.34649200  1
  Sc  Sc18  1  0.02849200  0.00000000  0.42245100  1
  Sc  Sc19  1  0.01818600  0.50000000  0.50064300  1
  Sc  Sc20  1  0.45370600  0.50000000  0.57680300  1
  Sc  Sc21  1  0.41847900  0.00000000  0.65239300  1
  Sc  Sc22  1  0.40126900  0.50000000  0.72991000  1
  Sc  Sc23  1  0.35126700  0.00000000  0.80722400  1
  Sc  Sc24  1  0.31473600  0.50000000  0.88506700  1
  Sc  Sc25  1  0.28034500  0.00000000  0.96314000  1
  Cu  Cu26  1  0.99656000  0.00000000  0.99602800  1
  Cu  Cu27  1  0.95574200  0.50000000  0.07917300  1
  Cu  Cu28  1  0.92682900  0.00000000  0.15425700  1
  Cu  Cu29  1  0.88111000  0.50000000  0.22671000  1
  Cu  Cu30  1  0.84716700  0.00000000  0.30943800  1
  Cu  Cu31  1  0.77046200  0.00000000  0.46350200  1
  Cu  Cu32  1  0.80349000  0.50000000  0.38119400  1
  Cu  Cu33  1  0.72833200  0.50000000  0.53518800  1
  Cu  Cu34  1  0.68609400  0.00000000  0.61710200  1
  Cu  Cu35  1  0.65549600  0.50000000  0.69226300  1
  Cu  Cu36  1  0.61304200  0.00000000  0.76721900  1
  Cu  Cu37  1  0.53756700  0.00000000  0.92063600  1
  Cu  Cu38  1  0.57369600  0.50000000  0.84390900  1
  Cu  Cu39  1  0.49656000  0.50000000  0.99602800  1
  Cu  Cu40  1  0.45574200  0.00000000  0.07917300  1
  Cu  Cu41  1  0.42682900  0.50000000  0.15425700  1
  Cu  Cu42  1  0.38111000  0.00000000  0.22671000  1
  Cu  Cu43  1  0.34716700  0.50000000  0.30943800  1
  Cu  Cu44  1  0.27046200  0.50000000  0.46350200  1
  Cu  Cu45  1  0.30349000  0.00000000  0.38119400  1
  Cu  Cu46  1  0.22833200  0.00000000  0.53518800  1
  Cu  Cu47  1  0.18609400  0.50000000  0.61710200  1
  Cu  Cu48  1  0.15549600  0.00000000  0.69226300  1
  Cu  Cu49  1  0.11304200  0.50000000  0.76721900  1
  Cu  Cu50  1  0.03756700  0.50000000  0.92063600  1
  Cu  Cu51  1  0.07369600  0.00000000  0.84390900  1
  O  O52  1  0.65687300  0.50000000  0.00836000  1
  O  O53  1  0.61463600  0.00000000  0.08463300  1
  O  O54  1  0.58905900  0.50000000  0.16190600  1
  O  O55  1  0.79842300  0.50000000  0.06871600  1
  O  O56  1  0.54145600  0.00000000  0.23755100  1
  O  O57  1  0.76637200  0.00000000  0.14180100  1
  O  O58  1  0.87343800  0.00000000  0.20734900  1
  O  O59  1  0.50928800  0.50000000  0.31579500  1
  O  O60  1  0.71913000  0.50000000  0.22472200  1
  O  O61  1  0.96408100  0.50000000  0.39175600  1
  O  O62  1  0.68771400  0.00000000  0.29591000  1
  O  O63  1  0.79541500  0.00000000  0.36210800  1
  O  O64  1  0.93265900  0.00000000  0.47006500  1
  O  O65  1  0.64138100  0.50000000  0.37863700  1
  O  O66  1  0.88920300  0.50000000  0.54599900  1
  O  O67  1  0.61094600  0.00000000  0.45004300  1
  O  O68  1  0.71994400  0.00000000  0.51634200  1
  O  O69  1  0.84475000  0.00000000  0.62204900  1
  O  O70  1  0.56601100  0.50000000  0.53298700  1
  O  O71  1  0.81728300  0.50000000  0.69865900  1
  O  O72  1  0.52927700  0.00000000  0.60649700  1
  O  O73  1  0.77705800  0.00000000  0.77560500  1
  O  O74  1  0.99643900  0.00000000  0.67881700  1
  O  O75  1  0.60450000  0.50000000  0.74391800  1
  O  O76  1  0.73634700  0.50000000  0.85382900  1
  O  O77  1  0.94988500  0.50000000  0.75978200  1
  O  O78  1  0.56965300  0.00000000  0.82306800  1
  O  O79  1  0.70072700  0.00000000  0.93199100  1
  O  O80  1  0.91079900  0.00000000  0.83693900  1
  O  O81  1  0.53149300  0.50000000  0.90140200  1
  O  O82  1  0.87362600  0.50000000  0.91462000  1
  O  O83  1  0.98810300  0.50000000  0.98051000  1
  O  O84  1  0.83380700  0.00000000  0.99500500  1
  O  O85  1  0.15687300  0.00000000  0.00836000  1
  O  O86  1  0.11463600  0.50000000  0.08463300  1
  O  O87  1  0.08905900  0.00000000  0.16190600  1
  O  O88  1  0.29842300  0.00000000  0.06871600  1
  O  O89  1  0.04145600  0.50000000  0.23755100  1
  O  O90  1  0.26637200  0.50000000  0.14180100  1
  O  O91  1  0.37343800  0.50000000  0.20734900  1
  O  O92  1  0.00928800  0.00000000  0.31579500  1
  O  O93  1  0.21913000  0.00000000  0.22472200  1
  O  O94  1  0.46408100  0.00000000  0.39175600  1
  O  O95  1  0.18771400  0.50000000  0.29591000  1
  O  O96  1  0.29541500  0.50000000  0.36210800  1
  O  O97  1  0.43265900  0.50000000  0.47006500  1
  O  O98  1  0.14138100  0.00000000  0.37863700  1
  O  O99  1  0.38920300  0.00000000  0.54599900  1
  O  O100  1  0.11094600  0.50000000  0.45004300  1
  O  O101  1  0.21994400  0.50000000  0.51634200  1
  O  O102  1  0.34475000  0.50000000  0.62204900  1
  O  O103  1  0.06601100  0.00000000  0.53298700  1
  O  O104  1  0.31728300  0.00000000  0.69865900  1
  O  O105  1  0.02927700  0.50000000  0.60649700  1
  O  O106  1  0.27705800  0.50000000  0.77560500  1
  O  O107  1  0.49643900  0.50000000  0.67881700  1
  O  O108  1  0.10450000  0.00000000  0.74391800  1
  O  O109  1  0.23634700  0.00000000  0.85382900  1
  O  O110  1  0.44988500  0.00000000  0.75978200  1
  O  O111  1  0.06965300  0.50000000  0.82306800  1
  O  O112  1  0.20072700  0.50000000  0.93199100  1
  O  O113  1  0.41079900  0.50000000  0.83693900  1
  O  O114  1  0.03149300  0.00000000  0.90140200  1
  O  O115  1  0.37362600  0.00000000  0.91462000  1
  O  O116  1  0.48810300  0.00000000  0.98051000  1
  O  O117  1  0.33380700  0.50000000  0.99500500  1
