# generated using pymatgen
data_La10Ga5Br4
_symmetry_space_group_name_H-M   'P 1'
_cell_length_a   8.20772800
_cell_length_b   8.20772800
_cell_length_c   32.57380600
_cell_angle_alpha   90.00000000
_cell_angle_beta   90.00000000
_cell_angle_gamma   90.00000000
_symmetry_Int_Tables_number   1
_chemical_formula_structural   La10Ga5Br4
_chemical_formula_sum   'La40 Ga20 Br16'
_cell_volume   2194.39303893
_cell_formula_units_Z   4
loop_
 _symmetry_equiv_pos_site_id
 _symmetry_equiv_pos_as_xyz
  1  'x, y, z'
loop_
 _atom_site_type_symbol
 _atom_site_label
 _atom_site_symmetry_multiplicity
 _atom_site_fract_x
 _atom_site_fract_y
 _atom_site_fract_z
 _atom_site_occupancy
  La  La0  1  0.33299050  0.83299050  0.29632350  1
  La  La1  1  0.82885900  0.32885900  0.07320500  1
  La  La2  1  0.17114100  0.67114100  0.07320500  1
  La  La3  1  0.66700950  0.83299050  0.20367650  1
  La  La4  1  0.33299050  0.16700950  0.20367650  1
  La  La5  1  0.67114100  0.17114100  0.42679500  1
  La  La6  1  0.32885900  0.17114100  0.07320500  1
  La  La7  1  0.83299050  0.66700950  0.29632350  1
  La  La8  1  0.00000000  0.00000000  0.15377600  1
  La  La9  1  0.16700950  0.33299050  0.29632350  1
  La  La10  1  0.00000000  0.00000000  0.34622400  1
  La  La11  1  0.83299050  0.33299050  0.20367650  1
  La  La12  1  0.82885900  0.67114100  0.42679500  1
  La  La13  1  0.50000000  0.50000000  0.34622400  1
  La  La14  1  0.32885900  0.82885900  0.42679500  1
  La  La15  1  0.66700950  0.16700950  0.29632350  1
  La  La16  1  0.16700950  0.66700950  0.20367650  1
  La  La17  1  0.67114100  0.82885900  0.07320500  1
  La  La18  1  0.50000000  0.50000000  0.15377600  1
  La  La19  1  0.17114100  0.32885900  0.42679500  1
  La  La20  1  0.83299050  0.33299050  0.79632350  1
  La  La21  1  0.32885900  0.82885900  0.57320500  1
  La  La22  1  0.67114100  0.17114100  0.57320500  1
  La  La23  1  0.16700950  0.33299050  0.70367650  1
  La  La24  1  0.83299050  0.66700950  0.70367650  1
  La  La25  1  0.17114100  0.67114100  0.92679500  1
  La  La26  1  0.82885900  0.67114100  0.57320500  1
  La  La27  1  0.33299050  0.16700950  0.79632350  1
  La  La28  1  0.50000000  0.50000000  0.65377600  1
  La  La29  1  0.66700950  0.83299050  0.79632350  1
  La  La30  1  0.50000000  0.50000000  0.84622400  1
  La  La31  1  0.33299050  0.83299050  0.70367650  1
  La  La32  1  0.32885900  0.17114100  0.92679500  1
  La  La33  1  0.00000000  0.00000000  0.84622400  1
  La  La34  1  0.82885900  0.32885900  0.92679500  1
  La  La35  1  0.16700950  0.66700950  0.79632350  1
  La  La36  1  0.66700950  0.16700950  0.70367650  1
  La  La37  1  0.17114100  0.32885900  0.57320500  1
  La  La38  1  0.00000000  0.00000000  0.65377600  1
  La  La39  1  0.67114100  0.82885900  0.92679500  1
  Ga  Ga40  1  0.62229750  0.87770250  0.36491550  1
  Ga  Ga41  1  0.37770250  0.12229750  0.36491550  1
  Ga  Ga42  1  0.62229750  0.12229750  0.13508450  1
  Ga  Ga43  1  0.87770250  0.37770250  0.36491550  1
  Ga  Ga44  1  0.12229750  0.37770250  0.13508450  1
  Ga  Ga45  1  0.50000000  0.50000000  0.25000000  1
  Ga  Ga46  1  0.12229750  0.62229750  0.36491550  1
  Ga  Ga47  1  0.87770250  0.62229750  0.13508450  1
  Ga  Ga48  1  0.00000000  0.00000000  0.25000000  1
  Ga  Ga49  1  0.37770250  0.87770250  0.13508450  1
  Ga  Ga50  1  0.12229750  0.37770250  0.86491550  1
  Ga  Ga51  1  0.87770250  0.62229750  0.86491550  1
  Ga  Ga52  1  0.12229750  0.62229750  0.63508450  1
  Ga  Ga53  1  0.37770250  0.87770250  0.86491550  1
  Ga  Ga54  1  0.62229750  0.87770250  0.63508450  1
  Ga  Ga55  1  0.00000000  0.00000000  0.75000000  1
  Ga  Ga56  1  0.62229750  0.12229750  0.86491550  1
  Ga  Ga57  1  0.37770250  0.12229750  0.63508450  1
  Ga  Ga58  1  0.50000000  0.50000000  0.75000000  1
  Ga  Ga59  1  0.87770250  0.37770250  0.63508450  1
  Br  Br60  1  0.50000000  0.50000000  0.05580500  1
  Br  Br61  1  0.35719100  0.85719100  0.00000000  1
  Br  Br62  1  0.14280900  0.35719100  0.00000000  1
  Br  Br63  1  0.64280900  0.14280900  0.00000000  1
  Br  Br64  1  0.50000000  0.50000000  0.44419500  1
  Br  Br65  1  0.00000000  0.00000000  0.05580500  1
  Br  Br66  1  0.85719100  0.64280900  0.00000000  1
  Br  Br67  1  0.00000000  0.00000000  0.44419500  1
  Br  Br68  1  0.00000000  0.00000000  0.55580500  1
  Br  Br69  1  0.85719100  0.35719100  0.50000000  1
  Br  Br70  1  0.64280900  0.85719100  0.50000000  1
  Br  Br71  1  0.14280900  0.64280900  0.50000000  1
  Br  Br72  1  0.00000000  0.00000000  0.94419500  1
  Br  Br73  1  0.50000000  0.50000000  0.55580500  1
  Br  Br74  1  0.35719100  0.14280900  0.50000000  1
  Br  Br75  1  0.50000000  0.50000000  0.94419500  1
