# generated using pymatgen
data_Li21Mo11O32
_symmetry_space_group_name_H-M   'P 1'
_cell_length_a   20.37393200
_cell_length_b   12.22024600
_cell_length_c   5.25932172
_cell_angle_alpha   90.00000000
_cell_angle_beta   99.13498562
_cell_angle_gamma   90.00000000
_symmetry_Int_Tables_number   1
_chemical_formula_structural   Li21Mo11O32
_chemical_formula_sum   'Li42 Mo22 O64'
_cell_volume   1292.82926787
_cell_formula_units_Z   2
loop_
 _symmetry_equiv_pos_site_id
 _symmetry_equiv_pos_as_xyz
  1  'x, y, z'
loop_
 _atom_site_type_symbol
 _atom_site_label
 _atom_site_symmetry_multiplicity
 _atom_site_fract_x
 _atom_site_fract_y
 _atom_site_fract_z
 _atom_site_occupancy
  Li  Li0  1  0.37184500  0.00000000  0.25498000  1
  Li  Li1  1  0.50000000  0.14284800  0.50000000  1
  Li  Li2  1  0.75346650  0.88086350  0.00953100  1
  Li  Li3  1  0.24653350  0.88086350  0.99046900  1
  Li  Li4  1  0.62815500  0.00000000  0.74502000  1
  Li  Li5  1  0.62078750  0.25697750  0.74720500  1
  Li  Li6  1  0.75292700  0.00000000  0.49967200  1
  Li  Li7  1  0.75346650  0.11913650  0.00953100  1
  Li  Li8  1  0.24653350  0.11913650  0.99046900  1
  Li  Li9  1  0.37921250  0.74302250  0.25279500  1
  Li  Li10  1  0.88119400  0.00000000  0.25477100  1
  Li  Li11  1  0.37921250  0.25697750  0.25279500  1
  Li  Li12  1  0.00000000  0.00000000  0.00000000  1
  Li  Li13  1  0.50000000  0.73720100  0.00000000  1
  Li  Li14  1  0.50000000  0.26279900  0.00000000  1
  Li  Li15  1  0.50000000  0.38645300  0.50000000  1
  Li  Li16  1  0.50000000  0.61354700  0.50000000  1
  Li  Li17  1  0.50000000  0.85715200  0.50000000  1
  Li  Li18  1  0.11880600  0.00000000  0.74522900  1
  Li  Li19  1  0.62078750  0.74302250  0.74720500  1
  Li  Li20  1  0.24707300  0.00000000  0.50032800  1
  Li  Li21  1  0.87184500  0.50000000  0.25498000  1
  Li  Li22  1  0.00000000  0.64284800  0.50000000  1
  Li  Li23  1  0.25346650  0.38086350  0.00953100  1
  Li  Li24  1  0.74653350  0.38086350  0.99046900  1
  Li  Li25  1  0.12815500  0.50000000  0.74502000  1
  Li  Li26  1  0.12078750  0.75697750  0.74720500  1
  Li  Li27  1  0.25292700  0.50000000  0.49967200  1
  Li  Li28  1  0.25346650  0.61913650  0.00953100  1
  Li  Li29  1  0.74653350  0.61913650  0.99046900  1
  Li  Li30  1  0.87921250  0.24302250  0.25279500  1
  Li  Li31  1  0.38119400  0.50000000  0.25477100  1
  Li  Li32  1  0.87921250  0.75697750  0.25279500  1
  Li  Li33  1  0.50000000  0.50000000  0.00000000  1
  Li  Li34  1  0.00000000  0.23720100  0.00000000  1
  Li  Li35  1  0.00000000  0.76279900  0.00000000  1
  Li  Li36  1  0.00000000  0.88645300  0.50000000  1
  Li  Li37  1  0.00000000  0.11354700  0.50000000  1
  Li  Li38  1  0.00000000  0.35715200  0.50000000  1
  Li  Li39  1  0.61880600  0.50000000  0.74522900  1
  Li  Li40  1  0.12078750  0.24302250  0.74720500  1
  Li  Li41  1  0.74707300  0.50000000  0.50032800  1
  Mo  Mo42  1  0.50000000  0.00000000  0.00000000  1
  Mo  Mo43  1  0.62516650  0.87198350  0.24474100  1
  Mo  Mo44  1  0.62516650  0.12801650  0.24474100  1
  Mo  Mo45  1  0.25000000  0.75000000  0.50000000  1
  Mo  Mo46  1  0.25000000  0.25000000  0.50000000  1
  Mo  Mo47  1  0.37770800  0.62642400  0.76111500  1
  Mo  Mo48  1  0.37770800  0.37357600  0.76111500  1
  Mo  Mo49  1  0.37483350  0.87198350  0.75525900  1
  Mo  Mo50  1  0.37483350  0.12801650  0.75525900  1
  Mo  Mo51  1  0.62229200  0.37357600  0.23888500  1
  Mo  Mo52  1  0.62229200  0.62642400  0.23888500  1
  Mo  Mo53  1  0.00000000  0.50000000  0.00000000  1
  Mo  Mo54  1  0.12516650  0.37198350  0.24474100  1
  Mo  Mo55  1  0.12516650  0.62801650  0.24474100  1
  Mo  Mo56  1  0.75000000  0.25000000  0.50000000  1
  Mo  Mo57  1  0.75000000  0.75000000  0.50000000  1
  Mo  Mo58  1  0.87770800  0.12642400  0.76111500  1
  Mo  Mo59  1  0.87770800  0.87357600  0.76111500  1
  Mo  Mo60  1  0.87483350  0.37198350  0.75525900  1
  Mo  Mo61  1  0.87483350  0.62801650  0.75525900  1
  Mo  Mo62  1  0.12229200  0.87357600  0.23888500  1
  Mo  Mo63  1  0.12229200  0.12642400  0.23888500  1
  O  O64  1  0.43580500  0.00000000  0.63527600  1
  O  O65  1  0.56149650  0.88079450  0.89427300  1
  O  O66  1  0.56149650  0.11920550  0.89427300  1
  O  O67  1  0.56419500  0.00000000  0.36472400  1
  O  O68  1  0.68974550  0.24874450  0.12478600  1
  O  O69  1  0.68974550  0.75125550  0.12478600  1
  O  O70  1  0.68062700  0.00000000  0.12857600  1
  O  O71  1  0.68734950  0.13051550  0.59727100  1
  O  O72  1  0.68734950  0.86948450  0.59727100  1
  O  O73  1  0.81185250  0.13083250  0.39581600  1
  O  O74  1  0.31265050  0.13051550  0.40272900  1
  O  O75  1  0.31265050  0.86948450  0.40272900  1
  O  O76  1  0.81185250  0.86916750  0.39581600  1
  O  O77  1  0.31025450  0.75125550  0.87521400  1
  O  O78  1  0.31025450  0.24874450  0.87521400  1
  O  O79  1  0.81741400  0.00000000  0.85756000  1
  O  O80  1  0.43354400  0.74985600  0.62596300  1
  O  O81  1  0.93451200  0.00000000  0.62888900  1
  O  O82  1  0.43354400  0.25014400  0.62596300  1
  O  O83  1  0.43248750  0.62677550  0.10028500  1
  O  O84  1  0.43850350  0.88079450  0.10572700  1
  O  O85  1  0.43850350  0.11920550  0.10572700  1
  O  O86  1  0.43248750  0.37322450  0.10028500  1
  O  O87  1  0.56751250  0.37322450  0.89971500  1
  O  O88  1  0.56751250  0.62677550  0.89971500  1
  O  O89  1  0.06548800  0.00000000  0.37111100  1
  O  O90  1  0.56645600  0.25014400  0.37403700  1
  O  O91  1  0.56645600  0.74985600  0.37403700  1
  O  O92  1  0.18258600  0.00000000  0.14244000  1
  O  O93  1  0.18814750  0.86916750  0.60418400  1
  O  O94  1  0.18814750  0.13083250  0.60418400  1
  O  O95  1  0.31937300  0.00000000  0.87142400  1
  O  O96  1  0.93580500  0.50000000  0.63527600  1
  O  O97  1  0.06149650  0.38079450  0.89427300  1
  O  O98  1  0.06149650  0.61920550  0.89427300  1
  O  O99  1  0.06419500  0.50000000  0.36472400  1
  O  O100  1  0.18974550  0.74874450  0.12478600  1
  O  O101  1  0.18974550  0.25125550  0.12478600  1
  O  O102  1  0.18062700  0.50000000  0.12857600  1
  O  O103  1  0.18734950  0.63051550  0.59727100  1
  O  O104  1  0.18734950  0.36948450  0.59727100  1
  O  O105  1  0.31185250  0.63083250  0.39581600  1
  O  O106  1  0.81265050  0.63051550  0.40272900  1
  O  O107  1  0.81265050  0.36948450  0.40272900  1
  O  O108  1  0.31185250  0.36916750  0.39581600  1
  O  O109  1  0.81025450  0.25125550  0.87521400  1
  O  O110  1  0.81025450  0.74874450  0.87521400  1
  O  O111  1  0.31741400  0.50000000  0.85756000  1
  O  O112  1  0.93354400  0.24985600  0.62596300  1
  O  O113  1  0.43451200  0.50000000  0.62888900  1
  O  O114  1  0.93354400  0.75014400  0.62596300  1
  O  O115  1  0.93248750  0.12677550  0.10028500  1
  O  O116  1  0.93850350  0.38079450  0.10572700  1
  O  O117  1  0.93850350  0.61920550  0.10572700  1
  O  O118  1  0.93248750  0.87322450  0.10028500  1
  O  O119  1  0.06751250  0.87322450  0.89971500  1
  O  O120  1  0.06751250  0.12677550  0.89971500  1
  O  O121  1  0.56548800  0.50000000  0.37111100  1
  O  O122  1  0.06645600  0.75014400  0.37403700  1
  O  O123  1  0.06645600  0.24985600  0.37403700  1
  O  O124  1  0.68258600  0.50000000  0.14244000  1
  O  O125  1  0.68814750  0.36916750  0.60418400  1
  O  O126  1  0.68814750  0.63083250  0.60418400  1
  O  O127  1  0.81937300  0.50000000  0.87142400  1
