# generated using pymatgen
data_Ba2Na(CuO2)3
_symmetry_space_group_name_H-M   'P 1'
_cell_length_a   8.50277800
_cell_length_b   11.51607200
_cell_length_c   14.62428400
_cell_angle_alpha   90.00000000
_cell_angle_beta   90.00000000
_cell_angle_gamma   90.00000000
_symmetry_Int_Tables_number   1
_chemical_formula_structural   Ba2Na(CuO2)3
_chemical_formula_sum   'Ba16 Na8 Cu24 O48'
_cell_volume   1431.98946863
_cell_formula_units_Z   8
loop_
 _symmetry_equiv_pos_site_id
 _symmetry_equiv_pos_as_xyz
  1  'x, y, z'
loop_
 _atom_site_type_symbol
 _atom_site_label
 _atom_site_symmetry_multiplicity
 _atom_site_fract_x
 _atom_site_fract_y
 _atom_site_fract_z
 _atom_site_occupancy
  Ba  Ba0  1  0.75000000  0.75000000  0.25000000  1
  Ba  Ba1  1  0.75000000  0.25000000  0.25000000  1
  Ba  Ba2  1  0.50000000  0.26875400  0.00000000  1
  Ba  Ba3  1  0.50000000  0.73124600  0.00000000  1
  Ba  Ba4  1  0.75000000  0.25000000  0.75000000  1
  Ba  Ba5  1  0.75000000  0.75000000  0.75000000  1
  Ba  Ba6  1  0.50000000  0.76875400  0.50000000  1
  Ba  Ba7  1  0.50000000  0.23124600  0.50000000  1
  Ba  Ba8  1  0.25000000  0.75000000  0.75000000  1
  Ba  Ba9  1  0.25000000  0.25000000  0.75000000  1
  Ba  Ba10  1  0.00000000  0.26875400  0.50000000  1
  Ba  Ba11  1  0.00000000  0.73124600  0.50000000  1
  Ba  Ba12  1  0.25000000  0.25000000  0.25000000  1
  Ba  Ba13  1  0.25000000  0.75000000  0.25000000  1
  Ba  Ba14  1  0.00000000  0.76875400  0.00000000  1
  Ba  Ba15  1  0.00000000  0.23124600  0.00000000  1
  Na  Na16  1  0.00000000  0.00000000  0.33054900  1
  Na  Na17  1  0.50000000  0.00000000  0.16945100  1
  Na  Na18  1  0.00000000  0.50000000  0.83054900  1
  Na  Na19  1  0.50000000  0.50000000  0.66945100  1
  Na  Na20  1  0.50000000  0.00000000  0.83054900  1
  Na  Na21  1  0.00000000  0.00000000  0.66945100  1
  Na  Na22  1  0.50000000  0.50000000  0.33054900  1
  Na  Na23  1  0.00000000  0.50000000  0.16945100  1
  Cu  Cu24  1  0.84840250  0.00000000  0.14842450  1
  Cu  Cu25  1  0.34840250  0.00000000  0.35157550  1
  Cu  Cu26  1  0.15159750  0.00000000  0.14842450  1
  Cu  Cu27  1  0.65159750  0.00000000  0.35157550  1
  Cu  Cu28  1  0.30987100  0.00000000  0.00000000  1
  Cu  Cu29  1  0.69012900  0.00000000  0.00000000  1
  Cu  Cu30  1  0.84840250  0.50000000  0.64842450  1
  Cu  Cu31  1  0.34840250  0.50000000  0.85157550  1
  Cu  Cu32  1  0.15159750  0.50000000  0.64842450  1
  Cu  Cu33  1  0.65159750  0.50000000  0.85157550  1
  Cu  Cu34  1  0.30987100  0.50000000  0.50000000  1
  Cu  Cu35  1  0.69012900  0.50000000  0.50000000  1
  Cu  Cu36  1  0.34840250  0.00000000  0.64842450  1
  Cu  Cu37  1  0.84840250  0.00000000  0.85157550  1
  Cu  Cu38  1  0.65159750  0.00000000  0.64842450  1
  Cu  Cu39  1  0.15159750  0.00000000  0.85157550  1
  Cu  Cu40  1  0.80987100  0.00000000  0.50000000  1
  Cu  Cu41  1  0.19012900  0.00000000  0.50000000  1
  Cu  Cu42  1  0.34840250  0.50000000  0.14842450  1
  Cu  Cu43  1  0.84840250  0.50000000  0.35157550  1
  Cu  Cu44  1  0.65159750  0.50000000  0.14842450  1
  Cu  Cu45  1  0.15159750  0.50000000  0.35157550  1
  Cu  Cu46  1  0.80987100  0.50000000  0.00000000  1
  Cu  Cu47  1  0.19012900  0.50000000  0.00000000  1
  O  O48  1  0.29708950  0.88794850  0.09269300  1
  O  O49  1  0.79708950  0.11205150  0.40730700  1
  O  O50  1  0.20291050  0.88794850  0.40730700  1
  O  O51  1  0.70291050  0.11205150  0.09269300  1
  O  O52  1  0.20291050  0.11205150  0.40730700  1
  O  O53  1  0.70291050  0.88794850  0.09269300  1
  O  O54  1  0.00000000  0.11677750  0.18837950  1
  O  O55  1  0.79708950  0.88794850  0.40730700  1
  O  O56  1  0.00000000  0.88322250  0.18837950  1
  O  O57  1  0.50000000  0.11677750  0.31162050  1
  O  O58  1  0.50000000  0.88322250  0.31162050  1
  O  O59  1  0.29708950  0.11205150  0.09269300  1
  O  O60  1  0.29708950  0.38794850  0.59269300  1
  O  O61  1  0.79708950  0.61205150  0.90730700  1
  O  O62  1  0.20291050  0.38794850  0.90730700  1
  O  O63  1  0.70291050  0.61205150  0.59269300  1
  O  O64  1  0.20291050  0.61205150  0.90730700  1
  O  O65  1  0.70291050  0.38794850  0.59269300  1
  O  O66  1  0.00000000  0.61677750  0.68837950  1
  O  O67  1  0.79708950  0.38794850  0.90730700  1
  O  O68  1  0.00000000  0.38322250  0.68837950  1
  O  O69  1  0.50000000  0.61677750  0.81162050  1
  O  O70  1  0.50000000  0.38322250  0.81162050  1
  O  O71  1  0.29708950  0.61205150  0.59269300  1
  O  O72  1  0.79708950  0.88794850  0.59269300  1
  O  O73  1  0.29708950  0.11205150  0.90730700  1
  O  O74  1  0.70291050  0.88794850  0.90730700  1
  O  O75  1  0.20291050  0.11205150  0.59269300  1
  O  O76  1  0.70291050  0.11205150  0.90730700  1
  O  O77  1  0.20291050  0.88794850  0.59269300  1
  O  O78  1  0.50000000  0.11677750  0.68837950  1
  O  O79  1  0.29708950  0.88794850  0.90730700  1
  O  O80  1  0.50000000  0.88322250  0.68837950  1
  O  O81  1  0.00000000  0.11677750  0.81162050  1
  O  O82  1  0.00000000  0.88322250  0.81162050  1
  O  O83  1  0.79708950  0.11205150  0.59269300  1
  O  O84  1  0.79708950  0.38794850  0.09269300  1
  O  O85  1  0.29708950  0.61205150  0.40730700  1
  O  O86  1  0.70291050  0.38794850  0.40730700  1
  O  O87  1  0.20291050  0.61205150  0.09269300  1
  O  O88  1  0.70291050  0.61205150  0.40730700  1
  O  O89  1  0.20291050  0.38794850  0.09269300  1
  O  O90  1  0.50000000  0.61677750  0.18837950  1
  O  O91  1  0.29708950  0.38794850  0.40730700  1
  O  O92  1  0.50000000  0.38322250  0.18837950  1
  O  O93  1  0.00000000  0.61677750  0.31162050  1
  O  O94  1  0.00000000  0.38322250  0.31162050  1
  O  O95  1  0.79708950  0.61205150  0.09269300  1
