# generated using pymatgen
data_Sn3P4
_symmetry_space_group_name_H-M   'P 1'
_cell_length_a   7.03647600
_cell_length_b   5.11651000
_cell_length_c   10.87995583
_cell_angle_alpha   90.00000000
_cell_angle_beta   104.72785400
_cell_angle_gamma   90.00000000
_symmetry_Int_Tables_number   1
_chemical_formula_structural   Sn3P4
_chemical_formula_sum   'Sn6 P8'
_cell_volume   378.83267956
_cell_formula_units_Z   2
loop_
 _symmetry_equiv_pos_site_id
 _symmetry_equiv_pos_as_xyz
  1  'x, y, z'
loop_
 _atom_site_type_symbol
 _atom_site_label
 _atom_site_symmetry_multiplicity
 _atom_site_fract_x
 _atom_site_fract_y
 _atom_site_fract_z
 _atom_site_occupancy
  Sn  Sn0  1  0.00000000  0.04830200  0.00000000  1
  Sn  Sn1  1  0.29403900  0.50678800  0.37194700  1
  Sn  Sn2  1  0.20596100  0.00678800  0.62805300  1
  Sn  Sn3  1  0.50000000  0.54830200  0.00000000  1
  Sn  Sn4  1  0.79403900  0.00678800  0.37194700  1
  Sn  Sn5  1  0.70596100  0.50678800  0.62805300  1
  P  P6  1  0.72001950  0.75752750  0.85443700  1
  P  P7  1  0.60183150  0.00378350  0.68909800  1
  P  P8  1  0.89816850  0.50378350  0.31090200  1
  P  P9  1  0.27998050  0.75752750  0.14556300  1
  P  P10  1  0.22001950  0.25752750  0.85443700  1
  P  P11  1  0.10183150  0.50378350  0.68909800  1
  P  P12  1  0.39816850  0.00378350  0.31090200  1
  P  P13  1  0.77998050  0.25752750  0.14556300  1
