# generated using pymatgen
data_Mn3AgAs3(HO6)2
_symmetry_space_group_name_H-M   'P 1'
_cell_length_a   12.61920200
_cell_length_b   12.84642200
_cell_length_c   7.02847327
_cell_angle_alpha   90.00000000
_cell_angle_beta   113.72436739
_cell_angle_gamma   90.00000000
_symmetry_Int_Tables_number   1
_chemical_formula_structural   Mn3AgAs3(HO6)2
_chemical_formula_sum   'Mn12 Ag4 As12 H8 O48'
_cell_volume   1043.10834974
_cell_formula_units_Z   4
loop_
 _symmetry_equiv_pos_site_id
 _symmetry_equiv_pos_as_xyz
  1  'x, y, z'
loop_
 _atom_site_type_symbol
 _atom_site_label
 _atom_site_symmetry_multiplicity
 _atom_site_fract_x
 _atom_site_fract_y
 _atom_site_fract_z
 _atom_site_occupancy
  Mn  Mn0  1  0.50000000  0.78743800  0.75000000  1
  Mn  Mn1  1  0.50000000  0.21256200  0.25000000  1
  Mn  Mn2  1  0.20138000  0.15899700  0.61268400  1
  Mn  Mn3  1  0.79862000  0.15899700  0.88731600  1
  Mn  Mn4  1  0.79862000  0.84100300  0.38731600  1
  Mn  Mn5  1  0.20138000  0.84100300  0.11268400  1
  Mn  Mn6  1  0.00000000  0.28743800  0.75000000  1
  Mn  Mn7  1  0.00000000  0.71256200  0.25000000  1
  Mn  Mn8  1  0.70138000  0.65899700  0.61268400  1
  Mn  Mn9  1  0.29862000  0.65899700  0.88731600  1
  Mn  Mn10  1  0.29862000  0.34100300  0.38731600  1
  Mn  Mn11  1  0.70138000  0.34100300  0.11268400  1
  Ag  Ag12  1  0.50000000  0.50636200  0.25000000  1
  Ag  Ag13  1  0.50000000  0.49363800  0.75000000  1
  Ag  Ag14  1  0.00000000  0.00636200  0.25000000  1
  Ag  Ag15  1  0.00000000  0.99363800  0.75000000  1
  As  As16  1  0.50000000  0.18167500  0.75000000  1
  As  As17  1  0.50000000  0.81832500  0.25000000  1
  As  As18  1  0.77863450  0.88296350  0.88596100  1
  As  As19  1  0.22136550  0.88296350  0.61403900  1
  As  As20  1  0.22136550  0.11703650  0.11403900  1
  As  As21  1  0.77863450  0.11703650  0.38596100  1
  As  As22  1  0.00000000  0.68167500  0.75000000  1
  As  As23  1  0.00000000  0.31832500  0.25000000  1
  As  As24  1  0.27863450  0.38296350  0.88596100  1
  As  As25  1  0.72136550  0.38296350  0.61403900  1
  As  As26  1  0.72136550  0.61703650  0.11403900  1
  As  As27  1  0.27863450  0.61703650  0.38596100  1
  H  H28  1  0.38637950  0.01503250  0.70413900  1
  H  H29  1  0.61362050  0.01503250  0.79586100  1
  H  H30  1  0.61362050  0.98496750  0.29586100  1
  H  H31  1  0.38637950  0.98496750  0.20413900  1
  H  H32  1  0.88637950  0.51503250  0.70413900  1
  H  H33  1  0.11362050  0.51503250  0.79586100  1
  H  H34  1  0.11362050  0.48496750  0.29586100  1
  H  H35  1  0.88637950  0.48496750  0.20413900  1
  O  O36  1  0.53472150  0.74613350  0.47087700  1
  O  O37  1  0.46527850  0.74613350  0.02912300  1
  O  O38  1  0.46527850  0.25386650  0.52912300  1
  O  O39  1  0.53472150  0.25386650  0.97087700  1
  O  O40  1  0.38540700  0.09960700  0.73259400  1
  O  O41  1  0.61459300  0.09960700  0.76740600  1
  O  O42  1  0.61459300  0.90039300  0.26740600  1
  O  O43  1  0.38540700  0.90039300  0.23259400  1
  O  O44  1  0.65343350  0.67863850  0.87709300  1
  O  O45  1  0.34656650  0.67863850  0.62290700  1
  O  O46  1  0.34656650  0.32136150  0.12290700  1
  O  O47  1  0.65343350  0.32136150  0.37709300  1
  O  O48  1  0.36560050  0.91082550  0.66767500  1
  O  O49  1  0.63439950  0.91082550  0.83232500  1
  O  O50  1  0.63439950  0.08917450  0.33232500  1
  O  O51  1  0.36560050  0.08917450  0.16767500  1
  O  O52  1  0.78837150  0.81047550  0.68794600  1
  O  O53  1  0.21162850  0.81047550  0.81205400  1
  O  O54  1  0.21162850  0.18952450  0.31205400  1
  O  O55  1  0.78837150  0.18952450  0.18794600  1
  O  O56  1  0.14877950  0.99969850  0.59557200  1
  O  O57  1  0.85122050  0.99969850  0.90442800  1
  O  O58  1  0.85122050  0.00030150  0.40442800  1
  O  O59  1  0.14877950  0.00030150  0.09557200  1
  O  O60  1  0.03472150  0.24613350  0.47087700  1
  O  O61  1  0.96527850  0.24613350  0.02912300  1
  O  O62  1  0.96527850  0.75386650  0.52912300  1
  O  O63  1  0.03472150  0.75386650  0.97087700  1
  O  O64  1  0.88540700  0.59960700  0.73259400  1
  O  O65  1  0.11459300  0.59960700  0.76740600  1
  O  O66  1  0.11459300  0.40039300  0.26740600  1
  O  O67  1  0.88540700  0.40039300  0.23259400  1
  O  O68  1  0.15343350  0.17863850  0.87709300  1
  O  O69  1  0.84656650  0.17863850  0.62290700  1
  O  O70  1  0.84656650  0.82136150  0.12290700  1
  O  O71  1  0.15343350  0.82136150  0.37709300  1
  O  O72  1  0.86560050  0.41082550  0.66767500  1
  O  O73  1  0.13439950  0.41082550  0.83232500  1
  O  O74  1  0.13439950  0.58917450  0.33232500  1
  O  O75  1  0.86560050  0.58917450  0.16767500  1
  O  O76  1  0.28837150  0.31047550  0.68794600  1
  O  O77  1  0.71162850  0.31047550  0.81205400  1
  O  O78  1  0.71162850  0.68952450  0.31205400  1
  O  O79  1  0.28837150  0.68952450  0.18794600  1
  O  O80  1  0.64877950  0.49969850  0.59557200  1
  O  O81  1  0.35122050  0.49969850  0.90442800  1
  O  O82  1  0.35122050  0.50030150  0.40442800  1
  O  O83  1  0.64877950  0.50030150  0.09557200  1
