# generated using pymatgen
data_Li27Sb10
_symmetry_space_group_name_H-M   'P 1'
_cell_length_a   7.94101000
_cell_length_b   23.14922600
_cell_length_c   7.95452296
_cell_angle_alpha   90.00000000
_cell_angle_beta   108.69256011
_cell_angle_gamma   90.00000000
_symmetry_Int_Tables_number   1
_chemical_formula_structural   Li27Sb10
_chemical_formula_sum   'Li54 Sb20'
_cell_volume   1385.13417074
_cell_formula_units_Z   2
loop_
 _symmetry_equiv_pos_site_id
 _symmetry_equiv_pos_as_xyz
  1  'x, y, z'
loop_
 _atom_site_type_symbol
 _atom_site_label
 _atom_site_symmetry_multiplicity
 _atom_site_fract_x
 _atom_site_fract_y
 _atom_site_fract_z
 _atom_site_occupancy
  Li  Li0  1  0.38165250  0.19998350  0.64367400  1
  Li  Li1  1  0.00000000  0.19981100  0.50000000  1
  Li  Li2  1  0.11834750  0.30001650  0.35632600  1
  Li  Li3  1  0.88034900  0.09404800  0.61703200  1
  Li  Li4  1  0.86203050  0.20484250  0.11364300  1
  Li  Li5  1  0.61834750  0.19998350  0.35632600  1
  Li  Li6  1  0.50000000  0.10172000  0.50000000  1
  Li  Li7  1  0.35434200  0.00000000  0.61696600  1
  Li  Li8  1  0.38034900  0.40595200  0.61703200  1
  Li  Li9  1  0.38229300  0.10523000  0.11858000  1
  Li  Li10  1  0.11965100  0.09404800  0.38296800  1
  Li  Li11  1  0.63796950  0.29515750  0.88635700  1
  Li  Li12  1  0.88165250  0.30001650  0.64367400  1
  Li  Li13  1  0.13796950  0.20484250  0.88635700  1
  Li  Li14  1  0.00000000  0.10051100  0.00000000  1
  Li  Li15  1  0.88246700  0.00000000  0.14470800  1
  Li  Li16  1  0.00000000  0.39828000  0.50000000  1
  Li  Li17  1  0.64565800  0.00000000  0.38303400  1
  Li  Li18  1  0.50000000  0.30018900  0.50000000  1
  Li  Li19  1  0.61770700  0.10523000  0.88142000  1
  Li  Li20  1  0.50000000  0.00000000  0.00000000  1
  Li  Li21  1  0.88229300  0.39477000  0.11858000  1
  Li  Li22  1  0.61965100  0.40595200  0.38296800  1
  Li  Li23  1  0.50000000  0.39948900  0.00000000  1
  Li  Li24  1  0.36203050  0.29515750  0.11364300  1
  Li  Li25  1  0.11753300  0.00000000  0.85529200  1
  Li  Li26  1  0.11770700  0.39477000  0.88142000  1
  Li  Li27  1  0.88165250  0.69998350  0.64367400  1
  Li  Li28  1  0.50000000  0.69981100  0.50000000  1
  Li  Li29  1  0.61834750  0.80001650  0.35632600  1
  Li  Li30  1  0.38034900  0.59404800  0.61703200  1
  Li  Li31  1  0.36203050  0.70484250  0.11364300  1
  Li  Li32  1  0.11834750  0.69998350  0.35632600  1
  Li  Li33  1  0.00000000  0.60172000  0.50000000  1
  Li  Li34  1  0.85434200  0.50000000  0.61696600  1
  Li  Li35  1  0.88034900  0.90595200  0.61703200  1
  Li  Li36  1  0.88229300  0.60523000  0.11858000  1
  Li  Li37  1  0.61965100  0.59404800  0.38296800  1
  Li  Li38  1  0.13796950  0.79515750  0.88635700  1
  Li  Li39  1  0.38165250  0.80001650  0.64367400  1
  Li  Li40  1  0.63796950  0.70484250  0.88635700  1
  Li  Li41  1  0.50000000  0.60051100  0.00000000  1
  Li  Li42  1  0.38246700  0.50000000  0.14470800  1
  Li  Li43  1  0.50000000  0.89828000  0.50000000  1
  Li  Li44  1  0.14565800  0.50000000  0.38303400  1
  Li  Li45  1  0.00000000  0.80018900  0.50000000  1
  Li  Li46  1  0.11770700  0.60523000  0.88142000  1
  Li  Li47  1  0.00000000  0.50000000  0.00000000  1
  Li  Li48  1  0.38229300  0.89477000  0.11858000  1
  Li  Li49  1  0.11965100  0.90595200  0.38296800  1
  Li  Li50  1  0.00000000  0.89948900  0.00000000  1
  Li  Li51  1  0.86203050  0.79515750  0.11364300  1
  Li  Li52  1  0.61753300  0.50000000  0.85529200  1
  Li  Li53  1  0.61770700  0.89477000  0.88142000  1
  Sb  Sb54  1  0.25513850  0.30367450  0.73534300  1
  Sb  Sb55  1  0.75513850  0.19632550  0.73534300  1
  Sb  Sb56  1  0.74486150  0.30367450  0.26465700  1
  Sb  Sb57  1  0.24819700  0.10078100  0.75179800  1
  Sb  Sb58  1  0.24486150  0.19632550  0.26465700  1
  Sb  Sb59  1  0.73933600  0.00000000  0.76045200  1
  Sb  Sb60  1  0.75180300  0.10078100  0.24820200  1
  Sb  Sb61  1  0.74819700  0.39921900  0.75179800  1
  Sb  Sb62  1  0.26066400  0.00000000  0.23954800  1
  Sb  Sb63  1  0.25180300  0.39921900  0.24820200  1
  Sb  Sb64  1  0.75513850  0.80367450  0.73534300  1
  Sb  Sb65  1  0.25513850  0.69632550  0.73534300  1
  Sb  Sb66  1  0.24486150  0.80367450  0.26465700  1
  Sb  Sb67  1  0.74819700  0.60078100  0.75179800  1
  Sb  Sb68  1  0.74486150  0.69632550  0.26465700  1
  Sb  Sb69  1  0.23933600  0.50000000  0.76045200  1
  Sb  Sb70  1  0.25180300  0.60078100  0.24820200  1
  Sb  Sb71  1  0.24819700  0.89921900  0.75179800  1
  Sb  Sb72  1  0.76066400  0.50000000  0.23954800  1
  Sb  Sb73  1  0.75180300  0.89921900  0.24820200  1
