# generated using pymatgen
data_Cu3SbS3
_symmetry_space_group_name_H-M   'P 1'
_cell_length_a   10.08731600
_cell_length_b   10.08731600
_cell_length_c   10.08731600
_cell_angle_alpha   90.00000000
_cell_angle_beta   90.00000000
_cell_angle_gamma   90.00000000
_symmetry_Int_Tables_number   1
_chemical_formula_structural   Cu3SbS3
_chemical_formula_sum   'Cu24 Sb8 S24'
_cell_volume   1026.42418822
_cell_formula_units_Z   8
loop_
 _symmetry_equiv_pos_site_id
 _symmetry_equiv_pos_as_xyz
  1  'x, y, z'
loop_
 _atom_site_type_symbol
 _atom_site_label
 _atom_site_symmetry_multiplicity
 _atom_site_fract_x
 _atom_site_fract_y
 _atom_site_fract_z
 _atom_site_occupancy
  Cu  Cu0  1  0.00000000  0.00000000  0.81591100  1
  Cu  Cu1  1  0.00000000  0.50000000  0.25000000  1
  Cu  Cu2  1  0.25000000  0.50000000  0.00000000  1
  Cu  Cu3  1  0.00000000  0.25000000  0.50000000  1
  Cu  Cu4  1  0.18408900  0.00000000  0.00000000  1
  Cu  Cu5  1  0.00000000  0.00000000  0.18408900  1
  Cu  Cu6  1  0.00000000  0.18408900  0.00000000  1
  Cu  Cu7  1  0.50000000  0.00000000  0.25000000  1
  Cu  Cu8  1  0.00000000  0.81591100  0.00000000  1
  Cu  Cu9  1  0.50000000  0.25000000  0.00000000  1
  Cu  Cu10  1  0.25000000  0.00000000  0.50000000  1
  Cu  Cu11  1  0.81591100  0.00000000  0.00000000  1
  Cu  Cu12  1  0.50000000  0.50000000  0.31591100  1
  Cu  Cu13  1  0.50000000  0.00000000  0.75000000  1
  Cu  Cu14  1  0.75000000  0.00000000  0.50000000  1
  Cu  Cu15  1  0.50000000  0.75000000  0.00000000  1
  Cu  Cu16  1  0.68408900  0.50000000  0.50000000  1
  Cu  Cu17  1  0.50000000  0.50000000  0.68408900  1
  Cu  Cu18  1  0.50000000  0.68408900  0.50000000  1
  Cu  Cu19  1  0.00000000  0.50000000  0.75000000  1
  Cu  Cu20  1  0.50000000  0.31591100  0.50000000  1
  Cu  Cu21  1  0.00000000  0.75000000  0.50000000  1
  Cu  Cu22  1  0.75000000  0.50000000  0.00000000  1
  Cu  Cu23  1  0.31591100  0.50000000  0.50000000  1
  Sb  Sb24  1  0.22497650  0.77502350  0.22497650  1
  Sb  Sb25  1  0.77502350  0.22497650  0.22497650  1
  Sb  Sb26  1  0.27502350  0.27502350  0.27502350  1
  Sb  Sb27  1  0.22497650  0.22497650  0.77502350  1
  Sb  Sb28  1  0.72497650  0.27502350  0.72497650  1
  Sb  Sb29  1  0.27502350  0.72497650  0.72497650  1
  Sb  Sb30  1  0.77502350  0.77502350  0.77502350  1
  Sb  Sb31  1  0.72497650  0.72497650  0.27502350  1
  S  S32  1  0.35807250  0.11284250  0.11284250  1
  S  S33  1  0.64192750  0.88715750  0.11284250  1
  S  S34  1  0.85807250  0.38715750  0.38715750  1
  S  S35  1  0.11284250  0.11284250  0.35807250  1
  S  S36  1  0.38715750  0.85807250  0.38715750  1
  S  S37  1  0.11284250  0.35807250  0.11284250  1
  S  S38  1  0.64192750  0.11284250  0.88715750  1
  S  S39  1  0.88715750  0.11284250  0.64192750  1
  S  S40  1  0.88715750  0.64192750  0.11284250  1
  S  S41  1  0.38715750  0.38715750  0.85807250  1
  S  S42  1  0.11284250  0.88715750  0.64192750  1
  S  S43  1  0.11284250  0.64192750  0.88715750  1
  S  S44  1  0.85807250  0.61284250  0.61284250  1
  S  S45  1  0.14192750  0.38715750  0.61284250  1
  S  S46  1  0.35807250  0.88715750  0.88715750  1
  S  S47  1  0.61284250  0.61284250  0.85807250  1
  S  S48  1  0.88715750  0.35807250  0.88715750  1
  S  S49  1  0.61284250  0.85807250  0.61284250  1
  S  S50  1  0.14192750  0.61284250  0.38715750  1
  S  S51  1  0.38715750  0.61284250  0.14192750  1
  S  S52  1  0.38715750  0.14192750  0.61284250  1
  S  S53  1  0.88715750  0.88715750  0.35807250  1
  S  S54  1  0.61284250  0.38715750  0.14192750  1
  S  S55  1  0.61284250  0.14192750  0.38715750  1
