# generated using pymatgen
data_Cu11Sb4S13
_symmetry_space_group_name_H-M   'P 1'
_cell_length_a   10.72082200
_cell_length_b   14.23703600
_cell_length_c   9.09942652
_cell_angle_alpha   90.00000000
_cell_angle_beta   125.98105274
_cell_angle_gamma   90.00000000
_symmetry_Int_Tables_number   1
_chemical_formula_structural   Cu11Sb4S13
_chemical_formula_sum   'Cu22 Sb8 S26'
_cell_volume   1123.88957704
_cell_formula_units_Z   2
loop_
 _symmetry_equiv_pos_site_id
 _symmetry_equiv_pos_as_xyz
  1  'x, y, z'
loop_
 _atom_site_type_symbol
 _atom_site_label
 _atom_site_symmetry_multiplicity
 _atom_site_fract_x
 _atom_site_fract_y
 _atom_site_fract_z
 _atom_site_occupancy
  Cu  Cu0  1  0.11201900  0.10949800  0.23161300  1
  Cu  Cu1  1  0.20546300  0.00000000  0.98458500  1
  Cu  Cu2  1  0.71094300  0.00000000  0.38858600  1
  Cu  Cu3  1  0.11201900  0.89050200  0.23161300  1
  Cu  Cu4  1  0.50272800  0.24722800  0.49349300  1
  Cu  Cu5  1  0.50272800  0.75277200  0.49349300  1
  Cu  Cu6  1  0.77168300  0.00000000  0.97664200  1
  Cu  Cu7  1  0.38180300  0.12713800  0.75635200  1
  Cu  Cu8  1  0.38180300  0.87286200  0.75635200  1
  Cu  Cu9  1  0.39170900  0.38740000  0.77441000  1
  Cu  Cu10  1  0.39170900  0.61260000  0.77441000  1
  Cu  Cu11  1  0.61201900  0.60949800  0.23161300  1
  Cu  Cu12  1  0.70546300  0.50000000  0.98458500  1
  Cu  Cu13  1  0.21094300  0.50000000  0.38858600  1
  Cu  Cu14  1  0.61201900  0.39050200  0.23161300  1
  Cu  Cu15  1  0.00272800  0.74722800  0.49349300  1
  Cu  Cu16  1  0.00272800  0.25277200  0.49349300  1
  Cu  Cu17  1  0.27168300  0.50000000  0.97664200  1
  Cu  Cu18  1  0.88180300  0.62713800  0.75635200  1
  Cu  Cu19  1  0.88180300  0.37286200  0.75635200  1
  Cu  Cu20  1  0.89170900  0.88740000  0.77441000  1
  Cu  Cu21  1  0.89170900  0.11260000  0.77441000  1
  Sb  Sb22  1  0.23529200  0.23174500  0.00788200  1
  Sb  Sb23  1  0.53207100  0.00000000  0.54469200  1
  Sb  Sb24  1  0.02504300  0.00000000  0.46872400  1
  Sb  Sb25  1  0.23529200  0.76825500  0.00788200  1
  Sb  Sb26  1  0.73529200  0.73174500  0.00788200  1
  Sb  Sb27  1  0.03207100  0.50000000  0.54469200  1
  Sb  Sb28  1  0.52504300  0.50000000  0.46872400  1
  Sb  Sb29  1  0.73529200  0.26825500  0.00788200  1
  S  S30  1  0.50896700  0.25750000  0.24841800  1
  S  S31  1  0.50896700  0.74250000  0.24841800  1
  S  S32  1  0.45840500  0.00000000  0.23336600  1
  S  S33  1  0.99790600  0.00000000  0.00222800  1
  S  S34  1  0.35178650  0.12975350  0.48493600  1
  S  S35  1  0.35178650  0.87024650  0.48493600  1
  S  S36  1  0.38748350  0.62082850  0.52498300  1
  S  S37  1  0.38748350  0.37917150  0.52498300  1
  S  S38  1  0.63548050  0.11196050  0.99809300  1
  S  S39  1  0.63548050  0.88803950  0.99809300  1
  S  S40  1  0.75545500  0.24103500  0.74865900  1
  S  S41  1  0.75545500  0.75896500  0.74865900  1
  S  S42  1  0.26303900  0.00000000  0.78350000  1
  S  S43  1  0.00896700  0.75750000  0.24841800  1
  S  S44  1  0.00896700  0.24250000  0.24841800  1
  S  S45  1  0.95840500  0.50000000  0.23336600  1
  S  S46  1  0.49790600  0.50000000  0.00222800  1
  S  S47  1  0.85178650  0.62975350  0.48493600  1
  S  S48  1  0.85178650  0.37024650  0.48493600  1
  S  S49  1  0.88748350  0.12082850  0.52498300  1
  S  S50  1  0.88748350  0.87917150  0.52498300  1
  S  S51  1  0.13548050  0.61196050  0.99809300  1
  S  S52  1  0.13548050  0.38803950  0.99809300  1
  S  S53  1  0.25545500  0.74103500  0.74865900  1
  S  S54  1  0.25545500  0.25896500  0.74865900  1
  S  S55  1  0.76303900  0.50000000  0.78350000  1
