# generated using pymatgen
data_Cu3(BiI4)4
_symmetry_space_group_name_H-M   'P 1'
_cell_length_a   15.19989800
_cell_length_b   8.67000800
_cell_length_c   15.29347930
_cell_angle_alpha   90.00000000
_cell_angle_beta   107.86165362
_cell_angle_gamma   90.00000000
_symmetry_Int_Tables_number   1
_chemical_formula_structural   Cu3(BiI4)4
_chemical_formula_sum   'Cu6 Bi8 I32'
_cell_volume   1918.28055358
_cell_formula_units_Z   2
loop_
 _symmetry_equiv_pos_site_id
 _symmetry_equiv_pos_as_xyz
  1  'x, y, z'
loop_
 _atom_site_type_symbol
 _atom_site_label
 _atom_site_symmetry_multiplicity
 _atom_site_fract_x
 _atom_site_fract_y
 _atom_site_fract_z
 _atom_site_occupancy
  Cu  Cu0  1  0.80723900  0.50000000  0.94170800  1
  Cu  Cu1  1  0.58259200  0.00000000  0.69241700  1
  Cu  Cu2  1  0.79343400  0.00000000  0.92912800  1
  Cu  Cu3  1  0.30723900  0.00000000  0.94170800  1
  Cu  Cu4  1  0.08259200  0.50000000  0.69241700  1
  Cu  Cu5  1  0.29343400  0.50000000  0.92912800  1
  Bi  Bi6  1  0.51050200  0.50000000  0.00770100  1
  Bi  Bi7  1  0.76147300  0.50000000  0.24112500  1
  Bi  Bi8  1  0.74821300  0.24603000  0.50608900  1
  Bi  Bi9  1  0.74821300  0.75397000  0.50608900  1
  Bi  Bi10  1  0.01050200  0.00000000  0.00770100  1
  Bi  Bi11  1  0.26147300  0.00000000  0.24112500  1
  Bi  Bi12  1  0.24821300  0.74603000  0.50608900  1
  Bi  Bi13  1  0.24821300  0.25397000  0.50608900  1
  I  I14  1  0.88285100  0.50000000  0.12296500  1
  I  I15  1  0.62789800  0.00000000  0.37878300  1
  I  I16  1  0.62781250  0.24659050  0.12732700  1
  I  I17  1  0.62781250  0.75340950  0.12732700  1
  I  I18  1  0.87139300  0.24929500  0.37142000  1
  I  I19  1  0.87585300  0.00000000  0.62257600  1
  I  I20  1  0.86932900  0.00000000  0.11091400  1
  I  I21  1  0.63017600  0.50000000  0.87115200  1
  I  I22  1  0.62163700  0.74462300  0.62622200  1
  I  I23  1  0.87139300  0.75070500  0.37142000  1
  I  I24  1  0.62163700  0.25537700  0.62622200  1
  I  I25  1  0.62216000  0.50000000  0.37747500  1
  I  I26  1  0.86941550  0.75030050  0.87944300  1
  I  I27  1  0.87933300  0.50000000  0.63104200  1
  I  I28  1  0.86941550  0.24969950  0.87944300  1
  I  I29  1  0.61771700  0.00000000  0.86451400  1
  I  I30  1  0.38285100  0.00000000  0.12296500  1
  I  I31  1  0.12789800  0.50000000  0.37878300  1
  I  I32  1  0.12781250  0.74659050  0.12732700  1
  I  I33  1  0.12781250  0.25340950  0.12732700  1
  I  I34  1  0.37139300  0.74929500  0.37142000  1
  I  I35  1  0.37585300  0.50000000  0.62257600  1
  I  I36  1  0.36932900  0.50000000  0.11091400  1
  I  I37  1  0.13017600  0.00000000  0.87115200  1
  I  I38  1  0.12163700  0.24462300  0.62622200  1
  I  I39  1  0.37139300  0.25070500  0.37142000  1
  I  I40  1  0.12163700  0.75537700  0.62622200  1
  I  I41  1  0.12216000  0.00000000  0.37747500  1
  I  I42  1  0.36941550  0.25030050  0.87944300  1
  I  I43  1  0.37933300  0.00000000  0.63104200  1
  I  I44  1  0.36941550  0.74969950  0.87944300  1
  I  I45  1  0.11771700  0.50000000  0.86451400  1
