# generated using pymatgen
data_Y5(ReO6)2
_symmetry_space_group_name_H-M   'P 1'
_cell_length_a   12.48734800
_cell_length_b   5.68993400
_cell_length_c   7.56995884
_cell_angle_alpha   90.00000000
_cell_angle_beta   107.89863238
_cell_angle_gamma   90.00000000
_symmetry_Int_Tables_number   1
_chemical_formula_structural   Y5(ReO6)2
_chemical_formula_sum   'Y10 Re4 O24'
_cell_volume   511.83053202
_cell_formula_units_Z   2
loop_
 _symmetry_equiv_pos_site_id
 _symmetry_equiv_pos_as_xyz
  1  'x, y, z'
loop_
 _atom_site_type_symbol
 _atom_site_label
 _atom_site_symmetry_multiplicity
 _atom_site_fract_x
 _atom_site_fract_y
 _atom_site_fract_z
 _atom_site_occupancy
  Y  Y0  1  0.18622900  0.50000000  0.82525000  1
  Y  Y1  1  0.19656000  0.50000000  0.35913400  1
  Y  Y2  1  0.30344000  0.00000000  0.64086600  1
  Y  Y3  1  0.31377100  0.00000000  0.17475000  1
  Y  Y4  1  0.00000000  0.00000000  0.50000000  1
  Y  Y5  1  0.68622900  0.00000000  0.82525000  1
  Y  Y6  1  0.69656000  0.00000000  0.35913400  1
  Y  Y7  1  0.80344000  0.50000000  0.64086600  1
  Y  Y8  1  0.81377100  0.50000000  0.17475000  1
  Y  Y9  1  0.50000000  0.50000000  0.50000000  1
  Re  Re10  1  0.00000000  0.21433300  0.00000000  1
  Re  Re11  1  0.00000000  0.78566700  0.00000000  1
  Re  Re12  1  0.50000000  0.71433300  0.00000000  1
  Re  Re13  1  0.50000000  0.28566700  0.00000000  1
  O  O14  1  0.00070500  0.00000000  0.79393800  1
  O  O15  1  0.00094500  0.50000000  0.17683100  1
  O  O16  1  0.15387750  0.25208050  0.57391900  1
  O  O17  1  0.15387750  0.74791950  0.57391900  1
  O  O18  1  0.16473600  0.74611100  0.08377800  1
  O  O19  1  0.16473600  0.25388900  0.08377800  1
  O  O20  1  0.33526400  0.75388900  0.91622200  1
  O  O21  1  0.33526400  0.24611100  0.91622200  1
  O  O22  1  0.34612250  0.75208050  0.42608100  1
  O  O23  1  0.34612250  0.24791950  0.42608100  1
  O  O24  1  0.49905500  0.00000000  0.82316900  1
  O  O25  1  0.49929500  0.50000000  0.20606200  1
  O  O26  1  0.50070500  0.50000000  0.79393800  1
  O  O27  1  0.50094500  0.00000000  0.17683100  1
  O  O28  1  0.65387750  0.75208050  0.57391900  1
  O  O29  1  0.65387750  0.24791950  0.57391900  1
  O  O30  1  0.66473600  0.24611100  0.08377800  1
  O  O31  1  0.66473600  0.75388900  0.08377800  1
  O  O32  1  0.83526400  0.25388900  0.91622200  1
  O  O33  1  0.83526400  0.74611100  0.91622200  1
  O  O34  1  0.84612250  0.25208050  0.42608100  1
  O  O35  1  0.84612250  0.74791950  0.42608100  1
  O  O36  1  0.99905500  0.50000000  0.82316900  1
  O  O37  1  0.99929500  0.00000000  0.20606200  1
