# generated using pymatgen
data_CeSnRu
_symmetry_space_group_name_H-M   'P 1'
_cell_length_a   11.66057800
_cell_length_b   4.84248400
_cell_length_c   10.01358769
_cell_angle_alpha   90.00000000
_cell_angle_beta   102.94305621
_cell_angle_gamma   90.00000000
_symmetry_Int_Tables_number   1
_chemical_formula_structural   CeSnRu
_chemical_formula_sum   'Ce8 Sn8 Ru8'
_cell_volume   551.06310393
_cell_formula_units_Z   8
loop_
 _symmetry_equiv_pos_site_id
 _symmetry_equiv_pos_as_xyz
  1  'x, y, z'
loop_
 _atom_site_type_symbol
 _atom_site_label
 _atom_site_symmetry_multiplicity
 _atom_site_fract_x
 _atom_site_fract_y
 _atom_site_fract_z
 _atom_site_occupancy
  Ce  Ce0  1  0.63103400  0.50000000  0.41117800  1
  Ce  Ce1  1  0.86896600  0.00000000  0.58882200  1
  Ce  Ce2  1  0.86384700  0.00000000  0.08779400  1
  Ce  Ce3  1  0.63615300  0.50000000  0.91220600  1
  Ce  Ce4  1  0.13103400  0.00000000  0.41117800  1
  Ce  Ce5  1  0.36896600  0.50000000  0.58882200  1
  Ce  Ce6  1  0.36384700  0.50000000  0.08779400  1
  Ce  Ce7  1  0.13615300  0.00000000  0.91220600  1
  Sn  Sn8  1  0.91799200  0.50000000  0.84678300  1
  Sn  Sn9  1  0.91030800  0.50000000  0.34884700  1
  Sn  Sn10  1  0.58200800  0.00000000  0.15321700  1
  Sn  Sn11  1  0.58969200  0.00000000  0.65115300  1
  Sn  Sn12  1  0.41799200  0.00000000  0.84678300  1
  Sn  Sn13  1  0.41030800  0.00000000  0.34884700  1
  Sn  Sn14  1  0.08200800  0.50000000  0.15321700  1
  Sn  Sn15  1  0.08969200  0.50000000  0.65115300  1
  Ru  Ru16  1  0.81504200  0.00000000  0.83661300  1
  Ru  Ru17  1  0.69049000  0.50000000  0.67053800  1
  Ru  Ru18  1  0.68495800  0.50000000  0.16338700  1
  Ru  Ru19  1  0.80951000  0.00000000  0.32946200  1
  Ru  Ru20  1  0.31504200  0.50000000  0.83661300  1
  Ru  Ru21  1  0.19049000  0.00000000  0.67053800  1
  Ru  Ru22  1  0.18495800  0.00000000  0.16338700  1
  Ru  Ru23  1  0.30951000  0.50000000  0.32946200  1
