# generated using pymatgen
data_Ce(C2N3)3
_symmetry_space_group_name_H-M   'P 1'
_cell_length_a   9.68396200
_cell_length_b   10.44590400
_cell_length_c   10.16798600
_cell_angle_alpha   90.00000000
_cell_angle_beta   90.00000000
_cell_angle_gamma   90.00000000
_symmetry_Int_Tables_number   1
_chemical_formula_structural   Ce(C2N3)3
_chemical_formula_sum   'Ce4 C24 N36'
_cell_volume   1028.57045759
_cell_formula_units_Z   4
loop_
 _symmetry_equiv_pos_site_id
 _symmetry_equiv_pos_as_xyz
  1  'x, y, z'
loop_
 _atom_site_type_symbol
 _atom_site_label
 _atom_site_symmetry_multiplicity
 _atom_site_fract_x
 _atom_site_fract_y
 _atom_site_fract_z
 _atom_site_occupancy
  Ce  Ce0  1  0.50000000  0.20108100  0.75000000  1
  Ce  Ce1  1  0.50000000  0.79891900  0.25000000  1
  Ce  Ce2  1  0.00000000  0.70108100  0.75000000  1
  Ce  Ce3  1  0.00000000  0.29891900  0.25000000  1
  C  C4  1  0.41351500  0.84088000  0.82401500  1
  C  C5  1  0.41351500  0.15912000  0.32401500  1
  C  C6  1  0.27767950  0.86324550  0.75000000  1
  C  C7  1  0.58648500  0.84088000  0.82401500  1
  C  C8  1  0.58648500  0.84088000  0.67598500  1
  C  C9  1  0.58648500  0.15912000  0.32401500  1
  C  C10  1  0.41351500  0.84088000  0.67598500  1
  C  C11  1  0.72232050  0.86324550  0.75000000  1
  C  C12  1  0.41351500  0.15912000  0.17598500  1
  C  C13  1  0.72232050  0.13675450  0.25000000  1
  C  C14  1  0.58648500  0.15912000  0.17598500  1
  C  C15  1  0.27767950  0.13675450  0.25000000  1
  C  C16  1  0.91351500  0.34088000  0.82401500  1
  C  C17  1  0.91351500  0.65912000  0.32401500  1
  C  C18  1  0.77767950  0.36324550  0.75000000  1
  C  C19  1  0.08648500  0.34088000  0.82401500  1
  C  C20  1  0.08648500  0.34088000  0.67598500  1
  C  C21  1  0.08648500  0.65912000  0.32401500  1
  C  C22  1  0.91351500  0.34088000  0.67598500  1
  C  C23  1  0.22232050  0.36324550  0.75000000  1
  C  C24  1  0.91351500  0.65912000  0.17598500  1
  C  C25  1  0.22232050  0.63675450  0.25000000  1
  C  C26  1  0.08648500  0.65912000  0.17598500  1
  C  C27  1  0.77767950  0.63675450  0.25000000  1
  N  N28  1  0.62171800  0.34923300  0.41374800  1
  N  N29  1  0.50000000  0.36471500  0.08173300  1
  N  N30  1  0.15220350  0.85217050  0.75000000  1
  N  N31  1  0.37828200  0.65076700  0.91374800  1
  N  N32  1  0.84779650  0.85217050  0.75000000  1
  N  N33  1  0.37828200  0.34923300  0.08625200  1
  N  N34  1  0.84779650  0.14782950  0.25000000  1
  N  N35  1  0.50000000  0.04847900  0.25000000  1
  N  N36  1  0.50000000  0.36471500  0.41826700  1
  N  N37  1  0.50000000  0.63528500  0.58173300  1
  N  N38  1  0.62171800  0.34923300  0.08625200  1
  N  N39  1  0.62171800  0.65076700  0.91374800  1
  N  N40  1  0.50000000  0.95152100  0.75000000  1
  N  N41  1  0.62171800  0.65076700  0.58625200  1
  N  N42  1  0.50000000  0.63528500  0.91826700  1
  N  N43  1  0.37828200  0.34923300  0.41374800  1
  N  N44  1  0.37828200  0.65076700  0.58625200  1
  N  N45  1  0.15220350  0.14782950  0.25000000  1
  N  N46  1  0.12171800  0.84923300  0.41374800  1
  N  N47  1  0.00000000  0.86471500  0.08173300  1
  N  N48  1  0.65220350  0.35217050  0.75000000  1
  N  N49  1  0.87828200  0.15076700  0.91374800  1
  N  N50  1  0.34779650  0.35217050  0.75000000  1
  N  N51  1  0.87828200  0.84923300  0.08625200  1
  N  N52  1  0.34779650  0.64782950  0.25000000  1
  N  N53  1  0.00000000  0.54847900  0.25000000  1
  N  N54  1  0.00000000  0.86471500  0.41826700  1
  N  N55  1  0.00000000  0.13528500  0.58173300  1
  N  N56  1  0.12171800  0.84923300  0.08625200  1
  N  N57  1  0.12171800  0.15076700  0.91374800  1
  N  N58  1  0.00000000  0.45152100  0.75000000  1
  N  N59  1  0.12171800  0.15076700  0.58625200  1
  N  N60  1  0.00000000  0.13528500  0.91826700  1
  N  N61  1  0.87828200  0.84923300  0.41374800  1
  N  N62  1  0.87828200  0.15076700  0.58625200  1
  N  N63  1  0.65220350  0.64782950  0.25000000  1
