# generated using pymatgen
data_H2W2O7
_symmetry_space_group_name_H-M   'P 1'
_cell_length_a   10.42087200
_cell_length_b   10.42625800
_cell_length_c   10.42837200
_cell_angle_alpha   90.00000000
_cell_angle_beta   90.00000000
_cell_angle_gamma   90.00000000
_symmetry_Int_Tables_number   1
_chemical_formula_structural   H2W2O7
_chemical_formula_sum   'H16 W16 O56'
_cell_volume   1133.04991825
_cell_formula_units_Z   8
loop_
 _symmetry_equiv_pos_site_id
 _symmetry_equiv_pos_as_xyz
  1  'x, y, z'
loop_
 _atom_site_type_symbol
 _atom_site_label
 _atom_site_symmetry_multiplicity
 _atom_site_fract_x
 _atom_site_fract_y
 _atom_site_fract_z
 _atom_site_occupancy
  H  H0  1  0.44312500  0.32630450  0.04732850  1
  H  H1  1  0.55687500  0.32630450  0.95267150  1
  H  H2  1  0.80687500  0.07630450  0.79732850  1
  H  H3  1  0.19312500  0.07630450  0.20267150  1
  H  H4  1  0.44312500  0.82630450  0.54732850  1
  H  H5  1  0.55687500  0.82630450  0.45267150  1
  H  H6  1  0.80687500  0.57630450  0.29732850  1
  H  H7  1  0.19312500  0.57630450  0.70267150  1
  H  H8  1  0.94312500  0.82630450  0.04732850  1
  H  H9  1  0.05687500  0.82630450  0.95267150  1
  H  H10  1  0.30687500  0.57630450  0.79732850  1
  H  H11  1  0.69312500  0.57630450  0.20267150  1
  H  H12  1  0.94312500  0.32630450  0.54732850  1
  H  H13  1  0.05687500  0.32630450  0.45267150  1
  H  H14  1  0.30687500  0.07630450  0.29732850  1
  H  H15  1  0.69312500  0.07630450  0.70267150  1
  W  W16  1  0.37512200  0.99885350  0.87543350  1
  W  W17  1  0.37487800  0.74885350  0.12543350  1
  W  W18  1  0.62487800  0.99885350  0.12456650  1
  W  W19  1  0.62512200  0.74885350  0.87456650  1
  W  W20  1  0.37512200  0.49885350  0.37543350  1
  W  W21  1  0.37487800  0.24885350  0.62543350  1
  W  W22  1  0.62487800  0.49885350  0.62456650  1
  W  W23  1  0.62512200  0.24885350  0.37456650  1
  W  W24  1  0.87512200  0.49885350  0.87543350  1
  W  W25  1  0.87487800  0.24885350  0.12543350  1
  W  W26  1  0.12487800  0.49885350  0.12456650  1
  W  W27  1  0.12512200  0.24885350  0.87456650  1
  W  W28  1  0.87512200  0.99885350  0.37543350  1
  W  W29  1  0.87487800  0.74885350  0.62543350  1
  W  W30  1  0.12487800  0.99885350  0.62456650  1
  W  W31  1  0.12512200  0.74885350  0.37456650  1
  O  O32  1  0.06711400  0.12521100  0.75004500  1
  O  O33  1  0.93288600  0.12521100  0.24995500  1
  O  O34  1  0.75000000  0.80851000  0.75000000  1
  O  O35  1  0.75000000  0.44341900  0.75000000  1
  O  O36  1  0.25013900  0.12536950  0.93253850  1
  O  O37  1  0.74986100  0.12536950  0.06746150  1
  O  O38  1  0.68288600  0.87521100  0.00004500  1
  O  O39  1  0.31711400  0.87521100  0.99995500  1
  O  O40  1  0.50000000  0.69341900  0.00000000  1
  O  O41  1  0.50000000  0.05851000  0.00000000  1
  O  O42  1  0.50013900  0.87536950  0.81746150  1
  O  O43  1  0.49986100  0.87536950  0.18253850  1
  O  O44  1  0.50000000  0.38331200  0.00000000  1
  O  O45  1  0.75000000  0.13331200  0.75000000  1
  O  O46  1  0.06711400  0.62521100  0.25004500  1
  O  O47  1  0.93288600  0.62521100  0.74995500  1
  O  O48  1  0.75000000  0.30851000  0.25000000  1
  O  O49  1  0.75000000  0.94341900  0.25000000  1
  O  O50  1  0.25013900  0.62536950  0.43253850  1
  O  O51  1  0.74986100  0.62536950  0.56746150  1
  O  O52  1  0.68288600  0.37521100  0.50004500  1
  O  O53  1  0.31711400  0.37521100  0.49995500  1
  O  O54  1  0.50000000  0.19341900  0.50000000  1
  O  O55  1  0.50000000  0.55851000  0.50000000  1
  O  O56  1  0.50013900  0.37536950  0.31746150  1
  O  O57  1  0.49986100  0.37536950  0.68253850  1
  O  O58  1  0.50000000  0.88331200  0.50000000  1
  O  O59  1  0.75000000  0.63331200  0.25000000  1
  O  O60  1  0.56711400  0.62521100  0.75004500  1
  O  O61  1  0.43288600  0.62521100  0.24995500  1
  O  O62  1  0.25000000  0.30851000  0.75000000  1
  O  O63  1  0.25000000  0.94341900  0.75000000  1
  O  O64  1  0.75013900  0.62536950  0.93253850  1
  O  O65  1  0.24986100  0.62536950  0.06746150  1
  O  O66  1  0.18288600  0.37521100  0.00004500  1
  O  O67  1  0.81711400  0.37521100  0.99995500  1
  O  O68  1  0.00000000  0.19341900  0.00000000  1
  O  O69  1  0.00000000  0.55851000  0.00000000  1
  O  O70  1  0.00013900  0.37536950  0.81746150  1
  O  O71  1  0.99986100  0.37536950  0.18253850  1
  O  O72  1  0.00000000  0.88331200  0.00000000  1
  O  O73  1  0.25000000  0.63331200  0.75000000  1
  O  O74  1  0.56711400  0.12521100  0.25004500  1
  O  O75  1  0.43288600  0.12521100  0.74995500  1
  O  O76  1  0.25000000  0.80851000  0.25000000  1
  O  O77  1  0.25000000  0.44341900  0.25000000  1
  O  O78  1  0.75013900  0.12536950  0.43253850  1
  O  O79  1  0.24986100  0.12536950  0.56746150  1
  O  O80  1  0.18288600  0.87521100  0.50004500  1
  O  O81  1  0.81711400  0.87521100  0.49995500  1
  O  O82  1  0.00000000  0.69341900  0.50000000  1
  O  O83  1  0.00000000  0.05851000  0.50000000  1
  O  O84  1  0.00013900  0.87536950  0.31746150  1
  O  O85  1  0.99986100  0.87536950  0.68253850  1
  O  O86  1  0.00000000  0.38331200  0.50000000  1
  O  O87  1  0.25000000  0.13331200  0.25000000  1
