# generated using pymatgen
data_TaTe2
_symmetry_space_group_name_H-M   'P 1'
_cell_length_a   15.28209800
_cell_length_b   3.66743800
_cell_length_c   9.66651949
_cell_angle_alpha   90.00000000
_cell_angle_beta   112.76027730
_cell_angle_gamma   90.00000000
_symmetry_Int_Tables_number   1
_chemical_formula_structural   TaTe2
_chemical_formula_sum   'Ta6 Te12'
_cell_volume   499.58431260
_cell_formula_units_Z   6
loop_
 _symmetry_equiv_pos_site_id
 _symmetry_equiv_pos_as_xyz
  1  'x, y, z'
loop_
 _atom_site_type_symbol
 _atom_site_label
 _atom_site_symmetry_multiplicity
 _atom_site_fract_x
 _atom_site_fract_y
 _atom_site_fract_z
 _atom_site_occupancy
  Ta  Ta0  1  0.00000000  0.00000000  0.00000000  1
  Ta  Ta1  1  0.13797900  0.50000000  0.28723500  1
  Ta  Ta2  1  0.36202100  0.00000000  0.71276500  1
  Ta  Ta3  1  0.50000000  0.50000000  0.00000000  1
  Ta  Ta4  1  0.63797900  0.00000000  0.28723500  1
  Ta  Ta5  1  0.86202100  0.50000000  0.71276500  1
  Te  Te6  1  0.14572000  0.50000000  0.01412400  1
  Te  Te7  1  0.35428000  0.00000000  0.98587600  1
  Te  Te8  1  0.29289000  0.00000000  0.38386800  1
  Te  Te9  1  0.20711000  0.50000000  0.61613200  1
  Te  Te10  1  0.49207800  0.50000000  0.69424100  1
  Te  Te11  1  0.00792200  0.00000000  0.30575900  1
  Te  Te12  1  0.64572000  0.00000000  0.01412400  1
  Te  Te13  1  0.85428000  0.50000000  0.98587600  1
  Te  Te14  1  0.79289000  0.50000000  0.38386800  1
  Te  Te15  1  0.70711000  0.00000000  0.61613200  1
  Te  Te16  1  0.99207800  0.00000000  0.69424100  1
  Te  Te17  1  0.50792200  0.50000000  0.30575900  1
