# generated using pymatgen
data_Ba(IrO3)2
_symmetry_space_group_name_H-M   'P 1'
_cell_length_a   13.49323311
_cell_length_b   13.49323311
_cell_length_c   8.21504334
_cell_angle_alpha   90.00000000
_cell_angle_beta   90.00000000
_cell_angle_gamma   120.00000000
_symmetry_Int_Tables_number   1
_chemical_formula_structural   Ba(IrO3)2
_chemical_formula_sum   'Ba9 Ir18 O54'
_cell_volume   1295.30647748
_cell_formula_units_Z   9
loop_
 _symmetry_equiv_pos_site_id
 _symmetry_equiv_pos_as_xyz
  1  'x, y, z'
loop_
 _atom_site_type_symbol
 _atom_site_label
 _atom_site_symmetry_multiplicity
 _atom_site_fract_x
 _atom_site_fract_y
 _atom_site_fract_z
 _atom_site_occupancy
  Ba  Ba0  1  0.21316633  0.42322467  0.78363767  1
  Ba  Ba1  1  0.54339167  0.45350033  0.45030433  1
  Ba  Ba2  1  0.24344200  0.12327500  0.11697100  1
  Ba  Ba3  1  0.87983300  0.75655800  0.11697100  1
  Ba  Ba4  1  0.21005833  0.78683367  0.78363767  1
  Ba  Ba5  1  0.91010867  0.45660833  0.45030433  1
  Ba  Ba6  1  0.54649967  0.08989133  0.45030433  1
  Ba  Ba7  1  0.87672500  0.12016700  0.11697100  1
  Ba  Ba8  1  0.57677533  0.78994167  0.78363767  1
  Ir  Ir9  1  0.45082400  0.39406600  0.89548100  1
  Ir  Ir10  1  0.27260067  0.39009133  0.22881433  1
  Ir  Ir11  1  0.27657533  0.21584267  0.56214767  1
  Ir  Ir12  1  0.38909267  0.11680133  0.77275233  1
  Ir  Ir13  1  0.39437533  0.94424067  0.10608567  1
  Ir  Ir14  1  0.21653200  0.93895800  0.43941900  1
  Ir  Ir15  1  0.11749067  0.72739933  0.22881433  1
  Ir  Ir16  1  0.93926733  0.72342467  0.56214767  1
  Ir  Ir17  1  0.94324200  0.54917600  0.89548100  1
  Ir  Ir18  1  0.05575933  0.45013467  0.10608567  1
  Ir  Ir19  1  0.06104200  0.27757400  0.43941900  1
  Ir  Ir20  1  0.88319867  0.27229133  0.77275233  1
  Ir  Ir21  1  0.78415733  0.06073267  0.56214767  1
  Ir  Ir22  1  0.60593400  0.05675800  0.89548100  1
  Ir  Ir23  1  0.60990867  0.88250933  0.22881433  1
  Ir  Ir24  1  0.72242600  0.78346800  0.43941900  1
  Ir  Ir25  1  0.72770867  0.61090733  0.77275233  1
  Ir  Ir26  1  0.54986533  0.60562467  0.10608567  1
  O  O27  1  0.21132033  0.78978467  0.42836167  1
  O  O28  1  0.41898800  0.53213500  0.25083200  1
  O  O29  1  0.44648033  0.24767867  0.91749867  1
  O  O30  1  0.30824000  0.33554700  0.02282800  1
  O  O31  1  0.36064033  0.35842667  0.68949467  1
  O  O32  1  0.53560167  0.12339233  0.76492933  1
  O  O33  1  0.33111967  0.30602633  0.35616133  1
  O  O34  1  0.12203367  0.24105633  0.23918733  1
  O  O35  1  0.42561033  0.21431067  0.57252067  1
  O  O36  1  0.54354867  0.08820233  0.09502833  1
  O  O37  1  0.32428133  0.00724567  0.95688767  1
  O  O38  1  0.13453167  0.22018633  0.58416533  1
  O  O39  1  0.32608767  0.98370233  0.62355433  1
  O  O40  1  0.34963100  0.00905200  0.29022100  1
  O  O41  1  0.24513100  0.12201300  0.76169500  1
  O  O42  1  0.20994100  0.07887600  0.43159600  1
  O  O43  1  0.25445733  0.79773167  0.09826267  1
  O  O44  1  0.45235600  0.54463300  0.90585400  1
  O  O45  1  0.87798700  0.12311800  0.76169500  1
  O  O46  1  0.08565467  0.86546833  0.58416533  1
  O  O47  1  0.11314700  0.58101200  0.25083200  1
  O  O48  1  0.97490667  0.66888033  0.35616133  1
  O  O49  1  0.02730700  0.69176000  0.02282800  1
  O  O50  1  0.20226833  0.45672567  0.09826267  1
  O  O51  1  0.99778633  0.63935967  0.68949467  1
  O  O52  1  0.78870033  0.57438967  0.57252067  1
  O  O53  1  0.09227700  0.54764400  0.90585400  1
  O  O54  1  0.21021533  0.42153567  0.42836167  1
  O  O55  1  0.99094800  0.34057900  0.29022100  1
  O  O56  1  0.80119833  0.55351967  0.91749867  1
  O  O57  1  0.99275433  0.31703567  0.95688767  1
  O  O58  1  0.01629767  0.34238533  0.62355433  1
  O  O59  1  0.91179767  0.45534633  0.09502833  1
  O  O60  1  0.87660767  0.41220933  0.76492933  1
  O  O61  1  0.92112400  0.13106500  0.43159600  1
  O  O62  1  0.11902267  0.87796633  0.23918733  1
  O  O63  1  0.54465367  0.45645133  0.09502833  1
  O  O64  1  0.75232133  0.19880167  0.91749867  1
  O  O65  1  0.77981367  0.91434533  0.58416533  1
  O  O66  1  0.64157333  0.00221367  0.68949467  1
  O  O67  1  0.69397367  0.02509333  0.35616133  1
  O  O68  1  0.86893500  0.79005900  0.43159600  1
  O  O69  1  0.66445300  0.97269300  0.02282800  1
  O  O70  1  0.45536700  0.90772300  0.90585400  1
  O  O71  1  0.75894367  0.88097733  0.23918733  1
  O  O72  1  0.87688200  0.75486900  0.76169500  1
  O  O73  1  0.65761467  0.67391233  0.62355433  1
  O  O74  1  0.46786500  0.88685300  0.25083200  1
  O  O75  1  0.65942100  0.65036900  0.29022100  1
  O  O76  1  0.68296433  0.67571867  0.95688767  1
  O  O77  1  0.57846433  0.78867967  0.42836167  1
  O  O78  1  0.54327433  0.74554267  0.09826267  1
  O  O79  1  0.58779067  0.46439833  0.76492933  1
  O  O80  1  0.78568933  0.21129967  0.57252067  1
