# generated using pymatgen
data_CoSb2S2(OF3)4
_symmetry_space_group_name_H-M   'P 1'
_cell_length_a   5.20344730
_cell_length_b   7.96766410
_cell_length_c   8.78006424
_cell_angle_alpha   93.57322769
_cell_angle_beta   91.30298891
_cell_angle_gamma   97.94694256
_symmetry_Int_Tables_number   1
_chemical_formula_structural   CoSb2S2(OF3)4
_chemical_formula_sum   'Co1 Sb2 S2 O4 F12'
_cell_volume   359.63773072
_cell_formula_units_Z   1
loop_
 _symmetry_equiv_pos_site_id
 _symmetry_equiv_pos_as_xyz
  1  'x, y, z'
loop_
 _atom_site_type_symbol
 _atom_site_label
 _atom_site_symmetry_multiplicity
 _atom_site_fract_x
 _atom_site_fract_y
 _atom_site_fract_z
 _atom_site_occupancy
  Co  Co0  1  0.50000000  0.50000000  0.50000000  1
  Sb  Sb1  1  0.96865950  0.26194300  0.73538800  1
  Sb  Sb2  1  0.03134050  0.73805700  0.26461200  1
  S  S3  1  0.50042000  0.79839600  0.78600200  1
  S  S4  1  0.49958000  0.20160400  0.21399800  1
  O  O5  1  0.59545100  0.30757900  0.35272400  1
  O  O6  1  0.40454900  0.69242100  0.64727600  1
  O  O7  1  0.75233300  0.77713400  0.84597550  1
  O  O8  1  0.24766700  0.22286600  0.15402450  1
  F  F9  1  0.15900550  0.44931300  0.85152750  1
  F  F10  1  0.84099450  0.55068700  0.14847250  1
  F  F11  1  0.83501250  0.65808800  0.44393200  1
  F  F12  1  0.16498750  0.34191200  0.55606800  1
  F  F13  1  0.22172750  0.11842000  0.77394100  1
  F  F14  1  0.77827250  0.88158000  0.22605900  1
  F  F15  1  0.22622800  0.91216700  0.39547600  1
  F  F16  1  0.77377200  0.08783300  0.60452400  1
  F  F17  1  0.71724200  0.41305500  0.67511400  1
  F  F18  1  0.28275800  0.58694500  0.32488600  1
  F  F19  1  0.23608650  0.80180200  0.09567850  1
  F  F20  1  0.76391350  0.19819800  0.90432150  1
