# generated using pymatgen
data_V2HO4
_symmetry_space_group_name_H-M   'P 1'
_cell_length_a   4.57046751
_cell_length_b   3.01901750
_cell_length_c   4.83553791
_cell_angle_alpha   90.00000000
_cell_angle_beta   92.90331769
_cell_angle_gamma   90.00000000
_symmetry_Int_Tables_number   1
_chemical_formula_structural   V2HO4
_chemical_formula_sum   'V2 H1 O4'
_cell_volume   66.63666324
_cell_formula_units_Z   1
loop_
 _symmetry_equiv_pos_site_id
 _symmetry_equiv_pos_as_xyz
  1  'x, y, z'
loop_
 _atom_site_type_symbol
 _atom_site_label
 _atom_site_symmetry_multiplicity
 _atom_site_fract_x
 _atom_site_fract_y
 _atom_site_fract_z
 _atom_site_occupancy
  V  V0  1  0.98632300  0.50000000  0.00027200  1
  V  V1  1  0.51498450  0.00000000  0.47003450  1
  H  H2  1  0.42149200  0.00000000  0.95768050  1
  O  O3  1  0.24129850  0.00000000  0.83253450  1
  O  O4  1  0.75124950  0.00000000  0.17547950  1
  O  O5  1  0.70784000  0.50000000  0.67209100  1
  O  O6  1  0.27456750  0.50000000  0.32469700  1
