# generated using pymatgen
data_Nb2NiO6
_symmetry_space_group_name_H-M   'P 1'
_cell_length_a   9.17756800
_cell_length_b   6.59254600
_cell_length_c   6.77605369
_cell_angle_alpha   90.00000000
_cell_angle_beta   92.02286235
_cell_angle_gamma   90.00000000
_symmetry_Int_Tables_number   1
_chemical_formula_structural   Nb2NiO6
_chemical_formula_sum   'Nb8 Ni4 O24'
_cell_volume   409.71974242
_cell_formula_units_Z   4
loop_
 _symmetry_equiv_pos_site_id
 _symmetry_equiv_pos_as_xyz
  1  'x, y, z'
loop_
 _atom_site_type_symbol
 _atom_site_label
 _atom_site_symmetry_multiplicity
 _atom_site_fract_x
 _atom_site_fract_y
 _atom_site_fract_z
 _atom_site_occupancy
  Nb  Nb0  1  0.00000000  0.00000000  0.50000000  1
  Nb  Nb1  1  0.00000000  0.00000000  0.00000000  1
  Nb  Nb2  1  0.61236900  0.00000000  0.28372300  1
  Nb  Nb3  1  0.38763100  0.00000000  0.71627700  1
  Nb  Nb4  1  0.50000000  0.50000000  0.50000000  1
  Nb  Nb5  1  0.50000000  0.50000000  0.00000000  1
  Nb  Nb6  1  0.11236900  0.50000000  0.28372300  1
  Nb  Nb7  1  0.88763100  0.50000000  0.71627700  1
  Ni  Ni8  1  0.75644000  0.00000000  0.65921300  1
  Ni  Ni9  1  0.24356000  0.00000000  0.34078700  1
  Ni  Ni10  1  0.25644000  0.50000000  0.65921300  1
  Ni  Ni11  1  0.74356000  0.50000000  0.34078700  1
  O  O12  1  0.16117000  0.00000000  0.73237900  1
  O  O13  1  0.50000000  0.81414200  0.50000000  1
  O  O14  1  0.50000000  0.18585800  0.50000000  1
  O  O15  1  0.83883000  0.00000000  0.26762100  1
  O  O16  1  0.59123200  0.00000000  0.82843400  1
  O  O17  1  0.59707700  0.69009100  0.19220600  1
  O  O18  1  0.59707700  0.30990900  0.19220600  1
  O  O19  1  0.32224400  0.00000000  0.99818200  1
  O  O20  1  0.67775600  0.00000000  0.00181800  1
  O  O21  1  0.40292300  0.30990900  0.80779400  1
  O  O22  1  0.40292300  0.69009100  0.80779400  1
  O  O23  1  0.40876800  0.00000000  0.17156600  1
  O  O24  1  0.66117000  0.50000000  0.73237900  1
  O  O25  1  0.00000000  0.31414200  0.50000000  1
  O  O26  1  0.00000000  0.68585800  0.50000000  1
  O  O27  1  0.33883000  0.50000000  0.26762100  1
  O  O28  1  0.09123200  0.50000000  0.82843400  1
  O  O29  1  0.09707700  0.19009100  0.19220600  1
  O  O30  1  0.09707700  0.80990900  0.19220600  1
  O  O31  1  0.82224400  0.50000000  0.99818200  1
  O  O32  1  0.17775600  0.50000000  0.00181800  1
  O  O33  1  0.90292300  0.80990900  0.80779400  1
  O  O34  1  0.90292300  0.19009100  0.80779400  1
  O  O35  1  0.90876800  0.50000000  0.17156600  1
