# generated using pymatgen
data_DyNiGe2
_symmetry_space_group_name_H-M   'P 1'
_cell_length_a   4.18389600
_cell_length_b   8.54451000
_cell_length_c   15.90307200
_cell_angle_alpha   90.00000000
_cell_angle_beta   90.00000000
_cell_angle_gamma   90.00000000
_symmetry_Int_Tables_number   1
_chemical_formula_structural   DyNiGe2
_chemical_formula_sum   'Dy8 Ni8 Ge16'
_cell_volume   568.52434723
_cell_formula_units_Z   8
loop_
 _symmetry_equiv_pos_site_id
 _symmetry_equiv_pos_as_xyz
  1  'x, y, z'
loop_
 _atom_site_type_symbol
 _atom_site_label
 _atom_site_symmetry_multiplicity
 _atom_site_fract_x
 _atom_site_fract_y
 _atom_site_fract_z
 _atom_site_occupancy
  Dy  Dy0  1  0.00000000  0.50000000  0.79497900  1
  Dy  Dy1  1  0.00000000  0.73443000  0.00000000  1
  Dy  Dy2  1  0.00000000  0.26557000  0.00000000  1
  Dy  Dy3  1  0.50000000  0.00000000  0.70502100  1
  Dy  Dy4  1  0.50000000  0.00000000  0.29497900  1
  Dy  Dy5  1  0.50000000  0.23443000  0.50000000  1
  Dy  Dy6  1  0.50000000  0.76557000  0.50000000  1
  Dy  Dy7  1  0.00000000  0.50000000  0.20502100  1
  Ni  Ni8  1  0.50000000  0.74953500  0.85117800  1
  Ni  Ni9  1  0.00000000  0.24953500  0.64882200  1
  Ni  Ni10  1  0.00000000  0.75046500  0.64882200  1
  Ni  Ni11  1  0.50000000  0.25046500  0.85117800  1
  Ni  Ni12  1  0.00000000  0.24953500  0.35117800  1
  Ni  Ni13  1  0.50000000  0.74953500  0.14882200  1
  Ni  Ni14  1  0.50000000  0.25046500  0.14882200  1
  Ni  Ni15  1  0.00000000  0.75046500  0.35117800  1
  Ge  Ge16  1  0.00000000  0.15749000  0.80491000  1
  Ge  Ge17  1  0.50000000  0.00000000  0.91961400  1
  Ge  Ge18  1  0.50000000  0.34251000  0.69509000  1
  Ge  Ge19  1  0.50000000  0.65749000  0.69509000  1
  Ge  Ge20  1  0.00000000  0.84251000  0.80491000  1
  Ge  Ge21  1  0.00000000  0.00000000  0.57736000  1
  Ge  Ge22  1  0.00000000  0.50000000  0.58038600  1
  Ge  Ge23  1  0.50000000  0.50000000  0.92264000  1
  Ge  Ge24  1  0.50000000  0.65749000  0.30491000  1
  Ge  Ge25  1  0.00000000  0.50000000  0.41961400  1
  Ge  Ge26  1  0.00000000  0.84251000  0.19509000  1
  Ge  Ge27  1  0.00000000  0.15749000  0.19509000  1
  Ge  Ge28  1  0.50000000  0.34251000  0.30491000  1
  Ge  Ge29  1  0.50000000  0.50000000  0.07736000  1
  Ge  Ge30  1  0.50000000  0.00000000  0.08038600  1
  Ge  Ge31  1  0.00000000  0.00000000  0.42264000  1
