# generated using pymatgen
data_Ca2F
_symmetry_space_group_name_H-M   'P 1'
_cell_length_a   27.91255400
_cell_length_b   3.94052400
_cell_length_c   7.91955095
_cell_angle_alpha   90.00000000
_cell_angle_beta   98.12019524
_cell_angle_gamma   90.00000000
_symmetry_Int_Tables_number   1
_chemical_formula_structural   Ca2F
_chemical_formula_sum   'Ca20 F10'
_cell_volume   862.33868580
_cell_formula_units_Z   10
loop_
 _symmetry_equiv_pos_site_id
 _symmetry_equiv_pos_as_xyz
  1  'x, y, z'
loop_
 _atom_site_type_symbol
 _atom_site_label
 _atom_site_symmetry_multiplicity
 _atom_site_fract_x
 _atom_site_fract_y
 _atom_site_fract_z
 _atom_site_occupancy
  Ca  Ca0  1  0.50138400  0.50000000  0.00006100  1
  Ca  Ca1  1  0.59642400  0.00000000  0.79903600  1
  Ca  Ca2  1  0.69564700  0.50000000  0.60150700  1
  Ca  Ca3  1  0.80047400  0.00000000  0.90161900  1
  Ca  Ca4  1  0.79999400  0.00000000  0.39877500  1
  Ca  Ca5  1  0.89362200  0.50000000  0.69799000  1
  Ca  Ca6  1  0.90692800  0.50000000  0.20220900  1
  Ca  Ca7  1  0.60451700  0.00000000  0.29723400  1
  Ca  Ca8  1  0.99890000  0.00000000  0.50250300  1
  Ca  Ca9  1  0.70564800  0.50000000  0.09972000  1
  Ca  Ca10  1  0.00138400  0.00000000  0.00006100  1
  Ca  Ca11  1  0.09642400  0.50000000  0.79903600  1
  Ca  Ca12  1  0.19564700  0.00000000  0.60150700  1
  Ca  Ca13  1  0.30047400  0.50000000  0.90161900  1
  Ca  Ca14  1  0.29999400  0.50000000  0.39877500  1
  Ca  Ca15  1  0.39362200  0.00000000  0.69799000  1
  Ca  Ca16  1  0.40692800  0.00000000  0.20220900  1
  Ca  Ca17  1  0.10451700  0.50000000  0.29723400  1
  Ca  Ca18  1  0.49890000  0.50000000  0.50250300  1
  Ca  Ca19  1  0.20564800  0.00000000  0.09972000  1
  F  F20  1  0.95421600  0.00000000  0.22731000  1
  F  F21  1  0.84623500  0.00000000  0.67247800  1
  F  F22  1  0.54921200  0.50000000  0.76863300  1
  F  F23  1  0.75349800  0.00000000  0.12679300  1
  F  F24  1  0.64545200  0.00000000  0.57913300  1
  F  F25  1  0.45421600  0.50000000  0.22731000  1
  F  F26  1  0.34623500  0.50000000  0.67247800  1
  F  F27  1  0.04921200  0.00000000  0.76863300  1
  F  F28  1  0.25349800  0.50000000  0.12679300  1
  F  F29  1  0.14545200  0.50000000  0.57913300  1
