# generated using pymatgen
data_ZnAu3
_symmetry_space_group_name_H-M   'P 1'
_cell_length_a   5.70804000
_cell_length_b   5.70804000
_cell_length_c   33.91726000
_cell_angle_alpha   90.00000000
_cell_angle_beta   90.00000000
_cell_angle_gamma   90.00000000
_symmetry_Int_Tables_number   1
_chemical_formula_structural   ZnAu3
_chemical_formula_sum   'Zn16 Au48'
_cell_volume   1105.08269025
_cell_formula_units_Z   16
loop_
 _symmetry_equiv_pos_site_id
 _symmetry_equiv_pos_as_xyz
  1  'x, y, z'
loop_
 _atom_site_type_symbol
 _atom_site_label
 _atom_site_symmetry_multiplicity
 _atom_site_fract_x
 _atom_site_fract_y
 _atom_site_fract_z
 _atom_site_occupancy
  Zn  Zn0  1  0.50000000  0.00000000  0.43211000  1
  Zn  Zn1  1  0.50000000  0.00000000  0.06789000  1
  Zn  Zn2  1  0.00000000  0.50000000  0.06789000  1
  Zn  Zn3  1  0.00000000  0.00000000  0.31789000  1
  Zn  Zn4  1  0.00000000  0.50000000  0.43211000  1
  Zn  Zn5  1  0.50000000  0.50000000  0.18211000  1
  Zn  Zn6  1  0.50000000  0.50000000  0.31789000  1
  Zn  Zn7  1  0.00000000  0.00000000  0.18211000  1
  Zn  Zn8  1  0.00000000  0.50000000  0.93211000  1
  Zn  Zn9  1  0.00000000  0.50000000  0.56789000  1
  Zn  Zn10  1  0.50000000  0.00000000  0.56789000  1
  Zn  Zn11  1  0.50000000  0.50000000  0.81789000  1
  Zn  Zn12  1  0.50000000  0.00000000  0.93211000  1
  Zn  Zn13  1  0.00000000  0.00000000  0.68211000  1
  Zn  Zn14  1  0.00000000  0.00000000  0.81789000  1
  Zn  Zn15  1  0.50000000  0.50000000  0.68211000  1
  Au  Au16  1  0.18477400  0.31522600  0.00000000  1
  Au  Au17  1  0.50000000  0.50000000  0.05966200  1
  Au  Au18  1  0.75000000  0.75103200  0.12500000  1
  Au  Au19  1  0.68477400  0.18477400  0.00000000  1
  Au  Au20  1  0.68477400  0.68477400  0.25000000  1
  Au  Au21  1  0.50000000  0.00000000  0.19033800  1
  Au  Au22  1  0.25000000  0.24896800  0.12500000  1
  Au  Au23  1  0.00000000  0.00000000  0.44033800  1
  Au  Au24  1  0.18477400  0.81522600  0.25000000  1
  Au  Au25  1  0.50000000  0.00000000  0.30966200  1
  Au  Au26  1  0.31522600  0.31522600  0.25000000  1
  Au  Au27  1  0.00000000  0.50000000  0.19033800  1
  Au  Au28  1  0.74896800  0.25000000  0.37500000  1
  Au  Au29  1  0.50000000  0.50000000  0.44033800  1
  Au  Au30  1  0.00000000  0.50000000  0.30966200  1
  Au  Au31  1  0.81522600  0.68477400  0.00000000  1
  Au  Au32  1  0.24896800  0.25000000  0.37500000  1
  Au  Au33  1  0.75103200  0.75000000  0.37500000  1
  Au  Au34  1  0.31522600  0.81522600  0.00000000  1
  Au  Au35  1  0.75000000  0.25103200  0.12500000  1
  Au  Au36  1  0.00000000  0.00000000  0.05966200  1
  Au  Au37  1  0.25103200  0.75000000  0.37500000  1
  Au  Au38  1  0.81522600  0.18477400  0.25000000  1
  Au  Au39  1  0.25000000  0.74896800  0.12500000  1
  Au  Au40  1  0.68477400  0.81522600  0.50000000  1
  Au  Au41  1  0.00000000  0.00000000  0.55966200  1
  Au  Au42  1  0.25000000  0.25103200  0.62500000  1
  Au  Au43  1  0.18477400  0.68477400  0.50000000  1
  Au  Au44  1  0.18477400  0.18477400  0.75000000  1
  Au  Au45  1  0.00000000  0.50000000  0.69033800  1
  Au  Au46  1  0.75000000  0.74896800  0.62500000  1
  Au  Au47  1  0.50000000  0.50000000  0.94033800  1
  Au  Au48  1  0.68477400  0.31522600  0.75000000  1
  Au  Au49  1  0.00000000  0.50000000  0.80966200  1
  Au  Au50  1  0.81522600  0.81522600  0.75000000  1
  Au  Au51  1  0.50000000  0.00000000  0.69033800  1
  Au  Au52  1  0.24896800  0.75000000  0.87500000  1
  Au  Au53  1  0.00000000  0.00000000  0.94033800  1
  Au  Au54  1  0.50000000  0.00000000  0.80966200  1
  Au  Au55  1  0.31522600  0.18477400  0.50000000  1
  Au  Au56  1  0.74896800  0.75000000  0.87500000  1
  Au  Au57  1  0.25103200  0.25000000  0.87500000  1
  Au  Au58  1  0.81522600  0.31522600  0.50000000  1
  Au  Au59  1  0.25000000  0.75103200  0.62500000  1
  Au  Au60  1  0.50000000  0.50000000  0.55966200  1
  Au  Au61  1  0.75103200  0.25000000  0.87500000  1
  Au  Au62  1  0.31522600  0.68477400  0.75000000  1
  Au  Au63  1  0.75000000  0.24896800  0.62500000  1
