# generated using pymatgen
data_Ba2CaFe2CuF14
_symmetry_space_group_name_H-M   'P 1'
_cell_length_a   14.07117000
_cell_length_b   5.44779600
_cell_length_c   15.06441490
_cell_angle_alpha   90.00000000
_cell_angle_beta   91.55853058
_cell_angle_gamma   90.00000000
_symmetry_Int_Tables_number   1
_chemical_formula_structural   Ba2CaFe2CuF14
_chemical_formula_sum   'Ba8 Ca4 Fe8 Cu4 F56'
_cell_volume   1154.36359779
_cell_formula_units_Z   4
loop_
 _symmetry_equiv_pos_site_id
 _symmetry_equiv_pos_as_xyz
  1  'x, y, z'
loop_
 _atom_site_type_symbol
 _atom_site_label
 _atom_site_symmetry_multiplicity
 _atom_site_fract_x
 _atom_site_fract_y
 _atom_site_fract_z
 _atom_site_occupancy
  Ba  Ba0  1  0.81200600  0.06882900  0.37744200  1
  Ba  Ba1  1  0.81200600  0.93117100  0.87744200  1
  Ba  Ba2  1  0.68799400  0.43117100  0.62255800  1
  Ba  Ba3  1  0.68799400  0.56882900  0.12255800  1
  Ba  Ba4  1  0.31200600  0.56882900  0.37744200  1
  Ba  Ba5  1  0.31200600  0.43117100  0.87744200  1
  Ba  Ba6  1  0.18799400  0.93117100  0.62255800  1
  Ba  Ba7  1  0.18799400  0.06882900  0.12255800  1
  Ca  Ca8  1  0.00000000  0.58010600  0.25000000  1
  Ca  Ca9  1  0.00000000  0.41989400  0.75000000  1
  Ca  Ca10  1  0.50000000  0.08010600  0.25000000  1
  Ca  Ca11  1  0.50000000  0.91989400  0.75000000  1
  Fe  Fe12  1  0.87870450  0.02630150  0.12484000  1
  Fe  Fe13  1  0.62129550  0.47369850  0.87516000  1
  Fe  Fe14  1  0.87870450  0.97369850  0.62484000  1
  Fe  Fe15  1  0.62129550  0.52630150  0.37516000  1
  Fe  Fe16  1  0.37870450  0.52630150  0.12484000  1
  Fe  Fe17  1  0.12129550  0.97369850  0.87516000  1
  Fe  Fe18  1  0.37870450  0.47369850  0.62484000  1
  Fe  Fe19  1  0.12129550  0.02630150  0.37516000  1
  Cu  Cu20  1  0.00000000  0.50000000  0.00000000  1
  Cu  Cu21  1  0.00000000  0.50000000  0.50000000  1
  Cu  Cu22  1  0.50000000  0.00000000  0.00000000  1
  Cu  Cu23  1  0.50000000  0.00000000  0.50000000  1
  F  F24  1  0.50795250  0.57662250  0.65614600  1
  F  F25  1  0.86081200  0.26010400  0.54543900  1
  F  F26  1  0.63918800  0.23989600  0.45456100  1
  F  F27  1  0.75286300  0.59237000  0.40319400  1
  F  F28  1  0.94799800  0.43744700  0.38448600  1
  F  F29  1  0.55200200  0.93744700  0.11551400  1
  F  F30  1  0.86081200  0.73989600  0.04543900  1
  F  F31  1  0.99204750  0.07662250  0.84385400  1
  F  F32  1  0.83941650  0.80134950  0.22231000  1
  F  F33  1  0.74713700  0.90763000  0.59680600  1
  F  F34  1  0.88041450  0.29594050  0.21015300  1
  F  F35  1  0.74713700  0.09237000  0.09680600  1
  F  F36  1  0.88041450  0.70405950  0.71015300  1
  F  F37  1  0.61958550  0.20405950  0.78984700  1
  F  F38  1  0.94799800  0.56255300  0.88448600  1
  F  F39  1  0.66058350  0.69865050  0.77769000  1
  F  F40  1  0.58369250  0.28599650  0.98057300  1
  F  F41  1  0.99204750  0.92337750  0.34385400  1
  F  F42  1  0.91630750  0.21400350  0.01942700  1
  F  F43  1  0.58369250  0.71400350  0.48057300  1
  F  F44  1  0.63918800  0.76010400  0.95456100  1
  F  F45  1  0.61958550  0.79594050  0.28984700  1
  F  F46  1  0.83941650  0.19865050  0.72231000  1
  F  F47  1  0.91630750  0.78599650  0.51942700  1
  F  F48  1  0.55200200  0.06255300  0.61551400  1
  F  F49  1  0.50795250  0.42337750  0.15614600  1
  F  F50  1  0.66058350  0.30134950  0.27769000  1
  F  F51  1  0.75286300  0.40763000  0.90319400  1
  F  F52  1  0.00795250  0.07662250  0.65614600  1
  F  F53  1  0.36081200  0.76010400  0.54543900  1
  F  F54  1  0.13918800  0.73989600  0.45456100  1
  F  F55  1  0.25286300  0.09237000  0.40319400  1
  F  F56  1  0.44799800  0.93744700  0.38448600  1
  F  F57  1  0.05200200  0.43744700  0.11551400  1
  F  F58  1  0.36081200  0.23989600  0.04543900  1
  F  F59  1  0.49204750  0.57662250  0.84385400  1
  F  F60  1  0.33941650  0.30134950  0.22231000  1
  F  F61  1  0.24713700  0.40763000  0.59680600  1
  F  F62  1  0.38041450  0.79594050  0.21015300  1
  F  F63  1  0.24713700  0.59237000  0.09680600  1
  F  F64  1  0.38041450  0.20405950  0.71015300  1
  F  F65  1  0.11958550  0.70405950  0.78984700  1
  F  F66  1  0.44799800  0.06255300  0.88448600  1
  F  F67  1  0.16058350  0.19865050  0.77769000  1
  F  F68  1  0.08369250  0.78599650  0.98057300  1
  F  F69  1  0.49204750  0.42337750  0.34385400  1
  F  F70  1  0.41630750  0.71400350  0.01942700  1
  F  F71  1  0.08369250  0.21400350  0.48057300  1
  F  F72  1  0.13918800  0.26010400  0.95456100  1
  F  F73  1  0.11958550  0.29594050  0.28984700  1
  F  F74  1  0.33941650  0.69865050  0.72231000  1
  F  F75  1  0.41630750  0.28599650  0.51942700  1
  F  F76  1  0.05200200  0.56255300  0.61551400  1
  F  F77  1  0.00795250  0.92337750  0.15614600  1
  F  F78  1  0.16058350  0.80134950  0.27769000  1
  F  F79  1  0.25286300  0.90763000  0.90319400  1
