# generated using pymatgen
data_MnGaNi2
_symmetry_space_group_name_H-M   'P 1'
_cell_length_a   21.04144800
_cell_length_b   5.52558400
_cell_length_c   4.15039812
_cell_angle_alpha   90.00000000
_cell_angle_beta   101.31156501
_cell_angle_gamma   90.00000000
_symmetry_Int_Tables_number   1
_chemical_formula_structural   MnGaNi2
_chemical_formula_sum   'Mn10 Ga10 Ni20'
_cell_volume   473.17786643
_cell_formula_units_Z   10
loop_
 _symmetry_equiv_pos_site_id
 _symmetry_equiv_pos_as_xyz
  1  'x, y, z'
loop_
 _atom_site_type_symbol
 _atom_site_label
 _atom_site_symmetry_multiplicity
 _atom_site_fract_x
 _atom_site_fract_y
 _atom_site_fract_z
 _atom_site_occupancy
  Mn  Mn0  1  0.19997700  0.00000000  0.24110200  1
  Mn  Mn1  1  0.10001500  0.50000000  0.65025200  1
  Mn  Mn2  1  0.30002300  0.50000000  0.75889800  1
  Mn  Mn3  1  0.39998500  0.00000000  0.34974800  1
  Mn  Mn4  1  0.00000000  0.00000000  0.00000000  1
  Mn  Mn5  1  0.69997700  0.50000000  0.24110200  1
  Mn  Mn6  1  0.60001500  0.00000000  0.65025200  1
  Mn  Mn7  1  0.80002300  0.00000000  0.75889800  1
  Mn  Mn8  1  0.89998500  0.50000000  0.34974800  1
  Mn  Mn9  1  0.50000000  0.50000000  0.00000000  1
  Ga  Ga10  1  0.19981000  0.50000000  0.24161300  1
  Ga  Ga11  1  0.10008800  0.00000000  0.65112100  1
  Ga  Ga12  1  0.39991200  0.50000000  0.34887900  1
  Ga  Ga13  1  0.30019000  0.00000000  0.75838700  1
  Ga  Ga14  1  0.00000000  0.50000000  0.00000000  1
  Ga  Ga15  1  0.69981000  0.00000000  0.24161300  1
  Ga  Ga16  1  0.60008800  0.50000000  0.65112100  1
  Ga  Ga17  1  0.89991200  0.00000000  0.34887900  1
  Ga  Ga18  1  0.80019000  0.50000000  0.75838700  1
  Ga  Ga19  1  0.50000000  0.00000000  0.00000000  1
  Ni  Ni20  1  0.19994750  0.24980150  0.74517200  1
  Ni  Ni21  1  0.40000200  0.24985800  0.84558700  1
  Ni  Ni22  1  0.00000000  0.75014500  0.50000000  1
  Ni  Ni23  1  0.19994750  0.75019850  0.74517200  1
  Ni  Ni24  1  0.40000200  0.75014200  0.84558700  1
  Ni  Ni25  1  0.30005250  0.25019850  0.25482800  1
  Ni  Ni26  1  0.09999800  0.25014200  0.15441300  1
  Ni  Ni27  1  0.30005250  0.74980150  0.25482800  1
  Ni  Ni28  1  0.09999800  0.74985800  0.15441300  1
  Ni  Ni29  1  0.00000000  0.24985500  0.50000000  1
  Ni  Ni30  1  0.69994750  0.74980150  0.74517200  1
  Ni  Ni31  1  0.90000200  0.74985800  0.84558700  1
  Ni  Ni32  1  0.50000000  0.25014500  0.50000000  1
  Ni  Ni33  1  0.69994750  0.25019850  0.74517200  1
  Ni  Ni34  1  0.90000200  0.25014200  0.84558700  1
  Ni  Ni35  1  0.80005250  0.75019850  0.25482800  1
  Ni  Ni36  1  0.59999800  0.75014200  0.15441300  1
  Ni  Ni37  1  0.80005250  0.24980150  0.25482800  1
  Ni  Ni38  1  0.59999800  0.24985800  0.15441300  1
  Ni  Ni39  1  0.50000000  0.74985500  0.50000000  1
