# generated using pymatgen
data_MnP2O7
_symmetry_space_group_name_H-M   'P 1'
_cell_length_a   6.21724329
_cell_length_b   6.42012038
_cell_length_c   6.86440852
_cell_angle_alpha   87.79579256
_cell_angle_beta   113.19646506
_cell_angle_gamma   96.23815574
_symmetry_Int_Tables_number   1
_chemical_formula_structural   MnP2O7
_chemical_formula_sum   'Mn2 P4 O14'
_cell_volume   250.35197835
_cell_formula_units_Z   2
loop_
 _symmetry_equiv_pos_site_id
 _symmetry_equiv_pos_as_xyz
  1  'x, y, z'
loop_
 _atom_site_type_symbol
 _atom_site_label
 _atom_site_symmetry_multiplicity
 _atom_site_fract_x
 _atom_site_fract_y
 _atom_site_fract_z
 _atom_site_occupancy
  Mn  Mn0  1  0.90543900  0.14381200  0.28578500  1
  Mn  Mn1  1  0.09456100  0.85618800  0.71421500  1
  P  P2  1  0.33995900  0.11222500  0.14597200  1
  P  P3  1  0.66004100  0.88777500  0.85402800  1
  P  P4  1  0.22631200  0.37090600  0.73949500  1
  P  P5  1  0.77368800  0.62909400  0.26050500  1
  O  O6  1  0.77227900  0.08916900  0.98599100  1
  O  O7  1  0.22772100  0.91083100  0.01400900  1
  O  O8  1  0.78341900  0.84300300  0.70987500  1
  O  O9  1  0.21658100  0.15699700  0.29012500  1
  O  O10  1  0.40093000  0.89753200  0.70902300  1
  O  O11  1  0.59907000  0.10246800  0.29097700  1
  O  O12  1  0.07309900  0.54662300  0.73090300  1
  O  O13  1  0.92690100  0.45337700  0.26909700  1
  O  O14  1  0.32514600  0.29962900  0.98389000  1
  O  O15  1  0.67485400  0.70037100  0.01611000  1
  O  O16  1  0.05750100  0.17297400  0.61763500  1
  O  O17  1  0.57676900  0.56849000  0.32973100  1
  O  O18  1  0.42323100  0.43151000  0.67026900  1
  O  O19  1  0.94249900  0.82702600  0.38236500  1
