# generated using pymatgen
data_Mn2H2SO6
_symmetry_space_group_name_H-M   'P 1'
_cell_length_a   11.43149692
_cell_length_b   7.61090584
_cell_length_c   6.23903225
_cell_angle_alpha   90.00000000
_cell_angle_beta   115.67175775
_cell_angle_gamma   90.00000000
_symmetry_Int_Tables_number   1
_chemical_formula_structural   Mn2H2SO6
_chemical_formula_sum   'Mn8 H8 S4 O24'
_cell_volume   489.23955143
_cell_formula_units_Z   4
loop_
 _symmetry_equiv_pos_site_id
 _symmetry_equiv_pos_as_xyz
  1  'x, y, z'
loop_
 _atom_site_type_symbol
 _atom_site_label
 _atom_site_symmetry_multiplicity
 _atom_site_fract_x
 _atom_site_fract_y
 _atom_site_fract_z
 _atom_site_occupancy
  Mn  Mn0  1  0.75023300  0.59788300  0.18320500  1
  Mn  Mn1  1  0.24976700  0.40211700  0.81679500  1
  Mn  Mn2  1  0.24976700  0.59788300  0.31679500  1
  Mn  Mn3  1  0.75023300  0.40211700  0.68320500  1
  Mn  Mn4  1  0.25023300  0.09788300  0.18320500  1
  Mn  Mn5  1  0.74976700  0.90211700  0.81679500  1
  Mn  Mn6  1  0.74976700  0.09788300  0.31679500  1
  Mn  Mn7  1  0.25023300  0.90211700  0.68320500  1
  H  H8  1  0.09285250  0.86308350  0.19626500  1
  H  H9  1  0.90714750  0.86308350  0.30373500  1
  H  H10  1  0.90714750  0.13691650  0.80373500  1
  H  H11  1  0.09285250  0.13691650  0.69626500  1
  H  H12  1  0.59285250  0.36308350  0.19626500  1
  H  H13  1  0.40714750  0.36308350  0.30373500  1
  H  H14  1  0.40714750  0.63691650  0.80373500  1
  H  H15  1  0.59285250  0.63691650  0.69626500  1
  S  S16  1  0.00000000  0.31107800  0.25000000  1
  S  S17  1  0.00000000  0.68892200  0.75000000  1
  S  S18  1  0.50000000  0.81107800  0.25000000  1
  S  S19  1  0.50000000  0.18892200  0.75000000  1
  O  O20  1  0.89037750  0.42539650  0.08666000  1
  O  O21  1  0.10962250  0.42539650  0.41334000  1
  O  O22  1  0.89037750  0.57460350  0.58666000  1
  O  O23  1  0.10962250  0.57460350  0.91334000  1
  O  O24  1  0.68638200  0.63238700  0.80040900  1
  O  O25  1  0.31361800  0.63238700  0.69959100  1
  O  O26  1  0.31361800  0.36761300  0.19959100  1
  O  O27  1  0.68638200  0.36761300  0.30040900  1
  O  O28  1  0.95327600  0.79922800  0.89369600  1
  O  O29  1  0.04672400  0.79922800  0.60630400  1
  O  O30  1  0.04672400  0.20077200  0.10630400  1
  O  O31  1  0.95327600  0.20077200  0.39369600  1
  O  O32  1  0.39037750  0.92539650  0.08666000  1
  O  O33  1  0.60962250  0.92539650  0.41334000  1
  O  O34  1  0.39037750  0.07460350  0.58666000  1
  O  O35  1  0.60962250  0.07460350  0.91334000  1
  O  O36  1  0.18638200  0.13238700  0.80040900  1
  O  O37  1  0.81361800  0.13238700  0.69959100  1
  O  O38  1  0.81361800  0.86761300  0.19959100  1
  O  O39  1  0.18638200  0.86761300  0.30040900  1
  O  O40  1  0.45327600  0.29922800  0.89369600  1
  O  O41  1  0.54672400  0.29922800  0.60630400  1
  O  O42  1  0.54672400  0.70077200  0.10630400  1
  O  O43  1  0.45327600  0.70077200  0.39369600  1
