# generated using pymatgen
data_Nd11In9Pd4
_symmetry_space_group_name_H-M   'P 1'
_cell_length_a   15.24788800
_cell_length_b   22.92407600
_cell_length_c   3.76153000
_cell_angle_alpha   90.00000000
_cell_angle_beta   90.00000000
_cell_angle_gamma   90.00000000
_symmetry_Int_Tables_number   1
_chemical_formula_structural   Nd11In9Pd4
_chemical_formula_sum   'Nd22 In18 Pd8'
_cell_volume   1314.81927693
_cell_formula_units_Z   2
loop_
 _symmetry_equiv_pos_site_id
 _symmetry_equiv_pos_as_xyz
  1  'x, y, z'
loop_
 _atom_site_type_symbol
 _atom_site_label
 _atom_site_symmetry_multiplicity
 _atom_site_fract_x
 _atom_site_fract_y
 _atom_site_fract_z
 _atom_site_occupancy
  Nd  Nd0  1  0.29387800  0.00000000  0.00000000  1
  Nd  Nd1  1  0.24302900  0.82888000  0.00000000  1
  Nd  Nd2  1  0.50000000  0.13739800  0.00000000  1
  Nd  Nd3  1  0.50000000  0.33937200  0.00000000  1
  Nd  Nd4  1  0.50000000  0.86260200  0.00000000  1
  Nd  Nd5  1  0.70612200  0.00000000  0.00000000  1
  Nd  Nd6  1  0.50000000  0.66062800  0.00000000  1
  Nd  Nd7  1  0.00000000  0.00000000  0.00000000  1
  Nd  Nd8  1  0.24302900  0.17112000  0.00000000  1
  Nd  Nd9  1  0.75697100  0.17112000  0.00000000  1
  Nd  Nd10  1  0.75697100  0.82888000  0.00000000  1
  Nd  Nd11  1  0.79387800  0.50000000  0.00000000  1
  Nd  Nd12  1  0.74302900  0.32888000  0.00000000  1
  Nd  Nd13  1  0.00000000  0.63739800  0.00000000  1
  Nd  Nd14  1  0.00000000  0.83937200  0.00000000  1
  Nd  Nd15  1  0.00000000  0.36260200  0.00000000  1
  Nd  Nd16  1  0.20612200  0.50000000  0.00000000  1
  Nd  Nd17  1  0.00000000  0.16062800  0.00000000  1
  Nd  Nd18  1  0.50000000  0.50000000  0.00000000  1
  Nd  Nd19  1  0.74302900  0.67112000  0.00000000  1
  Nd  Nd20  1  0.25697100  0.67112000  0.00000000  1
  Nd  Nd21  1  0.25697100  0.32888000  0.00000000  1
  In  In22  1  0.85641600  0.07182200  0.50000000  1
  In  In23  1  0.39510350  0.23844250  0.50000000  1
  In  In24  1  0.85641600  0.92817800  0.50000000  1
  In  In25  1  0.39510350  0.76155750  0.50000000  1
  In  In26  1  0.14358400  0.07182200  0.50000000  1
  In  In27  1  0.60489650  0.23844250  0.50000000  1
  In  In28  1  0.50000000  0.00000000  0.00000000  1
  In  In29  1  0.14358400  0.92817800  0.50000000  1
  In  In30  1  0.60489650  0.76155750  0.50000000  1
  In  In31  1  0.35641600  0.57182200  0.50000000  1
  In  In32  1  0.89510350  0.73844250  0.50000000  1
  In  In33  1  0.35641600  0.42817800  0.50000000  1
  In  In34  1  0.89510350  0.26155750  0.50000000  1
  In  In35  1  0.64358400  0.57182200  0.50000000  1
  In  In36  1  0.10489650  0.73844250  0.50000000  1
  In  In37  1  0.00000000  0.50000000  0.00000000  1
  In  In38  1  0.64358400  0.42817800  0.50000000  1
  In  In39  1  0.10489650  0.26155750  0.50000000  1
  Pd  Pd40  1  0.65472450  0.10198850  0.50000000  1
  Pd  Pd41  1  0.34527550  0.89801150  0.50000000  1
  Pd  Pd42  1  0.65472450  0.89801150  0.50000000  1
  Pd  Pd43  1  0.34527550  0.10198850  0.50000000  1
  Pd  Pd44  1  0.15472450  0.60198850  0.50000000  1
  Pd  Pd45  1  0.84527550  0.39801150  0.50000000  1
  Pd  Pd46  1  0.15472450  0.39801150  0.50000000  1
  Pd  Pd47  1  0.84527550  0.60198850  0.50000000  1
