# generated using pymatgen
data_U3As4
_symmetry_space_group_name_H-M   'P 1'
_cell_length_a   8.49806200
_cell_length_b   8.49806200
_cell_length_c   8.49806200
_cell_angle_alpha   90.00000000
_cell_angle_beta   90.00000000
_cell_angle_gamma   90.00000000
_symmetry_Int_Tables_number   1
_chemical_formula_structural   U3As4
_chemical_formula_sum   'U12 As16'
_cell_volume   613.70503427
_cell_formula_units_Z   4
loop_
 _symmetry_equiv_pos_site_id
 _symmetry_equiv_pos_as_xyz
  1  'x, y, z'
loop_
 _atom_site_type_symbol
 _atom_site_label
 _atom_site_symmetry_multiplicity
 _atom_site_fract_x
 _atom_site_fract_y
 _atom_site_fract_z
 _atom_site_occupancy
  U  U0  1  0.00000000  0.75000000  0.12500000  1
  U  U1  1  0.25000000  0.37500000  0.00000000  1
  U  U2  1  0.75000000  0.12500000  0.00000000  1
  U  U3  1  0.12500000  0.00000000  0.75000000  1
  U  U4  1  0.37500000  0.00000000  0.25000000  1
  U  U5  1  0.00000000  0.25000000  0.37500000  1
  U  U6  1  0.50000000  0.25000000  0.62500000  1
  U  U7  1  0.75000000  0.87500000  0.50000000  1
  U  U8  1  0.25000000  0.62500000  0.50000000  1
  U  U9  1  0.62500000  0.50000000  0.25000000  1
  U  U10  1  0.87500000  0.50000000  0.75000000  1
  U  U11  1  0.50000000  0.75000000  0.87500000  1
  As  As12  1  0.32914300  0.32914300  0.32914300  1
  As  As13  1  0.92085700  0.42085700  0.07914300  1
  As  As14  1  0.42085700  0.07914300  0.92085700  1
  As  As15  1  0.07914300  0.92085700  0.42085700  1
  As  As16  1  0.67085700  0.82914300  0.17085700  1
  As  As17  1  0.82914300  0.17085700  0.67085700  1
  As  As18  1  0.07914300  0.07914300  0.07914300  1
  As  As19  1  0.17085700  0.67085700  0.82914300  1
  As  As20  1  0.82914300  0.82914300  0.82914300  1
  As  As21  1  0.42085700  0.92085700  0.57914300  1
  As  As22  1  0.92085700  0.57914300  0.42085700  1
  As  As23  1  0.57914300  0.42085700  0.92085700  1
  As  As24  1  0.17085700  0.32914300  0.67085700  1
  As  As25  1  0.32914300  0.67085700  0.17085700  1
  As  As26  1  0.57914300  0.57914300  0.57914300  1
  As  As27  1  0.67085700  0.17085700  0.32914300  1
