# generated using pymatgen
data_Ba14Na11Li5N6
_symmetry_space_group_name_H-M   'P 1'
_cell_length_a   17.90022600
_cell_length_b   17.90022600
_cell_length_c   17.90022600
_cell_angle_alpha   90.00000000
_cell_angle_beta   90.00000000
_cell_angle_gamma   90.00000000
_symmetry_Int_Tables_number   1
_chemical_formula_structural   Ba14Na11Li5N6
_chemical_formula_sum   'Ba56 Na44 Li20 N24'
_cell_volume   5735.55624072
_cell_formula_units_Z   4
loop_
 _symmetry_equiv_pos_site_id
 _symmetry_equiv_pos_as_xyz
  1  'x, y, z'
loop_
 _atom_site_type_symbol
 _atom_site_label
 _atom_site_symmetry_multiplicity
 _atom_site_fract_x
 _atom_site_fract_y
 _atom_site_fract_z
 _atom_site_occupancy
  Ba  Ba0  1  0.50000000  0.71463175  0.00000000  1
  Ba  Ba1  1  0.39761325  0.60238675  0.39761325  1
  Ba  Ba2  1  0.89761325  0.39761325  0.10238675  1
  Ba  Ba3  1  0.60324725  0.39675275  0.60324725  1
  Ba  Ba4  1  0.60324725  0.60324725  0.39675275  1
  Ba  Ba5  1  0.39675275  0.60324725  0.60324725  1
  Ba  Ba6  1  0.71463175  0.50000000  0.00000000  1
  Ba  Ba7  1  0.50000000  0.50000000  0.21463175  1
  Ba  Ba8  1  0.50000000  0.50000000  0.78536825  1
  Ba  Ba9  1  0.60238675  0.39761325  0.39761325  1
  Ba  Ba10  1  0.39675275  0.39675275  0.39675275  1
  Ba  Ba11  1  0.28536825  0.50000000  0.00000000  1
  Ba  Ba12  1  0.10238675  0.60238675  0.10238675  1
  Ba  Ba13  1  0.50000000  0.28536825  0.00000000  1
  Ba  Ba14  1  0.50000000  0.21463175  0.50000000  1
  Ba  Ba15  1  0.39761325  0.10238675  0.89761325  1
  Ba  Ba16  1  0.89761325  0.89761325  0.60238675  1
  Ba  Ba17  1  0.60324725  0.89675275  0.10324725  1
  Ba  Ba18  1  0.60324725  0.10324725  0.89675275  1
  Ba  Ba19  1  0.39675275  0.10324725  0.10324725  1
  Ba  Ba20  1  0.71463175  0.00000000  0.50000000  1
  Ba  Ba21  1  0.50000000  0.00000000  0.71463175  1
  Ba  Ba22  1  0.50000000  0.00000000  0.28536825  1
  Ba  Ba23  1  0.60238675  0.89761325  0.89761325  1
  Ba  Ba24  1  0.39675275  0.89675275  0.89675275  1
  Ba  Ba25  1  0.28536825  0.00000000  0.50000000  1
  Ba  Ba26  1  0.10238675  0.10238675  0.60238675  1
  Ba  Ba27  1  0.50000000  0.78536825  0.50000000  1
  Ba  Ba28  1  0.00000000  0.71463175  0.50000000  1
  Ba  Ba29  1  0.89761325  0.60238675  0.89761325  1
  Ba  Ba30  1  0.39761325  0.39761325  0.60238675  1
  Ba  Ba31  1  0.10324725  0.39675275  0.10324725  1
  Ba  Ba32  1  0.10324725  0.60324725  0.89675275  1
  Ba  Ba33  1  0.89675275  0.60324725  0.10324725  1
  Ba  Ba34  1  0.21463175  0.50000000  0.50000000  1
  Ba  Ba35  1  0.00000000  0.50000000  0.71463175  1
  Ba  Ba36  1  0.00000000  0.50000000  0.28536825  1
  Ba  Ba37  1  0.10238675  0.39761325  0.89761325  1
  Ba  Ba38  1  0.89675275  0.39675275  0.89675275  1
  Ba  Ba39  1  0.78536825  0.50000000  0.50000000  1
  Ba  Ba40  1  0.60238675  0.60238675  0.60238675  1
  Ba  Ba41  1  0.00000000  0.28536825  0.50000000  1
  Ba  Ba42  1  0.00000000  0.21463175  0.00000000  1
  Ba  Ba43  1  0.89761325  0.10238675  0.39761325  1
  Ba  Ba44  1  0.39761325  0.89761325  0.10238675  1
  Ba  Ba45  1  0.10324725  0.89675275  0.60324725  1
  Ba  Ba46  1  0.10324725  0.10324725  0.39675275  1
  Ba  Ba47  1  0.89675275  0.10324725  0.60324725  1
  Ba  Ba48  1  0.21463175  0.00000000  0.00000000  1
  Ba  Ba49  1  0.00000000  0.00000000  0.21463175  1
  Ba  Ba50  1  0.00000000  0.00000000  0.78536825  1
  Ba  Ba51  1  0.10238675  0.89761325  0.39761325  1
  Ba  Ba52  1  0.89675275  0.89675275  0.39675275  1
  Ba  Ba53  1  0.78536825  0.00000000  0.00000000  1
  Ba  Ba54  1  0.60238675  0.10238675  0.10238675  1
  Ba  Ba55  1  0.00000000  0.78536825  0.00000000  1
  Na  Na56  1  0.32969042  0.67030958  0.17030958  1
  Na  Na57  1  0.25000000  0.48964275  0.25000000  1
  Na  Na58  1  0.67030958  0.32969042  0.17030958  1
  Na  Na59  1  0.48964275  0.25000000  0.25000000  1
  Na  Na60  1  0.75000000  0.51035725  0.25000000  1
  Na  Na61  1  0.50000000  0.50000000  0.00000000  1
  Na  Na62  1  0.01035725  0.25000000  0.25000000  1
  Na  Na63  1  0.17030958  0.67030958  0.32969042  1
  Na  Na64  1  0.75000000  0.25000000  0.98964275  1
  Na  Na65  1  0.75000000  0.25000000  0.51035725  1
  Na  Na66  1  0.82969042  0.32969042  0.32969042  1
  Na  Na67  1  0.32969042  0.17030958  0.67030958  1
  Na  Na68  1  0.25000000  0.98964275  0.75000000  1
  Na  Na69  1  0.67030958  0.82969042  0.67030958  1
  Na  Na70  1  0.48964275  0.75000000  0.75000000  1
  Na  Na71  1  0.75000000  0.01035725  0.75000000  1
  Na  Na72  1  0.50000000  0.00000000  0.50000000  1
  Na  Na73  1  0.01035725  0.75000000  0.75000000  1
  Na  Na74  1  0.17030958  0.17030958  0.82969042  1
  Na  Na75  1  0.75000000  0.75000000  0.48964275  1
  Na  Na76  1  0.75000000  0.75000000  0.01035725  1
  Na  Na77  1  0.82969042  0.82969042  0.82969042  1
  Na  Na78  1  0.82969042  0.67030958  0.67030958  1
  Na  Na79  1  0.75000000  0.48964275  0.75000000  1
  Na  Na80  1  0.17030958  0.32969042  0.67030958  1
  Na  Na81  1  0.98964275  0.25000000  0.75000000  1
  Na  Na82  1  0.25000000  0.51035725  0.75000000  1
  Na  Na83  1  0.00000000  0.50000000  0.50000000  1
  Na  Na84  1  0.51035725  0.25000000  0.75000000  1
  Na  Na85  1  0.67030958  0.67030958  0.82969042  1
  Na  Na86  1  0.25000000  0.25000000  0.48964275  1
  Na  Na87  1  0.25000000  0.25000000  0.01035725  1
  Na  Na88  1  0.32969042  0.32969042  0.82969042  1
  Na  Na89  1  0.82969042  0.17030958  0.17030958  1
  Na  Na90  1  0.75000000  0.98964275  0.25000000  1
  Na  Na91  1  0.17030958  0.82969042  0.17030958  1
  Na  Na92  1  0.98964275  0.75000000  0.25000000  1
  Na  Na93  1  0.25000000  0.01035725  0.25000000  1
  Na  Na94  1  0.00000000  0.00000000  0.00000000  1
  Na  Na95  1  0.51035725  0.75000000  0.25000000  1
  Na  Na96  1  0.67030958  0.17030958  0.32969042  1
  Na  Na97  1  0.25000000  0.75000000  0.98964275  1
  Na  Na98  1  0.25000000  0.75000000  0.51035725  1
  Na  Na99  1  0.32969042  0.82969042  0.32969042  1
  Li  Li100  1  0.35697325  0.64302675  0.85697325  1
  Li  Li101  1  0.35697325  0.35697325  0.14302675  1
  Li  Li102  1  0.64302675  0.35697325  0.85697325  1
  Li  Li103  1  0.64302675  0.64302675  0.14302675  1
  Li  Li104  1  0.50000000  0.50000000  0.50000000  1
  Li  Li105  1  0.35697325  0.14302675  0.35697325  1
  Li  Li106  1  0.35697325  0.85697325  0.64302675  1
  Li  Li107  1  0.64302675  0.85697325  0.35697325  1
  Li  Li108  1  0.64302675  0.14302675  0.64302675  1
  Li  Li109  1  0.50000000  0.00000000  0.00000000  1
  Li  Li110  1  0.85697325  0.64302675  0.35697325  1
  Li  Li111  1  0.85697325  0.35697325  0.64302675  1
  Li  Li112  1  0.14302675  0.35697325  0.35697325  1
  Li  Li113  1  0.14302675  0.64302675  0.64302675  1
  Li  Li114  1  0.00000000  0.50000000  0.00000000  1
  Li  Li115  1  0.85697325  0.14302675  0.85697325  1
  Li  Li116  1  0.85697325  0.85697325  0.14302675  1
  Li  Li117  1  0.14302675  0.85697325  0.85697325  1
  Li  Li118  1  0.14302675  0.14302675  0.14302675  1
  Li  Li119  1  0.00000000  0.00000000  0.50000000  1
  N  N120  1  0.35455325  0.50000000  0.50000000  1
  N  N121  1  0.64544675  0.50000000  0.50000000  1
  N  N122  1  0.50000000  0.50000000  0.35455325  1
  N  N123  1  0.50000000  0.35455325  0.50000000  1
  N  N124  1  0.50000000  0.64544675  0.50000000  1
  N  N125  1  0.50000000  0.50000000  0.64544675  1
  N  N126  1  0.35455325  0.00000000  0.00000000  1
  N  N127  1  0.64544675  0.00000000  0.00000000  1
  N  N128  1  0.50000000  0.00000000  0.85455325  1
  N  N129  1  0.50000000  0.85455325  0.00000000  1
  N  N130  1  0.50000000  0.14544675  0.00000000  1
  N  N131  1  0.50000000  0.00000000  0.14544675  1
  N  N132  1  0.85455325  0.50000000  0.00000000  1
  N  N133  1  0.14544675  0.50000000  0.00000000  1
  N  N134  1  0.00000000  0.50000000  0.85455325  1
  N  N135  1  0.00000000  0.35455325  0.00000000  1
  N  N136  1  0.00000000  0.64544675  0.00000000  1
  N  N137  1  0.00000000  0.50000000  0.14544675  1
  N  N138  1  0.85455325  0.00000000  0.50000000  1
  N  N139  1  0.14544675  0.00000000  0.50000000  1
  N  N140  1  0.00000000  0.00000000  0.35455325  1
  N  N141  1  0.00000000  0.85455325  0.50000000  1
  N  N142  1  0.00000000  0.14544675  0.50000000  1
  N  N143  1  0.00000000  0.00000000  0.64544675  1
