# generated using pymatgen
data_Ti3Zn3N
_symmetry_space_group_name_H-M   'P 1'
_cell_length_a   11.51360400
_cell_length_b   11.51360400
_cell_length_c   11.51360400
_cell_angle_alpha   90.00000000
_cell_angle_beta   90.00000000
_cell_angle_gamma   90.00000000
_symmetry_Int_Tables_number   1
_chemical_formula_structural   Ti3Zn3N
_chemical_formula_sum   'Ti48 Zn48 N16'
_cell_volume   1526.27877439
_cell_formula_units_Z   16
loop_
 _symmetry_equiv_pos_site_id
 _symmetry_equiv_pos_as_xyz
  1  'x, y, z'
loop_
 _atom_site_type_symbol
 _atom_site_label
 _atom_site_symmetry_multiplicity
 _atom_site_fract_x
 _atom_site_fract_y
 _atom_site_fract_z
 _atom_site_occupancy
  Ti  Ti0  1  0.00000000  0.00000000  0.32145300  1
  Ti  Ti1  1  0.50000000  0.00000000  0.17854700  1
  Ti  Ti2  1  0.50000000  0.32145300  0.50000000  1
  Ti  Ti3  1  0.50000000  0.67854700  0.50000000  1
  Ti  Ti4  1  0.82145300  0.00000000  0.50000000  1
  Ti  Ti5  1  0.17854700  0.00000000  0.50000000  1
  Ti  Ti6  1  0.25000000  0.75000000  0.42854700  1
  Ti  Ti7  1  0.25000000  0.75000000  0.07145300  1
  Ti  Ti8  1  0.25000000  0.92854700  0.25000000  1
  Ti  Ti9  1  0.25000000  0.57145300  0.25000000  1
  Ti  Ti10  1  0.42854700  0.75000000  0.25000000  1
  Ti  Ti11  1  0.07145300  0.75000000  0.25000000  1
  Ti  Ti12  1  0.00000000  0.50000000  0.82145300  1
  Ti  Ti13  1  0.50000000  0.50000000  0.67854700  1
  Ti  Ti14  1  0.50000000  0.82145300  0.00000000  1
  Ti  Ti15  1  0.50000000  0.17854700  0.00000000  1
  Ti  Ti16  1  0.82145300  0.50000000  0.00000000  1
  Ti  Ti17  1  0.17854700  0.50000000  0.00000000  1
  Ti  Ti18  1  0.25000000  0.25000000  0.92854700  1
  Ti  Ti19  1  0.25000000  0.25000000  0.57145300  1
  Ti  Ti20  1  0.25000000  0.42854700  0.75000000  1
  Ti  Ti21  1  0.25000000  0.07145300  0.75000000  1
  Ti  Ti22  1  0.42854700  0.25000000  0.75000000  1
  Ti  Ti23  1  0.07145300  0.25000000  0.75000000  1
  Ti  Ti24  1  0.50000000  0.00000000  0.82145300  1
  Ti  Ti25  1  0.00000000  0.00000000  0.67854700  1
  Ti  Ti26  1  0.00000000  0.32145300  0.00000000  1
  Ti  Ti27  1  0.00000000  0.67854700  0.00000000  1
  Ti  Ti28  1  0.32145300  0.00000000  0.00000000  1
  Ti  Ti29  1  0.67854700  0.00000000  0.00000000  1
  Ti  Ti30  1  0.75000000  0.75000000  0.92854700  1
  Ti  Ti31  1  0.75000000  0.75000000  0.57145300  1
  Ti  Ti32  1  0.75000000  0.92854700  0.75000000  1
  Ti  Ti33  1  0.75000000  0.57145300  0.75000000  1
  Ti  Ti34  1  0.92854700  0.75000000  0.75000000  1
  Ti  Ti35  1  0.57145300  0.75000000  0.75000000  1
  Ti  Ti36  1  0.50000000  0.50000000  0.32145300  1
  Ti  Ti37  1  0.00000000  0.50000000  0.17854700  1
  Ti  Ti38  1  0.00000000  0.82145300  0.50000000  1
  Ti  Ti39  1  0.00000000  0.17854700  0.50000000  1
  Ti  Ti40  1  0.32145300  0.50000000  0.50000000  1
  Ti  Ti41  1  0.67854700  0.50000000  0.50000000  1
  Ti  Ti42  1  0.75000000  0.25000000  0.42854700  1
  Ti  Ti43  1  0.75000000  0.25000000  0.07145300  1
  Ti  Ti44  1  0.75000000  0.42854700  0.25000000  1
  Ti  Ti45  1  0.75000000  0.07145300  0.25000000  1
  Ti  Ti46  1  0.92854700  0.25000000  0.25000000  1
  Ti  Ti47  1  0.57145300  0.25000000  0.25000000  1
  Zn  Zn48  1  0.62500000  0.87500000  0.37500000  1
  Zn  Zn49  1  0.37500000  0.12500000  0.37500000  1
  Zn  Zn50  1  0.87500000  0.87500000  0.12500000  1
  Zn  Zn51  1  0.12500000  0.12500000  0.12500000  1
  Zn  Zn52  1  0.91484067  0.08515933  0.08515933  1
  Zn  Zn53  1  0.08515933  0.91484067  0.08515933  1
  Zn  Zn54  1  0.58515933  0.08515933  0.41484067  1
  Zn  Zn55  1  0.41484067  0.91484067  0.41484067  1
  Zn  Zn56  1  0.33515933  0.16484067  0.16484067  1
  Zn  Zn57  1  0.16484067  0.33515933  0.16484067  1
  Zn  Zn58  1  0.16484067  0.16484067  0.33515933  1
  Zn  Zn59  1  0.33515933  0.33515933  0.33515933  1
  Zn  Zn60  1  0.62500000  0.37500000  0.87500000  1
  Zn  Zn61  1  0.37500000  0.62500000  0.87500000  1
  Zn  Zn62  1  0.87500000  0.37500000  0.62500000  1
  Zn  Zn63  1  0.12500000  0.62500000  0.62500000  1
  Zn  Zn64  1  0.91484067  0.58515933  0.58515933  1
  Zn  Zn65  1  0.08515933  0.41484067  0.58515933  1
  Zn  Zn66  1  0.58515933  0.58515933  0.91484067  1
  Zn  Zn67  1  0.41484067  0.41484067  0.91484067  1
  Zn  Zn68  1  0.33515933  0.66484067  0.66484067  1
  Zn  Zn69  1  0.16484067  0.83515933  0.66484067  1
  Zn  Zn70  1  0.16484067  0.66484067  0.83515933  1
  Zn  Zn71  1  0.33515933  0.83515933  0.83515933  1
  Zn  Zn72  1  0.12500000  0.87500000  0.87500000  1
  Zn  Zn73  1  0.87500000  0.12500000  0.87500000  1
  Zn  Zn74  1  0.37500000  0.87500000  0.62500000  1
  Zn  Zn75  1  0.62500000  0.12500000  0.62500000  1
  Zn  Zn76  1  0.41484067  0.08515933  0.58515933  1
  Zn  Zn77  1  0.58515933  0.91484067  0.58515933  1
  Zn  Zn78  1  0.08515933  0.08515933  0.91484067  1
  Zn  Zn79  1  0.91484067  0.91484067  0.91484067  1
  Zn  Zn80  1  0.83515933  0.16484067  0.66484067  1
  Zn  Zn81  1  0.66484067  0.33515933  0.66484067  1
  Zn  Zn82  1  0.66484067  0.16484067  0.83515933  1
  Zn  Zn83  1  0.83515933  0.33515933  0.83515933  1
  Zn  Zn84  1  0.12500000  0.37500000  0.37500000  1
  Zn  Zn85  1  0.87500000  0.62500000  0.37500000  1
  Zn  Zn86  1  0.37500000  0.37500000  0.12500000  1
  Zn  Zn87  1  0.62500000  0.62500000  0.12500000  1
  Zn  Zn88  1  0.41484067  0.58515933  0.08515933  1
  Zn  Zn89  1  0.58515933  0.41484067  0.08515933  1
  Zn  Zn90  1  0.08515933  0.58515933  0.41484067  1
  Zn  Zn91  1  0.91484067  0.41484067  0.41484067  1
  Zn  Zn92  1  0.83515933  0.66484067  0.16484067  1
  Zn  Zn93  1  0.66484067  0.83515933  0.16484067  1
  Zn  Zn94  1  0.66484067  0.66484067  0.33515933  1
  Zn  Zn95  1  0.83515933  0.83515933  0.33515933  1
  N  N96  1  0.12500000  0.87500000  0.37500000  1
  N  N97  1  0.37500000  0.62500000  0.37500000  1
  N  N98  1  0.37500000  0.87500000  0.12500000  1
  N  N99  1  0.12500000  0.62500000  0.12500000  1
  N  N100  1  0.12500000  0.37500000  0.87500000  1
  N  N101  1  0.37500000  0.12500000  0.87500000  1
  N  N102  1  0.37500000  0.37500000  0.62500000  1
  N  N103  1  0.12500000  0.12500000  0.62500000  1
  N  N104  1  0.62500000  0.87500000  0.87500000  1
  N  N105  1  0.87500000  0.62500000  0.87500000  1
  N  N106  1  0.87500000  0.87500000  0.62500000  1
  N  N107  1  0.62500000  0.62500000  0.62500000  1
  N  N108  1  0.62500000  0.37500000  0.37500000  1
  N  N109  1  0.87500000  0.12500000  0.37500000  1
  N  N110  1  0.87500000  0.37500000  0.12500000  1
  N  N111  1  0.62500000  0.12500000  0.12500000  1
