# generated using pymatgen
data_Sr3In4Pb
_symmetry_space_group_name_H-M   'P 1'
_cell_length_a   5.06111000
_cell_length_b   12.19295800
_cell_length_c   16.94866800
_cell_angle_alpha   90.00000000
_cell_angle_beta   90.00000000
_cell_angle_gamma   90.00000000
_symmetry_Int_Tables_number   1
_chemical_formula_structural   Sr3In4Pb
_chemical_formula_sum   'Sr12 In16 Pb4'
_cell_volume   1045.90063561
_cell_formula_units_Z   4
loop_
 _symmetry_equiv_pos_site_id
 _symmetry_equiv_pos_as_xyz
  1  'x, y, z'
loop_
 _atom_site_type_symbol
 _atom_site_label
 _atom_site_symmetry_multiplicity
 _atom_site_fract_x
 _atom_site_fract_y
 _atom_site_fract_z
 _atom_site_occupancy
  Sr  Sr0  1  0.50000000  0.41165700  0.88893200  1
  Sr  Sr1  1  0.00000000  0.36390300  0.25000000  1
  Sr  Sr2  1  0.50000000  0.13609700  0.75000000  1
  Sr  Sr3  1  0.00000000  0.08834300  0.11106800  1
  Sr  Sr4  1  0.00000000  0.08834300  0.38893200  1
  Sr  Sr5  1  0.50000000  0.41165700  0.61106800  1
  Sr  Sr6  1  0.00000000  0.91165700  0.88893200  1
  Sr  Sr7  1  0.50000000  0.86390300  0.25000000  1
  Sr  Sr8  1  0.00000000  0.63609700  0.75000000  1
  Sr  Sr9  1  0.50000000  0.58834300  0.11106800  1
  Sr  Sr10  1  0.50000000  0.58834300  0.38893200  1
  Sr  Sr11  1  0.00000000  0.91165700  0.61106800  1
  In  In12  1  0.50000000  0.29302600  0.40289800  1
  In  In13  1  0.00000000  0.20697400  0.90289800  1
  In  In14  1  0.50000000  0.11305200  0.96404200  1
  In  In15  1  0.00000000  0.38694800  0.46404200  1
  In  In16  1  0.50000000  0.29302600  0.09710200  1
  In  In17  1  0.00000000  0.38694800  0.03595800  1
  In  In18  1  0.50000000  0.11305200  0.53595800  1
  In  In19  1  0.00000000  0.20697400  0.59710200  1
  In  In20  1  0.00000000  0.79302600  0.40289800  1
  In  In21  1  0.50000000  0.70697400  0.90289800  1
  In  In22  1  0.00000000  0.61305200  0.96404200  1
  In  In23  1  0.50000000  0.88694800  0.46404200  1
  In  In24  1  0.00000000  0.79302600  0.09710200  1
  In  In25  1  0.50000000  0.88694800  0.03595800  1
  In  In26  1  0.00000000  0.61305200  0.53595800  1
  In  In27  1  0.50000000  0.70697400  0.59710200  1
  Pb  Pb28  1  0.50000000  0.15408900  0.25000000  1
  Pb  Pb29  1  0.00000000  0.34591100  0.75000000  1
  Pb  Pb30  1  0.00000000  0.65408900  0.25000000  1
  Pb  Pb31  1  0.50000000  0.84591100  0.75000000  1
