# generated using pymatgen
data_Sr8Co8O23
_symmetry_space_group_name_H-M   'P 1'
_cell_length_a   10.99865600
_cell_length_b   10.99865600
_cell_length_c   7.74606800
_cell_angle_alpha   90.00000000
_cell_angle_beta   90.00000000
_cell_angle_gamma   90.00000000
_symmetry_Int_Tables_number   1
_chemical_formula_structural   Sr8Co8O23
_chemical_formula_sum   'Sr16 Co16 O46'
_cell_volume   937.04520625
_cell_formula_units_Z   2
loop_
 _symmetry_equiv_pos_site_id
 _symmetry_equiv_pos_as_xyz
  1  'x, y, z'
loop_
 _atom_site_type_symbol
 _atom_site_label
 _atom_site_symmetry_multiplicity
 _atom_site_fract_x
 _atom_site_fract_y
 _atom_site_fract_z
 _atom_site_occupancy
  Sr  Sr0  1  0.25877200  0.00000000  0.00000000  1
  Sr  Sr1  1  0.24500300  0.00000000  0.50000000  1
  Sr  Sr2  1  0.50000000  0.24122800  0.50000000  1
  Sr  Sr3  1  0.75499700  0.00000000  0.50000000  1
  Sr  Sr4  1  0.50000000  0.25499700  0.00000000  1
  Sr  Sr5  1  0.74122800  0.00000000  0.00000000  1
  Sr  Sr6  1  0.50000000  0.75877200  0.50000000  1
  Sr  Sr7  1  0.50000000  0.74500300  0.00000000  1
  Sr  Sr8  1  0.75877200  0.50000000  0.50000000  1
  Sr  Sr9  1  0.74500300  0.50000000  0.00000000  1
  Sr  Sr10  1  0.00000000  0.74122800  0.00000000  1
  Sr  Sr11  1  0.25499700  0.50000000  0.00000000  1
  Sr  Sr12  1  0.00000000  0.75499700  0.50000000  1
  Sr  Sr13  1  0.24122800  0.50000000  0.50000000  1
  Sr  Sr14  1  0.00000000  0.25877200  0.00000000  1
  Sr  Sr15  1  0.00000000  0.24500300  0.50000000  1
  Co  Co16  1  0.75000000  0.25000000  0.75000000  1
  Co  Co17  1  0.75000000  0.25000000  0.25000000  1
  Co  Co18  1  0.50000000  0.00000000  0.75000000  1
  Co  Co19  1  0.00000000  0.00000000  0.75940800  1
  Co  Co20  1  0.75000000  0.75000000  0.75000000  1
  Co  Co21  1  0.00000000  0.00000000  0.24059200  1
  Co  Co22  1  0.75000000  0.75000000  0.25000000  1
  Co  Co23  1  0.50000000  0.00000000  0.25000000  1
  Co  Co24  1  0.25000000  0.75000000  0.25000000  1
  Co  Co25  1  0.25000000  0.75000000  0.75000000  1
  Co  Co26  1  0.00000000  0.50000000  0.25000000  1
  Co  Co27  1  0.50000000  0.50000000  0.25940800  1
  Co  Co28  1  0.25000000  0.25000000  0.25000000  1
  Co  Co29  1  0.50000000  0.50000000  0.74059200  1
  Co  Co30  1  0.25000000  0.25000000  0.75000000  1
  Co  Co31  1  0.00000000  0.50000000  0.75000000  1
  O  O32  1  0.63019950  0.13019950  0.25000000  1
  O  O33  1  0.88342700  0.88342700  0.21804200  1
  O  O34  1  0.63019950  0.86980050  0.25000000  1
  O  O35  1  0.63019950  0.86980050  0.75000000  1
  O  O36  1  0.88342700  0.88342700  0.78195800  1
  O  O37  1  0.76632800  0.76632800  0.50000000  1
  O  O38  1  0.76632800  0.23367200  0.50000000  1
  O  O39  1  0.50000000  0.00000000  0.50000000  1
  O  O40  1  0.88342700  0.11657300  0.78195800  1
  O  O41  1  0.36980050  0.13019950  0.25000000  1
  O  O42  1  0.63019950  0.13019950  0.75000000  1
  O  O43  1  0.36980050  0.86980050  0.25000000  1
  O  O44  1  0.61657300  0.61657300  0.28195800  1
  O  O45  1  0.50000000  0.00000000  0.00000000  1
  O  O46  1  0.36980050  0.13019950  0.75000000  1
  O  O47  1  0.61657300  0.61657300  0.71804200  1
  O  O48  1  0.61657300  0.38342700  0.71804200  1
  O  O49  1  0.61657300  0.38342700  0.28195800  1
  O  O50  1  0.36980050  0.86980050  0.75000000  1
  O  O51  1  0.73367200  0.26632800  0.00000000  1
  O  O52  1  0.73367200  0.73367200  0.00000000  1
  O  O53  1  0.00000000  0.00000000  0.50000000  1
  O  O54  1  0.88342700  0.11657300  0.21804200  1
  O  O55  1  0.13019950  0.63019950  0.75000000  1
  O  O56  1  0.38342700  0.38342700  0.71804200  1
  O  O57  1  0.13019950  0.36980050  0.75000000  1
  O  O58  1  0.13019950  0.36980050  0.25000000  1
  O  O59  1  0.38342700  0.38342700  0.28195800  1
  O  O60  1  0.26632800  0.26632800  0.00000000  1
  O  O61  1  0.26632800  0.73367200  0.00000000  1
  O  O62  1  0.00000000  0.50000000  0.00000000  1
  O  O63  1  0.38342700  0.61657300  0.28195800  1
  O  O64  1  0.86980050  0.63019950  0.75000000  1
  O  O65  1  0.13019950  0.63019950  0.25000000  1
  O  O66  1  0.86980050  0.36980050  0.75000000  1
  O  O67  1  0.11657300  0.11657300  0.78195800  1
  O  O68  1  0.00000000  0.50000000  0.50000000  1
  O  O69  1  0.86980050  0.63019950  0.25000000  1
  O  O70  1  0.11657300  0.11657300  0.21804200  1
  O  O71  1  0.11657300  0.88342700  0.21804200  1
  O  O72  1  0.11657300  0.88342700  0.78195800  1
  O  O73  1  0.86980050  0.36980050  0.25000000  1
  O  O74  1  0.23367200  0.76632800  0.50000000  1
  O  O75  1  0.23367200  0.23367200  0.50000000  1
  O  O76  1  0.50000000  0.50000000  0.00000000  1
  O  O77  1  0.38342700  0.61657300  0.71804200  1
