# generated using pymatgen
data_Cu2H3ClO3
_symmetry_space_group_name_H-M   'P 1'
_cell_length_a   6.91675230
_cell_length_b   6.91675230
_cell_length_c   14.00358585
_cell_angle_alpha   90.00000000
_cell_angle_beta   90.00000000
_cell_angle_gamma   120.00000000
_symmetry_Int_Tables_number   1
_chemical_formula_structural   Cu2H3ClO3
_chemical_formula_sum   'Cu12 H18 Cl6 O18'
_cell_volume   580.19547367
_cell_formula_units_Z   6
loop_
 _symmetry_equiv_pos_site_id
 _symmetry_equiv_pos_as_xyz
  1  'x, y, z'
loop_
 _atom_site_type_symbol
 _atom_site_label
 _atom_site_symmetry_multiplicity
 _atom_site_fract_x
 _atom_site_fract_y
 _atom_site_fract_z
 _atom_site_occupancy
  Cu  Cu0  1  0.33333333  0.66666667  0.16666667  1
  Cu  Cu1  1  0.16666667  0.33333333  0.33333333  1
  Cu  Cu2  1  0.00000000  0.50000000  0.00000000  1
  Cu  Cu3  1  0.50000000  0.50000000  0.00000000  1
  Cu  Cu4  1  1.00000000  1.00000000  0.50000000  1
  Cu  Cu5  1  0.83333333  0.66666667  0.66666667  1
  Cu  Cu6  1  0.66666667  0.83333333  0.33333333  1
  Cu  Cu7  1  0.16666667  0.83333333  0.33333333  1
  Cu  Cu8  1  0.66666667  0.33333333  0.83333333  1
  Cu  Cu9  1  0.50000000  0.00000000  0.00000000  1
  Cu  Cu10  1  0.33333333  0.16666667  0.66666667  1
  Cu  Cu11  1  0.83333333  0.16666667  0.66666667  1
  H  H12  1  0.53233100  0.06466200  0.23958000  1
  H  H13  1  0.93533800  0.46766900  0.23958000  1
  H  H14  1  0.53233100  0.46766900  0.23958000  1
  H  H15  1  0.13433567  0.26867133  0.09375333  1
  H  H16  1  0.73132867  0.86566433  0.09375333  1
  H  H17  1  0.13433567  0.86566433  0.09375333  1
  H  H18  1  0.19899767  0.39799533  0.57291333  1
  H  H19  1  0.60200467  0.80100233  0.57291333  1
  H  H20  1  0.19899767  0.80100233  0.57291333  1
  H  H21  1  0.80100233  0.60200467  0.42708667  1
  H  H22  1  0.39799533  0.19899767  0.42708667  1
  H  H23  1  0.80100233  0.19899767  0.42708667  1
  H  H24  1  0.86566433  0.73132867  0.90624667  1
  H  H25  1  0.26867133  0.13433567  0.90624667  1
  H  H26  1  0.86566433  0.13433567  0.90624667  1
  H  H27  1  0.46766900  0.93533800  0.76042000  1
  H  H28  1  0.06466200  0.53233100  0.76042000  1
  H  H29  1  0.46766900  0.53233100  0.76042000  1
  Cl  Cl30  1  0.33333333  0.66666667  0.47830367  1
  Cl  Cl31  1  0.33333333  0.66666667  0.85502967  1
  Cl  Cl32  1  0.00000000  0.00000000  0.81163700  1
  Cl  Cl33  1  0.00000000  0.00000000  0.18836300  1
  Cl  Cl34  1  0.66666667  0.33333333  0.14497033  1
  Cl  Cl35  1  0.66666667  0.33333333  0.52169633  1
  O  O36  1  0.45824700  0.54175300  0.27208700  1
  O  O37  1  0.45824700  0.91649400  0.27208700  1
  O  O38  1  0.08350600  0.54175300  0.27208700  1
  O  O39  1  0.20841967  0.79158033  0.06124633  1
  O  O40  1  0.20841967  0.41683933  0.06124633  1
  O  O41  1  0.58316067  0.79158033  0.06124633  1
  O  O42  1  0.12491367  0.87508633  0.60542033  1
  O  O43  1  0.12491367  0.24982733  0.60542033  1
  O  O44  1  0.75017267  0.87508633  0.60542033  1
  O  O45  1  0.87508633  0.12491367  0.39457967  1
  O  O46  1  0.87508633  0.75017267  0.39457967  1
  O  O47  1  0.24982733  0.12491367  0.39457967  1
  O  O48  1  0.79158033  0.20841967  0.93875367  1
  O  O49  1  0.79158033  0.58316067  0.93875367  1
  O  O50  1  0.41683933  0.20841967  0.93875367  1
  O  O51  1  0.54175300  0.45824700  0.72791300  1
  O  O52  1  0.54175300  0.08350600  0.72791300  1
  O  O53  1  0.91649400  0.45824700  0.72791300  1
