# generated using pymatgen
data_CrNiF6
_symmetry_space_group_name_H-M   'P 1'
_cell_length_a   5.11026585
_cell_length_b   5.11026585
_cell_length_c   13.49071604
_cell_angle_alpha   90.00000000
_cell_angle_beta   90.00000000
_cell_angle_gamma   120.00000000
_symmetry_Int_Tables_number   1
_chemical_formula_structural   CrNiF6
_chemical_formula_sum   'Cr3 Ni3 F18'
_cell_volume   305.10731591
_cell_formula_units_Z   3
loop_
 _symmetry_equiv_pos_site_id
 _symmetry_equiv_pos_as_xyz
  1  'x, y, z'
loop_
 _atom_site_type_symbol
 _atom_site_label
 _atom_site_symmetry_multiplicity
 _atom_site_fract_x
 _atom_site_fract_y
 _atom_site_fract_z
 _atom_site_occupancy
  Cr  Cr0  1  0.33333333  0.66666667  0.16666667  1
  Cr  Cr1  1  1.00000000  0.00000000  0.50000000  1
  Cr  Cr2  1  0.66666667  0.33333333  0.83333333  1
  Ni  Ni3  1  0.00000000  0.00000000  0.00000000  1
  Ni  Ni4  1  0.66666667  0.33333333  0.33333333  1
  Ni  Ni5  1  0.33333333  0.66666667  0.66666667  1
  F  F6  1  0.60160900  0.98446300  0.24641000  1
  F  F7  1  0.38285400  0.39839100  0.24641000  1
  F  F8  1  0.01553700  0.61714600  0.24641000  1
  F  F9  1  0.65112967  0.71618733  0.08692333  1
  F  F10  1  0.28381267  0.93494233  0.08692333  1
  F  F11  1  0.06505767  0.34887033  0.08692333  1
  F  F12  1  0.26827567  0.31779633  0.57974333  1
  F  F13  1  0.04952067  0.73172433  0.57974333  1
  F  F14  1  0.68220367  0.95047933  0.57974333  1
  F  F15  1  0.31779633  0.04952067  0.42025667  1
  F  F16  1  0.95047933  0.26827567  0.42025667  1
  F  F17  1  0.73172433  0.68220367  0.42025667  1
  F  F18  1  0.93494233  0.65112967  0.91307667  1
  F  F19  1  0.71618733  0.06505767  0.91307667  1
  F  F20  1  0.34887033  0.28381267  0.91307667  1
  F  F21  1  0.98446300  0.38285400  0.75359000  1
  F  F22  1  0.61714600  0.60160900  0.75359000  1
  F  F23  1  0.39839100  0.01553700  0.75359000  1
