# generated using pymatgen
data_CsCoF3
_symmetry_space_group_name_H-M   'P 1'
_cell_length_a   6.28087385
_cell_length_b   6.28087385
_cell_length_c   22.76529560
_cell_angle_alpha   90.00000000
_cell_angle_beta   90.00000000
_cell_angle_gamma   120.00000000
_symmetry_Int_Tables_number   1
_chemical_formula_structural   CsCoF3
_chemical_formula_sum   'Cs9 Co9 F27'
_cell_volume   777.75724888
_cell_formula_units_Z   9
loop_
 _symmetry_equiv_pos_site_id
 _symmetry_equiv_pos_as_xyz
  1  'x, y, z'
loop_
 _atom_site_type_symbol
 _atom_site_label
 _atom_site_symmetry_multiplicity
 _atom_site_fract_x
 _atom_site_fract_y
 _atom_site_fract_z
 _atom_site_occupancy
  Cs  Cs0  1  0.00000000  0.00000000  0.21395700  1
  Cs  Cs1  1  0.66666667  0.33333333  0.11937633  1
  Cs  Cs2  1  0.00000000  0.00000000  0.00000000  1
  Cs  Cs3  1  0.66666667  0.33333333  0.54729033  1
  Cs  Cs4  1  0.33333333  0.66666667  0.45270967  1
  Cs  Cs5  1  0.66666667  0.33333333  0.33333333  1
  Cs  Cs6  1  0.33333333  0.66666667  0.88062367  1
  Cs  Cs7  1  0.00000000  0.00000000  0.78604300  1
  Cs  Cs8  1  0.33333333  0.66666667  0.66666667  1
  Co  Co9  1  0.33333333  0.66666667  0.04490867  1
  Co  Co10  1  0.33333333  0.66666667  0.28842467  1
  Co  Co11  1  0.33333333  0.66666667  0.16666667  1
  Co  Co12  1  0.00000000  0.00000000  0.37824200  1
  Co  Co13  1  0.00000000  0.00000000  0.62175800  1
  Co  Co14  1  1.00000000  1.00000000  0.50000000  1
  Co  Co15  1  0.66666667  0.33333333  0.71157533  1
  Co  Co16  1  0.66666667  0.33333333  0.95509133  1
  Co  Co17  1  0.66666667  0.33333333  0.83333333  1
  F  F18  1  0.47653033  0.52346967  0.22636067  1
  F  F19  1  0.19013633  0.80986367  0.10697267  1
  F  F20  1  0.50000000  0.50000000  0.00000000  1
  F  F21  1  0.04693933  0.52346967  0.22636067  1
  F  F22  1  0.19013633  0.38027267  0.10697267  1
  F  F23  1  0.00000000  0.50000000  0.00000000  1
  F  F24  1  0.47653033  0.95306067  0.22636067  1
  F  F25  1  0.61972733  0.80986367  0.10697267  1
  F  F26  1  0.50000000  0.00000000  0.00000000  1
  F  F27  1  0.14319700  0.85680300  0.55969400  1
  F  F28  1  0.85680300  0.14319700  0.44030600  1
  F  F29  1  0.16666667  0.83333333  0.33333333  1
  F  F30  1  0.71360600  0.85680300  0.55969400  1
  F  F31  1  0.85680300  0.71360600  0.44030600  1
  F  F32  1  0.66666667  0.83333333  0.33333333  1
  F  F33  1  0.14319700  0.28639400  0.55969400  1
  F  F34  1  0.28639400  0.14319700  0.44030600  1
  F  F35  1  0.16666667  0.33333333  0.33333333  1
  F  F36  1  0.80986367  0.19013633  0.89302733  1
  F  F37  1  0.52346967  0.47653033  0.77363933  1
  F  F38  1  0.83333333  0.16666667  0.66666667  1
  F  F39  1  0.38027267  0.19013633  0.89302733  1
  F  F40  1  0.52346967  0.04693933  0.77363933  1
  F  F41  1  0.33333333  0.16666667  0.66666667  1
  F  F42  1  0.80986367  0.61972733  0.89302733  1
  F  F43  1  0.95306067  0.47653033  0.77363933  1
  F  F44  1  0.83333333  0.66666667  0.66666667  1
