# generated using pymatgen
data_LiSn2P5O16
_symmetry_space_group_name_H-M   'P 1'
_cell_length_a   5.20140300
_cell_length_b   7.19029700
_cell_length_c   19.04490539
_cell_angle_alpha   90.00000000
_cell_angle_beta   92.46533379
_cell_angle_gamma   90.00000000
_symmetry_Int_Tables_number   1
_chemical_formula_structural   LiSn2P5O16
_chemical_formula_sum   'Li2 Sn4 P10 O32'
_cell_volume   711.61320252
_cell_formula_units_Z   2
loop_
 _symmetry_equiv_pos_site_id
 _symmetry_equiv_pos_as_xyz
  1  'x, y, z'
loop_
 _atom_site_type_symbol
 _atom_site_label
 _atom_site_symmetry_multiplicity
 _atom_site_fract_x
 _atom_site_fract_y
 _atom_site_fract_z
 _atom_site_occupancy
  Li  Li0  1  0.79091600  0.36857000  0.96572800  1
  Li  Li1  1  0.79091600  0.63143000  0.46572800  1
  Sn  Sn2  1  0.74416600  0.16072100  0.41063300  1
  Sn  Sn3  1  0.25618300  0.15902600  0.09085100  1
  Sn  Sn4  1  0.74416600  0.83927900  0.91063300  1
  Sn  Sn5  1  0.25618300  0.84097400  0.59085100  1
  P  P6  1  0.26183200  0.52558000  0.86802600  1
  P  P7  1  0.26819500  0.85128400  0.41302700  1
  P  P8  1  0.26183200  0.47442000  0.36802600  1
  P  P9  1  0.00509200  0.74021300  0.74894900  1
  P  P10  1  0.74586000  0.14026800  0.58596300  1
  P  P11  1  0.74586000  0.85973200  0.08596300  1
  P  P12  1  0.72362700  0.53497700  0.63025100  1
  P  P13  1  0.72362700  0.46502300  0.13025100  1
  P  P14  1  0.00509200  0.25978700  0.24894900  1
  P  P15  1  0.26819500  0.14871600  0.91302700  1
  O  O16  1  0.21025600  0.60820000  0.79051000  1
  O  O17  1  0.43365600  0.77608400  0.47577100  1
  O  O18  1  0.43365600  0.22391600  0.97577100  1
  O  O19  1  0.21025600  0.39180000  0.29051000  1
  O  O20  1  0.83985300  0.84602500  0.79790800  1
  O  O21  1  0.83122900  0.58844700  0.70809000  1
  O  O22  1  0.74745800  0.31619500  0.63945100  1
  O  O23  1  0.27359300  0.30760100  0.85088200  1
  O  O24  1  0.15216700  0.14292400  0.19899400  1
  O  O25  1  0.98222900  0.12961100  0.92919500  1
  O  O26  1  0.60717400  0.79446400  0.01749700  1
  O  O27  1  0.04597300  0.56850300  0.91584300  1
  O  O28  1  0.53432700  0.57930000  0.89192300  1
  O  O29  1  0.03058500  0.90410400  0.07798500  1
  O  O30  1  0.38265500  0.97425600  0.88006900  1
  O  O31  1  0.04597300  0.43149700  0.41584300  1
  O  O32  1  0.88827800  0.61465000  0.57399300  1
  O  O33  1  0.74745800  0.68380500  0.13945100  1
  O  O34  1  0.53432700  0.42070000  0.39192300  1
  O  O35  1  0.98222900  0.87038900  0.42919500  1
  O  O36  1  0.43905400  0.58127300  0.62429600  1
  O  O37  1  0.59995000  0.98624600  0.62344700  1
  O  O38  1  0.27359300  0.69239900  0.35088200  1
  O  O39  1  0.03058500  0.09589600  0.57798500  1
  O  O40  1  0.60717400  0.20553600  0.51749700  1
  O  O41  1  0.88827800  0.38535000  0.07399300  1
  O  O42  1  0.59995000  0.01375400  0.12344700  1
  O  O43  1  0.43905400  0.41872700  0.12429600  1
  O  O44  1  0.15216700  0.85707600  0.69899400  1
  O  O45  1  0.38265500  0.02574400  0.38006900  1
  O  O46  1  0.83122900  0.41155300  0.20809000  1
  O  O47  1  0.83985300  0.15397500  0.29790800  1
