# generated using pymatgen
data_Cr9In7S24
_symmetry_space_group_name_H-M   'P 1'
_cell_length_a   12.67956600
_cell_length_b   22.13848200
_cell_length_c   7.30458783
_cell_angle_alpha   90.00000000
_cell_angle_beta   124.68953189
_cell_angle_gamma   90.00000000
_symmetry_Int_Tables_number   1
_chemical_formula_structural   Cr9In7S24
_chemical_formula_sum   'Cr18 In14 S48'
_cell_volume   1685.97366928
_cell_formula_units_Z   2
loop_
 _symmetry_equiv_pos_site_id
 _symmetry_equiv_pos_as_xyz
  1  'x, y, z'
loop_
 _atom_site_type_symbol
 _atom_site_label
 _atom_site_symmetry_multiplicity
 _atom_site_fract_x
 _atom_site_fract_y
 _atom_site_fract_z
 _atom_site_occupancy
  Cr  Cr0  1  0.28471400  0.33322500  0.85966600  1
  Cr  Cr1  1  0.04637000  0.41284200  0.38408700  1
  Cr  Cr2  1  0.28381400  0.33368600  0.37367400  1
  Cr  Cr3  1  0.04222450  0.08198550  0.37398300  1
  Cr  Cr4  1  0.54222450  0.41801450  0.37398300  1
  Cr  Cr5  1  0.29009900  0.00000000  0.38663600  1
  Cr  Cr6  1  0.78471400  0.16677500  0.85966600  1
  Cr  Cr7  1  0.54637000  0.08715800  0.38408700  1
  Cr  Cr8  1  0.78381400  0.16631400  0.37367400  1
  Cr  Cr9  1  0.78471400  0.83322500  0.85966600  1
  Cr  Cr10  1  0.54637000  0.91284200  0.38408700  1
  Cr  Cr11  1  0.78381400  0.83368600  0.37367400  1
  Cr  Cr12  1  0.54222450  0.58198550  0.37398300  1
  Cr  Cr13  1  0.04222450  0.91801450  0.37398300  1
  Cr  Cr14  1  0.79009900  0.50000000  0.38663600  1
  Cr  Cr15  1  0.28471400  0.66677500  0.85966600  1
  Cr  Cr16  1  0.04637000  0.58715800  0.38408700  1
  Cr  Cr17  1  0.28381400  0.66631400  0.37367400  1
  In  In18  1  0.16708500  0.16666200  0.00281600  1
  In  In19  1  0.66708500  0.33333800  0.00281600  1
  In  In20  1  0.55120650  0.24341750  0.38668900  1
  In  In21  1  0.66782100  0.00000000  0.99833200  1
  In  In22  1  0.05120650  0.25658250  0.38668900  1
  In  In23  1  0.91127200  0.00000000  0.74723700  1
  In  In24  1  0.29739500  0.00000000  0.86299800  1
  In  In25  1  0.66708500  0.66666200  0.00281600  1
  In  In26  1  0.16708500  0.83333800  0.00281600  1
  In  In27  1  0.05120650  0.74341750  0.38668900  1
  In  In28  1  0.16782100  0.50000000  0.99833200  1
  In  In29  1  0.55120650  0.75658250  0.38668900  1
  In  In30  1  0.41127200  0.50000000  0.74723700  1
  In  In31  1  0.79739500  0.50000000  0.86299800  1
  S  S32  1  0.55776400  0.15870700  0.63443600  1
  S  S33  1  0.79796600  0.23773600  0.63439900  1
  S  S34  1  0.55858850  0.15812450  0.15476500  1
  S  S35  1  0.05776400  0.34129300  0.63443600  1
  S  S36  1  0.79256000  0.23681500  0.12846300  1
  S  S37  1  0.29796600  0.26226400  0.63439900  1
  S  S38  1  0.27546050  0.40648850  0.61045000  1
  S  S39  1  0.05858850  0.34187550  0.15476500  1
  S  S40  1  0.04083200  0.00000000  0.58972600  1
  S  S41  1  0.52220000  0.33976600  0.58228000  1
  S  S42  1  0.30734400  0.40690600  0.13747900  1
  S  S43  1  0.77134800  0.42044500  0.58529500  1
  S  S44  1  0.29256000  0.26318500  0.12846300  1
  S  S45  1  0.27134800  0.07955500  0.58529500  1
  S  S46  1  0.52062600  0.33839800  0.12531700  1
  S  S47  1  0.05635900  0.00000000  0.16662900  1
  S  S48  1  0.52627200  0.00000000  0.58173100  1
  S  S49  1  0.31281750  0.07643450  0.16211300  1
  S  S50  1  0.77546050  0.09351150  0.61045000  1
  S  S51  1  0.81281750  0.42356550  0.16211300  1
  S  S52  1  0.54588500  0.00000000  0.17087700  1
  S  S53  1  0.02220000  0.16023400  0.58228000  1
  S  S54  1  0.80734400  0.09309400  0.13747900  1
  S  S55  1  0.02062600  0.16160200  0.12531700  1
  S  S56  1  0.05776400  0.65870700  0.63443600  1
  S  S57  1  0.29796600  0.73773600  0.63439900  1
  S  S58  1  0.05858850  0.65812450  0.15476500  1
  S  S59  1  0.55776400  0.84129300  0.63443600  1
  S  S60  1  0.29256000  0.73681500  0.12846300  1
  S  S61  1  0.79796600  0.76226400  0.63439900  1
  S  S62  1  0.77546050  0.90648850  0.61045000  1
  S  S63  1  0.55858850  0.84187550  0.15476500  1
  S  S64  1  0.54083200  0.50000000  0.58972600  1
  S  S65  1  0.02220000  0.83976600  0.58228000  1
  S  S66  1  0.80734400  0.90690600  0.13747900  1
  S  S67  1  0.27134800  0.92044500  0.58529500  1
  S  S68  1  0.79256000  0.76318500  0.12846300  1
  S  S69  1  0.77134800  0.57955500  0.58529500  1
  S  S70  1  0.02062600  0.83839800  0.12531700  1
  S  S71  1  0.55635900  0.50000000  0.16662900  1
  S  S72  1  0.02627200  0.50000000  0.58173100  1
  S  S73  1  0.81281750  0.57643450  0.16211300  1
  S  S74  1  0.27546050  0.59351150  0.61045000  1
  S  S75  1  0.31281750  0.92356550  0.16211300  1
  S  S76  1  0.04588500  0.50000000  0.17087700  1
  S  S77  1  0.52220000  0.66023400  0.58228000  1
  S  S78  1  0.30734400  0.59309400  0.13747900  1
  S  S79  1  0.52062600  0.66160200  0.12531700  1
