# generated using pymatgen
data_LiFe2(PO4)3
_symmetry_space_group_name_H-M   'P 1'
_cell_length_a   15.06209800
_cell_length_b   8.67000600
_cell_length_c   8.80097257
_cell_angle_alpha   90.00000000
_cell_angle_beta   124.33333140
_cell_angle_gamma   90.00000000
_symmetry_Int_Tables_number   1
_chemical_formula_structural   LiFe2(PO4)3
_chemical_formula_sum   'Li4 Fe8 P12 O48'
_cell_volume   949.06248689
_cell_formula_units_Z   4
loop_
 _symmetry_equiv_pos_site_id
 _symmetry_equiv_pos_as_xyz
  1  'x, y, z'
loop_
 _atom_site_type_symbol
 _atom_site_label
 _atom_site_symmetry_multiplicity
 _atom_site_fract_x
 _atom_site_fract_y
 _atom_site_fract_z
 _atom_site_occupancy
  Li  Li0  1  0.30243850  0.33629150  0.44987100  1
  Li  Li1  1  0.30243850  0.66370850  0.94987100  1
  Li  Li2  1  0.80243850  0.83629150  0.44987100  1
  Li  Li3  1  0.80243850  0.16370850  0.94987100  1
  Fe  Fe4  1  0.39663500  0.25008700  0.92605600  1
  Fe  Fe5  1  0.10037800  0.75296200  0.56444000  1
  Fe  Fe6  1  0.10037800  0.24703800  0.06444000  1
  Fe  Fe7  1  0.39663500  0.74991300  0.42605600  1
  Fe  Fe8  1  0.89663500  0.75008700  0.92605600  1
  Fe  Fe9  1  0.60037800  0.25296200  0.56444000  1
  Fe  Fe10  1  0.60037800  0.74703800  0.06444000  1
  Fe  Fe11  1  0.89663500  0.24991300  0.42605600  1
  P  P12  1  0.35953100  0.11320800  0.25734300  1
  P  P13  1  0.49835950  0.45948150  0.74230900  1
  P  P14  1  0.49835950  0.54051850  0.24230900  1
  P  P15  1  0.14037850  0.61241150  0.24482600  1
  P  P16  1  0.14037850  0.38758850  0.74482600  1
  P  P17  1  0.35953100  0.88679200  0.75734300  1
  P  P18  1  0.85953100  0.61320800  0.25734300  1
  P  P19  1  0.99835950  0.95948150  0.74230900  1
  P  P20  1  0.99835950  0.04051850  0.24230900  1
  P  P21  1  0.64037850  0.11241150  0.24482600  1
  P  P22  1  0.64037850  0.88758850  0.74482600  1
  P  P23  1  0.85953100  0.38679200  0.75734300  1
  O  O24  1  0.37584950  0.86088450  0.60227400  1
  O  O25  1  0.12364400  0.63468700  0.40044100  1
  O  O26  1  0.08565350  0.13880050  0.24653900  1
  O  O27  1  0.37584950  0.13911550  0.10227400  1
  O  O28  1  0.45188600  0.17975000  0.44446000  1
  O  O29  1  0.42996350  0.44899450  0.05998800  1
  O  O30  1  0.25898800  0.19538600  0.22538300  1
  O  O31  1  0.15943100  0.56369100  0.74519000  1
  O  O32  1  0.34794600  0.06264300  0.76295100  1
  O  O33  1  0.23994450  0.30218950  0.77946600  1
  O  O34  1  0.08565350  0.86119950  0.74653900  1
  O  O35  1  0.41231500  0.35459500  0.73648300  1
  O  O36  1  0.06195500  0.05965100  0.91515800  1
  O  O37  1  0.04621950  0.67491050  0.05905100  1
  O  O38  1  0.34794600  0.93735700  0.26295100  1
  O  O39  1  0.41231500  0.64540500  0.23648300  1
  O  O40  1  0.12364400  0.36531300  0.90044100  1
  O  O41  1  0.04621950  0.32508950  0.55905100  1
  O  O42  1  0.45188600  0.82025000  0.94446000  1
  O  O43  1  0.42996350  0.55100550  0.55998800  1
  O  O44  1  0.25898800  0.80461400  0.72538300  1
  O  O45  1  0.06195500  0.94034900  0.41515800  1
  O  O46  1  0.23994450  0.69781050  0.27946600  1
  O  O47  1  0.15943100  0.43630900  0.24519000  1
  O  O48  1  0.87584950  0.36088450  0.60227400  1
  O  O49  1  0.62364400  0.13468700  0.40044100  1
  O  O50  1  0.58565350  0.63880050  0.24653900  1
  O  O51  1  0.87584950  0.63911550  0.10227400  1
  O  O52  1  0.95188600  0.67975000  0.44446000  1
  O  O53  1  0.92996350  0.94899450  0.05998800  1
  O  O54  1  0.75898800  0.69538600  0.22538300  1
  O  O55  1  0.65943100  0.06369100  0.74519000  1
  O  O56  1  0.84794600  0.56264300  0.76295100  1
  O  O57  1  0.73994450  0.80218950  0.77946600  1
  O  O58  1  0.58565350  0.36119950  0.74653900  1
  O  O59  1  0.91231500  0.85459500  0.73648300  1
  O  O60  1  0.56195500  0.55965100  0.91515800  1
  O  O61  1  0.54621950  0.17491050  0.05905100  1
  O  O62  1  0.84794600  0.43735700  0.26295100  1
  O  O63  1  0.91231500  0.14540500  0.23648300  1
  O  O64  1  0.62364400  0.86531300  0.90044100  1
  O  O65  1  0.54621950  0.82508950  0.55905100  1
  O  O66  1  0.95188600  0.32025000  0.94446000  1
  O  O67  1  0.92996350  0.05100550  0.55998800  1
  O  O68  1  0.75898800  0.30461400  0.72538300  1
  O  O69  1  0.56195500  0.44034900  0.41515800  1
  O  O70  1  0.73994450  0.19781050  0.27946600  1
  O  O71  1  0.65943100  0.93630900  0.24519000  1
