# generated using pymatgen
data_NdCu9Sn4
_symmetry_space_group_name_H-M   'P 1'
_cell_length_a   8.63561000
_cell_length_b   8.63561000
_cell_length_c   12.43614200
_cell_angle_alpha   90.00000000
_cell_angle_beta   90.00000000
_cell_angle_gamma   90.00000000
_symmetry_Int_Tables_number   1
_chemical_formula_structural   NdCu9Sn4
_chemical_formula_sum   'Nd4 Cu36 Sn16'
_cell_volume   927.40986973
_cell_formula_units_Z   4
loop_
 _symmetry_equiv_pos_site_id
 _symmetry_equiv_pos_as_xyz
  1  'x, y, z'
loop_
 _atom_site_type_symbol
 _atom_site_label
 _atom_site_symmetry_multiplicity
 _atom_site_fract_x
 _atom_site_fract_y
 _atom_site_fract_z
 _atom_site_occupancy
  Nd  Nd0  1  0.50000000  0.50000000  0.25000000  1
  Nd  Nd1  1  0.00000000  0.00000000  0.25000000  1
  Nd  Nd2  1  0.00000000  0.00000000  0.75000000  1
  Nd  Nd3  1  0.50000000  0.50000000  0.75000000  1
  Cu  Cu4  1  0.05562100  0.19911500  0.00000000  1
  Cu  Cu5  1  0.89095000  0.60905000  0.17373400  1
  Cu  Cu6  1  0.89095000  0.39095000  0.32626600  1
  Cu  Cu7  1  0.39095000  0.89095000  0.17373400  1
  Cu  Cu8  1  0.69911500  0.55562100  0.00000000  1
  Cu  Cu9  1  0.44437900  0.69911500  0.00000000  1
  Cu  Cu10  1  0.94437900  0.80088500  0.00000000  1
  Cu  Cu11  1  0.60905000  0.89095000  0.32626600  1
  Cu  Cu12  1  0.80088500  0.05562100  0.00000000  1
  Cu  Cu13  1  0.10905000  0.60905000  0.32626600  1
  Cu  Cu14  1  0.60905000  0.10905000  0.17373400  1
  Cu  Cu15  1  0.19911500  0.94437900  0.00000000  1
  Cu  Cu16  1  0.55562100  0.30088500  0.00000000  1
  Cu  Cu17  1  0.39095000  0.10905000  0.32626600  1
  Cu  Cu18  1  0.30088500  0.44437900  0.00000000  1
  Cu  Cu19  1  0.00000000  0.50000000  0.00000000  1
  Cu  Cu20  1  0.50000000  0.00000000  0.00000000  1
  Cu  Cu21  1  0.10905000  0.39095000  0.17373400  1
  Cu  Cu22  1  0.55562100  0.69911500  0.50000000  1
  Cu  Cu23  1  0.39095000  0.10905000  0.67373400  1
  Cu  Cu24  1  0.39095000  0.89095000  0.82626600  1
  Cu  Cu25  1  0.89095000  0.39095000  0.67373400  1
  Cu  Cu26  1  0.19911500  0.05562100  0.50000000  1
  Cu  Cu27  1  0.94437900  0.19911500  0.50000000  1
  Cu  Cu28  1  0.44437900  0.30088500  0.50000000  1
  Cu  Cu29  1  0.10905000  0.39095000  0.82626600  1
  Cu  Cu30  1  0.30088500  0.55562100  0.50000000  1
  Cu  Cu31  1  0.60905000  0.10905000  0.82626600  1
  Cu  Cu32  1  0.10905000  0.60905000  0.67373400  1
  Cu  Cu33  1  0.69911500  0.44437900  0.50000000  1
  Cu  Cu34  1  0.05562100  0.80088500  0.50000000  1
  Cu  Cu35  1  0.89095000  0.60905000  0.82626600  1
  Cu  Cu36  1  0.80088500  0.94437900  0.50000000  1
  Cu  Cu37  1  0.50000000  0.00000000  0.50000000  1
  Cu  Cu38  1  0.00000000  0.50000000  0.50000000  1
  Cu  Cu39  1  0.60905000  0.89095000  0.67373400  1
  Sn  Sn40  1  0.31494500  0.18505500  0.12729800  1
  Sn  Sn41  1  0.18505500  0.68505500  0.12729800  1
  Sn  Sn42  1  0.18505500  0.31494500  0.37270200  1
  Sn  Sn43  1  0.68505500  0.81494500  0.12729800  1
  Sn  Sn44  1  0.81494500  0.68505500  0.37270200  1
  Sn  Sn45  1  0.68505500  0.18505500  0.37270200  1
  Sn  Sn46  1  0.31494500  0.81494500  0.37270200  1
  Sn  Sn47  1  0.81494500  0.31494500  0.12729800  1
  Sn  Sn48  1  0.81494500  0.68505500  0.62729800  1
  Sn  Sn49  1  0.68505500  0.18505500  0.62729800  1
  Sn  Sn50  1  0.68505500  0.81494500  0.87270200  1
  Sn  Sn51  1  0.18505500  0.31494500  0.62729800  1
  Sn  Sn52  1  0.31494500  0.18505500  0.87270200  1
  Sn  Sn53  1  0.18505500  0.68505500  0.87270200  1
  Sn  Sn54  1  0.81494500  0.31494500  0.87270200  1
  Sn  Sn55  1  0.31494500  0.81494500  0.62729800  1
