# generated using pymatgen
data_Ba(Cu5P2)2
_symmetry_space_group_name_H-M   'P 1'
_cell_length_a   23.35219600
_cell_length_b   3.88875600
_cell_length_c   9.54776865
_cell_angle_alpha   90.00000000
_cell_angle_beta   92.54868011
_cell_angle_gamma   90.00000000
_symmetry_Int_Tables_number   1
_chemical_formula_structural   Ba(Cu5P2)2
_chemical_formula_sum   'Ba4 Cu40 P16'
_cell_volume   866.18466740
_cell_formula_units_Z   4
loop_
 _symmetry_equiv_pos_site_id
 _symmetry_equiv_pos_as_xyz
  1  'x, y, z'
loop_
 _atom_site_type_symbol
 _atom_site_label
 _atom_site_symmetry_multiplicity
 _atom_site_fract_x
 _atom_site_fract_y
 _atom_site_fract_z
 _atom_site_occupancy
  Ba  Ba0  1  0.64327600  0.50000000  0.78262800  1
  Ba  Ba1  1  0.85672400  0.00000000  0.21737200  1
  Ba  Ba2  1  0.14327600  0.00000000  0.78262800  1
  Ba  Ba3  1  0.35672400  0.50000000  0.21737200  1
  Cu  Cu4  1  0.65088900  0.50000000  0.14764600  1
  Cu  Cu5  1  0.95122200  0.00000000  0.92755100  1
  Cu  Cu6  1  0.77663600  0.50000000  0.43167500  1
  Cu  Cu7  1  0.54877800  0.50000000  0.07244900  1
  Cu  Cu8  1  0.78734000  0.50000000  0.69845200  1
  Cu  Cu9  1  0.66661900  0.50000000  0.42761100  1
  Cu  Cu10  1  0.72336400  0.00000000  0.56832500  1
  Cu  Cu11  1  0.58583700  0.00000000  0.27241300  1
  Cu  Cu12  1  0.52600800  0.00000000  0.88210300  1
  Cu  Cu13  1  0.94287800  0.00000000  0.54794700  1
  Cu  Cu14  1  0.71370200  0.00000000  0.03516200  1
  Cu  Cu15  1  0.84911100  0.00000000  0.85235400  1
  Cu  Cu16  1  0.83338100  0.00000000  0.57238900  1
  Cu  Cu17  1  0.71266000  0.00000000  0.30154800  1
  Cu  Cu18  1  0.96652900  0.50000000  0.38172700  1
  Cu  Cu19  1  0.97399200  0.50000000  0.11789700  1
  Cu  Cu20  1  0.91416300  0.50000000  0.72758700  1
  Cu  Cu21  1  0.53347100  0.00000000  0.61827300  1
  Cu  Cu22  1  0.55712200  0.50000000  0.45205300  1
  Cu  Cu23  1  0.78629800  0.50000000  0.96483800  1
  Cu  Cu24  1  0.15088900  0.00000000  0.14764600  1
  Cu  Cu25  1  0.45122200  0.50000000  0.92755100  1
  Cu  Cu26  1  0.27663600  0.00000000  0.43167500  1
  Cu  Cu27  1  0.04877800  0.00000000  0.07244900  1
  Cu  Cu28  1  0.28734000  0.00000000  0.69845200  1
  Cu  Cu29  1  0.16661900  0.00000000  0.42761100  1
  Cu  Cu30  1  0.22336400  0.50000000  0.56832500  1
  Cu  Cu31  1  0.08583700  0.50000000  0.27241300  1
  Cu  Cu32  1  0.02600800  0.50000000  0.88210300  1
  Cu  Cu33  1  0.44287800  0.50000000  0.54794700  1
  Cu  Cu34  1  0.21370200  0.50000000  0.03516200  1
  Cu  Cu35  1  0.34911100  0.50000000  0.85235400  1
  Cu  Cu36  1  0.33338100  0.50000000  0.57238900  1
  Cu  Cu37  1  0.21266000  0.50000000  0.30154800  1
  Cu  Cu38  1  0.46652900  0.00000000  0.38172700  1
  Cu  Cu39  1  0.47399200  0.00000000  0.11789700  1
  Cu  Cu40  1  0.41416300  0.00000000  0.72758700  1
  Cu  Cu41  1  0.03347100  0.50000000  0.61827300  1
  Cu  Cu42  1  0.05712200  0.00000000  0.45205300  1
  Cu  Cu43  1  0.28629800  0.00000000  0.96483800  1
  P  P44  1  0.60758100  0.00000000  0.03669000  1
  P  P45  1  0.62230800  0.00000000  0.50182100  1
  P  P46  1  0.75325500  0.00000000  0.80957600  1
  P  P47  1  0.87769200  0.50000000  0.49817900  1
  P  P48  1  0.89241900  0.50000000  0.96331000  1
  P  P49  1  0.99215700  0.00000000  0.26615200  1
  P  P50  1  0.74674500  0.50000000  0.19042400  1
  P  P51  1  0.50784300  0.50000000  0.73384800  1
  P  P52  1  0.10758100  0.50000000  0.03669000  1
  P  P53  1  0.12230800  0.50000000  0.50182100  1
  P  P54  1  0.25325500  0.50000000  0.80957600  1
  P  P55  1  0.37769200  0.00000000  0.49817900  1
  P  P56  1  0.39241900  0.00000000  0.96331000  1
  P  P57  1  0.49215700  0.50000000  0.26615200  1
  P  P58  1  0.24674500  0.00000000  0.19042400  1
  P  P59  1  0.00784300  0.00000000  0.73384800  1
