# generated using pymatgen
data_Sb3Pd8
_symmetry_space_group_name_H-M   'P 1'
_cell_length_a   7.72402207
_cell_length_b   7.72402207
_cell_length_c   43.67956172
_cell_angle_alpha   90.00000000
_cell_angle_beta   90.00000000
_cell_angle_gamma   120.00000000
_symmetry_Int_Tables_number   1
_chemical_formula_structural   Sb3Pd8
_chemical_formula_sum   'Sb36 Pd96'
_cell_volume   2256.81477030
_cell_formula_units_Z   12
loop_
 _symmetry_equiv_pos_site_id
 _symmetry_equiv_pos_as_xyz
  1  'x, y, z'
loop_
 _atom_site_type_symbol
 _atom_site_label
 _atom_site_symmetry_multiplicity
 _atom_site_fract_x
 _atom_site_fract_y
 _atom_site_fract_z
 _atom_site_occupancy
  Sb  Sb0  1  0.00000000  0.00000000  0.23353800  1
  Sb  Sb1  1  0.33333333  0.66666667  0.23965267  1
  Sb  Sb2  1  0.00000000  0.00000000  0.07530200  1
  Sb  Sb3  1  0.98240067  0.65479233  0.16052533  1
  Sb  Sb4  1  0.68085900  0.68678300  0.32627200  1
  Sb  Sb5  1  0.00592400  0.31914100  0.32627200  1
  Sb  Sb6  1  0.33333333  0.66666667  0.08738667  1
  Sb  Sb7  1  0.66666667  0.33333333  0.25402233  1
  Sb  Sb8  1  0.67239167  0.01759933  0.16052533  1
  Sb  Sb9  1  0.66666667  0.33333333  0.06833633  1
  Sb  Sb10  1  0.31321700  0.99407600  0.32627200  1
  Sb  Sb11  1  0.34520767  0.32760833  0.16052533  1
  Sb  Sb12  1  0.66666667  0.33333333  0.56687133  1
  Sb  Sb13  1  0.00000000  0.00000000  0.57298600  1
  Sb  Sb14  1  0.66666667  0.33333333  0.40863533  1
  Sb  Sb15  1  0.64906733  0.98812567  0.49385867  1
  Sb  Sb16  1  0.34752567  0.02011633  0.65960533  1
  Sb  Sb17  1  0.67259067  0.65247433  0.65960533  1
  Sb  Sb18  1  0.00000000  0.00000000  0.42072000  1
  Sb  Sb19  1  0.33333333  0.66666667  0.58735567  1
  Sb  Sb20  1  0.33905833  0.35093267  0.49385867  1
  Sb  Sb21  1  0.33333333  0.66666667  0.40166967  1
  Sb  Sb22  1  0.97988367  0.32740933  0.65960533  1
  Sb  Sb23  1  0.01187433  0.66094167  0.49385867  1
  Sb  Sb24  1  0.33333333  0.66666667  0.90020467  1
  Sb  Sb25  1  0.66666667  0.33333333  0.90631933  1
  Sb  Sb26  1  0.33333333  0.66666667  0.74196867  1
  Sb  Sb27  1  0.31573400  0.32145900  0.82719200  1
  Sb  Sb28  1  0.01419233  0.35344967  0.99293867  1
  Sb  Sb29  1  0.33925733  0.98580767  0.99293867  1
  Sb  Sb30  1  0.66666667  0.33333333  0.75405333  1
  Sb  Sb31  1  0.00000000  0.00000000  0.92068900  1
  Sb  Sb32  1  0.00572500  0.68426600  0.82719200  1
  Sb  Sb33  1  0.00000000  0.00000000  0.73500300  1
  Sb  Sb34  1  0.64655033  0.66074267  0.99293867  1
  Sb  Sb35  1  0.67854100  0.99427500  0.82719200  1
  Pd  Pd36  1  0.96693833  0.66432467  0.09507067  1
  Pd  Pd37  1  0.35965200  0.34809600  0.22685500  1
  Pd  Pd38  1  0.26960500  0.99531400  0.19253600  1
  Pd  Pd39  1  0.65456333  0.68618167  0.06038467  1
  Pd  Pd40  1  0.66666667  0.33333333  0.19265033  1
  Pd  Pd41  1  0.98844400  0.64034800  0.22685500  1
  Pd  Pd42  1  0.30592033  0.97127467  0.26121467  1
  Pd  Pd43  1  0.33333333  0.66666667  0.02499667  1
  Pd  Pd44  1  0.33436633  0.93167167  0.12882267  1
  Pd  Pd45  1  0.41050300  0.32753000  0.02483000  1
  Pd  Pd46  1  0.02872533  0.33464567  0.26121467  1
  Pd  Pd47  1  0.66699600  0.07286700  0.29604200  1
  Pd  Pd48  1  0.31381833  0.96838167  0.06038467  1
  Pd  Pd49  1  0.59730533  0.66563367  0.12882267  1
  Pd  Pd50  1  0.72570900  0.73039500  0.19253600  1
  Pd  Pd51  1  0.66666667  0.33333333  0.12927733  1
  Pd  Pd52  1  0.33333333  0.66666667  0.17840267  1
  Pd  Pd53  1  0.00000000  0.00000000  0.01429300  1
  Pd  Pd54  1  0.92713300  0.59412900  0.29604200  1
  Pd  Pd55  1  0.40587100  0.33300400  0.29604200  1
  Pd  Pd56  1  0.33333333  0.66666667  0.30229267  1
  Pd  Pd57  1  0.65190400  0.01155600  0.22685500  1
  Pd  Pd58  1  0.33567533  0.30261367  0.09507067  1
  Pd  Pd59  1  0.67247000  0.08297300  0.02483000  1
  Pd  Pd60  1  0.66535433  0.69407967  0.26121467  1
  Pd  Pd61  1  0.03161833  0.34543667  0.06038467  1
  Pd  Pd62  1  0.00468600  0.27429100  0.19253600  1
  Pd  Pd63  1  0.00000000  0.00000000  0.29410400  1
  Pd  Pd64  1  0.69738633  0.03306167  0.09507067  1
  Pd  Pd65  1  0.00000000  0.00000000  0.13875800  1
  Pd  Pd66  1  0.91702700  0.58949700  0.02483000  1
  Pd  Pd67  1  0.06832833  0.40269467  0.12882267  1
  Pd  Pd68  1  0.63360500  0.99765800  0.42840400  1
  Pd  Pd69  1  0.02631867  0.68142933  0.56018833  1
  Pd  Pd70  1  0.93627167  0.32864733  0.52586933  1
  Pd  Pd71  1  0.32123000  0.01951500  0.39371800  1
  Pd  Pd72  1  0.33333333  0.66666667  0.52598367  1
  Pd  Pd73  1  0.65511067  0.97368133  0.56018833  1
  Pd  Pd74  1  0.97258700  0.30460800  0.59454800  1
  Pd  Pd75  1  0.00000000  0.00000000  0.35833000  1
  Pd  Pd76  1  0.00103300  0.26500500  0.46215600  1
  Pd  Pd77  1  0.07716967  0.66086333  0.35816333  1
  Pd  Pd78  1  0.69539200  0.66797900  0.59454800  1
  Pd  Pd79  1  0.33366267  0.40620033  0.62937533  1
  Pd  Pd80  1  0.98048500  0.30171500  0.39371800  1
  Pd  Pd81  1  0.26397200  0.99896700  0.46215600  1
  Pd  Pd82  1  0.39237567  0.06372833  0.52586933  1
  Pd  Pd83  1  0.33333333  0.66666667  0.46261067  1
  Pd  Pd84  1  0.00000000  0.00000000  0.51173600  1
  Pd  Pd85  1  0.66666667  0.33333333  0.34762633  1
  Pd  Pd86  1  0.59379967  0.92746233  0.62937533  1
  Pd  Pd87  1  0.07253767  0.66633733  0.62937533  1
  Pd  Pd88  1  0.00000000  0.00000000  0.63562600  1
  Pd  Pd89  1  0.31857067  0.34488933  0.56018833  1
  Pd  Pd90  1  0.00234200  0.63594700  0.42840400  1
  Pd  Pd91  1  0.33913667  0.41630633  0.35816333  1
  Pd  Pd92  1  0.33202100  0.02741300  0.59454800  1
  Pd  Pd93  1  0.69828500  0.67877000  0.39371800  1
  Pd  Pd94  1  0.67135267  0.60762433  0.52586933  1
  Pd  Pd95  1  0.66666667  0.33333333  0.62743733  1
  Pd  Pd96  1  0.36405300  0.36639500  0.42840400  1
  Pd  Pd97  1  0.66666667  0.33333333  0.47209133  1
  Pd  Pd98  1  0.58369367  0.92283033  0.35816333  1
  Pd  Pd99  1  0.73499500  0.73602800  0.46215600  1
  Pd  Pd100  1  0.30027167  0.33099133  0.76173733  1
  Pd  Pd101  1  0.69298533  0.01476267  0.89352167  1
  Pd  Pd102  1  0.60293833  0.66198067  0.85920267  1
  Pd  Pd103  1  0.98789667  0.35284833  0.72705133  1
  Pd  Pd104  1  0.00000000  0.00000000  0.85931700  1
  Pd  Pd105  1  0.32177733  0.30701467  0.89352167  1
  Pd  Pd106  1  0.63925367  0.63794133  0.92788133  1
  Pd  Pd107  1  0.66666667  0.33333333  0.69166333  1
  Pd  Pd108  1  0.66769967  0.59833833  0.79548933  1
  Pd  Pd109  1  0.74383633  0.99419667  0.69149667  1
  Pd  Pd110  1  0.36205867  0.00131233  0.92788133  1
  Pd  Pd111  1  0.00032933  0.73953367  0.96270867  1
  Pd  Pd112  1  0.64715167  0.63504833  0.72705133  1
  Pd  Pd113  1  0.93063867  0.33230033  0.79548933  1
  Pd  Pd114  1  0.05904233  0.39706167  0.85920267  1
  Pd  Pd115  1  0.00000000  0.00000000  0.79594400  1
  Pd  Pd116  1  0.66666667  0.33333333  0.84506933  1
  Pd  Pd117  1  0.33333333  0.66666667  0.68095967  1
  Pd  Pd118  1  0.26046633  0.26079567  0.96270867  1
  Pd  Pd119  1  0.73920433  0.99967067  0.96270867  1
  Pd  Pd120  1  0.66666667  0.33333333  0.96895933  1
  Pd  Pd121  1  0.98523733  0.67822267  0.89352167  1
  Pd  Pd122  1  0.66900867  0.96928033  0.76173733  1
  Pd  Pd123  1  0.00580333  0.74963967  0.69149667  1
  Pd  Pd124  1  0.99868767  0.36074633  0.92788133  1
  Pd  Pd125  1  0.36495167  0.01210333  0.72705133  1
  Pd  Pd126  1  0.33801933  0.94095767  0.85920267  1
  Pd  Pd127  1  0.33333333  0.66666667  0.96077067  1
  Pd  Pd128  1  0.03071967  0.69972833  0.76173733  1
  Pd  Pd129  1  0.33333333  0.66666667  0.80542467  1
  Pd  Pd130  1  0.25036033  0.25616367  0.69149667  1
  Pd  Pd131  1  0.40166167  0.06936133  0.79548933  1
