# generated using pymatgen
data_ZrCo3B2
_symmetry_space_group_name_H-M   'P 1'
_cell_length_a   8.44771909
_cell_length_b   8.44771909
_cell_length_c   9.06587915
_cell_angle_alpha   90.00000000
_cell_angle_beta   90.00000000
_cell_angle_gamma   120.00000000
_symmetry_Int_Tables_number   1
_chemical_formula_structural   ZrCo3B2
_chemical_formula_sum   'Zr9 Co27 B18'
_cell_volume   560.29853236
_cell_formula_units_Z   9
loop_
 _symmetry_equiv_pos_site_id
 _symmetry_equiv_pos_as_xyz
  1  'x, y, z'
loop_
 _atom_site_type_symbol
 _atom_site_label
 _atom_site_symmetry_multiplicity
 _atom_site_fract_x
 _atom_site_fract_y
 _atom_site_fract_z
 _atom_site_occupancy
  Zr  Zr0  1  0.00000000  0.00000000  0.00000000  1
  Zr  Zr1  1  0.00000000  0.00000000  0.66968800  1
  Zr  Zr2  1  0.00000000  0.00000000  0.33031200  1
  Zr  Zr3  1  0.66666667  0.33333333  0.33333333  1
  Zr  Zr4  1  0.66666667  0.33333333  0.00302133  1
  Zr  Zr5  1  0.66666667  0.33333333  0.66364533  1
  Zr  Zr6  1  0.33333333  0.66666667  0.66666667  1
  Zr  Zr7  1  0.33333333  0.66666667  0.33635467  1
  Zr  Zr8  1  0.33333333  0.66666667  0.99697867  1
  Co  Co9  1  0.83333333  0.16666667  0.16666667  1
  Co  Co10  1  0.83333333  0.66666667  0.16666667  1
  Co  Co11  1  0.33333333  0.16666667  0.16666667  1
  Co  Co12  1  0.66834133  0.83417067  0.52743067  1
  Co  Co13  1  0.16582933  0.83417067  0.52743067  1
  Co  Co14  1  0.16582933  0.33165867  0.52743067  1
  Co  Co15  1  0.33165867  0.16582933  0.47256933  1
  Co  Co16  1  0.83417067  0.16582933  0.47256933  1
  Co  Co17  1  0.83417067  0.66834133  0.47256933  1
  Co  Co18  1  0.50000000  0.50000000  0.50000000  1
  Co  Co19  1  0.50000000  0.00000000  0.50000000  1
  Co  Co20  1  0.00000000  0.50000000  0.50000000  1
  Co  Co21  1  0.33500800  0.16750400  0.86076400  1
  Co  Co22  1  0.83249600  0.16750400  0.86076400  1
  Co  Co23  1  0.83249600  0.66499200  0.86076400  1
  Co  Co24  1  0.99832533  0.49916267  0.80590267  1
  Co  Co25  1  0.50083733  0.49916267  0.80590267  1
  Co  Co26  1  0.50083733  0.00167467  0.80590267  1
  Co  Co27  1  0.16666667  0.83333333  0.83333333  1
  Co  Co28  1  0.16666667  0.33333333  0.83333333  1
  Co  Co29  1  0.66666667  0.83333333  0.83333333  1
  Co  Co30  1  0.00167467  0.50083733  0.19409733  1
  Co  Co31  1  0.49916267  0.50083733  0.19409733  1
  Co  Co32  1  0.49916267  0.99832533  0.19409733  1
  Co  Co33  1  0.66499200  0.83249600  0.13923600  1
  Co  Co34  1  0.16750400  0.83249600  0.13923600  1
  Co  Co35  1  0.16750400  0.33500800  0.13923600  1
  B  B36  1  0.04217267  0.70883933  0.33333333  1
  B  B37  1  0.29116067  0.33333333  0.33333333  1
  B  B38  1  0.66666667  0.95782733  0.33333333  1
  B  B39  1  0.04217267  0.33333333  0.33333333  1
  B  B40  1  0.66666667  0.70883933  0.33333333  1
  B  B41  1  0.29116067  0.95782733  0.33333333  1
  B  B42  1  0.70883933  0.04217267  0.66666667  1
  B  B43  1  0.95782733  0.66666667  0.66666667  1
  B  B44  1  0.33333333  0.29116067  0.66666667  1
  B  B45  1  0.70883933  0.66666667  0.66666667  1
  B  B46  1  0.33333333  0.04217267  0.66666667  1
  B  B47  1  0.95782733  0.29116067  0.66666667  1
  B  B48  1  0.37550600  0.37550600  0.00000000  1
  B  B49  1  0.62449400  1.00000000  0.00000000  1
  B  B50  1  0.00000000  0.62449400  0.00000000  1
  B  B51  1  0.37550600  1.00000000  0.00000000  1
  B  B52  1  0.00000000  0.37550600  0.00000000  1
  B  B53  1  0.62449400  0.62449400  0.00000000  1
