# generated using pymatgen
data_Cs10(Mo2N5)3
_symmetry_space_group_name_H-M   'P 1'
_cell_length_a   13.32309369
_cell_length_b   13.32309369
_cell_length_c   28.82930262
_cell_angle_alpha   90.00000000
_cell_angle_beta   90.00000000
_cell_angle_gamma   120.00000000
_symmetry_Int_Tables_number   1
_chemical_formula_structural   Cs10(Mo2N5)3
_chemical_formula_sum   'Cs60 Mo36 N90'
_cell_volume   4431.74672756
_cell_formula_units_Z   6
loop_
 _symmetry_equiv_pos_site_id
 _symmetry_equiv_pos_as_xyz
  1  'x, y, z'
loop_
 _atom_site_type_symbol
 _atom_site_label
 _atom_site_symmetry_multiplicity
 _atom_site_fract_x
 _atom_site_fract_y
 _atom_site_fract_z
 _atom_site_occupancy
  Cs  Cs0  1  0.38521833  0.88378467  0.05828967  1
  Cs  Cs1  1  0.11621533  0.50143367  0.05828967  1
  Cs  Cs2  1  0.49856633  0.61478167  0.05828967  1
  Cs  Cs3  1  0.33333333  0.83949467  0.91666667  1
  Cs  Cs4  1  0.16050533  0.49383867  0.91666667  1
  Cs  Cs5  1  0.50616133  0.66666667  0.91666667  1
  Cs  Cs6  1  0.94811500  0.16523300  0.10837700  1
  Cs  Cs7  1  0.83476700  0.78288200  0.10837700  1
  Cs  Cs8  1  0.21711800  0.05188500  0.10837700  1
  Cs  Cs9  1  0.00000000  0.00000000  0.00000000  1
  Cs  Cs10  1  0.44954867  0.28144833  0.22495633  1
  Cs  Cs11  1  0.83189967  0.55045133  0.22495633  1
  Cs  Cs12  1  0.71855167  0.16810033  0.22495633  1
  Cs  Cs13  1  0.16050533  0.66666667  0.41666667  1
  Cs  Cs14  1  0.50616133  0.83949467  0.41666667  1
  Cs  Cs15  1  0.33333333  0.49383867  0.41666667  1
  Cs  Cs16  1  0.16810033  0.71855167  0.27504367  1
  Cs  Cs17  1  0.55045133  0.83189967  0.27504367  1
  Cs  Cs18  1  0.28144833  0.44954867  0.27504367  1
  Cs  Cs19  1  0.33333333  0.66666667  0.16666667  1
  Cs  Cs20  1  0.05188500  0.21711800  0.39162300  1
  Cs  Cs21  1  0.78288200  0.83476700  0.39162300  1
  Cs  Cs22  1  0.16523300  0.94811500  0.39162300  1
  Cs  Cs23  1  0.00000000  0.17282800  0.25000000  1
  Cs  Cs24  1  0.82717200  0.82717200  0.25000000  1
  Cs  Cs25  1  0.17282800  0.00000000  0.25000000  1
  Cs  Cs26  1  0.61478167  0.49856633  0.44171033  1
  Cs  Cs27  1  0.50143367  0.11621533  0.44171033  1
  Cs  Cs28  1  0.88378467  0.38521833  0.44171033  1
  Cs  Cs29  1  0.66666667  0.33333333  0.33333333  1
  Cs  Cs30  1  0.11621533  0.61478167  0.55828967  1
  Cs  Cs31  1  0.49856633  0.88378467  0.55828967  1
  Cs  Cs32  1  0.38521833  0.50143367  0.55828967  1
  Cs  Cs33  1  0.82717200  0.00000000  0.75000000  1
  Cs  Cs34  1  0.17282800  0.17282800  0.75000000  1
  Cs  Cs35  1  0.00000000  0.82717200  0.75000000  1
  Cs  Cs36  1  0.83476700  0.05188500  0.60837700  1
  Cs  Cs37  1  0.21711800  0.16523300  0.60837700  1
  Cs  Cs38  1  0.94811500  0.78288200  0.60837700  1
  Cs  Cs39  1  0.00000000  0.00000000  0.50000000  1
  Cs  Cs40  1  0.71855167  0.55045133  0.72495633  1
  Cs  Cs41  1  0.44954867  0.16810033  0.72495633  1
  Cs  Cs42  1  0.83189967  0.28144833  0.72495633  1
  Cs  Cs43  1  0.66666667  0.50616133  0.58333333  1
  Cs  Cs44  1  0.49383867  0.16050533  0.58333333  1
  Cs  Cs45  1  0.83949467  0.33333333  0.58333333  1
  Cs  Cs46  1  0.28144833  0.83189967  0.77504367  1
  Cs  Cs47  1  0.16810033  0.44954867  0.77504367  1
  Cs  Cs48  1  0.55045133  0.71855167  0.77504367  1
  Cs  Cs49  1  0.33333333  0.66666667  0.66666667  1
  Cs  Cs50  1  0.78288200  0.94811500  0.89162300  1
  Cs  Cs51  1  0.16523300  0.21711800  0.89162300  1
  Cs  Cs52  1  0.05188500  0.83476700  0.89162300  1
  Cs  Cs53  1  0.49383867  0.33333333  0.08333333  1
  Cs  Cs54  1  0.83949467  0.50616133  0.08333333  1
  Cs  Cs55  1  0.66666667  0.16050533  0.08333333  1
  Cs  Cs56  1  0.50143367  0.38521833  0.94171033  1
  Cs  Cs57  1  0.88378467  0.49856633  0.94171033  1
  Cs  Cs58  1  0.61478167  0.11621533  0.94171033  1
  Cs  Cs59  1  0.66666667  0.33333333  0.83333333  1
  Mo  Mo60  1  0.10406567  0.74835333  0.14929933  1
  Mo  Mo61  1  0.64428767  0.89593433  0.14929933  1
  Mo  Mo62  1  0.25164667  0.35571233  0.14929933  1
  Mo  Mo63  1  0.68904567  0.91831333  0.01736733  1
  Mo  Mo64  1  0.58498000  0.56260100  0.31596600  1
  Mo  Mo65  1  0.22926767  0.31095433  0.01736733  1
  Mo  Mo66  1  0.43739900  0.02237900  0.31596600  1
  Mo  Mo67  1  0.08168667  0.77073233  0.01736733  1
  Mo  Mo68  1  0.97762100  0.41502000  0.31596600  1
  Mo  Mo69  1  0.41502000  0.97762100  0.18403400  1
  Mo  Mo70  1  0.02237900  0.43739900  0.18403400  1
  Mo  Mo71  1  0.56260100  0.58498000  0.18403400  1
  Mo  Mo72  1  0.77073233  0.08168667  0.48263267  1
  Mo  Mo73  1  0.31095433  0.22926767  0.48263267  1
  Mo  Mo74  1  0.91831333  0.68904567  0.48263267  1
  Mo  Mo75  1  0.35571233  0.25164667  0.35070067  1
  Mo  Mo76  1  0.25164667  0.89593433  0.64929933  1
  Mo  Mo77  1  0.89593433  0.64428767  0.35070067  1
  Mo  Mo78  1  0.10406567  0.35571233  0.64929933  1
  Mo  Mo79  1  0.74835333  0.10406567  0.35070067  1
  Mo  Mo80  1  0.64428767  0.74835333  0.64929933  1
  Mo  Mo81  1  0.08168667  0.31095433  0.51736733  1
  Mo  Mo82  1  0.68904567  0.77073233  0.51736733  1
  Mo  Mo83  1  0.22926767  0.91831333  0.51736733  1
  Mo  Mo84  1  0.43739900  0.41502000  0.81596600  1
  Mo  Mo85  1  0.97762100  0.56260100  0.81596600  1
  Mo  Mo86  1  0.58498000  0.02237900  0.81596600  1
  Mo  Mo87  1  0.02237900  0.58498000  0.68403400  1
  Mo  Mo88  1  0.91831333  0.22926767  0.98263267  1
  Mo  Mo89  1  0.56260100  0.97762100  0.68403400  1
  Mo  Mo90  1  0.77073233  0.68904567  0.98263267  1
  Mo  Mo91  1  0.41502000  0.43739900  0.68403400  1
  Mo  Mo92  1  0.31095433  0.08168667  0.98263267  1
  Mo  Mo93  1  0.74835333  0.64428767  0.85070067  1
  Mo  Mo94  1  0.35571233  0.10406567  0.85070067  1
  Mo  Mo95  1  0.89593433  0.25164667  0.85070067  1
  N  N96  1  0.26161933  0.86002967  0.16578367  1
  N  N97  1  0.13997033  0.40158967  0.16578367  1
  N  N98  1  0.59841033  0.73838067  0.16578367  1
  N  N99  1  0.11869667  0.67611433  0.98818133  1
  N  N100  1  0.00000000  0.41800900  0.25000000  1
  N  N101  1  0.55741767  0.88130333  0.98818133  1
  N  N102  1  0.77591567  0.99055233  0.17848533  1
  N  N103  1  0.58199100  0.58199100  0.25000000  1
  N  N104  1  0.32388567  0.44258233  0.98818133  1
  N  N105  1  0.21463667  0.22408433  0.17848533  1
  N  N106  1  0.41800900  0.00000000  0.25000000  1
  N  N107  1  0.00944767  0.78536333  0.17848533  1
  N  N108  1  0.47330367  0.40504733  0.33245033  1
  N  N109  1  0.07171400  0.26507700  0.00088300  1
  N  N110  1  0.73492300  0.80663700  0.00088300  1
  N  N111  1  0.93174367  0.52669633  0.33245033  1
  N  N112  1  0.59495267  0.06825633  0.33245033  1
  N  N113  1  0.19336300  0.92828600  0.00088300  1
  N  N114  1  0.65721900  0.54797000  0.15484800  1
  N  N115  1  0.24865767  0.33333333  0.08333333  1
  N  N116  1  0.45203000  0.10924900  0.15484800  1
  N  N117  1  0.34278100  0.89075100  0.34515200  1
  N  N118  1  0.08467567  0.75134233  0.08333333  1
  N  N119  1  0.89075100  0.34278100  0.15484800  1
  N  N120  1  0.10924900  0.45203000  0.34515200  1
  N  N121  1  0.66666667  0.91532433  0.08333333  1
  N  N122  1  0.54797000  0.65721900  0.34515200  1
  N  N123  1  0.06825633  0.59495267  0.16754967  1
  N  N124  1  0.52669633  0.93174367  0.16754967  1
  N  N125  1  0.40504733  0.47330367  0.16754967  1
  N  N126  1  0.92828600  0.19336300  0.49911700  1
  N  N127  1  0.80663700  0.73492300  0.49911700  1
  N  N128  1  0.26507700  0.07171400  0.49911700  1
  N  N129  1  0.78536333  0.00944767  0.32151467  1
  N  N130  1  0.66666667  0.75134233  0.58333333  1
  N  N131  1  0.22408433  0.21463667  0.32151467  1
  N  N132  1  0.44258233  0.32388567  0.51181867  1
  N  N133  1  0.24865767  0.91532433  0.58333333  1
  N  N134  1  0.99055233  0.77591567  0.32151467  1
  N  N135  1  0.88130333  0.55741767  0.51181867  1
  N  N136  1  0.08467567  0.33333333  0.58333333  1
  N  N137  1  0.67611433  0.11869667  0.51181867  1
  N  N138  1  0.13997033  0.73838067  0.66578367  1
  N  N139  1  0.73838067  0.59841033  0.33421633  1
  N  N140  1  0.40158967  0.13997033  0.33421633  1
  N  N141  1  0.59841033  0.86002967  0.66578367  1
  N  N142  1  0.26161933  0.40158967  0.66578367  1
  N  N143  1  0.86002967  0.26161933  0.33421633  1
  N  N144  1  0.32388567  0.88130333  0.48818133  1
  N  N145  1  0.91532433  0.66666667  0.41666667  1
  N  N146  1  0.11869667  0.44258233  0.48818133  1
  N  N147  1  0.00944767  0.22408433  0.67848533  1
  N  N148  1  0.75134233  0.08467567  0.41666667  1
  N  N149  1  0.55741767  0.67611433  0.48818133  1
  N  N150  1  0.77591567  0.78536333  0.67848533  1
  N  N151  1  0.33333333  0.24865767  0.41666667  1
  N  N152  1  0.21463667  0.99055233  0.67848533  1
  N  N153  1  0.73492300  0.92828600  0.50088300  1
  N  N154  1  0.19336300  0.26507700  0.50088300  1
  N  N155  1  0.07171400  0.80663700  0.50088300  1
  N  N156  1  0.59495267  0.52669633  0.83245033  1
  N  N157  1  0.47330367  0.06825633  0.83245033  1
  N  N158  1  0.93174367  0.40504733  0.83245033  1
  N  N159  1  0.45203000  0.34278100  0.65484800  1
  N  N160  1  0.33333333  0.08467567  0.91666667  1
  N  N161  1  0.89075100  0.54797000  0.65484800  1
  N  N162  1  0.10924900  0.65721900  0.84515200  1
  N  N163  1  0.91532433  0.24865767  0.91666667  1
  N  N164  1  0.65721900  0.10924900  0.65484800  1
  N  N165  1  0.54797000  0.89075100  0.84515200  1
  N  N166  1  0.75134233  0.66666667  0.91666667  1
  N  N167  1  0.34278100  0.45203000  0.84515200  1
  N  N168  1  0.80663700  0.07171400  0.99911700  1
  N  N169  1  0.40504733  0.93174367  0.66754967  1
  N  N170  1  0.06825633  0.47330367  0.66754967  1
  N  N171  1  0.26507700  0.19336300  0.99911700  1
  N  N172  1  0.92828600  0.73492300  0.99911700  1
  N  N173  1  0.52669633  0.59495267  0.66754967  1
  N  N174  1  0.99055233  0.21463667  0.82151467  1
  N  N175  1  0.58199100  0.00000000  0.75000000  1
  N  N176  1  0.78536333  0.77591567  0.82151467  1
  N  N177  1  0.67611433  0.55741767  0.01181867  1
  N  N178  1  0.41800900  0.41800900  0.75000000  1
  N  N179  1  0.22408433  0.00944767  0.82151467  1
  N  N180  1  0.44258233  0.11869667  0.01181867  1
  N  N181  1  0.00000000  0.58199100  0.75000000  1
  N  N182  1  0.88130333  0.32388567  0.01181867  1
  N  N183  1  0.40158967  0.26161933  0.83421633  1
  N  N184  1  0.86002967  0.59841033  0.83421633  1
  N  N185  1  0.73838067  0.13997033  0.83421633  1
