# generated using pymatgen
data_Tb4F15
_symmetry_space_group_name_H-M   'P 1'
_cell_length_a   13.08287872
_cell_length_b   13.08287872
_cell_length_c   12.38102221
_cell_angle_alpha   90.00000000
_cell_angle_beta   90.00000000
_cell_angle_gamma   120.00000000
_symmetry_Int_Tables_number   1
_chemical_formula_structural   Tb4F15
_chemical_formula_sum   'Tb24 F90'
_cell_volume   1835.24379954
_cell_formula_units_Z   6
loop_
 _symmetry_equiv_pos_site_id
 _symmetry_equiv_pos_as_xyz
  1  'x, y, z'
loop_
 _atom_site_type_symbol
 _atom_site_label
 _atom_site_symmetry_multiplicity
 _atom_site_fract_x
 _atom_site_fract_y
 _atom_site_fract_z
 _atom_site_occupancy
  Tb  Tb0  1  0.00000000  0.00000000  0.25000000  1
  Tb  Tb1  1  0.33333333  0.23334867  0.41666667  1
  Tb  Tb2  1  0.09998467  0.33333333  0.58333333  1
  Tb  Tb3  1  0.23334867  0.90001533  0.58333333  1
  Tb  Tb4  1  0.00000000  0.00000000  0.75000000  1
  Tb  Tb5  1  0.76665133  0.09998467  0.41666667  1
  Tb  Tb6  1  0.90001533  0.66666667  0.41666667  1
  Tb  Tb7  1  0.66666667  0.76665133  0.58333333  1
  Tb  Tb8  1  0.66666667  0.33333333  0.58333333  1
  Tb  Tb9  1  0.00000000  0.56668200  0.75000000  1
  Tb  Tb10  1  0.76665133  0.66666667  0.91666667  1
  Tb  Tb11  1  0.90001533  0.23334867  0.91666667  1
  Tb  Tb12  1  0.66666667  0.33333333  0.08333333  1
  Tb  Tb13  1  0.43331800  0.43331800  0.75000000  1
  Tb  Tb14  1  0.56668200  0.00000000  0.75000000  1
  Tb  Tb15  1  0.33333333  0.09998467  0.91666667  1
  Tb  Tb16  1  0.33333333  0.66666667  0.91666667  1
  Tb  Tb17  1  0.66666667  0.90001533  0.08333333  1
  Tb  Tb18  1  0.43331800  0.00000000  0.25000000  1
  Tb  Tb19  1  0.56668200  0.56668200  0.25000000  1
  Tb  Tb20  1  0.33333333  0.66666667  0.41666667  1
  Tb  Tb21  1  0.09998467  0.76665133  0.08333333  1
  Tb  Tb22  1  0.23334867  0.33333333  0.08333333  1
  Tb  Tb23  1  0.00000000  0.43331800  0.25000000  1
  F  F24  1  0.95513067  0.62179733  0.58333333  1
  F  F25  1  0.80595233  0.72161667  0.53742267  1
  F  F26  1  0.08029500  0.15994200  0.64733800  1
  F  F27  1  0.91566433  0.19404767  0.53742267  1
  F  F28  1  0.25368633  0.50672467  0.51932867  1
  F  F29  1  0.62179733  0.66666667  0.41666667  1
  F  F30  1  0.13928567  0.75100233  0.70408933  1
  F  F31  1  0.74696167  0.25368633  0.48067133  1
  F  F32  1  0.49327533  0.74696167  0.51932867  1
  F  F33  1  0.24899767  0.38828333  0.70408933  1
  F  F34  1  0.92035300  0.08029500  0.35266200  1
  F  F35  1  0.27838333  0.08433567  0.53742267  1
  F  F36  1  0.66666667  0.04486933  0.58333333  1
  F  F37  1  0.15994200  0.07964700  0.35266200  1
  F  F38  1  0.38828333  0.13928567  0.29591067  1
  F  F39  1  0.61171667  0.86071433  0.70408933  1
  F  F40  1  0.84005800  0.92035300  0.64733800  1
  F  F41  1  0.33333333  0.95513067  0.41666667  1
  F  F42  1  0.72161667  0.91566433  0.46257733  1
  F  F43  1  0.07964700  0.91970500  0.64733800  1
  F  F44  1  0.75100233  0.61171667  0.29591067  1
  F  F45  1  0.50672467  0.25303833  0.48067133  1
  F  F46  1  0.25303833  0.74631367  0.51932867  1
  F  F47  1  0.86071433  0.24899767  0.29591067  1
  F  F48  1  0.37820267  0.33333333  0.58333333  1
  F  F49  1  0.74631367  0.49327533  0.48067133  1
  F  F50  1  0.08433567  0.80595233  0.46257733  1
  F  F51  1  0.91970500  0.84005800  0.35266200  1
  F  F52  1  0.19404767  0.27838333  0.46257733  1
  F  F53  1  0.04486933  0.37820267  0.41666667  1
  F  F54  1  0.62179733  0.95513067  0.91666667  1
  F  F55  1  0.47261900  0.05495000  0.87075600  1
  F  F56  1  0.74696167  0.49327533  0.98067133  1
  F  F57  1  0.58233100  0.52738100  0.87075600  1
  F  F58  1  0.92035300  0.84005800  0.85266200  1
  F  F59  1  0.28846400  0.00000000  0.75000000  1
  F  F60  1  0.80595233  0.08433567  0.03742267  1
  F  F61  1  0.41362833  0.58701967  0.81400467  1
  F  F62  1  0.15994200  0.08029500  0.85266200  1
  F  F63  1  0.91566433  0.72161667  0.03742267  1
  F  F64  1  0.58701967  0.41362833  0.68599533  1
  F  F65  1  0.94505000  0.41766900  0.87075600  1
  F  F66  1  0.33333333  0.37820267  0.91666667  1
  F  F67  1  0.82660867  0.41298033  0.68599533  1
  F  F68  1  0.05495000  0.47261900  0.62924400  1
  F  F69  1  0.27838333  0.19404767  0.03742267  1
  F  F70  1  0.50672467  0.25368633  0.98067133  1
  F  F71  1  0.00000000  0.28846400  0.75000000  1
  F  F72  1  0.38828333  0.24899767  0.79591067  1
  F  F73  1  0.74631367  0.25303833  0.98067133  1
  F  F74  1  0.41766900  0.94505000  0.62924400  1
  F  F75  1  0.17339133  0.58637167  0.81400467  1
  F  F76  1  0.91970500  0.07964700  0.85266200  1
  F  F77  1  0.52738100  0.58233100  0.62924400  1
  F  F78  1  0.04486933  0.66666667  0.91666667  1
  F  F79  1  0.41298033  0.82660867  0.81400467  1
  F  F80  1  0.75100233  0.13928567  0.79591067  1
  F  F81  1  0.58637167  0.17339133  0.68599533  1
  F  F82  1  0.86071433  0.61171667  0.79591067  1
  F  F83  1  0.71153600  0.71153600  0.75000000  1
  F  F84  1  0.28846400  0.28846400  0.25000000  1
  F  F85  1  0.13928567  0.38828333  0.20408933  1
  F  F86  1  0.41362833  0.82660867  0.31400467  1
  F  F87  1  0.24899767  0.86071433  0.20408933  1
  F  F88  1  0.58701967  0.17339133  0.18599533  1
  F  F89  1  0.95513067  0.33333333  0.08333333  1
  F  F90  1  0.47261900  0.41766900  0.37075600  1
  F  F91  1  0.08029500  0.92035300  0.14733800  1
  F  F92  1  0.82660867  0.41362833  0.18599533  1
  F  F93  1  0.58233100  0.05495000  0.37075600  1
  F  F94  1  0.25368633  0.74696167  0.01932867  1
  F  F95  1  0.61171667  0.75100233  0.20408933  1
  F  F96  1  0.00000000  0.71153600  0.25000000  1
  F  F97  1  0.49327533  0.74631367  0.01932867  1
  F  F98  1  0.72161667  0.80595233  0.96257733  1
  F  F99  1  0.94505000  0.52738100  0.37075600  1
  F  F100  1  0.17339133  0.58701967  0.31400467  1
  F  F101  1  0.66666667  0.62179733  0.08333333  1
  F  F102  1  0.05495000  0.58233100  0.12924400  1
  F  F103  1  0.41298033  0.58637167  0.31400467  1
  F  F104  1  0.08433567  0.27838333  0.96257733  1
  F  F105  1  0.84005800  0.91970500  0.14733800  1
  F  F106  1  0.58637167  0.41298033  0.18599533  1
  F  F107  1  0.19404767  0.91566433  0.96257733  1
  F  F108  1  0.71153600  0.00000000  0.25000000  1
  F  F109  1  0.07964700  0.15994200  0.14733800  1
  F  F110  1  0.41766900  0.47261900  0.12924400  1
  F  F111  1  0.25303833  0.50672467  0.01932867  1
  F  F112  1  0.52738100  0.94505000  0.12924400  1
  F  F113  1  0.37820267  0.04486933  0.08333333  1
