# generated using pymatgen
data_Ba5Bi5O13
_symmetry_space_group_name_H-M   'P 1'
_cell_length_a   11.12649200
_cell_length_b   6.21006400
_cell_length_c   25.61536618
_cell_angle_alpha   90.00000000
_cell_angle_beta   100.70378938
_cell_angle_gamma   90.00000000
_symmetry_Int_Tables_number   1
_chemical_formula_structural   Ba5Bi5O13
_chemical_formula_sum   'Ba20 Bi20 O52'
_cell_volume   1739.12938049
_cell_formula_units_Z   4
loop_
 _symmetry_equiv_pos_site_id
 _symmetry_equiv_pos_as_xyz
  1  'x, y, z'
loop_
 _atom_site_type_symbol
 _atom_site_label
 _atom_site_symmetry_multiplicity
 _atom_site_fract_x
 _atom_site_fract_y
 _atom_site_fract_z
 _atom_site_occupancy
  Ba  Ba0  1  0.56783800  0.27094300  0.14709800  1
  Ba  Ba1  1  0.45696700  0.69904600  0.34808700  1
  Ba  Ba2  1  0.34907300  0.12237600  0.54688900  1
  Ba  Ba3  1  0.73837450  0.23428550  0.74855300  1
  Ba  Ba4  1  0.64018850  0.80788050  0.95429300  1
  Ba  Ba5  1  0.26162550  0.23428550  0.25144700  1
  Ba  Ba6  1  0.65092700  0.12237600  0.45311100  1
  Ba  Ba7  1  0.54303300  0.69904600  0.65191300  1
  Ba  Ba8  1  0.43216200  0.27094300  0.85290200  1
  Ba  Ba9  1  0.35981150  0.80788050  0.04570700  1
  Ba  Ba10  1  0.06783800  0.77094300  0.14709800  1
  Ba  Ba11  1  0.95696700  0.19904600  0.34808700  1
  Ba  Ba12  1  0.84907300  0.62237600  0.54688900  1
  Ba  Ba13  1  0.23837450  0.73428550  0.74855300  1
  Ba  Ba14  1  0.14018850  0.30788050  0.95429300  1
  Ba  Ba15  1  0.76162550  0.73428550  0.25144700  1
  Ba  Ba16  1  0.15092700  0.62237600  0.45311100  1
  Ba  Ba17  1  0.04303300  0.19904600  0.65191300  1
  Ba  Ba18  1  0.93216200  0.77094300  0.85290200  1
  Ba  Ba19  1  0.85981150  0.30788050  0.04570700  1
  Bi  Bi20  1  0.21451400  0.28175400  0.10331900  1
  Bi  Bi21  1  0.60107300  0.19530900  0.29963500  1
  Bi  Bi22  1  0.50000000  0.62092100  0.50000000  1
  Bi  Bi23  1  0.39892700  0.19530900  0.70036500  1
  Bi  Bi24  1  0.78548600  0.28175400  0.89668100  1
  Bi  Bi25  1  0.40330100  0.72419100  0.19593100  1
  Bi  Bi26  1  0.29231000  0.14482900  0.39737500  1
  Bi  Bi27  1  0.70769000  0.14482900  0.60262500  1
  Bi  Bi28  1  0.59669900  0.72419100  0.80406900  1
  Bi  Bi29  1  0.00000000  0.79960600  0.00000000  1
  Bi  Bi30  1  0.71451400  0.78175400  0.10331900  1
  Bi  Bi31  1  0.10107300  0.69530900  0.29963500  1
  Bi  Bi32  1  0.00000000  0.12092100  0.50000000  1
  Bi  Bi33  1  0.89892700  0.69530900  0.70036500  1
  Bi  Bi34  1  0.28548600  0.78175400  0.89668100  1
  Bi  Bi35  1  0.90330100  0.22419100  0.19593100  1
  Bi  Bi36  1  0.79231000  0.64482900  0.39737500  1
  Bi  Bi37  1  0.20769000  0.64482900  0.60262500  1
  Bi  Bi38  1  0.09669900  0.22419100  0.80406900  1
  Bi  Bi39  1  0.50000000  0.29960600  0.00000000  1
  O  O40  1  0.24290650  0.67525550  0.24783600  1
  O  O41  1  0.62288750  0.60300550  0.43883000  1
  O  O42  1  0.55521750  0.17442650  0.64865200  1
  O  O43  1  0.44615350  0.74710950  0.84945500  1
  O  O44  1  0.37716600  0.31063400  0.06283200  1
  O  O45  1  0.48110000  0.40827000  0.24012300  1
  O  O46  1  0.38976000  0.86500000  0.44793100  1
  O  O47  1  0.61024000  0.86500000  0.55206900  1
  O  O48  1  0.51890000  0.40827000  0.75987700  1
  O  O49  1  0.11364150  0.54943650  0.05078500  1
  O  O50  1  0.88635850  0.54943650  0.94921500  1
  O  O51  1  0.55384650  0.74710950  0.15054500  1
  O  O52  1  0.44478250  0.17442650  0.35134800  1
  O  O53  1  0.37711250  0.60300550  0.56117000  1
  O  O54  1  0.75709350  0.67525550  0.75216400  1
  O  O55  1  0.62283400  0.31063400  0.93716800  1
  O  O56  1  0.28865200  0.97081100  0.14574400  1
  O  O57  1  0.49556300  0.92981100  0.25816500  1
  O  O58  1  0.19114700  0.40682100  0.34758200  1
  O  O59  1  0.36478550  0.35885850  0.45951100  1
  O  O60  1  0.63521450  0.35885850  0.54048900  1
  O  O61  1  0.80885300  0.40682100  0.65241800  1
  O  O62  1  0.50443700  0.92981100  0.74183500  1
  O  O63  1  0.71134800  0.97081100  0.85425600  1
  O  O64  1  0.87816600  0.07749100  0.95694300  1
  O  O65  1  0.12183400  0.07749100  0.04305700  1
  O  O66  1  0.74290650  0.17525550  0.24783600  1
  O  O67  1  0.12288750  0.10300550  0.43883000  1
  O  O68  1  0.05521750  0.67442650  0.64865200  1
  O  O69  1  0.94615350  0.24710950  0.84945500  1
  O  O70  1  0.87716600  0.81063400  0.06283200  1
  O  O71  1  0.98110000  0.90827000  0.24012300  1
  O  O72  1  0.88976000  0.36500000  0.44793100  1
  O  O73  1  0.11024000  0.36500000  0.55206900  1
  O  O74  1  0.01890000  0.90827000  0.75987700  1
  O  O75  1  0.61364150  0.04943650  0.05078500  1
  O  O76  1  0.38635850  0.04943650  0.94921500  1
  O  O77  1  0.05384650  0.24710950  0.15054500  1
  O  O78  1  0.94478250  0.67442650  0.35134800  1
  O  O79  1  0.87711250  0.10300550  0.56117000  1
  O  O80  1  0.25709350  0.17525550  0.75216400  1
  O  O81  1  0.12283400  0.81063400  0.93716800  1
  O  O82  1  0.78865200  0.47081100  0.14574400  1
  O  O83  1  0.99556300  0.42981100  0.25816500  1
  O  O84  1  0.69114700  0.90682100  0.34758200  1
  O  O85  1  0.86478550  0.85885850  0.45951100  1
  O  O86  1  0.13521450  0.85885850  0.54048900  1
  O  O87  1  0.30885300  0.90682100  0.65241800  1
  O  O88  1  0.00443700  0.42981100  0.74183500  1
  O  O89  1  0.21134800  0.47081100  0.85425600  1
  O  O90  1  0.37816600  0.57749100  0.95694300  1
  O  O91  1  0.62183400  0.57749100  0.04305700  1
