# generated using pymatgen
data_Co8Te(AsO8)2
_symmetry_space_group_name_H-M   'P 1'
_cell_length_a   6.04118600
_cell_length_b   23.87610200
_cell_length_c   8.70424300
_cell_angle_alpha   90.00000000
_cell_angle_beta   90.00000000
_cell_angle_gamma   90.00000000
_symmetry_Int_Tables_number   1
_chemical_formula_structural   Co8Te(AsO8)2
_chemical_formula_sum   'Co32 Te4 As8 O64'
_cell_volume   1255.49977650
_cell_formula_units_Z   4
loop_
 _symmetry_equiv_pos_site_id
 _symmetry_equiv_pos_as_xyz
  1  'x, y, z'
loop_
 _atom_site_type_symbol
 _atom_site_label
 _atom_site_symmetry_multiplicity
 _atom_site_fract_x
 _atom_site_fract_y
 _atom_site_fract_z
 _atom_site_occupancy
  Co  Co0  1  0.25000000  0.57291800  0.75000000  1
  Co  Co1  1  0.00000000  0.94096200  0.62815400  1
  Co  Co2  1  0.25000000  0.80705300  0.25000000  1
  Co  Co3  1  0.50000000  0.63592000  0.02780100  1
  Co  Co4  1  0.50000000  0.94096200  0.87184600  1
  Co  Co5  1  0.50000000  0.55903800  0.37184600  1
  Co  Co6  1  0.00000000  0.86408000  0.97219900  1
  Co  Co7  1  0.75000000  0.92708200  0.25000000  1
  Co  Co8  1  0.25000000  0.92708200  0.25000000  1
  Co  Co9  1  0.75000000  0.80705300  0.25000000  1
  Co  Co10  1  0.00000000  0.55903800  0.12815400  1
  Co  Co11  1  0.75000000  0.69294700  0.75000000  1
  Co  Co12  1  0.25000000  0.69294700  0.75000000  1
  Co  Co13  1  0.50000000  0.86408000  0.52780100  1
  Co  Co14  1  0.75000000  0.57291800  0.75000000  1
  Co  Co15  1  0.00000000  0.63592000  0.47219900  1
  Co  Co16  1  0.75000000  0.07291800  0.75000000  1
  Co  Co17  1  0.50000000  0.44096200  0.62815400  1
  Co  Co18  1  0.75000000  0.30705300  0.25000000  1
  Co  Co19  1  0.00000000  0.13592000  0.02780100  1
  Co  Co20  1  0.00000000  0.44096200  0.87184600  1
  Co  Co21  1  0.00000000  0.05903800  0.37184600  1
  Co  Co22  1  0.50000000  0.36408000  0.97219900  1
  Co  Co23  1  0.25000000  0.42708200  0.25000000  1
  Co  Co24  1  0.75000000  0.42708200  0.25000000  1
  Co  Co25  1  0.25000000  0.30705300  0.25000000  1
  Co  Co26  1  0.50000000  0.05903800  0.12815400  1
  Co  Co27  1  0.25000000  0.19294700  0.75000000  1
  Co  Co28  1  0.75000000  0.19294700  0.75000000  1
  Co  Co29  1  0.00000000  0.36408000  0.52780100  1
  Co  Co30  1  0.25000000  0.07291800  0.75000000  1
  Co  Co31  1  0.50000000  0.13592000  0.47219900  1
  Te  Te32  1  0.00000000  0.00000000  0.00000000  1
  Te  Te33  1  0.50000000  0.00000000  0.50000000  1
  Te  Te34  1  0.50000000  0.50000000  0.00000000  1
  Te  Te35  1  0.00000000  0.50000000  0.50000000  1
  As  As36  1  0.50000000  0.80935400  0.89127900  1
  As  As37  1  0.00000000  0.80935400  0.60872100  1
  As  As38  1  0.00000000  0.69064600  0.10872100  1
  As  As39  1  0.50000000  0.69064600  0.39127900  1
  As  As40  1  0.00000000  0.30935400  0.89127900  1
  As  As41  1  0.50000000  0.30935400  0.60872100  1
  As  As42  1  0.50000000  0.19064600  0.10872100  1
  As  As43  1  0.00000000  0.19064600  0.39127900  1
  O  O44  1  0.77592250  0.94069850  0.99629000  1
  O  O45  1  0.50000000  0.86929500  0.28502200  1
  O  O46  1  0.72407750  0.55930150  0.00371000  1
  O  O47  1  0.50000000  0.75211800  0.77040100  1
  O  O48  1  0.00000000  0.86805900  0.73198700  1
  O  O49  1  0.00000000  0.75211800  0.72959900  1
  O  O50  1  0.27592250  0.94069850  0.50371000  1
  O  O51  1  0.00000000  0.99201400  0.22649800  1
  O  O52  1  0.26779850  0.81369050  0.00388000  1
  O  O53  1  0.00000000  0.63070500  0.71497800  1
  O  O54  1  0.50000000  0.99201400  0.27350200  1
  O  O55  1  0.23220150  0.68630950  0.99612000  1
  O  O56  1  0.26779850  0.68630950  0.50388000  1
  O  O57  1  0.73220150  0.68630950  0.50388000  1
  O  O58  1  0.76779850  0.68630950  0.99612000  1
  O  O59  1  0.00000000  0.50798600  0.72649800  1
  O  O60  1  0.77592250  0.55930150  0.49629000  1
  O  O61  1  0.50000000  0.63194100  0.26801300  1
  O  O62  1  0.50000000  0.74788200  0.27040100  1
  O  O63  1  0.22407750  0.94069850  0.99629000  1
  O  O64  1  0.50000000  0.86805900  0.76801300  1
  O  O65  1  0.27592250  0.55930150  0.00371000  1
  O  O66  1  0.22407750  0.55930150  0.49629000  1
  O  O67  1  0.00000000  0.86929500  0.21497800  1
  O  O68  1  0.50000000  0.50798600  0.77350200  1
  O  O69  1  0.76779850  0.81369050  0.49612000  1
  O  O70  1  0.73220150  0.81369050  0.00388000  1
  O  O71  1  0.72407750  0.94069850  0.50371000  1
  O  O72  1  0.23220150  0.81369050  0.49612000  1
  O  O73  1  0.00000000  0.74788200  0.22959900  1
  O  O74  1  0.00000000  0.63194100  0.23198700  1
  O  O75  1  0.50000000  0.63070500  0.78502200  1
  O  O76  1  0.27592250  0.44069850  0.99629000  1
  O  O77  1  0.00000000  0.36929500  0.28502200  1
  O  O78  1  0.22407750  0.05930150  0.00371000  1
  O  O79  1  0.00000000  0.25211800  0.77040100  1
  O  O80  1  0.50000000  0.36805900  0.73198700  1
  O  O81  1  0.50000000  0.25211800  0.72959900  1
  O  O82  1  0.77592250  0.44069850  0.50371000  1
  O  O83  1  0.50000000  0.49201400  0.22649800  1
  O  O84  1  0.76779850  0.31369050  0.00388000  1
  O  O85  1  0.50000000  0.13070500  0.71497800  1
  O  O86  1  0.00000000  0.49201400  0.27350200  1
  O  O87  1  0.73220150  0.18630950  0.99612000  1
  O  O88  1  0.76779850  0.18630950  0.50388000  1
  O  O89  1  0.23220150  0.18630950  0.50388000  1
  O  O90  1  0.26779850  0.18630950  0.99612000  1
  O  O91  1  0.50000000  0.00798600  0.72649800  1
  O  O92  1  0.27592250  0.05930150  0.49629000  1
  O  O93  1  0.00000000  0.13194100  0.26801300  1
  O  O94  1  0.00000000  0.24788200  0.27040100  1
  O  O95  1  0.72407750  0.44069850  0.99629000  1
  O  O96  1  0.00000000  0.36805900  0.76801300  1
  O  O97  1  0.77592250  0.05930150  0.00371000  1
  O  O98  1  0.72407750  0.05930150  0.49629000  1
  O  O99  1  0.50000000  0.36929500  0.21497800  1
  O  O100  1  0.00000000  0.00798600  0.77350200  1
  O  O101  1  0.26779850  0.31369050  0.49612000  1
  O  O102  1  0.23220150  0.31369050  0.00388000  1
  O  O103  1  0.22407750  0.44069850  0.50371000  1
  O  O104  1  0.73220150  0.31369050  0.49612000  1
  O  O105  1  0.50000000  0.24788200  0.22959900  1
  O  O106  1  0.50000000  0.13194100  0.23198700  1
  O  O107  1  0.00000000  0.13070500  0.78502200  1
