# generated using pymatgen
data_Mg2PbW
_symmetry_space_group_name_H-M   'P 1'
_cell_length_a   6.89316600
_cell_length_b   6.89316600
_cell_length_c   6.89316600
_cell_angle_alpha   90.00000000
_cell_angle_beta   90.00000000
_cell_angle_gamma   90.00000000
_symmetry_Int_Tables_number   1
_chemical_formula_structural   Mg2PbW
_chemical_formula_sum   'Mg8 Pb4 W4'
_cell_volume   327.53386622
_cell_formula_units_Z   4
loop_
 _symmetry_equiv_pos_site_id
 _symmetry_equiv_pos_as_xyz
  1  'x, y, z'
loop_
 _atom_site_type_symbol
 _atom_site_label
 _atom_site_symmetry_multiplicity
 _atom_site_fract_x
 _atom_site_fract_y
 _atom_site_fract_z
 _atom_site_occupancy
  Mg  Mg0  1  0.25000000  0.25000000  0.75000000  1
  Mg  Mg1  1  0.50000000  0.00000000  0.00000000  1
  Mg  Mg2  1  0.25000000  0.75000000  0.25000000  1
  Mg  Mg3  1  0.50000000  0.50000000  0.50000000  1
  Mg  Mg4  1  0.75000000  0.25000000  0.25000000  1
  Mg  Mg5  1  0.00000000  0.00000000  0.50000000  1
  Mg  Mg6  1  0.75000000  0.75000000  0.75000000  1
  Mg  Mg7  1  0.00000000  0.50000000  0.00000000  1
  Pb  Pb8  1  0.25000000  0.25000000  0.25000000  1
  Pb  Pb9  1  0.25000000  0.75000000  0.75000000  1
  Pb  Pb10  1  0.75000000  0.25000000  0.75000000  1
  Pb  Pb11  1  0.75000000  0.75000000  0.25000000  1
  W  W12  1  0.00000000  0.00000000  0.00000000  1
  W  W13  1  0.00000000  0.50000000  0.50000000  1
  W  W14  1  0.50000000  0.00000000  0.50000000  1
  W  W15  1  0.50000000  0.50000000  0.00000000  1
