# generated using pymatgen
data_Sm2(InCo3)3
_symmetry_space_group_name_H-M   'P 1'
_cell_length_a   4.89987044
_cell_length_b   22.20185987
_cell_length_c   4.03315956
_cell_angle_alpha   90.00000000
_cell_angle_beta   90.00000000
_cell_angle_gamma   90.00000000
_symmetry_Int_Tables_number   1
_chemical_formula_structural   Sm2(InCo3)3
_chemical_formula_sum   'Sm4 In6 Co18'
_cell_volume   438.75225110
_cell_formula_units_Z   2
loop_
 _symmetry_equiv_pos_site_id
 _symmetry_equiv_pos_as_xyz
  1  'x, y, z'
loop_
 _atom_site_type_symbol
 _atom_site_label
 _atom_site_symmetry_multiplicity
 _atom_site_fract_x
 _atom_site_fract_y
 _atom_site_fract_z
 _atom_site_occupancy
  Sm  Sm0  1  0.00645684  0.31878181  0.00000000  1
  Sm  Sm1  1  0.50645684  0.18121819  0.00000000  1
  Sm  Sm2  1  0.50645684  0.81878181  0.00000000  1
  Sm  Sm3  1  0.00645684  0.68121819  0.00000000  1
  In  In4  1  0.00596250  0.20213309  0.50000000  1
  In  In5  1  0.50596250  0.29786691  0.50000000  1
  In  In6  1  0.49964502  0.50000000  0.00000000  1
  In  In7  1  0.50596250  0.70213309  0.50000000  1
  In  In8  1  0.00596250  0.79786691  0.50000000  1
  In  In9  1  0.99964502  0.00000000  0.00000000  1
  Co  Co10  1  0.00087803  0.11864255  0.00000000  1
  Co  Co11  1  0.75244983  0.09219716  0.50000000  1
  Co  Co12  1  0.50087803  0.38135745  0.00000000  1
  Co  Co13  1  0.25244983  0.40780284  0.50000000  1
  Co  Co14  1  0.00110682  0.43867462  0.00000000  1
  Co  Co15  1  0.49765079  0.00000000  0.50000000  1
  Co  Co16  1  0.50110682  0.06132538  0.00000000  1
  Co  Co17  1  0.24573138  0.09271929  0.50000000  1
  Co  Co18  1  0.74573138  0.40728071  0.50000000  1
  Co  Co19  1  0.50087803  0.61864255  0.00000000  1
  Co  Co20  1  0.25244983  0.59219716  0.50000000  1
  Co  Co21  1  0.00087803  0.88135745  0.00000000  1
  Co  Co22  1  0.75244983  0.90780284  0.50000000  1
  Co  Co23  1  0.50110682  0.93867462  0.00000000  1
  Co  Co24  1  0.99765079  0.50000000  0.50000000  1
  Co  Co25  1  0.00110682  0.56132538  0.00000000  1
  Co  Co26  1  0.74573138  0.59271929  0.50000000  1
  Co  Co27  1  0.24573138  0.90728071  0.50000000  1
