# generated using pymatgen
data_Al2CoO4
_symmetry_space_group_name_H-M   'P 1'
_cell_length_a   5.78422421
_cell_length_b   5.78422421
_cell_length_c   56.71937687
_cell_angle_alpha   90.00000000
_cell_angle_beta   90.00000000
_cell_angle_gamma   120.00000000
_symmetry_Int_Tables_number   1
_chemical_formula_structural   Al2CoO4
_chemical_formula_sum   'Al48 Co24 O96'
_cell_volume   1643.43420285
_cell_formula_units_Z   24
loop_
 _symmetry_equiv_pos_site_id
 _symmetry_equiv_pos_as_xyz
  1  'x, y, z'
loop_
 _atom_site_type_symbol
 _atom_site_label
 _atom_site_symmetry_multiplicity
 _atom_site_fract_x
 _atom_site_fract_y
 _atom_site_fract_z
 _atom_site_occupancy
  Al  Al0  1  0.00000000  0.00000000  0.31196000  1
  Al  Al1  1  0.50162267  0.49837733  0.28127333  1
  Al  Al2  1  0.50162267  0.00324533  0.28127333  1
  Al  Al3  1  0.99675467  0.49837733  0.28127333  1
  Al  Al4  1  0.83354633  0.16645367  0.19785467  1
  Al  Al5  1  0.83354633  0.66709267  0.19785467  1
  Al  Al6  1  0.66666667  0.33333333  0.23939033  1
  Al  Al7  1  0.33290733  0.16645367  0.19785467  1
  Al  Al8  1  0.16662200  0.83337800  0.11435500  1
  Al  Al9  1  0.16662200  0.33324400  0.11435500  1
  Al  Al10  1  0.00000000  0.00000000  0.15609700  1
  Al  Al11  1  0.66675600  0.83337800  0.11435500  1
  Al  Al12  1  0.50206433  0.49793567  0.03146967  1
  Al  Al13  1  0.50206433  0.00412867  0.03146967  1
  Al  Al14  1  0.33333333  0.66666667  0.07281267  1
  Al  Al15  1  0.99587133  0.49793567  0.03146967  1
  Al  Al16  1  0.66666667  0.33333333  0.64529333  1
  Al  Al17  1  0.16828933  0.83171067  0.61460667  1
  Al  Al18  1  0.16828933  0.33657867  0.61460667  1
  Al  Al19  1  0.66342133  0.83171067  0.61460667  1
  Al  Al20  1  0.50021300  0.49978700  0.53118800  1
  Al  Al21  1  0.50021300  0.00042600  0.53118800  1
  Al  Al22  1  0.33333333  0.66666667  0.57272367  1
  Al  Al23  1  0.99957400  0.49978700  0.53118800  1
  Al  Al24  1  0.83328867  0.16671133  0.44768833  1
  Al  Al25  1  0.83328867  0.66657733  0.44768833  1
  Al  Al26  1  0.66666667  0.33333333  0.48943033  1
  Al  Al27  1  0.33342267  0.16671133  0.44768833  1
  Al  Al28  1  0.16873100  0.83126900  0.36480300  1
  Al  Al29  1  0.16873100  0.33746200  0.36480300  1
  Al  Al30  1  0.00000000  0.00000000  0.40614600  1
  Al  Al31  1  0.66253800  0.83126900  0.36480300  1
  Al  Al32  1  0.33333333  0.66666667  0.97862667  1
  Al  Al33  1  0.83495600  0.16504400  0.94794000  1
  Al  Al34  1  0.83495600  0.66991200  0.94794000  1
  Al  Al35  1  0.33008800  0.16504400  0.94794000  1
  Al  Al36  1  0.16687967  0.83312033  0.86452133  1
  Al  Al37  1  0.16687967  0.33375933  0.86452133  1
  Al  Al38  1  0.00000000  0.00000000  0.90605700  1
  Al  Al39  1  0.66624067  0.83312033  0.86452133  1
  Al  Al40  1  0.49995533  0.50004467  0.78102167  1
  Al  Al41  1  0.49995533  0.99991067  0.78102167  1
  Al  Al42  1  0.33333333  0.66666667  0.82276367  1
  Al  Al43  1  0.00008933  0.50004467  0.78102167  1
  Al  Al44  1  0.83539767  0.16460233  0.69813633  1
  Al  Al45  1  0.83539767  0.67079533  0.69813633  1
  Al  Al46  1  0.66666667  0.33333333  0.73947933  1
  Al  Al47  1  0.32920467  0.16460233  0.69813633  1
  Co  Co48  1  0.00000000  0.00000000  0.00074500  1
  Co  Co49  1  0.33333333  0.66666667  0.22964067  1
  Co  Co50  1  0.33333333  0.66666667  0.32356167  1
  Co  Co51  1  0.00000000  0.00000000  0.25003900  1
  Co  Co52  1  0.66666667  0.33333333  0.14573433  1
  Co  Co53  1  0.00000000  0.00000000  0.06162200  1
  Co  Co54  1  0.33333333  0.66666667  0.16649267  1
  Co  Co55  1  0.66666667  0.33333333  0.08360633  1
  Co  Co56  1  0.66666667  0.33333333  0.33407833  1
  Co  Co57  1  0.00000000  0.00000000  0.56297400  1
  Co  Co58  1  0.00000000  0.00000000  0.65689500  1
  Co  Co59  1  0.66666667  0.33333333  0.58337233  1
  Co  Co60  1  0.33333333  0.66666667  0.47906767  1
  Co  Co61  1  0.66666667  0.33333333  0.39495533  1
  Co  Co62  1  0.00000000  0.00000000  0.49982600  1
  Co  Co63  1  0.33333333  0.66666667  0.41693967  1
  Co  Co64  1  0.33333333  0.66666667  0.66741167  1
  Co  Co65  1  0.66666667  0.33333333  0.89630733  1
  Co  Co66  1  0.66666667  0.33333333  0.99022833  1
  Co  Co67  1  0.33333333  0.66666667  0.91670567  1
  Co  Co68  1  0.00000000  0.00000000  0.81240100  1
  Co  Co69  1  0.33333333  0.66666667  0.72828867  1
  Co  Co70  1  0.66666667  0.33333333  0.83315933  1
  Co  Co71  1  0.00000000  0.00000000  0.75027300  1
  O  O72  1  0.66306333  0.83153167  0.29982467  1
  O  O73  1  0.33333333  0.66666667  0.26525767  1
  O  O74  1  0.16846833  0.33693667  0.29982467  1
  O  O75  1  0.16846833  0.83153167  0.29982467  1
  O  O76  1  0.96251600  0.48125800  0.21760000  1
  O  O77  1  0.81310600  0.18689400  0.26134500  1
  O  O78  1  0.66666667  0.33333333  0.29867233  1
  O  O79  1  0.66666667  0.33333333  0.18078033  1
  O  O80  1  0.81310600  0.62621200  0.26134500  1
  O  O81  1  0.51874200  0.03748400  0.21760000  1
  O  O82  1  0.51874200  0.48125800  0.21760000  1
  O  O83  1  0.37378800  0.18689400  0.26134500  1
  O  O84  1  0.29453067  0.14726533  0.13409633  1
  O  O85  1  0.14733333  0.85266667  0.17828467  1
  O  O86  1  0.14733333  0.29466667  0.17828467  1
  O  O87  1  0.00000000  0.00000000  0.09696400  1
  O  O88  1  0.85273467  0.70546933  0.13409633  1
  O  O89  1  0.00000000  0.00000000  0.21517600  1
  O  O90  1  0.85273467  0.14726533  0.13409633  1
  O  O91  1  0.70533333  0.85266667  0.17828467  1
  O  O92  1  0.62325933  0.81162967  0.05065167  1
  O  O93  1  0.48045167  0.51954833  0.09493133  1
  O  O94  1  0.33333333  0.66666667  0.01090567  1
  O  O95  1  0.18837033  0.37674067  0.05065167  1
  O  O96  1  0.48045167  0.96090333  0.09493133  1
  O  O97  1  0.33333333  0.66666667  0.13173667  1
  O  O98  1  0.18837033  0.81162967  0.05065167  1
  O  O99  1  0.03909667  0.51954833  0.09493133  1
  O  O100  1  0.82065267  0.17934733  0.01375133  1
  O  O101  1  0.82065267  0.64130533  0.01375133  1
  O  O102  1  0.66666667  0.33333333  0.04915833  1
  O  O103  1  0.35869467  0.17934733  0.01375133  1
  O  O104  1  0.32973000  0.16486500  0.63315800  1
  O  O105  1  0.00000000  0.00000000  0.59859100  1
  O  O106  1  0.83513500  0.67027000  0.63315800  1
  O  O107  1  0.83513500  0.16486500  0.63315800  1
  O  O108  1  0.62918267  0.81459133  0.55093333  1
  O  O109  1  0.47977267  0.52022733  0.59467833  1
  O  O110  1  0.33333333  0.66666667  0.63200567  1
  O  O111  1  0.33333333  0.66666667  0.51411367  1
  O  O112  1  0.47977267  0.95954533  0.59467833  1
  O  O113  1  0.18540867  0.37081733  0.55093333  1
  O  O114  1  0.18540867  0.81459133  0.55093333  1
  O  O115  1  0.04045467  0.52022733  0.59467833  1
  O  O116  1  0.96119733  0.48059867  0.46742967  1
  O  O117  1  0.81400000  0.18600000  0.51161800  1
  O  O118  1  0.81400000  0.62800000  0.51161800  1
  O  O119  1  0.66666667  0.33333333  0.43029733  1
  O  O120  1  0.51940133  0.03880267  0.46742967  1
  O  O121  1  0.66666667  0.33333333  0.54850933  1
  O  O122  1  0.51940133  0.48059867  0.46742967  1
  O  O123  1  0.37200000  0.18600000  0.51161800  1
  O  O124  1  0.28992600  0.14496300  0.38398500  1
  O  O125  1  0.14711833  0.85288167  0.42826467  1
  O  O126  1  0.00000000  0.00000000  0.34423900  1
  O  O127  1  0.85503700  0.71007400  0.38398500  1
  O  O128  1  0.14711833  0.29423667  0.42826467  1
  O  O129  1  0.00000000  0.00000000  0.46507000  1
  O  O130  1  0.85503700  0.14496300  0.38398500  1
  O  O131  1  0.70576333  0.85288167  0.42826467  1
  O  O132  1  0.48731933  0.51268067  0.34708467  1
  O  O133  1  0.48731933  0.97463867  0.34708467  1
  O  O134  1  0.33333333  0.66666667  0.38249167  1
  O  O135  1  0.02536133  0.51268067  0.34708467  1
  O  O136  1  0.99639667  0.49819833  0.96649133  1
  O  O137  1  0.66666667  0.33333333  0.93192433  1
  O  O138  1  0.50180167  0.00360333  0.96649133  1
  O  O139  1  0.50180167  0.49819833  0.96649133  1
  O  O140  1  0.29584933  0.14792467  0.88426667  1
  O  O141  1  0.14643933  0.85356067  0.92801167  1
  O  O142  1  0.00000000  0.00000000  0.96533900  1
  O  O143  1  0.00000000  0.00000000  0.84744700  1
  O  O144  1  0.14643933  0.29287867  0.92801167  1
  O  O145  1  0.85207533  0.70415067  0.88426667  1
  O  O146  1  0.85207533  0.14792467  0.88426667  1
  O  O147  1  0.70712133  0.85356067  0.92801167  1
  O  O148  1  0.62786400  0.81393200  0.80076300  1
  O  O149  1  0.48066667  0.51933333  0.84495133  1
  O  O150  1  0.48066667  0.96133333  0.84495133  1
  O  O151  1  0.33333333  0.66666667  0.76363067  1
  O  O152  1  0.18606800  0.37213600  0.80076300  1
  O  O153  1  0.33333333  0.66666667  0.88184267  1
  O  O154  1  0.18606800  0.81393200  0.80076300  1
  O  O155  1  0.03866667  0.51933333  0.84495133  1
  O  O156  1  0.95659267  0.47829633  0.71731833  1
  O  O157  1  0.81378500  0.18621500  0.76159800  1
  O  O158  1  0.66666667  0.33333333  0.67757233  1
  O  O159  1  0.52170367  0.04340733  0.71731833  1
  O  O160  1  0.81378500  0.62757000  0.76159800  1
  O  O161  1  0.66666667  0.33333333  0.79840333  1
  O  O162  1  0.52170367  0.47829633  0.71731833  1
  O  O163  1  0.37243000  0.18621500  0.76159800  1
  O  O164  1  0.15398600  0.84601400  0.68041800  1
  O  O165  1  0.15398600  0.30797200  0.68041800  1
  O  O166  1  0.00000000  0.00000000  0.71582500  1
  O  O167  1  0.69202800  0.84601400  0.68041800  1
