# generated using pymatgen
data_CuPO4
_symmetry_space_group_name_H-M   'P 1'
_cell_length_a   14.22205023
_cell_length_b   14.22205023
_cell_length_c   9.11563767
_cell_angle_alpha   90.00000000
_cell_angle_beta   90.00000000
_cell_angle_gamma   120.00000000
_symmetry_Int_Tables_number   1
_chemical_formula_structural   CuPO4
_chemical_formula_sum   'Cu18 P18 O72'
_cell_volume   1596.76903662
_cell_formula_units_Z   18
loop_
 _symmetry_equiv_pos_site_id
 _symmetry_equiv_pos_as_xyz
  1  'x, y, z'
loop_
 _atom_site_type_symbol
 _atom_site_label
 _atom_site_symmetry_multiplicity
 _atom_site_fract_x
 _atom_site_fract_y
 _atom_site_fract_z
 _atom_site_occupancy
  Cu  Cu0  1  0.98492600  0.78420900  0.25697400  1
  Cu  Cu1  1  0.79928300  0.01507400  0.25697400  1
  Cu  Cu2  1  0.21579100  0.20071700  0.25697400  1
  Cu  Cu3  1  0.20439133  0.99191567  0.75956367  1
  Cu  Cu4  1  0.00808433  0.21247567  0.75956367  1
  Cu  Cu5  1  0.78752433  0.79560867  0.75956367  1
  Cu  Cu6  1  0.65159267  0.11754233  0.59030733  1
  Cu  Cu7  1  0.46594967  0.34840733  0.59030733  1
  Cu  Cu8  1  0.88245767  0.53405033  0.59030733  1
  Cu  Cu9  1  0.87105800  0.32524900  0.09289700  1
  Cu  Cu10  1  0.67475100  0.54580900  0.09289700  1
  Cu  Cu11  1  0.45419100  0.12894200  0.09289700  1
  Cu  Cu12  1  0.31825933  0.45087567  0.92364067  1
  Cu  Cu13  1  0.13261633  0.68174067  0.92364067  1
  Cu  Cu14  1  0.54912433  0.86738367  0.92364067  1
  Cu  Cu15  1  0.53772467  0.65858233  0.42623033  1
  Cu  Cu16  1  0.34141767  0.87914233  0.42623033  1
  Cu  Cu17  1  0.12085767  0.46227533  0.42623033  1
  P  P18  1  0.53911467  0.86440133  0.58087733  1
  P  P19  1  0.01398633  0.20785767  0.41600467  1
  P  P20  1  0.19387133  0.98601367  0.41600467  1
  P  P21  1  0.79214233  0.80612867  0.41600467  1
  P  P22  1  0.32528667  0.46088533  0.58087733  1
  P  P23  1  0.13559867  0.67471333  0.58087733  1
  P  P24  1  0.20578133  0.19773467  0.91421067  1
  P  P25  1  0.68065300  0.54119100  0.74933800  1
  P  P26  1  0.86053800  0.31934700  0.74933800  1
  P  P27  1  0.45880900  0.13946200  0.74933800  1
  P  P28  1  0.99195333  0.79421867  0.91421067  1
  P  P29  1  0.80226533  0.00804667  0.91421067  1
  P  P30  1  0.87244800  0.53106800  0.24754400  1
  P  P31  1  0.34731967  0.87452433  0.08267133  1
  P  P32  1  0.52720467  0.65268033  0.08267133  1
  P  P33  1  0.12547567  0.47279533  0.08267133  1
  P  P34  1  0.65862000  0.12755200  0.24754400  1
  P  P35  1  0.46893200  0.34138000  0.24754400  1
  O  O36  1  0.21770767  0.10360233  0.40097133  1
  O  O37  1  0.68463567  0.69620533  0.39653733  1
  O  O38  1  0.30379467  0.98843033  0.39653733  1
  O  O39  1  0.79688533  0.88383467  0.29506967  1
  O  O40  1  0.54871533  0.79689267  0.45649067  1
  O  O41  1  0.52220333  0.39374567  0.39618567  1
  O  O42  1  0.88589467  0.78229233  0.40097133  1
  O  O43  1  0.05860867  0.20180333  0.56833633  1
  O  O44  1  0.24817733  0.45128467  0.45649067  1
  O  O45  1  0.14319467  0.94139133  0.56833633  1
  O  O46  1  0.33929633  0.35912867  0.57499067  1
  O  O47  1  0.87154233  0.47779667  0.39618567  1
  O  O48  1  0.77011733  0.23069767  0.23204367  1
  O  O49  1  0.01983233  0.66070367  0.57499067  1
  O  O50  1  0.20310733  0.75182267  0.45649067  1
  O  O51  1  0.46058033  0.22988267  0.23204367  1
  O  O52  1  0.08694933  0.20311467  0.29506967  1
  O  O53  1  0.64087133  0.98016767  0.57499067  1
  O  O54  1  0.89639767  0.11410533  0.40097133  1
  O  O55  1  0.01156967  0.31536433  0.39653733  1
  O  O56  1  0.60625433  0.12845767  0.39618567  1
  O  O57  1  0.76930233  0.53941967  0.23204367  1
  O  O58  1  0.11616533  0.91305067  0.29506967  1
  O  O59  1  0.79819667  0.85680533  0.56833633  1
  O  O60  1  0.88437433  0.43693567  0.73430467  1
  O  O61  1  0.35130233  0.02953867  0.72987067  1
  O  O62  1  0.97046133  0.32176367  0.72987067  1
  O  O63  1  0.46355200  0.21716800  0.62840300  1
  O  O64  1  0.21538200  0.13022600  0.78982400  1
  O  O65  1  0.18887000  0.72707900  0.72951900  1
  O  O66  1  0.55256133  0.11562567  0.73430467  1
  O  O67  1  0.72527533  0.53513667  0.90166967  1
  O  O68  1  0.91484400  0.78461800  0.78982400  1
  O  O69  1  0.80986133  0.27472467  0.90166967  1
  O  O70  1  0.00596300  0.69246200  0.90832400  1
  O  O71  1  0.53820900  0.81113000  0.72951900  1
  O  O72  1  0.43678400  0.56403100  0.56537700  1
  O  O73  1  0.68649900  0.99403700  0.90832400  1
  O  O74  1  0.86977400  0.08515600  0.78982400  1
  O  O75  1  0.12724700  0.56321600  0.56537700  1
  O  O76  1  0.75361600  0.53644800  0.62840300  1
  O  O77  1  0.30753800  0.31350100  0.90832400  1
  O  O78  1  0.56306433  0.44743867  0.73430467  1
  O  O79  1  0.67823633  0.64869767  0.72987067  1
  O  O80  1  0.27292100  0.46179100  0.72951900  1
  O  O81  1  0.43596900  0.87275300  0.56537700  1
  O  O82  1  0.78283200  0.24638400  0.62840300  1
  O  O83  1  0.46486333  0.19013867  0.90166967  1
  O  O84  1  0.55104100  0.77026900  0.06763800  1
  O  O85  1  0.01796900  0.36287200  0.06320400  1
  O  O86  1  0.63712800  0.65509700  0.06320400  1
  O  O87  1  0.13021867  0.55050133  0.96173633  1
  O  O88  1  0.88204867  0.46355933  0.12315733  1
  O  O89  1  0.85553667  0.06041233  0.06285233  1
  O  O90  1  0.21922800  0.44895900  0.06763800  1
  O  O91  1  0.39194200  0.86847000  0.23500300  1
  O  O92  1  0.58151067  0.11795133  0.12315733  1
  O  O93  1  0.47652800  0.60805800  0.23500300  1
  O  O94  1  0.67262967  0.02579533  0.24165733  1
  O  O95  1  0.20487567  0.14446333  0.06285233  1
  O  O96  1  0.10345067  0.89736433  0.89871033  1
  O  O97  1  0.35316567  0.32737033  0.24165733  1
  O  O98  1  0.53644067  0.41848933  0.12315733  1
  O  O99  1  0.79391367  0.89654933  0.89871033  1
  O  O100  1  0.42028267  0.86978133  0.96173633  1
  O  O101  1  0.97420467  0.64683433  0.24165733  1
  O  O102  1  0.22973100  0.78077200  0.06763800  1
  O  O103  1  0.34490300  0.98203100  0.06320400  1
  O  O104  1  0.93958767  0.79512433  0.06285233  1
  O  O105  1  0.10263567  0.20608633  0.89871033  1
  O  O106  1  0.44949867  0.57971733  0.96173633  1
  O  O107  1  0.13153000  0.52347200  0.23500300  1
