# generated using pymatgen
data_Ba4Pr(RuO4)3
_symmetry_space_group_name_H-M   'P 1'
_cell_length_a   10.37304895
_cell_length_b   5.99734465
_cell_length_c   10.64969502
_cell_angle_alpha   90.00000000
_cell_angle_beta   110.01706155
_cell_angle_gamma   90.00000000
_symmetry_Int_Tables_number   1
_chemical_formula_structural   Ba4Pr(RuO4)3
_chemical_formula_sum   'Ba8 Pr2 Ru6 O24'
_cell_volume   622.50282957
_cell_formula_units_Z   2
loop_
 _symmetry_equiv_pos_site_id
 _symmetry_equiv_pos_as_xyz
  1  'x, y, z'
loop_
 _atom_site_type_symbol
 _atom_site_label
 _atom_site_symmetry_multiplicity
 _atom_site_fract_x
 _atom_site_fract_y
 _atom_site_fract_z
 _atom_site_occupancy
  Ba  Ba0  1  0.22087400  0.50000000  0.15516600  1
  Ba  Ba1  1  0.27912600  0.00000000  0.84483400  1
  Ba  Ba2  1  0.13053967  0.00000000  0.39301000  1
  Ba  Ba3  1  0.36946033  0.50000000  0.60699000  1
  Ba  Ba4  1  0.72087400  0.00000000  0.15516600  1
  Ba  Ba5  1  0.77912600  0.50000000  0.84483400  1
  Ba  Ba6  1  0.63053967  0.50000000  0.39301000  1
  Ba  Ba7  1  0.86946033  0.00000000  0.60699000  1
  Pr  Pr8  1  0.00000000  0.00000000  0.00000000  1
  Pr  Pr9  1  0.50000000  0.50000000  0.00000000  1
  Ru  Ru10  1  0.91986067  0.50000000  0.24515800  1
  Ru  Ru11  1  0.50000000  0.00000000  0.50000000  1
  Ru  Ru12  1  0.58013933  0.00000000  0.75484200  1
  Ru  Ru13  1  0.41986067  0.00000000  0.24515800  1
  Ru  Ru14  1  0.00000000  0.50000000  0.50000000  1
  Ru  Ru15  1  0.08013933  0.50000000  0.75484200  1
  O  O16  1  0.38228233  0.00000000  0.61683900  1
  O  O17  1  0.38173767  0.23322067  0.37166900  1
  O  O18  1  0.76866233  0.00000000  0.87325600  1
  O  O19  1  0.11826233  0.26677933  0.62833100  1
  O  O20  1  0.11771767  0.50000000  0.38316100  1
  O  O21  1  0.96824900  0.73238933  0.14359100  1
  O  O22  1  0.53175100  0.23238933  0.85640900  1
  O  O23  1  0.53175100  0.76761067  0.85640900  1
  O  O24  1  0.88173767  0.26677933  0.37166900  1
  O  O25  1  0.73133767  0.50000000  0.12674400  1
  O  O26  1  0.61826233  0.23322067  0.62833100  1
  O  O27  1  0.96824900  0.26761067  0.14359100  1
  O  O28  1  0.88228233  0.50000000  0.61683900  1
  O  O29  1  0.88173767  0.73322067  0.37166900  1
  O  O30  1  0.26866233  0.50000000  0.87325600  1
  O  O31  1  0.61826233  0.76677933  0.62833100  1
  O  O32  1  0.61771767  0.00000000  0.38316100  1
  O  O33  1  0.46824900  0.23238933  0.14359100  1
  O  O34  1  0.03175100  0.73238933  0.85640900  1
  O  O35  1  0.03175100  0.26761067  0.85640900  1
  O  O36  1  0.38173767  0.76677933  0.37166900  1
  O  O37  1  0.23133767  0.00000000  0.12674400  1
  O  O38  1  0.11826233  0.73322067  0.62833100  1
  O  O39  1  0.46824900  0.76761067  0.14359100  1
