# generated using pymatgen
data_Ce2PbS4
_symmetry_space_group_name_H-M   'P 1'
_cell_length_a   8.71116200
_cell_length_b   8.71116200
_cell_length_c   8.73171600
_cell_angle_alpha   90.00000000
_cell_angle_beta   90.00000000
_cell_angle_gamma   90.00000000
_symmetry_Int_Tables_number   1
_chemical_formula_structural   Ce2PbS4
_chemical_formula_sum   'Ce8 Pb4 S16'
_cell_volume   662.60053533
_cell_formula_units_Z   4
loop_
 _symmetry_equiv_pos_site_id
 _symmetry_equiv_pos_as_xyz
  1  'x, y, z'
loop_
 _atom_site_type_symbol
 _atom_site_label
 _atom_site_symmetry_multiplicity
 _atom_site_fract_x
 _atom_site_fract_y
 _atom_site_fract_z
 _atom_site_occupancy
  Ce  Ce0  1  0.86773600  0.25000000  0.62500000  1
  Ce  Ce1  1  0.63226400  0.25000000  0.12500000  1
  Ce  Ce2  1  0.25000000  0.36773600  0.87500000  1
  Ce  Ce3  1  0.25000000  0.13226400  0.37500000  1
  Ce  Ce4  1  0.36773600  0.75000000  0.12500000  1
  Ce  Ce5  1  0.13226400  0.75000000  0.62500000  1
  Ce  Ce6  1  0.75000000  0.86773600  0.37500000  1
  Ce  Ce7  1  0.75000000  0.63226400  0.87500000  1
  Pb  Pb8  1  0.00000000  0.50000000  0.25000000  1
  Pb  Pb9  1  0.00000000  0.00000000  0.00000000  1
  Pb  Pb10  1  0.50000000  0.00000000  0.75000000  1
  Pb  Pb11  1  0.50000000  0.50000000  0.50000000  1
  S  S12  1  0.07625800  0.67117800  0.94073300  1
  S  S13  1  0.17117800  0.07625800  0.69073300  1
  S  S14  1  0.17117800  0.42374200  0.55926700  1
  S  S15  1  0.42374200  0.82882200  0.44073300  1
  S  S16  1  0.57625800  0.32882200  0.80926700  1
  S  S17  1  0.32882200  0.07625800  0.05926700  1
  S  S18  1  0.92374200  0.17117800  0.30926700  1
  S  S19  1  0.32882200  0.42374200  0.19073300  1
  S  S20  1  0.57625800  0.17117800  0.44073300  1
  S  S21  1  0.67117800  0.57625800  0.19073300  1
  S  S22  1  0.67117800  0.92374200  0.05926700  1
  S  S23  1  0.92374200  0.32882200  0.94073300  1
  S  S24  1  0.07625800  0.82882200  0.30926700  1
  S  S25  1  0.82882200  0.57625800  0.55926700  1
  S  S26  1  0.42374200  0.67117800  0.80926700  1
  S  S27  1  0.82882200  0.92374200  0.69073300  1
