# generated using pymatgen
data_Li7MnAs4
_symmetry_space_group_name_H-M   'P 1'
_cell_length_a   11.96615587
_cell_length_b   11.95927332
_cell_length_c   6.03409491
_cell_angle_alpha   90.00000000
_cell_angle_beta   90.29315375
_cell_angle_gamma   90.00000000
_symmetry_Int_Tables_number   1
_chemical_formula_structural   Li7MnAs4
_chemical_formula_sum   'Li28 Mn4 As16'
_cell_volume   863.50707392
_cell_formula_units_Z   4
loop_
 _symmetry_equiv_pos_site_id
 _symmetry_equiv_pos_as_xyz
  1  'x, y, z'
loop_
 _atom_site_type_symbol
 _atom_site_label
 _atom_site_symmetry_multiplicity
 _atom_site_fract_x
 _atom_site_fract_y
 _atom_site_fract_z
 _atom_site_occupancy
  Li  Li0  1  0.25116847  0.00248741  0.81232944  1
  Li  Li1  1  0.24294999  0.49038930  0.17815751  1
  Li  Li2  1  0.50000000  0.51058631  0.75000000  1
  Li  Li3  1  0.00000000  0.48700229  0.75000000  1
  Li  Li4  1  0.00000000  0.25018115  0.75000000  1
  Li  Li5  1  0.26133451  0.75179080  0.75081208  1
  Li  Li6  1  0.23866549  0.25179080  0.74918792  1
  Li  Li7  1  0.25116847  0.99751259  0.31232944  1
  Li  Li8  1  0.24883153  0.50248741  0.68767056  1
  Li  Li9  1  0.23866549  0.74820920  0.24918792  1
  Li  Li10  1  0.00000000  0.74981885  0.25000000  1
  Li  Li11  1  0.26133451  0.24820920  0.25081208  1
  Li  Li12  1  0.50000000  0.48941369  0.25000000  1
  Li  Li13  1  0.00000000  0.51299771  0.25000000  1
  Li  Li14  1  0.75116848  0.50248741  0.81232944  1
  Li  Li15  1  0.74294999  0.99038930  0.17815751  1
  Li  Li16  1  0.00000000  0.01058631  0.75000000  1
  Li  Li17  1  0.50000000  0.98700229  0.75000000  1
  Li  Li18  1  0.50000000  0.75018115  0.75000000  1
  Li  Li19  1  0.76133451  0.25179080  0.75081208  1
  Li  Li20  1  0.73866549  0.75179080  0.74918792  1
  Li  Li21  1  0.75116848  0.49751259  0.31232944  1
  Li  Li22  1  0.74883152  0.00248741  0.68767056  1
  Li  Li23  1  0.73866549  0.24820920  0.24918792  1
  Li  Li24  1  0.50000000  0.24981885  0.25000000  1
  Li  Li25  1  0.76133451  0.74820920  0.25081208  1
  Li  Li26  1  0.00000000  0.98941370  0.25000000  1
  Li  Li27  1  0.50000000  0.01299771  0.25000000  1
  Mn  Mn28  1  0.00000000  0.74795881  0.75000000  1
  Mn  Mn29  1  0.00000000  0.25204119  0.25000000  1
  Mn  Mn30  1  0.50000000  0.24795881  0.75000000  1
  Mn  Mn31  1  0.50000000  0.75204119  0.25000000  1
  As  As32  1  0.38256434  0.36652098  0.96288352  1
  As  As33  1  0.61743566  0.63347902  0.03711648  1
  As  As34  1  0.38256434  0.63347902  0.46288352  1
  As  As35  1  0.61743566  0.36652098  0.53711648  1
  As  As36  1  0.88163337  0.63130685  0.53626981  1
  As  As37  1  0.11836663  0.36869315  0.46373019  1
  As  As38  1  0.11836663  0.63130685  0.96373019  1
  As  As39  1  0.38163337  0.86869315  0.03626981  1
  As  As40  1  0.88256434  0.86652098  0.96288352  1
  As  As41  1  0.11743566  0.13347902  0.03711648  1
  As  As42  1  0.88256434  0.13347902  0.46288352  1
  As  As43  1  0.11743566  0.86652098  0.53711648  1
  As  As44  1  0.38163337  0.13130685  0.53626981  1
  As  As45  1  0.61836663  0.86869315  0.46373019  1
  As  As46  1  0.61836663  0.13130685  0.96373019  1
  As  As47  1  0.88163337  0.36869315  0.03626981  1
