# generated using pymatgen
data_Ca(La2Se3)4
_symmetry_space_group_name_H-M   'P 1'
_cell_length_a   12.87573800
_cell_length_b   12.87292200
_cell_length_c   15.05580557
_cell_angle_alpha   90.00000000
_cell_angle_beta   115.22614115
_cell_angle_gamma   90.00000000
_symmetry_Int_Tables_number   1
_chemical_formula_structural   Ca(La2Se3)4
_chemical_formula_sum   'Ca4 La32 Se48'
_cell_volume   2257.48850311
_cell_formula_units_Z   4
loop_
 _symmetry_equiv_pos_site_id
 _symmetry_equiv_pos_as_xyz
  1  'x, y, z'
loop_
 _atom_site_type_symbol
 _atom_site_label
 _atom_site_symmetry_multiplicity
 _atom_site_fract_x
 _atom_site_fract_y
 _atom_site_fract_z
 _atom_site_occupancy
  Ca  Ca0  1  0.48166650  0.43784850  0.83363300  1
  Ca  Ca1  1  0.48166650  0.56215150  0.33363300  1
  Ca  Ca2  1  0.98166650  0.93784850  0.83363300  1
  Ca  Ca3  1  0.98166650  0.06215150  0.33363300  1
  La  La4  1  0.43588500  0.68598800  0.99860300  1
  La  La5  1  0.58238100  0.12711800  0.91673700  1
  La  La6  1  0.26820700  0.18688600  0.66572900  1
  La  La7  1  0.24870200  0.87335500  0.74883100  1
  La  La8  1  0.60303600  0.81262400  0.83389400  1
  La  La9  1  0.64527450  0.06108950  0.66633800  1
  La  La10  1  0.41610600  0.62286100  0.58453400  1
  La  La11  1  0.31010400  0.93825400  0.49993000  1
  La  La12  1  0.60303600  0.18737600  0.33389400  1
  La  La13  1  0.58238100  0.87288200  0.41673700  1
  La  La14  1  0.43588500  0.31401200  0.49860300  1
  La  La15  1  0.24870200  0.12664500  0.24883100  1
  La  La16  1  0.64527450  0.93891050  0.16633800  1
  La  La17  1  0.41610600  0.37713900  0.08453400  1
  La  La18  1  0.31010400  0.06174600  0.99993000  1
  La  La19  1  0.26820700  0.81311400  0.16572900  1
  La  La20  1  0.93588500  0.18598800  0.99860300  1
  La  La21  1  0.08238100  0.62711800  0.91673700  1
  La  La22  1  0.76820700  0.68688600  0.66572900  1
  La  La23  1  0.74870200  0.37335500  0.74883100  1
  La  La24  1  0.10303600  0.31262400  0.83389400  1
  La  La25  1  0.14527450  0.56108950  0.66633800  1
  La  La26  1  0.91610600  0.12286100  0.58453400  1
  La  La27  1  0.81010400  0.43825400  0.49993000  1
  La  La28  1  0.10303600  0.68737600  0.33389400  1
  La  La29  1  0.08238100  0.37288200  0.41673700  1
  La  La30  1  0.93588500  0.81401200  0.49860300  1
  La  La31  1  0.74870200  0.62664500  0.24883100  1
  La  La32  1  0.14527450  0.43891050  0.16633800  1
  La  La33  1  0.91610600  0.87713900  0.08453400  1
  La  La34  1  0.81010400  0.56174600  0.99993000  1
  La  La35  1  0.76820700  0.31311400  0.16572900  1
  Se  Se36  1  0.47252650  0.92663550  0.94878300  1
  Se  Se37  1  0.76325800  0.00131100  0.88151500  1
  Se  Se38  1  0.22662450  0.82405450  0.94939100  1
  Se  Se39  1  0.53246450  0.24833250  0.71527300  1
  Se  Se40  1  0.43240400  0.00011000  0.71758800  1
  Se  Se41  1  0.36603000  0.25287600  0.88152700  1
  Se  Se42  1  0.39246900  0.67448200  0.78323400  1
  Se  Se43  1  0.80971850  0.92322150  0.61847900  1
  Se  Se44  1  0.14120050  0.07364450  0.78255700  1
  Se  Se45  1  0.09880750  0.00033250  0.54743800  1
  Se  Se46  1  0.55612550  0.82381950  0.61616600  1
  Se  Se47  1  0.36603000  0.74712400  0.38152700  1
  Se  Se48  1  0.76325800  0.99868900  0.38151500  1
  Se  Se49  1  0.70009450  0.24889450  0.55063500  1
  Se  Se50  1  0.22662450  0.17594550  0.44939100  1
  Se  Se51  1  0.14120050  0.92635550  0.28255700  1
  Se  Se52  1  0.47252650  0.07336450  0.44878300  1
  Se  Se53  1  0.43240400  0.99989000  0.21758800  1
  Se  Se54  1  0.39246900  0.32551800  0.28323400  1
  Se  Se55  1  0.70009450  0.75110550  0.05063500  1
  Se  Se56  1  0.09880750  0.99966750  0.04743800  1
  Se  Se57  1  0.53246450  0.75166750  0.21527300  1
  Se  Se58  1  0.55612550  0.17618050  0.11616600  1
  Se  Se59  1  0.80971850  0.07677850  0.11847900  1
  Se  Se60  1  0.97252650  0.42663550  0.94878300  1
  Se  Se61  1  0.26325800  0.50131100  0.88151500  1
  Se  Se62  1  0.72662450  0.32405450  0.94939100  1
  Se  Se63  1  0.03246450  0.74833250  0.71527300  1
  Se  Se64  1  0.93240400  0.50011000  0.71758800  1
  Se  Se65  1  0.86603000  0.75287600  0.88152700  1
  Se  Se66  1  0.89246900  0.17448200  0.78323400  1
  Se  Se67  1  0.30971850  0.42322150  0.61847900  1
  Se  Se68  1  0.64120050  0.57364450  0.78255700  1
  Se  Se69  1  0.59880750  0.50033250  0.54743800  1
  Se  Se70  1  0.05612550  0.32381950  0.61616600  1
  Se  Se71  1  0.86603000  0.24712400  0.38152700  1
  Se  Se72  1  0.26325800  0.49868900  0.38151500  1
  Se  Se73  1  0.20009450  0.74889450  0.55063500  1
  Se  Se74  1  0.72662450  0.67594550  0.44939100  1
  Se  Se75  1  0.64120050  0.42635550  0.28255700  1
  Se  Se76  1  0.97252650  0.57336450  0.44878300  1
  Se  Se77  1  0.93240400  0.49989000  0.21758800  1
  Se  Se78  1  0.89246900  0.82551800  0.28323400  1
  Se  Se79  1  0.20009450  0.25110550  0.05063500  1
  Se  Se80  1  0.59880750  0.49966750  0.04743800  1
  Se  Se81  1  0.03246450  0.25166750  0.21527300  1
  Se  Se82  1  0.05612550  0.67618050  0.11616600  1
  Se  Se83  1  0.30971850  0.57677850  0.11847900  1
