# generated using pymatgen
data_U3O8
_symmetry_space_group_name_H-M   'P 1'
_cell_length_a   7.01477400
_cell_length_b   11.60543800
_cell_length_c   4.16025100
_cell_angle_alpha   90.00000000
_cell_angle_beta   90.00000000
_cell_angle_gamma   90.00000000
_symmetry_Int_Tables_number   1
_chemical_formula_structural   U3O8
_chemical_formula_sum   'U6 O16'
_cell_volume   338.68405671
_cell_formula_units_Z   2
loop_
 _symmetry_equiv_pos_site_id
 _symmetry_equiv_pos_as_xyz
  1  'x, y, z'
loop_
 _atom_site_type_symbol
 _atom_site_label
 _atom_site_symmetry_multiplicity
 _atom_site_fract_x
 _atom_site_fract_y
 _atom_site_fract_z
 _atom_site_occupancy
  U  U0  1  0.50000000  0.18131300  0.00000000  1
  U  U1  1  0.50000000  0.81868700  0.00000000  1
  U  U2  1  0.00000000  0.00000000  0.00000000  1
  U  U3  1  0.00000000  0.68131300  0.00000000  1
  U  U4  1  0.00000000  0.31868700  0.00000000  1
  U  U5  1  0.50000000  0.50000000  0.00000000  1
  O  O6  1  0.18480050  0.14713150  0.00000000  1
  O  O7  1  0.81519950  0.85286850  0.00000000  1
  O  O8  1  0.18480050  0.85286850  0.00000000  1
  O  O9  1  0.50000000  0.00000000  0.00000000  1
  O  O10  1  0.00000000  0.00000000  0.50000000  1
  O  O11  1  0.50000000  0.81572700  0.50000000  1
  O  O12  1  0.50000000  0.18427300  0.50000000  1
  O  O13  1  0.81519950  0.14713150  0.00000000  1
  O  O14  1  0.68480050  0.64713150  0.00000000  1
  O  O15  1  0.31519950  0.35286850  0.00000000  1
  O  O16  1  0.68480050  0.35286850  0.00000000  1
  O  O17  1  0.00000000  0.50000000  0.00000000  1
  O  O18  1  0.50000000  0.50000000  0.50000000  1
  O  O19  1  0.00000000  0.31572700  0.50000000  1
  O  O20  1  0.00000000  0.68427300  0.50000000  1
  O  O21  1  0.31519950  0.64713150  0.00000000  1
