# generated using pymatgen
data_Nd2(Al3Co)3
_symmetry_space_group_name_H-M   'P 1'
_cell_length_a   7.61245200
_cell_length_b   12.96936800
_cell_length_c   9.55297700
_cell_angle_alpha   90.00000000
_cell_angle_beta   90.00000000
_cell_angle_gamma   90.00000000
_symmetry_Int_Tables_number   1
_chemical_formula_structural   Nd2(Al3Co)3
_chemical_formula_sum   'Nd8 Al36 Co12'
_cell_volume   943.15291790
_cell_formula_units_Z   4
loop_
 _symmetry_equiv_pos_site_id
 _symmetry_equiv_pos_as_xyz
  1  'x, y, z'
loop_
 _atom_site_type_symbol
 _atom_site_label
 _atom_site_symmetry_multiplicity
 _atom_site_fract_x
 _atom_site_fract_y
 _atom_site_fract_z
 _atom_site_occupancy
  Nd  Nd0  1  0.16736050  0.83888050  0.75000000  1
  Nd  Nd1  1  0.16736050  0.16111950  0.75000000  1
  Nd  Nd2  1  0.83263950  0.16111950  0.25000000  1
  Nd  Nd3  1  0.83263950  0.83888050  0.25000000  1
  Nd  Nd4  1  0.66736050  0.33888050  0.75000000  1
  Nd  Nd5  1  0.66736050  0.66111950  0.75000000  1
  Nd  Nd6  1  0.33263950  0.66111950  0.25000000  1
  Nd  Nd7  1  0.33263950  0.33888050  0.25000000  1
  Al  Al8  1  0.83218700  0.83256800  0.92967800  1
  Al  Al9  1  0.83218700  0.16743200  0.57032200  1
  Al  Al10  1  0.12809600  0.00000000  0.25000000  1
  Al  Al11  1  0.66638300  0.00000000  0.03968400  1
  Al  Al12  1  0.33361700  0.00000000  0.53968400  1
  Al  Al13  1  0.33361700  0.00000000  0.96031600  1
  Al  Al14  1  0.66638300  0.00000000  0.46031600  1
  Al  Al15  1  0.16781300  0.16743200  0.07032200  1
  Al  Al16  1  0.16781300  0.83256800  0.42967800  1
  Al  Al17  1  0.44444950  0.89388150  0.25000000  1
  Al  Al18  1  0.16781300  0.83256800  0.07032200  1
  Al  Al19  1  0.44444950  0.10611850  0.25000000  1
  Al  Al20  1  0.55555050  0.10611850  0.75000000  1
  Al  Al21  1  0.87190400  0.00000000  0.75000000  1
  Al  Al22  1  0.83218700  0.16743200  0.92967800  1
  Al  Al23  1  0.83218700  0.83256800  0.57032200  1
  Al  Al24  1  0.16781300  0.16743200  0.42967800  1
  Al  Al25  1  0.55555050  0.89388150  0.75000000  1
  Al  Al26  1  0.33218700  0.33256800  0.92967800  1
  Al  Al27  1  0.33218700  0.66743200  0.57032200  1
  Al  Al28  1  0.62809600  0.50000000  0.25000000  1
  Al  Al29  1  0.16638300  0.50000000  0.03968400  1
  Al  Al30  1  0.83361700  0.50000000  0.53968400  1
  Al  Al31  1  0.83361700  0.50000000  0.96031600  1
  Al  Al32  1  0.16638300  0.50000000  0.46031600  1
  Al  Al33  1  0.66781300  0.66743200  0.07032200  1
  Al  Al34  1  0.66781300  0.33256800  0.42967800  1
  Al  Al35  1  0.94444950  0.39388150  0.25000000  1
  Al  Al36  1  0.66781300  0.33256800  0.07032200  1
  Al  Al37  1  0.94444950  0.60611850  0.25000000  1
  Al  Al38  1  0.05555050  0.60611850  0.75000000  1
  Al  Al39  1  0.37190400  0.50000000  0.75000000  1
  Al  Al40  1  0.33218700  0.66743200  0.92967800  1
  Al  Al41  1  0.33218700  0.33256800  0.57032200  1
  Al  Al42  1  0.66781300  0.66743200  0.42967800  1
  Al  Al43  1  0.05555050  0.39388150  0.75000000  1
  Co  Co44  1  0.50000000  0.17017200  0.50000000  1
  Co  Co45  1  0.50000000  0.17017200  0.00000000  1
  Co  Co46  1  0.50000000  0.82982800  0.50000000  1
  Co  Co47  1  0.00000000  0.00000000  0.00000000  1
  Co  Co48  1  0.00000000  0.00000000  0.50000000  1
  Co  Co49  1  0.50000000  0.82982800  0.00000000  1
  Co  Co50  1  0.00000000  0.67017200  0.50000000  1
  Co  Co51  1  0.00000000  0.67017200  0.00000000  1
  Co  Co52  1  0.00000000  0.32982800  0.50000000  1
  Co  Co53  1  0.50000000  0.50000000  0.00000000  1
  Co  Co54  1  0.50000000  0.50000000  0.50000000  1
  Co  Co55  1  0.00000000  0.32982800  0.00000000  1
