# generated using pymatgen
data_Sr3La5Mn8O24
_symmetry_space_group_name_H-M   'P 1'
_cell_length_a   11.06935400
_cell_length_b   11.15422200
_cell_length_c   9.56831303
_cell_angle_alpha   90.00000000
_cell_angle_beta   124.72586273
_cell_angle_gamma   90.00000000
_symmetry_Int_Tables_number   1
_chemical_formula_structural   Sr3La5Mn8O24
_chemical_formula_sum   'Sr6 La10 Mn16 O48'
_cell_volume   970.97722080
_cell_formula_units_Z   2
loop_
 _symmetry_equiv_pos_site_id
 _symmetry_equiv_pos_as_xyz
  1  'x, y, z'
loop_
 _atom_site_type_symbol
 _atom_site_label
 _atom_site_symmetry_multiplicity
 _atom_site_fract_x
 _atom_site_fract_y
 _atom_site_fract_z
 _atom_site_occupancy
  Sr  Sr0  1  0.50000000  0.37551200  0.00000000  1
  Sr  Sr1  1  0.50000000  0.12366700  0.50000000  1
  Sr  Sr2  1  0.50000000  0.87568700  0.00000000  1
  Sr  Sr3  1  0.00000000  0.87551200  0.00000000  1
  Sr  Sr4  1  0.00000000  0.62366700  0.50000000  1
  Sr  Sr5  1  0.00000000  0.37568700  0.00000000  1
  La  La6  1  0.25076050  0.12512150  0.00204800  1
  La  La7  1  0.50000000  0.62491400  0.50000000  1
  La  La8  1  0.74923950  0.12512150  0.99795200  1
  La  La9  1  0.75006200  0.87498800  0.49980100  1
  La  La10  1  0.24993800  0.87498800  0.50019900  1
  La  La11  1  0.75076050  0.62512150  0.00204800  1
  La  La12  1  0.00000000  0.12491400  0.50000000  1
  La  La13  1  0.24923950  0.62512150  0.99795200  1
  La  La14  1  0.25006200  0.37498800  0.49980100  1
  La  La15  1  0.74993800  0.37498800  0.50019900  1
  Mn  Mn16  1  0.12561750  0.87462650  0.75101600  1
  Mn  Mn17  1  0.62503250  0.87553750  0.75013400  1
  Mn  Mn18  1  0.37570700  0.12489500  0.75060500  1
  Mn  Mn19  1  0.12529150  0.12498750  0.24938200  1
  Mn  Mn20  1  0.87470850  0.12498750  0.75061800  1
  Mn  Mn21  1  0.62429300  0.12489500  0.24939500  1
  Mn  Mn22  1  0.87438250  0.87462650  0.24898400  1
  Mn  Mn23  1  0.37496750  0.87553750  0.24986600  1
  Mn  Mn24  1  0.62561750  0.37462650  0.75101600  1
  Mn  Mn25  1  0.12503250  0.37553750  0.75013400  1
  Mn  Mn26  1  0.87570700  0.62489500  0.75060500  1
  Mn  Mn27  1  0.62529150  0.62498750  0.24938200  1
  Mn  Mn28  1  0.37470850  0.62498750  0.75061800  1
  Mn  Mn29  1  0.12429300  0.62489500  0.24939500  1
  Mn  Mn30  1  0.37438250  0.37462650  0.24898400  1
  Mn  Mn31  1  0.87496750  0.37553750  0.24986600  1
  O  O32  1  0.75074950  0.84736550  0.00001300  1
  O  O33  1  0.27060150  0.24039350  0.27181000  1
  O  O34  1  0.47165550  0.26412950  0.72148100  1
  O  O35  1  0.24479450  0.09820450  0.49966600  1
  O  O36  1  0.52689850  0.76080850  0.28168300  1
  O  O37  1  0.72387500  0.73695300  0.72378200  1
  O  O38  1  0.24925050  0.84736550  0.99998700  1
  O  O39  1  0.02703500  0.01610900  0.77228300  1
  O  O40  1  0.27612500  0.73695300  0.27621800  1
  O  O41  1  0.22982200  0.98932300  0.23099300  1
  O  O42  1  0.47310150  0.76080850  0.71831700  1
  O  O43  1  0.50000000  0.64504900  0.00000000  1
  O  O44  1  0.75520550  0.09820450  0.50033400  1
  O  O45  1  0.77017800  0.98932300  0.76900700  1
  O  O46  1  0.52834450  0.26412950  0.27851900  1
  O  O47  1  0.97296500  0.01610900  0.22771700  1
  O  O48  1  0.72939850  0.24039350  0.72819000  1
  O  O49  1  0.50000000  0.40135100  0.50000000  1
  O  O50  1  0.52620800  0.01310200  0.77621400  1
  O  O51  1  0.73184700  0.99089700  0.23180400  1
  O  O52  1  0.50000000  0.14609900  0.00000000  1
  O  O53  1  0.26815300  0.99089700  0.76819600  1
  O  O54  1  0.47379200  0.01310200  0.22378600  1
  O  O55  1  0.50000000  0.89283500  0.50000000  1
  O  O56  1  0.25074950  0.34736550  0.00001300  1
  O  O57  1  0.77060150  0.74039350  0.27181000  1
  O  O58  1  0.97165550  0.76412950  0.72148100  1
  O  O59  1  0.74479450  0.59820450  0.49966600  1
  O  O60  1  0.02689850  0.26080850  0.28168300  1
  O  O61  1  0.22387500  0.23695300  0.72378200  1
  O  O62  1  0.74925050  0.34736550  0.99998700  1
  O  O63  1  0.52703500  0.51610900  0.77228300  1
  O  O64  1  0.77612500  0.23695300  0.27621800  1
  O  O65  1  0.72982200  0.48932300  0.23099300  1
  O  O66  1  0.97310150  0.26080850  0.71831700  1
  O  O67  1  0.00000000  0.14504900  0.00000000  1
  O  O68  1  0.25520550  0.59820450  0.50033400  1
  O  O69  1  0.27017800  0.48932300  0.76900700  1
  O  O70  1  0.02834450  0.76412950  0.27851900  1
  O  O71  1  0.47296500  0.51610900  0.22771700  1
  O  O72  1  0.22939850  0.74039350  0.72819000  1
  O  O73  1  0.00000000  0.90135100  0.50000000  1
  O  O74  1  0.02620800  0.51310200  0.77621400  1
  O  O75  1  0.23184700  0.49089700  0.23180400  1
  O  O76  1  0.00000000  0.64609900  0.00000000  1
  O  O77  1  0.76815300  0.49089700  0.76819600  1
  O  O78  1  0.97379200  0.51310200  0.22378600  1
  O  O79  1  0.00000000  0.39283500  0.50000000  1
