# generated using pymatgen
data_Cu17Se10
_symmetry_space_group_name_H-M   'P 1'
_cell_length_a   7.07934400
_cell_length_b   4.07638200
_cell_length_c   33.05869723
_cell_angle_alpha   90.00000000
_cell_angle_beta   94.26232875
_cell_angle_gamma   90.00000000
_symmetry_Int_Tables_number   1
_chemical_formula_structural   Cu17Se10
_chemical_formula_sum   'Cu34 Se20'
_cell_volume   951.37294586
_cell_formula_units_Z   2
loop_
 _symmetry_equiv_pos_site_id
 _symmetry_equiv_pos_as_xyz
  1  'x, y, z'
loop_
 _atom_site_type_symbol
 _atom_site_label
 _atom_site_symmetry_multiplicity
 _atom_site_fract_x
 _atom_site_fract_y
 _atom_site_fract_z
 _atom_site_occupancy
  Cu  Cu0  1  0.81611100  0.50000000  0.96462700  1
  Cu  Cu1  1  0.62615800  0.00000000  0.87933300  1
  Cu  Cu2  1  0.43693500  0.50000000  0.78310800  1
  Cu  Cu3  1  0.71152600  0.50000000  0.67013500  1
  Cu  Cu4  1  0.52375700  0.00000000  0.57216300  1
  Cu  Cu5  1  0.51792200  0.00000000  0.73031600  1
  Cu  Cu6  1  0.33789500  0.50000000  0.47705200  1
  Cu  Cu7  1  0.37414000  0.50000000  0.62196700  1
  Cu  Cu8  1  0.60858600  0.50000000  0.36965900  1
  Cu  Cu9  1  0.43232200  0.00000000  0.28842200  1
  Cu  Cu10  1  0.42226800  0.00000000  0.42727000  1
  Cu  Cu11  1  0.21967400  0.50000000  0.18819800  1
  Cu  Cu12  1  0.54534700  0.50000000  0.16546300  1
  Cu  Cu13  1  0.50577500  0.50000000  0.06767800  1
  Cu  Cu14  1  0.33205100  0.00000000  0.04465200  1
  Cu  Cu15  1  0.36667900  0.00000000  0.13232400  1
  Cu  Cu16  1  0.15922400  0.50000000  0.01721300  1
  Cu  Cu17  1  0.31611100  0.00000000  0.96462700  1
  Cu  Cu18  1  0.12615800  0.50000000  0.87933300  1
  Cu  Cu19  1  0.93693500  0.00000000  0.78310800  1
  Cu  Cu20  1  0.21152600  0.00000000  0.67013500  1
  Cu  Cu21  1  0.02375700  0.50000000  0.57216300  1
  Cu  Cu22  1  0.01792200  0.50000000  0.73031600  1
  Cu  Cu23  1  0.83789500  0.00000000  0.47705200  1
  Cu  Cu24  1  0.87414000  0.00000000  0.62196700  1
  Cu  Cu25  1  0.10858600  0.00000000  0.36965900  1
  Cu  Cu26  1  0.93232200  0.50000000  0.28842200  1
  Cu  Cu27  1  0.92226800  0.50000000  0.42727000  1
  Cu  Cu28  1  0.71967400  0.00000000  0.18819800  1
  Cu  Cu29  1  0.04534700  0.00000000  0.16546300  1
  Cu  Cu30  1  0.00577500  0.00000000  0.06767800  1
  Cu  Cu31  1  0.83205100  0.50000000  0.04465200  1
  Cu  Cu32  1  0.86667900  0.50000000  0.13232400  1
  Cu  Cu33  1  0.65922400  0.00000000  0.01721300  1
  Se  Se34  1  0.99075700  0.00000000  0.98722900  1
  Se  Se35  1  0.79592500  0.50000000  0.89349500  1
  Se  Se36  1  0.39556000  0.50000000  0.69811000  1
  Se  Se37  1  0.60863300  0.00000000  0.80106600  1
  Se  Se38  1  0.51171400  0.00000000  0.49896500  1
  Se  Se39  1  0.70087500  0.50000000  0.59556900  1
  Se  Se40  1  0.29333600  0.50000000  0.39780100  1
  Se  Se41  1  0.60049400  0.50000000  0.29827500  1
  Se  Se42  1  0.18700600  0.50000000  0.09884900  1
  Se  Se43  1  0.39232900  0.00000000  0.21006100  1
  Se  Se44  1  0.49075700  0.50000000  0.98722900  1
  Se  Se45  1  0.29592500  0.00000000  0.89349500  1
  Se  Se46  1  0.89556000  0.00000000  0.69811000  1
  Se  Se47  1  0.10863300  0.50000000  0.80106600  1
  Se  Se48  1  0.01171400  0.50000000  0.49896500  1
  Se  Se49  1  0.20087500  0.00000000  0.59556900  1
  Se  Se50  1  0.79333600  0.00000000  0.39780100  1
  Se  Se51  1  0.10049400  0.00000000  0.29827500  1
  Se  Se52  1  0.68700600  0.00000000  0.09884900  1
  Se  Se53  1  0.89232900  0.50000000  0.21006100  1
