# generated using pymatgen
data_Mn3(PO4)4
_symmetry_space_group_name_H-M   'P 1'
_cell_length_a   18.99902042
_cell_length_b   6.32222334
_cell_length_c   10.88989749
_cell_angle_alpha   90.00000000
_cell_angle_beta   91.87754735
_cell_angle_gamma   90.00000000
_symmetry_Int_Tables_number   1
_chemical_formula_structural   Mn3(PO4)4
_chemical_formula_sum   'Mn12 P16 O64'
_cell_volume   1307.34922453
_cell_formula_units_Z   4
loop_
 _symmetry_equiv_pos_site_id
 _symmetry_equiv_pos_as_xyz
  1  'x, y, z'
loop_
 _atom_site_type_symbol
 _atom_site_label
 _atom_site_symmetry_multiplicity
 _atom_site_fract_x
 _atom_site_fract_y
 _atom_site_fract_z
 _atom_site_occupancy
  Mn  Mn0  1  0.84621600  0.48111800  0.75092500  1
  Mn  Mn1  1  0.65378400  0.01888200  0.24907500  1
  Mn  Mn2  1  0.75000000  0.75000000  0.50000000  1
  Mn  Mn3  1  0.84621600  0.51888200  0.25092500  1
  Mn  Mn4  1  0.65378400  0.98111800  0.74907500  1
  Mn  Mn5  1  0.75000000  0.25000000  0.00000000  1
  Mn  Mn6  1  0.34621600  0.98111800  0.75092500  1
  Mn  Mn7  1  0.15378400  0.51888200  0.24907500  1
  Mn  Mn8  1  0.25000000  0.25000000  0.50000000  1
  Mn  Mn9  1  0.34621600  0.01888200  0.25092500  1
  Mn  Mn10  1  0.15378400  0.48111800  0.74907500  1
  Mn  Mn11  1  0.25000000  0.75000000  0.00000000  1
  P  P12  1  0.58606750  0.16383950  0.99028800  1
  P  P13  1  0.91393250  0.33616050  0.00971200  1
  P  P14  1  0.79883050  0.01883450  0.25471000  1
  P  P15  1  0.70116950  0.48116550  0.74529000  1
  P  P16  1  0.91393250  0.66383950  0.50971200  1
  P  P17  1  0.70116950  0.51883450  0.24529000  1
  P  P18  1  0.79883050  0.98116550  0.75471000  1
  P  P19  1  0.58606750  0.83616050  0.49028800  1
  P  P20  1  0.08606750  0.66383950  0.99028800  1
  P  P21  1  0.41393250  0.83616050  0.00971200  1
  P  P22  1  0.29883050  0.51883450  0.25471000  1
  P  P23  1  0.20116950  0.98116550  0.74529000  1
  P  P24  1  0.41393250  0.16383950  0.50971200  1
  P  P25  1  0.20116950  0.01883450  0.24529000  1
  P  P26  1  0.29883050  0.48116550  0.75471000  1
  P  P27  1  0.08606750  0.33616050  0.49028800  1
  O  O28  1  0.91681850  0.54876050  0.38197200  1
  O  O29  1  0.74344000  0.01235200  0.85935200  1
  O  O30  1  0.58318150  0.95123950  0.61802800  1
  O  O31  1  0.91681850  0.45123950  0.88197200  1
  O  O32  1  0.58318150  0.04876050  0.11802800  1
  O  O33  1  0.65502750  0.71315450  0.22165500  1
  O  O34  1  0.98225800  0.21502700  0.03267100  1
  O  O35  1  0.75656000  0.51235200  0.64064800  1
  O  O36  1  0.65194150  0.68931850  0.49175500  1
  O  O37  1  0.74049850  0.95232850  0.64540700  1
  O  O38  1  0.65485500  0.32780400  0.26951900  1
  O  O39  1  0.65194150  0.31068150  0.99175500  1
  O  O40  1  0.90703400  0.49472900  0.61346300  1
  O  O41  1  0.84805850  0.18931850  0.00824500  1
  O  O42  1  0.75656000  0.48764800  0.14064800  1
  O  O43  1  0.84497250  0.78684550  0.77834500  1
  O  O44  1  0.74049850  0.04767150  0.14540700  1
  O  O45  1  0.84514500  0.17219600  0.73048100  1
  O  O46  1  0.75950150  0.45232850  0.85459300  1
  O  O47  1  0.59296600  0.00527100  0.38653700  1
  O  O48  1  0.90703400  0.50527100  0.11346300  1
  O  O49  1  0.65485500  0.67219600  0.76951900  1
  O  O50  1  0.59296600  0.99472900  0.88653700  1
  O  O51  1  0.98225800  0.78497300  0.53267100  1
  O  O52  1  0.75950150  0.54767150  0.35459300  1
  O  O53  1  0.84805850  0.81068150  0.50824500  1
  O  O54  1  0.84514500  0.82780400  0.23048100  1
  O  O55  1  0.65502750  0.28684550  0.72165500  1
  O  O56  1  0.51774200  0.28497300  0.96732900  1
  O  O57  1  0.51774200  0.71502700  0.46732900  1
  O  O58  1  0.84497250  0.21315450  0.27834500  1
  O  O59  1  0.74344000  0.98764800  0.35935200  1
  O  O60  1  0.41681850  0.04876050  0.38197200  1
  O  O61  1  0.24344000  0.51235200  0.85935200  1
  O  O62  1  0.08318150  0.45123950  0.61802800  1
  O  O63  1  0.41681850  0.95123950  0.88197200  1
  O  O64  1  0.08318150  0.54876050  0.11802800  1
  O  O65  1  0.15502750  0.21315450  0.22165500  1
  O  O66  1  0.48225800  0.71502700  0.03267100  1
  O  O67  1  0.25656000  0.01235200  0.64064800  1
  O  O68  1  0.15194150  0.18931850  0.49175500  1
  O  O69  1  0.24049850  0.45232850  0.64540700  1
  O  O70  1  0.15485500  0.82780400  0.26951900  1
  O  O71  1  0.15194150  0.81068150  0.99175500  1
  O  O72  1  0.40703400  0.99472900  0.61346300  1
  O  O73  1  0.34805850  0.68931850  0.00824500  1
  O  O74  1  0.25656000  0.98764800  0.14064800  1
  O  O75  1  0.34497250  0.28684550  0.77834500  1
  O  O76  1  0.24049850  0.54767150  0.14540700  1
  O  O77  1  0.34514500  0.67219600  0.73048100  1
  O  O78  1  0.25950150  0.95232850  0.85459300  1
  O  O79  1  0.09296600  0.50527100  0.38653700  1
  O  O80  1  0.40703400  0.00527100  0.11346300  1
  O  O81  1  0.15485500  0.17219600  0.76951900  1
  O  O82  1  0.09296600  0.49472900  0.88653700  1
  O  O83  1  0.48225800  0.28497300  0.53267100  1
  O  O84  1  0.25950150  0.04767150  0.35459300  1
  O  O85  1  0.34805850  0.31068150  0.50824500  1
  O  O86  1  0.34514500  0.32780400  0.23048100  1
  O  O87  1  0.15502750  0.78684550  0.72165500  1
  O  O88  1  0.01774200  0.78497300  0.96732900  1
  O  O89  1  0.01774200  0.21502700  0.46732900  1
  O  O90  1  0.34497250  0.71315450  0.27834500  1
  O  O91  1  0.24344000  0.48764800  0.35935200  1
