# generated using pymatgen
data_TiO
_symmetry_space_group_name_H-M   'P 1'
_cell_length_a   2.82132200
_cell_length_b   2.82132200
_cell_length_c   35.05564000
_cell_angle_alpha   90.00000000
_cell_angle_beta   90.00000000
_cell_angle_gamma   90.00000000
_symmetry_Int_Tables_number   1
_chemical_formula_structural   TiO
_chemical_formula_sum   'Ti12 O12'
_cell_volume   279.03791046
_cell_formula_units_Z   12
loop_
 _symmetry_equiv_pos_site_id
 _symmetry_equiv_pos_as_xyz
  1  'x, y, z'
loop_
 _atom_site_type_symbol
 _atom_site_label
 _atom_site_symmetry_multiplicity
 _atom_site_fract_x
 _atom_site_fract_y
 _atom_site_fract_z
 _atom_site_occupancy
  Ti  Ti0  1  0.50000000  0.50000000  0.07049700  1
  Ti  Ti1  1  0.00000000  0.00000000  0.13652300  1
  Ti  Ti2  1  0.00000000  0.00000000  0.28177800  1
  Ti  Ti3  1  0.50000000  0.50000000  0.21822200  1
  Ti  Ti4  1  0.50000000  0.50000000  0.36347700  1
  Ti  Ti5  1  0.00000000  0.00000000  0.42950300  1
  Ti  Ti6  1  0.00000000  0.00000000  0.57049700  1
  Ti  Ti7  1  0.50000000  0.50000000  0.63652300  1
  Ti  Ti8  1  0.50000000  0.50000000  0.78177800  1
  Ti  Ti9  1  0.00000000  0.00000000  0.71822200  1
  Ti  Ti10  1  0.00000000  0.00000000  0.86347700  1
  Ti  Ti11  1  0.50000000  0.50000000  0.92950300  1
  O  O12  1  0.50000000  0.50000000  0.29702400  1
  O  O13  1  0.00000000  0.00000000  0.34583400  1
  O  O14  1  0.50000000  0.50000000  0.44473700  1
  O  O15  1  0.00000000  0.00000000  0.05526300  1
  O  O16  1  0.50000000  0.50000000  0.15416600  1
  O  O17  1  0.00000000  0.00000000  0.20297600  1
  O  O18  1  0.00000000  0.00000000  0.79702400  1
  O  O19  1  0.50000000  0.50000000  0.84583400  1
  O  O20  1  0.00000000  0.00000000  0.94473700  1
  O  O21  1  0.50000000  0.50000000  0.55526300  1
  O  O22  1  0.00000000  0.00000000  0.65416600  1
  O  O23  1  0.50000000  0.50000000  0.70297600  1
