# generated using pymatgen
data_NiH16C4S4(N4Cl)2
_symmetry_space_group_name_H-M   'P 1'
_cell_length_a   9.69773200
_cell_length_b   9.69773200
_cell_length_c   9.03883600
_cell_angle_alpha   90.00000000
_cell_angle_beta   90.00000000
_cell_angle_gamma   90.00000000
_symmetry_Int_Tables_number   1
_chemical_formula_structural   NiH16C4S4(N4Cl)2
_chemical_formula_sum   'Ni2 H32 C8 S8 N16 Cl4'
_cell_volume   850.06642418
_cell_formula_units_Z   2
loop_
 _symmetry_equiv_pos_site_id
 _symmetry_equiv_pos_as_xyz
  1  'x, y, z'
loop_
 _atom_site_type_symbol
 _atom_site_label
 _atom_site_symmetry_multiplicity
 _atom_site_fract_x
 _atom_site_fract_y
 _atom_site_fract_z
 _atom_site_occupancy
  Ni  Ni0  1  0.00000000  0.00000000  0.00043200  1
  Ni  Ni1  1  0.50000000  0.50000000  0.50043200  1
  H  H2  1  0.00552550  0.34611850  0.54010950  1
  H  H3  1  0.49447450  0.15388150  0.04010950  1
  H  H4  1  0.34611850  0.99447450  0.54010950  1
  H  H5  1  0.15388150  0.50552550  0.04010950  1
  H  H6  1  0.99431400  0.22192200  0.39925100  1
  H  H7  1  0.50568600  0.27807800  0.89925100  1
  H  H8  1  0.22192200  0.00568600  0.39925100  1
  H  H9  1  0.27807800  0.49431400  0.89925100  1
  H  H10  1  0.80005300  0.21986800  0.23949000  1
  H  H11  1  0.69994700  0.28013200  0.73949000  1
  H  H12  1  0.21986800  0.19994700  0.23949000  1
  H  H13  1  0.28013200  0.30005300  0.73949000  1
  H  H14  1  0.66216400  0.33096200  0.28257900  1
  H  H15  1  0.83783600  0.16903800  0.78257900  1
  H  H16  1  0.33096200  0.33783600  0.28257900  1
  H  H17  1  0.16903800  0.16216400  0.78257900  1
  H  H18  1  0.50552550  0.84611850  0.04010950  1
  H  H19  1  0.99447450  0.65388150  0.54010950  1
  H  H20  1  0.84611850  0.49447450  0.04010950  1
  H  H21  1  0.65388150  0.00552550  0.54010950  1
  H  H22  1  0.49431400  0.72192200  0.89925100  1
  H  H23  1  0.00568600  0.77807800  0.39925100  1
  H  H24  1  0.72192200  0.50568600  0.89925100  1
  H  H25  1  0.77807800  0.99431400  0.39925100  1
  H  H26  1  0.30005300  0.71986800  0.73949000  1
  H  H27  1  0.19994700  0.78013200  0.23949000  1
  H  H28  1  0.71986800  0.69994700  0.73949000  1
  H  H29  1  0.78013200  0.80005300  0.23949000  1
  H  H30  1  0.16216400  0.83096200  0.78257900  1
  H  H31  1  0.33783600  0.66903800  0.28257900  1
  H  H32  1  0.83096200  0.83783600  0.78257900  1
  H  H33  1  0.66903800  0.66216400  0.28257900  1
  C  C34  1  0.82621100  0.34894100  0.42050500  1
  C  C35  1  0.67378900  0.15105900  0.92050500  1
  C  C36  1  0.34894100  0.17378900  0.42050500  1
  C  C37  1  0.15105900  0.32621100  0.92050500  1
  C  C38  1  0.32621100  0.84894100  0.92050500  1
  C  C39  1  0.17378900  0.65105900  0.42050500  1
  C  C40  1  0.84894100  0.67378900  0.92050500  1
  C  C41  1  0.65105900  0.82621100  0.42050500  1
  S  S42  1  0.24940050  0.97099150  0.03100650  1
  S  S43  1  0.75059950  0.02900850  0.03100650  1
  S  S44  1  0.97099150  0.75059950  0.03100650  1
  S  S45  1  0.02900850  0.24940050  0.03100650  1
  S  S46  1  0.74940050  0.47099150  0.53100650  1
  S  S47  1  0.25059950  0.52900850  0.53100650  1
  S  S48  1  0.47099150  0.25059950  0.53100650  1
  S  S49  1  0.52900850  0.74940050  0.53100650  1
  N  N50  1  0.95458350  0.30669650  0.45113450  1
  N  N51  1  0.54541650  0.19330350  0.95113450  1
  N  N52  1  0.30669650  0.04541650  0.45113450  1
  N  N53  1  0.19330350  0.45458350  0.95113450  1
  N  N54  1  0.75926700  0.29488900  0.30552000  1
  N  N55  1  0.74073300  0.20511100  0.80552000  1
  N  N56  1  0.29488900  0.24073300  0.30552000  1
  N  N57  1  0.20511100  0.25926700  0.80552000  1
  N  N58  1  0.45458350  0.80669650  0.95113450  1
  N  N59  1  0.04541650  0.69330350  0.45113450  1
  N  N60  1  0.80669650  0.54541650  0.95113450  1
  N  N61  1  0.69330350  0.95458350  0.45113450  1
  N  N62  1  0.25926700  0.79488900  0.80552000  1
  N  N63  1  0.24073300  0.70511100  0.30552000  1
  N  N64  1  0.79488900  0.74073300  0.80552000  1
  N  N65  1  0.70511100  0.75926700  0.30552000  1
  Cl  Cl66  1  0.00000000  0.00000000  0.73350000  1
  Cl  Cl67  1  0.00000000  0.00000000  0.28128100  1
  Cl  Cl68  1  0.50000000  0.50000000  0.23350000  1
  Cl  Cl69  1  0.50000000  0.50000000  0.78128100  1
