# generated using pymatgen
data_Gd5(RuO7)2
_symmetry_space_group_name_H-M   'P 1'
_cell_length_a   7.62491800
_cell_length_b   10.41597600
_cell_length_c   7.55830434
_cell_angle_alpha   90.00000000
_cell_angle_beta   90.42131322
_cell_angle_gamma   90.00000000
_symmetry_Int_Tables_number   1
_chemical_formula_structural   Gd5(RuO7)2
_chemical_formula_sum   'Gd10 Ru4 O28'
_cell_volume   600.27157962
_cell_formula_units_Z   2
loop_
 _symmetry_equiv_pos_site_id
 _symmetry_equiv_pos_as_xyz
  1  'x, y, z'
loop_
 _atom_site_type_symbol
 _atom_site_label
 _atom_site_symmetry_multiplicity
 _atom_site_fract_x
 _atom_site_fract_y
 _atom_site_fract_z
 _atom_site_occupancy
  Gd  Gd0  1  0.29218650  0.77494250  0.75558800  1
  Gd  Gd1  1  0.70781350  0.77494250  0.24441200  1
  Gd  Gd2  1  0.29218650  0.22505750  0.75558800  1
  Gd  Gd3  1  0.00000000  0.00000000  0.50000000  1
  Gd  Gd4  1  0.70781350  0.22505750  0.24441200  1
  Gd  Gd5  1  0.79218650  0.27494250  0.75558800  1
  Gd  Gd6  1  0.20781350  0.27494250  0.24441200  1
  Gd  Gd7  1  0.79218650  0.72505750  0.75558800  1
  Gd  Gd8  1  0.50000000  0.50000000  0.50000000  1
  Gd  Gd9  1  0.20781350  0.72505750  0.24441200  1
  Ru  Ru10  1  0.50000000  0.00000000  0.50000000  1
  Ru  Ru11  1  0.50000000  0.00000000  0.00000000  1
  Ru  Ru12  1  0.00000000  0.50000000  0.50000000  1
  Ru  Ru13  1  0.00000000  0.50000000  0.00000000  1
  O  O14  1  0.47573050  0.65065050  0.28830400  1
  O  O15  1  0.52426950  0.65065050  0.71169600  1
  O  O16  1  0.32324800  0.87259400  0.46211100  1
  O  O17  1  0.33438150  0.86783950  0.04712800  1
  O  O18  1  0.41124400  0.00000000  0.75052200  1
  O  O19  1  0.66561850  0.86783950  0.95287200  1
  O  O20  1  0.67675200  0.87259400  0.53788900  1
  O  O21  1  0.32324800  0.12740600  0.46211100  1
  O  O22  1  0.33438150  0.13216050  0.04712800  1
  O  O23  1  0.58875600  0.00000000  0.24947800  1
  O  O24  1  0.66561850  0.13216050  0.95287200  1
  O  O25  1  0.67675200  0.12740600  0.53788900  1
  O  O26  1  0.47573050  0.34934950  0.28830400  1
  O  O27  1  0.52426950  0.34934950  0.71169600  1
  O  O28  1  0.97573050  0.15065050  0.28830400  1
  O  O29  1  0.02426950  0.15065050  0.71169600  1
  O  O30  1  0.82324800  0.37259400  0.46211100  1
  O  O31  1  0.83438150  0.36783950  0.04712800  1
  O  O32  1  0.91124400  0.50000000  0.75052200  1
  O  O33  1  0.16561850  0.36783950  0.95287200  1
  O  O34  1  0.17675200  0.37259400  0.53788900  1
  O  O35  1  0.82324800  0.62740600  0.46211100  1
  O  O36  1  0.83438150  0.63216050  0.04712800  1
  O  O37  1  0.08875600  0.50000000  0.24947800  1
  O  O38  1  0.16561850  0.63216050  0.95287200  1
  O  O39  1  0.17675200  0.62740600  0.53788900  1
  O  O40  1  0.97573050  0.84934950  0.28830400  1
  O  O41  1  0.02426950  0.84934950  0.71169600  1
