# generated using pymatgen
data_Yb3Ti3O14
_symmetry_space_group_name_H-M   'P 1'
_cell_length_a   11.68407600
_cell_length_b   7.25999800
_cell_length_c   6.64844311
_cell_angle_alpha   90.00000000
_cell_angle_beta   119.76053031
_cell_angle_gamma   90.00000000
_symmetry_Int_Tables_number   1
_chemical_formula_structural   Yb3Ti3O14
_chemical_formula_sum   'Yb6 Ti6 O28'
_cell_volume   489.58081406
_cell_formula_units_Z   2
loop_
 _symmetry_equiv_pos_site_id
 _symmetry_equiv_pos_as_xyz
  1  'x, y, z'
loop_
 _atom_site_type_symbol
 _atom_site_label
 _atom_site_symmetry_multiplicity
 _atom_site_fract_x
 _atom_site_fract_y
 _atom_site_fract_z
 _atom_site_occupancy
  Yb  Yb0  1  0.25000000  0.25000000  0.50000000  1
  Yb  Yb1  1  0.25000000  0.75000000  0.50000000  1
  Yb  Yb2  1  0.50000000  0.00000000  0.50000000  1
  Yb  Yb3  1  0.75000000  0.75000000  0.50000000  1
  Yb  Yb4  1  0.75000000  0.25000000  0.50000000  1
  Yb  Yb5  1  0.00000000  0.50000000  0.50000000  1
  Ti  Ti6  1  0.25000000  0.25000000  0.00000000  1
  Ti  Ti7  1  0.25000000  0.75000000  0.00000000  1
  Ti  Ti8  1  0.00000000  0.00000000  0.50000000  1
  Ti  Ti9  1  0.75000000  0.75000000  0.00000000  1
  Ti  Ti10  1  0.75000000  0.25000000  0.00000000  1
  Ti  Ti11  1  0.50000000  0.50000000  0.50000000  1
  O  O12  1  0.62181150  0.70012350  0.67698100  1
  O  O13  1  0.62181150  0.29987650  0.67698100  1
  O  O14  1  0.39427400  0.76127300  0.90349600  1
  O  O15  1  0.39427400  0.23872700  0.90349600  1
  O  O16  1  0.10409800  0.00000000  0.33633600  1
  O  O17  1  0.72048000  0.00000000  0.90488000  1
  O  O18  1  0.89590200  0.00000000  0.66366400  1
  O  O19  1  0.37911900  0.00000000  0.67906300  1
  O  O20  1  0.37818850  0.70012350  0.32301900  1
  O  O21  1  0.37818850  0.29987650  0.32301900  1
  O  O22  1  0.27952000  0.00000000  0.09512000  1
  O  O23  1  0.62088100  0.00000000  0.32093700  1
  O  O24  1  0.60572600  0.76127300  0.09650400  1
  O  O25  1  0.60572600  0.23872700  0.09650400  1
  O  O26  1  0.12181150  0.20012350  0.67698100  1
  O  O27  1  0.12181150  0.79987650  0.67698100  1
  O  O28  1  0.89427400  0.26127300  0.90349600  1
  O  O29  1  0.89427400  0.73872700  0.90349600  1
  O  O30  1  0.60409800  0.50000000  0.33633600  1
  O  O31  1  0.22048000  0.50000000  0.90488000  1
  O  O32  1  0.39590200  0.50000000  0.66366400  1
  O  O33  1  0.87911900  0.50000000  0.67906300  1
  O  O34  1  0.87818850  0.20012350  0.32301900  1
  O  O35  1  0.87818850  0.79987650  0.32301900  1
  O  O36  1  0.77952000  0.50000000  0.09512000  1
  O  O37  1  0.12088100  0.50000000  0.32093700  1
  O  O38  1  0.10572600  0.26127300  0.09650400  1
  O  O39  1  0.10572600  0.73872700  0.09650400  1
