# generated using pymatgen
data_EuZn2
_symmetry_space_group_name_H-M   'P 1'
_cell_length_a   4.67290800
_cell_length_b   7.51719600
_cell_length_c   7.67056800
_cell_angle_alpha   90.00000000
_cell_angle_beta   90.00000000
_cell_angle_gamma   90.00000000
_symmetry_Int_Tables_number   1
_chemical_formula_structural   EuZn2
_chemical_formula_sum   'Eu4 Zn8'
_cell_volume   269.44531028
_cell_formula_units_Z   4
loop_
 _symmetry_equiv_pos_site_id
 _symmetry_equiv_pos_as_xyz
  1  'x, y, z'
loop_
 _atom_site_type_symbol
 _atom_site_label
 _atom_site_symmetry_multiplicity
 _atom_site_fract_x
 _atom_site_fract_y
 _atom_site_fract_z
 _atom_site_occupancy
  Eu  Eu0  1  0.00000000  0.25000000  0.45112100  1
  Eu  Eu1  1  0.00000000  0.75000000  0.54887900  1
  Eu  Eu2  1  0.50000000  0.75000000  0.95112100  1
  Eu  Eu3  1  0.50000000  0.25000000  0.04887900  1
  Zn  Zn4  1  0.50000000  0.06171100  0.66425600  1
  Zn  Zn5  1  0.50000000  0.93828900  0.33574400  1
  Zn  Zn6  1  0.00000000  0.93828900  0.16425600  1
  Zn  Zn7  1  0.00000000  0.06171100  0.83574400  1
  Zn  Zn8  1  0.00000000  0.56171100  0.16425600  1
  Zn  Zn9  1  0.00000000  0.43828900  0.83574400  1
  Zn  Zn10  1  0.50000000  0.43828900  0.66425600  1
  Zn  Zn11  1  0.50000000  0.56171100  0.33574400  1
