# generated using pymatgen
data_LiSnP2O7
_symmetry_space_group_name_H-M   'P 1'
_cell_length_a   8.92893600
_cell_length_b   5.18520100
_cell_length_c   14.44009236
_cell_angle_alpha   90.00000000
_cell_angle_beta   116.06187893
_cell_angle_gamma   90.00000000
_symmetry_Int_Tables_number   1
_chemical_formula_structural   LiSnP2O7
_chemical_formula_sum   'Li4 Sn4 P8 O28'
_cell_volume   600.57380700
_cell_formula_units_Z   4
loop_
 _symmetry_equiv_pos_site_id
 _symmetry_equiv_pos_as_xyz
  1  'x, y, z'
loop_
 _atom_site_type_symbol
 _atom_site_label
 _atom_site_symmetry_multiplicity
 _atom_site_fract_x
 _atom_site_fract_y
 _atom_site_fract_z
 _atom_site_occupancy
  Li  Li0  1  0.50489800  0.53213700  0.42012100  1
  Li  Li1  1  0.92253300  0.00367000  0.29813500  1
  Li  Li2  1  0.50489800  0.46786300  0.92012100  1
  Li  Li3  1  0.92253300  0.99633000  0.79813500  1
  Sn  Sn4  1  0.77154500  0.99722400  0.53048200  1
  Sn  Sn5  1  0.77154500  0.00277600  0.03048200  1
  Sn  Sn6  1  0.22543600  0.51075700  0.98161200  1
  Sn  Sn7  1  0.22543600  0.48924300  0.48161200  1
  P  P8  1  0.80395900  0.48938800  0.87493600  1
  P  P9  1  0.80395900  0.51061200  0.37493600  1
  P  P10  1  0.31100000  0.02156300  0.35117700  1
  P  P11  1  0.68863700  0.48753300  0.65182700  1
  P  P12  1  0.19095300  0.98953000  0.62076800  1
  P  P13  1  0.31100000  0.97843700  0.85117700  1
  P  P14  1  0.19095300  0.01047000  0.12076800  1
  P  P15  1  0.68863700  0.51246700  0.15182700  1
  O  O16  1  0.83586200  0.79955000  0.39113100  1
  O  O17  1  0.47687300  0.90050800  0.42298100  1
  O  O18  1  0.71638900  0.39600500  0.43663500  1
  O  O19  1  0.51482500  0.51734200  0.56223500  1
  O  O20  1  0.96347400  0.35692100  0.38993000  1
  O  O21  1  0.17498000  0.70087600  0.59124200  1
  O  O22  1  0.96347400  0.64307900  0.88993000  1
  O  O23  1  0.31651500  0.00268800  0.74084200  1
  O  O24  1  0.31651500  0.99731200  0.24084200  1
  O  O25  1  0.75756600  0.78923000  0.16099100  1
  O  O26  1  0.02715000  0.89027300  0.10840500  1
  O  O27  1  0.83586200  0.20045000  0.89113100  1
  O  O28  1  0.71638900  0.60399500  0.93663500  1
  O  O29  1  0.81395500  0.30963100  0.15098400  1
  O  O30  1  0.27756900  0.85499900  0.06762700  1
  O  O31  1  0.16050100  0.11990100  0.85168200  1
  O  O32  1  0.30289800  0.31775300  0.36818800  1
  O  O33  1  0.47687300  0.09949200  0.92298100  1
  O  O34  1  0.02715000  0.10972700  0.60840500  1
  O  O35  1  0.66786300  0.53999500  0.75638500  1
  O  O36  1  0.51482500  0.48265800  0.06223500  1
  O  O37  1  0.75756600  0.21077000  0.66099100  1
  O  O38  1  0.66786300  0.46000500  0.25638500  1
  O  O39  1  0.81395500  0.69036900  0.65098400  1
  O  O40  1  0.16050100  0.88009900  0.35168200  1
  O  O41  1  0.27756900  0.14500100  0.56762700  1
  O  O42  1  0.17498000  0.29912400  0.09124200  1
  O  O43  1  0.30289800  0.68224700  0.86818800  1
