# generated using pymatgen
data_EuTi2CdO6F
_symmetry_space_group_name_H-M   'P 1'
_cell_length_a   7.19681600
_cell_length_b   7.39446800
_cell_length_c   10.25667200
_cell_angle_alpha   90.00000000
_cell_angle_beta   90.00000000
_cell_angle_gamma   90.00000000
_symmetry_Int_Tables_number   1
_chemical_formula_structural   EuTi2CdO6F
_chemical_formula_sum   'Eu4 Ti8 Cd4 O24 F4'
_cell_volume   545.82547387
_cell_formula_units_Z   4
loop_
 _symmetry_equiv_pos_site_id
 _symmetry_equiv_pos_as_xyz
  1  'x, y, z'
loop_
 _atom_site_type_symbol
 _atom_site_label
 _atom_site_symmetry_multiplicity
 _atom_site_fract_x
 _atom_site_fract_y
 _atom_site_fract_z
 _atom_site_occupancy
  Eu  Eu0  1  0.00000000  0.00000000  0.00000000  1
  Eu  Eu1  1  0.50000000  0.00000000  0.50000000  1
  Eu  Eu2  1  0.50000000  0.50000000  0.50000000  1
  Eu  Eu3  1  0.00000000  0.50000000  0.00000000  1
  Ti  Ti4  1  0.25000000  0.25000000  0.25000000  1
  Ti  Ti5  1  0.50000000  0.00000000  0.00000000  1
  Ti  Ti6  1  0.00000000  0.00000000  0.50000000  1
  Ti  Ti7  1  0.75000000  0.25000000  0.25000000  1
  Ti  Ti8  1  0.75000000  0.75000000  0.75000000  1
  Ti  Ti9  1  0.00000000  0.50000000  0.50000000  1
  Ti  Ti10  1  0.50000000  0.50000000  0.00000000  1
  Ti  Ti11  1  0.25000000  0.75000000  0.75000000  1
  Cd  Cd12  1  0.25000000  0.75000000  0.25000000  1
  Cd  Cd13  1  0.75000000  0.75000000  0.25000000  1
  Cd  Cd14  1  0.75000000  0.25000000  0.75000000  1
  Cd  Cd15  1  0.25000000  0.25000000  0.75000000  1
  O  O16  1  0.50000000  0.25000000  0.32916400  1
  O  O17  1  0.29608700  0.05104500  0.12424600  1
  O  O18  1  0.79608700  0.94895500  0.62424600  1
  O  O19  1  0.70391300  0.05104500  0.12424600  1
  O  O20  1  0.00000000  0.75000000  0.42476200  1
  O  O21  1  0.20391300  0.94895500  0.62424600  1
  O  O22  1  0.00000000  0.25000000  0.57523800  1
  O  O23  1  0.79608700  0.05104500  0.37575400  1
  O  O24  1  0.20391300  0.05104500  0.37575400  1
  O  O25  1  0.29608700  0.94895500  0.87575400  1
  O  O26  1  0.70391300  0.94895500  0.87575400  1
  O  O27  1  0.50000000  0.75000000  0.67083600  1
  O  O28  1  0.00000000  0.75000000  0.82916400  1
  O  O29  1  0.79608700  0.55104500  0.62424600  1
  O  O30  1  0.29608700  0.44895500  0.12424600  1
  O  O31  1  0.20391300  0.55104500  0.62424600  1
  O  O32  1  0.50000000  0.25000000  0.92476200  1
  O  O33  1  0.70391300  0.44895500  0.12424600  1
  O  O34  1  0.50000000  0.75000000  0.07523800  1
  O  O35  1  0.29608700  0.55104500  0.87575400  1
  O  O36  1  0.70391300  0.55104500  0.87575400  1
  O  O37  1  0.79608700  0.44895500  0.37575400  1
  O  O38  1  0.20391300  0.44895500  0.37575400  1
  O  O39  1  0.00000000  0.25000000  0.17083600  1
  F  F40  1  0.50000000  0.75000000  0.37041000  1
  F  F41  1  0.50000000  0.25000000  0.62959000  1
  F  F42  1  0.00000000  0.25000000  0.87041000  1
  F  F43  1  0.00000000  0.75000000  0.12959000  1
