# generated using pymatgen
data_Cu39S20
_symmetry_space_group_name_H-M   'P 1'
_cell_length_a   17.58649600
_cell_length_b   10.75826600
_cell_length_c   12.47155198
_cell_angle_alpha   90.00000000
_cell_angle_beta   133.44252049
_cell_angle_gamma   90.00000000
_symmetry_Int_Tables_number   1
_chemical_formula_structural   Cu39S20
_chemical_formula_sum   'Cu78 S40'
_cell_volume   1713.23658732
_cell_formula_units_Z   2
loop_
 _symmetry_equiv_pos_site_id
 _symmetry_equiv_pos_as_xyz
  1  'x, y, z'
loop_
 _atom_site_type_symbol
 _atom_site_label
 _atom_site_symmetry_multiplicity
 _atom_site_fract_x
 _atom_site_fract_y
 _atom_site_fract_z
 _atom_site_occupancy
  Cu  Cu0  1  0.15445800  0.78726000  0.60262500  1
  Cu  Cu1  1  0.46758650  0.57314850  0.37327400  1
  Cu  Cu2  1  0.05950200  0.76863400  0.21332000  1
  Cu  Cu3  1  0.00000000  0.89971600  0.00000000  1
  Cu  Cu4  1  0.84573650  0.03241550  0.90672200  1
  Cu  Cu5  1  0.44049800  0.26863400  0.78668000  1
  Cu  Cu6  1  0.30023800  0.64965100  0.69991700  1
  Cu  Cu7  1  0.93472300  0.92124900  0.63565200  1
  Cu  Cu8  1  0.24347400  0.51765100  0.48355700  1
  Cu  Cu9  1  0.84554200  0.78726000  0.39737500  1
  Cu  Cu10  1  0.22793200  0.68309600  0.32370600  1
  Cu  Cu11  1  0.33050550  0.41803950  0.21169500  1
  Cu  Cu12  1  0.15879250  0.52152550  0.11924900  1
  Cu  Cu13  1  0.73773750  0.78280150  0.99502400  1
  Cu  Cu14  1  0.60182650  0.14954050  0.90644200  1
  Cu  Cu15  1  0.69810550  0.87957450  0.76421000  1
  Cu  Cu16  1  0.55097450  0.01396350  0.70758200  1
  Cu  Cu17  1  0.59467300  0.72706000  0.56456100  1
  Cu  Cu18  1  0.00000000  0.65025600  0.50000000  1
  Cu  Cu19  1  0.11883400  0.38228100  0.45216700  1
  Cu  Cu20  1  0.94902550  0.51396350  0.29241800  1
  Cu  Cu21  1  0.04109150  0.28061250  0.20126900  1
  Cu  Cu22  1  0.89817350  0.64954050  0.09355800  1
  Cu  Cu23  1  0.00000000  0.40049200  0.00000000  1
  Cu  Cu24  1  0.34120750  0.02152550  0.88075100  1
  Cu  Cu25  1  0.45890850  0.78061250  0.79873100  1
  Cu  Cu26  1  0.27206800  0.18309600  0.67629400  1
  Cu  Cu27  1  0.38116600  0.88228100  0.54783300  1
  Cu  Cu28  1  0.25652600  0.01765100  0.51644300  1
  Cu  Cu29  1  0.40532700  0.72706000  0.43543900  1
  Cu  Cu30  1  0.69976200  0.64965100  0.30008300  1
  Cu  Cu31  1  0.30189450  0.87957450  0.23579000  1
  Cu  Cu32  1  0.65426350  0.53241550  0.09327800  1
  Cu  Cu33  1  0.59094100  0.61741300  0.86633400  1
  Cu  Cu34  1  0.76226250  0.28280150  0.00497600  1
  Cu  Cu35  1  0.16949450  0.91803950  0.78830500  1
  Cu  Cu36  1  0.53241350  0.57314850  0.62672600  1
  Cu  Cu37  1  0.06527700  0.92124900  0.36434800  1
  Cu  Cu38  1  0.40905900  0.61741300  0.13366600  1
  Cu  Cu39  1  0.65445800  0.28726000  0.60262500  1
  Cu  Cu40  1  0.96758650  0.07314850  0.37327400  1
  Cu  Cu41  1  0.55950200  0.26863400  0.21332000  1
  Cu  Cu42  1  0.50000000  0.39971600  0.00000000  1
  Cu  Cu43  1  0.34573650  0.53241550  0.90672200  1
  Cu  Cu44  1  0.94049800  0.76863400  0.78668000  1
  Cu  Cu45  1  0.80023800  0.14965100  0.69991700  1
  Cu  Cu46  1  0.43472300  0.42124900  0.63565200  1
  Cu  Cu47  1  0.74347400  0.01765100  0.48355700  1
  Cu  Cu48  1  0.34554200  0.28726000  0.39737500  1
  Cu  Cu49  1  0.72793200  0.18309600  0.32370600  1
  Cu  Cu50  1  0.83050550  0.91803950  0.21169500  1
  Cu  Cu51  1  0.65879250  0.02152550  0.11924900  1
  Cu  Cu52  1  0.23773750  0.28280150  0.99502400  1
  Cu  Cu53  1  0.10182650  0.64954050  0.90644200  1
  Cu  Cu54  1  0.19810550  0.37957450  0.76421000  1
  Cu  Cu55  1  0.05097450  0.51396350  0.70758200  1
  Cu  Cu56  1  0.09467300  0.22706000  0.56456100  1
  Cu  Cu57  1  0.50000000  0.15025600  0.50000000  1
  Cu  Cu58  1  0.61883400  0.88228100  0.45216700  1
  Cu  Cu59  1  0.44902550  0.01396350  0.29241800  1
  Cu  Cu60  1  0.54109150  0.78061250  0.20126900  1
  Cu  Cu61  1  0.39817350  0.14954050  0.09355800  1
  Cu  Cu62  1  0.50000000  0.90049200  0.00000000  1
  Cu  Cu63  1  0.84120750  0.52152550  0.88075100  1
  Cu  Cu64  1  0.95890850  0.28061250  0.79873100  1
  Cu  Cu65  1  0.77206800  0.68309600  0.67629400  1
  Cu  Cu66  1  0.88116600  0.38228100  0.54783300  1
  Cu  Cu67  1  0.75652600  0.51765100  0.51644300  1
  Cu  Cu68  1  0.90532700  0.22706000  0.43543900  1
  Cu  Cu69  1  0.19976200  0.14965100  0.30008300  1
  Cu  Cu70  1  0.80189450  0.37957450  0.23579000  1
  Cu  Cu71  1  0.15426350  0.03241550  0.09327800  1
  Cu  Cu72  1  0.09094100  0.11741300  0.86633400  1
  Cu  Cu73  1  0.26226250  0.78280150  0.00497600  1
  Cu  Cu74  1  0.66949450  0.41803950  0.78830500  1
  Cu  Cu75  1  0.03241350  0.07314850  0.62672600  1
  Cu  Cu76  1  0.56527700  0.42124900  0.36434800  1
  Cu  Cu77  1  0.90905900  0.11741300  0.13366600  1
  S  S78  1  0.09397000  0.89814500  0.88989700  1
  S  S79  1  0.00000000  0.89435800  0.50000000  1
  S  S80  1  0.29694600  0.65347700  0.19157500  1
  S  S81  1  0.90603000  0.89814500  0.11010300  1
  S  S82  1  0.19587050  0.65187650  0.79796100  1
  S  S83  1  0.79494500  0.90242700  0.69939300  1
  S  S84  1  0.10122350  0.64973850  0.40668800  1
  S  S85  1  0.19481050  0.39481250  0.29521100  1
  S  S86  1  0.00000000  0.65779800  0.00000000  1
  S  S87  1  0.59981400  0.90731300  0.90667300  1
  S  S88  1  0.39877650  0.14973850  0.59331200  1
  S  S89  1  0.50000000  0.90644000  0.50000000  1
  S  S90  1  0.80412950  0.65187650  0.20203900  1
  S  S91  1  0.90018600  0.40731300  0.09332700  1
  S  S92  1  0.20305400  0.15347700  0.80842500  1
  S  S93  1  0.30518950  0.89481250  0.70478900  1
  S  S94  1  0.60645450  0.64700750  0.39998400  1
  S  S95  1  0.20505500  0.90242700  0.30060700  1
  S  S96  1  0.00000000  0.14324700  0.00000000  1
  S  S97  1  0.39354550  0.64700750  0.60001600  1
  S  S98  1  0.59397000  0.39814500  0.88989700  1
  S  S99  1  0.50000000  0.39435800  0.50000000  1
  S  S100  1  0.79694600  0.15347700  0.19157500  1
  S  S101  1  0.40603000  0.39814500  0.11010300  1
  S  S102  1  0.69587050  0.15187650  0.79796100  1
  S  S103  1  0.29494500  0.40242700  0.69939300  1
  S  S104  1  0.60122350  0.14973850  0.40668800  1
  S  S105  1  0.69481050  0.89481250  0.29521100  1
  S  S106  1  0.50000000  0.15779800  0.00000000  1
  S  S107  1  0.09981400  0.40731300  0.90667300  1
  S  S108  1  0.89877650  0.64973850  0.59331200  1
  S  S109  1  0.00000000  0.40644000  0.50000000  1
  S  S110  1  0.30412950  0.15187650  0.20203900  1
  S  S111  1  0.40018600  0.90731300  0.09332700  1
  S  S112  1  0.70305400  0.65347700  0.80842500  1
  S  S113  1  0.80518950  0.39481250  0.70478900  1
  S  S114  1  0.10645450  0.14700750  0.39998400  1
  S  S115  1  0.70505500  0.40242700  0.30060700  1
  S  S116  1  0.50000000  0.64324700  0.00000000  1
  S  S117  1  0.89354550  0.14700750  0.60001600  1
