# generated using pymatgen
data_LaFe9Si4
_symmetry_space_group_name_H-M   'P 1'
_cell_length_a   7.91041800
_cell_length_b   7.91041800
_cell_length_c   11.56765200
_cell_angle_alpha   90.00000000
_cell_angle_beta   90.00000000
_cell_angle_gamma   90.00000000
_symmetry_Int_Tables_number   1
_chemical_formula_structural   LaFe9Si4
_chemical_formula_sum   'La4 Fe36 Si16'
_cell_volume   723.84250323
_cell_formula_units_Z   4
loop_
 _symmetry_equiv_pos_site_id
 _symmetry_equiv_pos_as_xyz
  1  'x, y, z'
loop_
 _atom_site_type_symbol
 _atom_site_label
 _atom_site_symmetry_multiplicity
 _atom_site_fract_x
 _atom_site_fract_y
 _atom_site_fract_z
 _atom_site_occupancy
  La  La0  1  0.00000000  0.00000000  0.25000000  1
  La  La1  1  0.50000000  0.50000000  0.25000000  1
  La  La2  1  0.50000000  0.50000000  0.75000000  1
  La  La3  1  0.00000000  0.00000000  0.75000000  1
  Fe  Fe4  1  0.56372500  0.70137300  0.00000000  1
  Fe  Fe5  1  0.61921900  0.11921900  0.31974100  1
  Fe  Fe6  1  0.00000000  0.50000000  0.00000000  1
  Fe  Fe7  1  0.11921900  0.38078100  0.31974100  1
  Fe  Fe8  1  0.61921900  0.88078100  0.18025900  1
  Fe  Fe9  1  0.93627500  0.20137300  0.00000000  1
  Fe  Fe10  1  0.88078100  0.38078100  0.18025900  1
  Fe  Fe11  1  0.43627500  0.29862700  0.00000000  1
  Fe  Fe12  1  0.11921900  0.61921900  0.18025900  1
  Fe  Fe13  1  0.79862700  0.93627500  0.00000000  1
  Fe  Fe14  1  0.88078100  0.61921900  0.31974100  1
  Fe  Fe15  1  0.20137300  0.06372500  0.00000000  1
  Fe  Fe16  1  0.06372500  0.79862700  0.00000000  1
  Fe  Fe17  1  0.29862700  0.56372500  0.00000000  1
  Fe  Fe18  1  0.50000000  0.00000000  0.00000000  1
  Fe  Fe19  1  0.38078100  0.88078100  0.31974100  1
  Fe  Fe20  1  0.38078100  0.11921900  0.18025900  1
  Fe  Fe21  1  0.70137300  0.43627500  0.00000000  1
  Fe  Fe22  1  0.06372500  0.20137300  0.50000000  1
  Fe  Fe23  1  0.11921900  0.61921900  0.81974100  1
  Fe  Fe24  1  0.50000000  0.00000000  0.50000000  1
  Fe  Fe25  1  0.61921900  0.88078100  0.81974100  1
  Fe  Fe26  1  0.11921900  0.38078100  0.68025900  1
  Fe  Fe27  1  0.43627500  0.70137300  0.50000000  1
  Fe  Fe28  1  0.38078100  0.88078100  0.68025900  1
  Fe  Fe29  1  0.93627500  0.79862700  0.50000000  1
  Fe  Fe30  1  0.61921900  0.11921900  0.68025900  1
  Fe  Fe31  1  0.29862700  0.43627500  0.50000000  1
  Fe  Fe32  1  0.38078100  0.11921900  0.81974100  1
  Fe  Fe33  1  0.70137300  0.56372500  0.50000000  1
  Fe  Fe34  1  0.56372500  0.29862700  0.50000000  1
  Fe  Fe35  1  0.79862700  0.06372500  0.50000000  1
  Fe  Fe36  1  0.00000000  0.50000000  0.50000000  1
  Fe  Fe37  1  0.88078100  0.38078100  0.81974100  1
  Fe  Fe38  1  0.88078100  0.61921900  0.68025900  1
  Fe  Fe39  1  0.20137300  0.93627500  0.50000000  1
  Si  Si40  1  0.17625200  0.32374800  0.12003700  1
  Si  Si41  1  0.67625200  0.82374800  0.37996300  1
  Si  Si42  1  0.17625200  0.67625200  0.37996300  1
  Si  Si43  1  0.82374800  0.32374800  0.37996300  1
  Si  Si44  1  0.82374800  0.67625200  0.12003700  1
  Si  Si45  1  0.67625200  0.17625200  0.12003700  1
  Si  Si46  1  0.32374800  0.17625200  0.37996300  1
  Si  Si47  1  0.32374800  0.82374800  0.12003700  1
  Si  Si48  1  0.67625200  0.82374800  0.62003700  1
  Si  Si49  1  0.17625200  0.32374800  0.87996300  1
  Si  Si50  1  0.67625200  0.17625200  0.87996300  1
  Si  Si51  1  0.32374800  0.82374800  0.87996300  1
  Si  Si52  1  0.32374800  0.17625200  0.62003700  1
  Si  Si53  1  0.17625200  0.67625200  0.62003700  1
  Si  Si54  1  0.82374800  0.67625200  0.87996300  1
  Si  Si55  1  0.82374800  0.32374800  0.62003700  1
