# generated using pymatgen
data_Ba7(Fe3S7)2
_symmetry_space_group_name_H-M   'P 1'
_cell_length_a   25.85060800
_cell_length_b   8.29790400
_cell_length_c   15.04532944
_cell_angle_alpha   90.00000000
_cell_angle_beta   118.74638837
_cell_angle_gamma   90.00000000
_symmetry_Int_Tables_number   1
_chemical_formula_structural   Ba7(Fe3S7)2
_chemical_formula_sum   'Ba28 Fe24 S56'
_cell_volume   2829.56808185
_cell_formula_units_Z   4
loop_
 _symmetry_equiv_pos_site_id
 _symmetry_equiv_pos_as_xyz
  1  'x, y, z'
loop_
 _atom_site_type_symbol
 _atom_site_label
 _atom_site_symmetry_multiplicity
 _atom_site_fract_x
 _atom_site_fract_y
 _atom_site_fract_z
 _atom_site_occupancy
  Ba  Ba0  1  0.17491250  0.54047350  0.73392800  1
  Ba  Ba1  1  0.00000000  0.32265200  0.25000000  1
  Ba  Ba2  1  0.18166650  0.03449750  0.87575300  1
  Ba  Ba3  1  0.81833350  0.96550250  0.12424700  1
  Ba  Ba4  1  0.82508750  0.45952650  0.26607200  1
  Ba  Ba5  1  0.32508750  0.04047350  0.76607200  1
  Ba  Ba6  1  0.99008900  0.21393000  0.92484900  1
  Ba  Ba7  1  0.00991100  0.78607000  0.07515100  1
  Ba  Ba8  1  0.00000000  0.67734800  0.75000000  1
  Ba  Ba9  1  0.81833350  0.03449750  0.62424700  1
  Ba  Ba10  1  0.18166650  0.96550250  0.37575300  1
  Ba  Ba11  1  0.67491250  0.95952650  0.23392800  1
  Ba  Ba12  1  0.99008900  0.78607000  0.42484900  1
  Ba  Ba13  1  0.00991100  0.21393000  0.57515100  1
  Ba  Ba14  1  0.67491250  0.04047350  0.73392800  1
  Ba  Ba15  1  0.50000000  0.82265200  0.25000000  1
  Ba  Ba16  1  0.68166650  0.53449750  0.87575300  1
  Ba  Ba17  1  0.31833350  0.46550250  0.12424700  1
  Ba  Ba18  1  0.32508750  0.95952650  0.26607200  1
  Ba  Ba19  1  0.82508750  0.54047350  0.76607200  1
  Ba  Ba20  1  0.49008900  0.71393000  0.92484900  1
  Ba  Ba21  1  0.50991100  0.28607000  0.07515100  1
  Ba  Ba22  1  0.50000000  0.17734800  0.75000000  1
  Ba  Ba23  1  0.31833350  0.53449750  0.62424700  1
  Ba  Ba24  1  0.68166650  0.46550250  0.37575300  1
  Ba  Ba25  1  0.17491250  0.45952650  0.23392800  1
  Ba  Ba26  1  0.49008900  0.28607000  0.42484900  1
  Ba  Ba27  1  0.50991100  0.71393000  0.57515100  1
  Fe  Fe28  1  0.63516100  0.23485300  0.01487900  1
  Fe  Fe29  1  0.63871400  0.54817400  0.08815800  1
  Fe  Fe30  1  0.36483900  0.76514700  0.98512100  1
  Fe  Fe31  1  0.13649800  0.42798300  0.95076100  1
  Fe  Fe32  1  0.13871400  0.95182600  0.58815800  1
  Fe  Fe33  1  0.36128600  0.45182600  0.91184200  1
  Fe  Fe34  1  0.86350200  0.57201700  0.04923900  1
  Fe  Fe35  1  0.86483900  0.73485300  0.48512100  1
  Fe  Fe36  1  0.86350200  0.42798300  0.54923900  1
  Fe  Fe37  1  0.13649800  0.57201700  0.45076100  1
  Fe  Fe38  1  0.86128600  0.04817400  0.41184200  1
  Fe  Fe39  1  0.13516100  0.26514700  0.51487900  1
  Fe  Fe40  1  0.13516100  0.73485300  0.01487900  1
  Fe  Fe41  1  0.13871400  0.04817400  0.08815800  1
  Fe  Fe42  1  0.86483900  0.26514700  0.98512100  1
  Fe  Fe43  1  0.63649800  0.92798300  0.95076100  1
  Fe  Fe44  1  0.63871400  0.45182600  0.58815800  1
  Fe  Fe45  1  0.86128600  0.95182600  0.91184200  1
  Fe  Fe46  1  0.36350200  0.07201700  0.04923900  1
  Fe  Fe47  1  0.36483900  0.23485300  0.48512100  1
  Fe  Fe48  1  0.36350200  0.92798300  0.54923900  1
  Fe  Fe49  1  0.63649800  0.07201700  0.45076100  1
  Fe  Fe50  1  0.36128600  0.54817400  0.41184200  1
  Fe  Fe51  1  0.63516100  0.76514700  0.51487900  1
  S  S52  1  0.92903800  0.46964500  0.00056600  1
  S  S53  1  0.80055850  0.23995350  0.42999300  1
  S  S54  1  0.19284650  0.64042950  0.94960600  1
  S  S55  1  0.08762200  0.85698600  0.66510300  1
  S  S56  1  0.07096200  0.46964500  0.49943400  1
  S  S57  1  0.07561600  0.94680800  0.92584900  1
  S  S58  1  0.58762200  0.64301400  0.16510300  1
  S  S59  1  0.92438400  0.05319200  0.07415100  1
  S  S60  1  0.30756750  0.67518450  0.82095600  1
  S  S61  1  0.92438400  0.94680800  0.57415100  1
  S  S62  1  0.91237800  0.14301400  0.33489700  1
  S  S63  1  0.30055850  0.26004650  0.92999300  1
  S  S64  1  0.19243250  0.17518450  0.67904400  1
  S  S65  1  0.19284650  0.35957050  0.44960600  1
  S  S66  1  0.08611450  0.65373850  0.28957300  1
  S  S67  1  0.69243250  0.32481550  0.17904400  1
  S  S68  1  0.07561600  0.05319200  0.42584900  1
  S  S69  1  0.80715350  0.35957050  0.05039400  1
  S  S70  1  0.08611450  0.34626150  0.78957300  1
  S  S71  1  0.07096200  0.53035500  0.99943400  1
  S  S72  1  0.92903800  0.53035500  0.50056600  1
  S  S73  1  0.91388550  0.65373850  0.21042700  1
  S  S74  1  0.91388550  0.34626150  0.71042700  1
  S  S75  1  0.80756750  0.82481550  0.32095600  1
  S  S76  1  0.41237800  0.35698600  0.83489700  1
  S  S77  1  0.19944150  0.76004650  0.57000700  1
  S  S78  1  0.69944150  0.73995350  0.07000700  1
  S  S79  1  0.80715350  0.64042950  0.55039400  1
  S  S80  1  0.42903800  0.96964500  0.00056600  1
  S  S81  1  0.30055850  0.73995350  0.42999300  1
  S  S82  1  0.69284650  0.14042950  0.94960600  1
  S  S83  1  0.58762200  0.35698600  0.66510300  1
  S  S84  1  0.57096200  0.96964500  0.49943400  1
  S  S85  1  0.57561600  0.44680800  0.92584900  1
  S  S86  1  0.08762200  0.14301400  0.16510300  1
  S  S87  1  0.42438400  0.55319200  0.07415100  1
  S  S88  1  0.80756750  0.17518450  0.82095600  1
  S  S89  1  0.42438400  0.44680800  0.57415100  1
  S  S90  1  0.41237800  0.64301400  0.33489700  1
  S  S91  1  0.80055850  0.76004650  0.92999300  1
  S  S92  1  0.69243250  0.67518450  0.67904400  1
  S  S93  1  0.69284650  0.85957050  0.44960600  1
  S  S94  1  0.58611450  0.15373850  0.28957300  1
  S  S95  1  0.19243250  0.82481550  0.17904400  1
  S  S96  1  0.57561600  0.55319200  0.42584900  1
  S  S97  1  0.30715350  0.85957050  0.05039400  1
  S  S98  1  0.58611450  0.84626150  0.78957300  1
  S  S99  1  0.57096200  0.03035500  0.99943400  1
  S  S100  1  0.42903800  0.03035500  0.50056600  1
  S  S101  1  0.41388550  0.15373850  0.21042700  1
  S  S102  1  0.41388550  0.84626150  0.71042700  1
  S  S103  1  0.30756750  0.32481550  0.32095600  1
  S  S104  1  0.91237800  0.85698600  0.83489700  1
  S  S105  1  0.69944150  0.26004650  0.57000700  1
  S  S106  1  0.19944150  0.23995350  0.07000700  1
  S  S107  1  0.30715350  0.14042950  0.55039400  1
