# generated using pymatgen
data_Ba3SrRu2O9
_symmetry_space_group_name_H-M   'P 1'
_cell_length_a   6.08419400
_cell_length_b   10.43347600
_cell_length_c   15.34995974
_cell_angle_alpha   90.00000000
_cell_angle_beta   92.10281087
_cell_angle_gamma   90.00000000
_symmetry_Int_Tables_number   1
_chemical_formula_structural   Ba3SrRu2O9
_chemical_formula_sum   'Ba12 Sr4 Ru8 O36'
_cell_volume   973.74840879
_cell_formula_units_Z   4
loop_
 _symmetry_equiv_pos_site_id
 _symmetry_equiv_pos_as_xyz
  1  'x, y, z'
loop_
 _atom_site_type_symbol
 _atom_site_label
 _atom_site_symmetry_multiplicity
 _atom_site_fract_x
 _atom_site_fract_y
 _atom_site_fract_z
 _atom_site_occupancy
  Ba  Ba0  1  0.51074600  0.16373100  0.60549200  1
  Ba  Ba1  1  0.48925400  0.16373100  0.89450800  1
  Ba  Ba2  1  0.48925400  0.83626900  0.39450800  1
  Ba  Ba3  1  0.51074600  0.83626900  0.10549200  1
  Ba  Ba4  1  0.50000000  0.50692900  0.75000000  1
  Ba  Ba5  1  0.50000000  0.49307100  0.25000000  1
  Ba  Ba6  1  0.01074600  0.66373100  0.60549200  1
  Ba  Ba7  1  0.98925400  0.66373100  0.89450800  1
  Ba  Ba8  1  0.98925400  0.33626900  0.39450800  1
  Ba  Ba9  1  0.01074600  0.33626900  0.10549200  1
  Ba  Ba10  1  0.00000000  0.00692900  0.75000000  1
  Ba  Ba11  1  0.00000000  0.99307100  0.25000000  1
  Sr  Sr12  1  0.00000000  0.00000000  0.00000000  1
  Sr  Sr13  1  0.00000000  0.00000000  0.50000000  1
  Sr  Sr14  1  0.50000000  0.50000000  0.00000000  1
  Sr  Sr15  1  0.50000000  0.50000000  0.50000000  1
  Ru  Ru16  1  0.52445400  0.83203900  0.65945300  1
  Ru  Ru17  1  0.47554600  0.83203900  0.84054700  1
  Ru  Ru18  1  0.52445400  0.16796100  0.15945300  1
  Ru  Ru19  1  0.47554600  0.16796100  0.34054700  1
  Ru  Ru20  1  0.02445400  0.33203900  0.65945300  1
  Ru  Ru21  1  0.97554600  0.33203900  0.84054700  1
  Ru  Ru22  1  0.02445400  0.66796100  0.15945300  1
  Ru  Ru23  1  0.97554600  0.66796100  0.34054700  1
  O  O24  1  0.78162000  0.90525900  0.61050600  1
  O  O25  1  0.21838000  0.90525900  0.88949400  1
  O  O26  1  0.21838000  0.09474100  0.38949400  1
  O  O27  1  0.78162000  0.09474100  0.11050600  1
  O  O28  1  0.55694750  0.67178850  0.60162300  1
  O  O29  1  0.44305250  0.67178850  0.89837700  1
  O  O30  1  0.44305250  0.32821150  0.39837700  1
  O  O31  1  0.55694750  0.32821150  0.10162300  1
  O  O32  1  0.32585900  0.90354600  0.57328200  1
  O  O33  1  0.67414100  0.90354600  0.92671800  1
  O  O34  1  0.67414100  0.09645400  0.42671800  1
  O  O35  1  0.32585900  0.09645400  0.07328200  1
  O  O36  1  0.50000000  0.01599400  0.25000000  1
  O  O37  1  0.50000000  0.98400600  0.75000000  1
  O  O38  1  0.72007550  0.23871550  0.26529700  1
  O  O39  1  0.27992450  0.23871550  0.23470300  1
  O  O40  1  0.27992450  0.76128450  0.73470300  1
  O  O41  1  0.72007550  0.76128450  0.76529700  1
  O  O42  1  0.28162000  0.40525900  0.61050600  1
  O  O43  1  0.71838000  0.40525900  0.88949400  1
  O  O44  1  0.71838000  0.59474100  0.38949400  1
  O  O45  1  0.28162000  0.59474100  0.11050600  1
  O  O46  1  0.05694750  0.17178850  0.60162300  1
  O  O47  1  0.94305250  0.17178850  0.89837700  1
  O  O48  1  0.94305250  0.82821150  0.39837700  1
  O  O49  1  0.05694750  0.82821150  0.10162300  1
  O  O50  1  0.82585900  0.40354600  0.57328200  1
  O  O51  1  0.17414100  0.40354600  0.92671800  1
  O  O52  1  0.17414100  0.59645400  0.42671800  1
  O  O53  1  0.82585900  0.59645400  0.07328200  1
  O  O54  1  0.00000000  0.51599400  0.25000000  1
  O  O55  1  0.00000000  0.48400600  0.75000000  1
  O  O56  1  0.22007550  0.73871550  0.26529700  1
  O  O57  1  0.77992450  0.73871550  0.23470300  1
  O  O58  1  0.77992450  0.26128450  0.73470300  1
  O  O59  1  0.22007550  0.26128450  0.76529700  1
