# generated using pymatgen
data_EuMoClO4
_symmetry_space_group_name_H-M   'P 1'
_cell_length_a   10.61490800
_cell_length_b   7.50928600
_cell_length_c   6.98217287
_cell_angle_alpha   90.00000000
_cell_angle_beta   106.70811495
_cell_angle_gamma   90.00000000
_symmetry_Int_Tables_number   1
_chemical_formula_structural   EuMoClO4
_chemical_formula_sum   'Eu4 Mo4 Cl4 O16'
_cell_volume   533.05503603
_cell_formula_units_Z   4
loop_
 _symmetry_equiv_pos_site_id
 _symmetry_equiv_pos_as_xyz
  1  'x, y, z'
loop_
 _atom_site_type_symbol
 _atom_site_label
 _atom_site_symmetry_multiplicity
 _atom_site_fract_x
 _atom_site_fract_y
 _atom_site_fract_z
 _atom_site_occupancy
  Eu  Eu0  1  0.77452700  0.00000000  0.88377700  1
  Eu  Eu1  1  0.22547300  0.00000000  0.11622300  1
  Eu  Eu2  1  0.27452700  0.50000000  0.88377700  1
  Eu  Eu3  1  0.72547300  0.50000000  0.11622300  1
  Mo  Mo4  1  0.63628100  0.00000000  0.26691000  1
  Mo  Mo5  1  0.36371900  0.00000000  0.73309000  1
  Mo  Mo6  1  0.13628100  0.50000000  0.26691000  1
  Mo  Mo7  1  0.86371900  0.50000000  0.73309000  1
  Cl  Cl8  1  0.01069000  0.00000000  0.76166900  1
  Cl  Cl9  1  0.98931000  0.00000000  0.23833100  1
  Cl  Cl10  1  0.51069000  0.50000000  0.76166900  1
  Cl  Cl11  1  0.48931000  0.50000000  0.23833100  1
  O  O12  1  0.69604150  0.81289350  0.15344500  1
  O  O13  1  0.53858100  0.00000000  0.79393200  1
  O  O14  1  0.69604150  0.18710650  0.15344500  1
  O  O15  1  0.70589200  0.00000000  0.53019300  1
  O  O16  1  0.30395850  0.18710650  0.84655500  1
  O  O17  1  0.30395850  0.81289350  0.84655500  1
  O  O18  1  0.29410800  0.00000000  0.46980700  1
  O  O19  1  0.46141900  0.00000000  0.20606800  1
  O  O20  1  0.19604150  0.31289350  0.15344500  1
  O  O21  1  0.03858100  0.50000000  0.79393200  1
  O  O22  1  0.19604150  0.68710650  0.15344500  1
  O  O23  1  0.20589200  0.50000000  0.53019300  1
  O  O24  1  0.80395850  0.68710650  0.84655500  1
  O  O25  1  0.80395850  0.31289350  0.84655500  1
  O  O26  1  0.79410800  0.50000000  0.46980700  1
  O  O27  1  0.96141900  0.50000000  0.20606800  1
