# generated using pymatgen
data_Ce2USe4
_symmetry_space_group_name_H-M   'P 1'
_cell_length_a   8.87327200
_cell_length_b   8.87327200
_cell_length_c   8.83228400
_cell_angle_alpha   90.00000000
_cell_angle_beta   90.00000000
_cell_angle_gamma   90.00000000
_symmetry_Int_Tables_number   1
_chemical_formula_structural   Ce2USe4
_chemical_formula_sum   'Ce8 U4 Se16'
_cell_volume   695.40949200
_cell_formula_units_Z   4
loop_
 _symmetry_equiv_pos_site_id
 _symmetry_equiv_pos_as_xyz
  1  'x, y, z'
loop_
 _atom_site_type_symbol
 _atom_site_label
 _atom_site_symmetry_multiplicity
 _atom_site_fract_x
 _atom_site_fract_y
 _atom_site_fract_z
 _atom_site_occupancy
  Ce  Ce0  1  0.25000000  0.12599900  0.12500000  1
  Ce  Ce1  1  0.87400100  0.25000000  0.87500000  1
  Ce  Ce2  1  0.25000000  0.37400100  0.62500000  1
  Ce  Ce3  1  0.62599900  0.25000000  0.37500000  1
  Ce  Ce4  1  0.75000000  0.62599900  0.62500000  1
  Ce  Ce5  1  0.37400100  0.75000000  0.37500000  1
  Ce  Ce6  1  0.75000000  0.87400100  0.12500000  1
  Ce  Ce7  1  0.12599900  0.75000000  0.87500000  1
  U  U8  1  0.50000000  0.00000000  0.75000000  1
  U  U9  1  0.00000000  0.00000000  0.50000000  1
  U  U10  1  0.00000000  0.50000000  0.25000000  1
  U  U11  1  0.50000000  0.50000000  0.00000000  1
  Se  Se12  1  0.57449550  0.32450850  0.70400150  1
  Se  Se13  1  0.57449550  0.17549150  0.04599850  1
  Se  Se14  1  0.92550450  0.32450850  0.54599850  1
  Se  Se15  1  0.82450850  0.57449550  0.95400150  1
  Se  Se16  1  0.82450850  0.92550450  0.79599850  1
  Se  Se17  1  0.67549150  0.92550450  0.45400150  1
  Se  Se18  1  0.67549150  0.57449550  0.29599850  1
  Se  Se19  1  0.92550450  0.17549150  0.20400150  1
  Se  Se20  1  0.07449550  0.82450850  0.20400150  1
  Se  Se21  1  0.07449550  0.67549150  0.54599850  1
  Se  Se22  1  0.42550450  0.82450850  0.04599850  1
  Se  Se23  1  0.32450850  0.07449550  0.45400150  1
  Se  Se24  1  0.32450850  0.42550450  0.29599850  1
  Se  Se25  1  0.17549150  0.42550450  0.95400150  1
  Se  Se26  1  0.17549150  0.07449550  0.79599850  1
  Se  Se27  1  0.42550450  0.67549150  0.70400150  1
