# generated using pymatgen
data_Hf6PbO18
_symmetry_space_group_name_H-M   'P 1'
_cell_length_a   11.75782400
_cell_length_b   8.28478600
_cell_length_c   9.22963279
_cell_angle_alpha   90.00000000
_cell_angle_beta   108.56790645
_cell_angle_gamma   90.00000000
_symmetry_Int_Tables_number   1
_chemical_formula_structural   Hf6PbO18
_chemical_formula_sum   'Hf12 Pb2 O36'
_cell_volume   852.26900305
_cell_formula_units_Z   2
loop_
 _symmetry_equiv_pos_site_id
 _symmetry_equiv_pos_as_xyz
  1  'x, y, z'
loop_
 _atom_site_type_symbol
 _atom_site_label
 _atom_site_symmetry_multiplicity
 _atom_site_fract_x
 _atom_site_fract_y
 _atom_site_fract_z
 _atom_site_occupancy
  Hf  Hf0  1  0.58447700  0.25408000  0.33796100  1
  Hf  Hf1  1  0.75000000  0.75000000  0.00000000  1
  Hf  Hf2  1  0.41552300  0.74592000  0.66203900  1
  Hf  Hf3  1  0.58447700  0.74592000  0.33796100  1
  Hf  Hf4  1  0.75000000  0.25000000  0.00000000  1
  Hf  Hf5  1  0.41552300  0.25408000  0.66203900  1
  Hf  Hf6  1  0.08447700  0.75408000  0.33796100  1
  Hf  Hf7  1  0.25000000  0.25000000  0.00000000  1
  Hf  Hf8  1  0.91552300  0.24592000  0.66203900  1
  Hf  Hf9  1  0.08447700  0.24592000  0.33796100  1
  Hf  Hf10  1  0.25000000  0.75000000  0.00000000  1
  Hf  Hf11  1  0.91552300  0.75408000  0.66203900  1
  Pb  Pb12  1  0.50000000  0.00000000  0.00000000  1
  Pb  Pb13  1  0.00000000  0.50000000  0.00000000  1
  O  O14  1  0.50000000  0.24866300  0.50000000  1
  O  O15  1  0.34074200  0.76129200  0.84059700  1
  O  O16  1  0.65925800  0.76129200  0.15940300  1
  O  O17  1  0.57959200  0.00000000  0.31747200  1
  O  O18  1  0.25953200  0.00000000  0.00012800  1
  O  O19  1  0.91698600  0.00000000  0.66739700  1
  O  O20  1  0.50000000  0.75133700  0.50000000  1
  O  O21  1  0.75000000  0.25000000  0.50000000  1
  O  O22  1  0.65925800  0.23870800  0.15940300  1
  O  O23  1  0.42040050  0.23912950  0.15936500  1
  O  O24  1  0.34074200  0.23870800  0.84059700  1
  O  O25  1  0.57959950  0.76087050  0.84063500  1
  O  O26  1  0.08301400  0.00000000  0.33260300  1
  O  O27  1  0.74046800  0.00000000  0.99987200  1
  O  O28  1  0.42040800  0.00000000  0.68252800  1
  O  O29  1  0.75000000  0.75000000  0.50000000  1
  O  O30  1  0.42040050  0.76087050  0.15936500  1
  O  O31  1  0.57959950  0.23912950  0.84063500  1
  O  O32  1  0.00000000  0.74866300  0.50000000  1
  O  O33  1  0.84074200  0.26129200  0.84059700  1
  O  O34  1  0.15925800  0.26129200  0.15940300  1
  O  O35  1  0.07959200  0.50000000  0.31747200  1
  O  O36  1  0.75953200  0.50000000  0.00012800  1
  O  O37  1  0.41698600  0.50000000  0.66739700  1
  O  O38  1  0.00000000  0.25133700  0.50000000  1
  O  O39  1  0.25000000  0.75000000  0.50000000  1
  O  O40  1  0.15925800  0.73870800  0.15940300  1
  O  O41  1  0.92040050  0.73912950  0.15936500  1
  O  O42  1  0.84074200  0.73870800  0.84059700  1
  O  O43  1  0.07959950  0.26087050  0.84063500  1
  O  O44  1  0.58301400  0.50000000  0.33260300  1
  O  O45  1  0.24046800  0.50000000  0.99987200  1
  O  O46  1  0.92040800  0.50000000  0.68252800  1
  O  O47  1  0.25000000  0.25000000  0.50000000  1
  O  O48  1  0.92040050  0.26087050  0.15936500  1
  O  O49  1  0.07959950  0.73912950  0.84063500  1
