# generated using pymatgen
data_Co2S3
_symmetry_space_group_name_H-M   'P 1'
_cell_length_a   6.57810600
_cell_length_b   6.57810600
_cell_length_c   27.86334000
_cell_angle_alpha   90.00000000
_cell_angle_beta   90.00000000
_cell_angle_gamma   90.00000000
_symmetry_Int_Tables_number   1
_chemical_formula_structural   Co2S3
_chemical_formula_sum   'Co32 S48'
_cell_volume   1205.68791906
_cell_formula_units_Z   16
loop_
 _symmetry_equiv_pos_site_id
 _symmetry_equiv_pos_as_xyz
  1  'x, y, z'
loop_
 _atom_site_type_symbol
 _atom_site_label
 _atom_site_symmetry_multiplicity
 _atom_site_fract_x
 _atom_site_fract_y
 _atom_site_fract_z
 _atom_site_occupancy
  Co  Co0  1  0.50000000  0.50000000  0.16778400  1
  Co  Co1  1  0.00000000  0.00000000  0.33221600  1
  Co  Co2  1  0.50000000  0.74778000  0.29248600  1
  Co  Co3  1  0.50000000  0.00000000  0.41778400  1
  Co  Co4  1  0.24778000  0.50000000  0.04248600  1
  Co  Co5  1  0.00000000  0.25222000  0.45751400  1
  Co  Co6  1  0.50000000  0.00000000  0.08221600  1
  Co  Co7  1  0.75222000  0.00000000  0.20751400  1
  Co  Co8  1  0.75222000  0.50000000  0.04248600  1
  Co  Co9  1  0.00000000  0.75000000  0.12500000  1
  Co  Co10  1  0.00000000  0.25000000  0.12500000  1
  Co  Co11  1  0.25000000  0.50000000  0.37500000  1
  Co  Co12  1  0.24778000  0.00000000  0.20751400  1
  Co  Co13  1  0.50000000  0.25222000  0.29248600  1
  Co  Co14  1  0.75000000  0.50000000  0.37500000  1
  Co  Co15  1  0.00000000  0.74778000  0.45751400  1
  Co  Co16  1  0.00000000  0.00000000  0.66778400  1
  Co  Co17  1  0.50000000  0.50000000  0.83221600  1
  Co  Co18  1  0.00000000  0.24778000  0.79248600  1
  Co  Co19  1  0.00000000  0.50000000  0.91778400  1
  Co  Co20  1  0.74778000  0.00000000  0.54248600  1
  Co  Co21  1  0.50000000  0.75222000  0.95751400  1
  Co  Co22  1  0.00000000  0.50000000  0.58221600  1
  Co  Co23  1  0.25222000  0.50000000  0.70751400  1
  Co  Co24  1  0.25222000  0.00000000  0.54248600  1
  Co  Co25  1  0.50000000  0.25000000  0.62500000  1
  Co  Co26  1  0.50000000  0.75000000  0.62500000  1
  Co  Co27  1  0.75000000  0.00000000  0.87500000  1
  Co  Co28  1  0.74778000  0.50000000  0.70751400  1
  Co  Co29  1  0.00000000  0.75222000  0.79248600  1
  Co  Co30  1  0.25000000  0.00000000  0.87500000  1
  Co  Co31  1  0.50000000  0.24778000  0.95751400  1
  S  S32  1  0.50000000  0.73508400  0.37310700  1
  S  S33  1  0.75954700  0.00000000  0.46151000  1
  S  S34  1  0.50000000  0.74045300  0.03849000  1
  S  S35  1  0.00000000  0.73508400  0.37689300  1
  S  S36  1  0.24045300  0.00000000  0.46151000  1
  S  S37  1  0.76491600  0.50000000  0.12310700  1
  S  S38  1  0.76491600  0.00000000  0.12689300  1
  S  S39  1  0.00000000  0.22814050  0.20540950  1
  S  S40  1  0.00000000  0.72814050  0.04459050  1
  S  S41  1  0.00000000  0.77185950  0.20540950  1
  S  S42  1  0.23508400  0.00000000  0.12689300  1
  S  S43  1  0.23508400  0.50000000  0.12310700  1
  S  S44  1  0.25954700  0.00000000  0.28849000  1
  S  S45  1  0.27185950  0.50000000  0.29459050  1
  S  S46  1  0.50000000  0.75954700  0.21151000  1
  S  S47  1  0.50000000  0.24045300  0.21151000  1
  S  S48  1  0.50000000  0.26491600  0.37310700  1
  S  S49  1  0.72814050  0.50000000  0.29459050  1
  S  S50  1  0.74045300  0.00000000  0.28849000  1
  S  S51  1  0.77185950  0.50000000  0.45540950  1
  S  S52  1  0.00000000  0.26491600  0.37689300  1
  S  S53  1  0.50000000  0.25954700  0.03849000  1
  S  S54  1  0.22814050  0.50000000  0.45540950  1
  S  S55  1  0.00000000  0.27185950  0.04459050  1
  S  S56  1  0.00000000  0.23508400  0.87310700  1
  S  S57  1  0.25954700  0.50000000  0.96151000  1
  S  S58  1  0.00000000  0.24045300  0.53849000  1
  S  S59  1  0.50000000  0.23508400  0.87689300  1
  S  S60  1  0.74045300  0.50000000  0.96151000  1
  S  S61  1  0.26491600  0.00000000  0.62310700  1
  S  S62  1  0.26491600  0.50000000  0.62689300  1
  S  S63  1  0.50000000  0.72814050  0.70540950  1
  S  S64  1  0.50000000  0.22814050  0.54459050  1
  S  S65  1  0.50000000  0.27185950  0.70540950  1
  S  S66  1  0.73508400  0.50000000  0.62689300  1
  S  S67  1  0.73508400  0.00000000  0.62310700  1
  S  S68  1  0.75954700  0.50000000  0.78849000  1
  S  S69  1  0.77185950  0.00000000  0.79459050  1
  S  S70  1  0.00000000  0.25954700  0.71151000  1
  S  S71  1  0.00000000  0.74045300  0.71151000  1
  S  S72  1  0.00000000  0.76491600  0.87310700  1
  S  S73  1  0.22814050  0.00000000  0.79459050  1
  S  S74  1  0.24045300  0.50000000  0.78849000  1
  S  S75  1  0.27185950  0.00000000  0.95540950  1
  S  S76  1  0.50000000  0.76491600  0.87689300  1
  S  S77  1  0.00000000  0.75954700  0.53849000  1
  S  S78  1  0.72814050  0.00000000  0.95540950  1
  S  S79  1  0.50000000  0.77185950  0.54459050  1
