# generated using pymatgen
data_ZnSnSb2
_symmetry_space_group_name_H-M   'P 1'
_cell_length_a   7.88697400
_cell_length_b   4.47965000
_cell_length_c   41.87199963
_cell_angle_alpha   90.00000000
_cell_angle_beta   90.53693823
_cell_angle_gamma   90.00000000
_symmetry_Int_Tables_number   1
_chemical_formula_structural   ZnSnSb2
_chemical_formula_sum   'Zn12 Sn12 Sb24'
_cell_volume   1479.30976279
_cell_formula_units_Z   12
loop_
 _symmetry_equiv_pos_site_id
 _symmetry_equiv_pos_as_xyz
  1  'x, y, z'
loop_
 _atom_site_type_symbol
 _atom_site_label
 _atom_site_symmetry_multiplicity
 _atom_site_fract_x
 _atom_site_fract_y
 _atom_site_fract_z
 _atom_site_occupancy
  Zn  Zn0  1  0.56607600  0.50000000  0.03050000  1
  Zn  Zn1  1  0.54066500  0.00000000  0.10230100  1
  Zn  Zn2  1  0.52682300  0.50000000  0.17495700  1
  Zn  Zn3  1  0.51639600  0.00000000  0.24810800  1
  Zn  Zn4  1  0.99816500  0.00000000  0.32219500  1
  Zn  Zn5  1  0.97838600  0.50000000  0.39536500  1
  Zn  Zn6  1  0.06607600  0.00000000  0.03050000  1
  Zn  Zn7  1  0.04066500  0.50000000  0.10230100  1
  Zn  Zn8  1  0.02682300  0.00000000  0.17495700  1
  Zn  Zn9  1  0.01639600  0.50000000  0.24810800  1
  Zn  Zn10  1  0.49816500  0.50000000  0.32219500  1
  Zn  Zn11  1  0.47838600  0.00000000  0.39536500  1
  Sn  Sn12  1  0.91638400  0.00000000  0.47260800  1
  Sn  Sn13  1  0.99807400  0.50000000  0.56244400  1
  Sn  Sn14  1  0.99963300  0.00000000  0.65766000  1
  Sn  Sn15  1  0.53562000  0.00000000  0.75007900  1
  Sn  Sn16  1  0.61520400  0.00000000  0.93520300  1
  Sn  Sn17  1  0.56010300  0.50000000  0.84301100  1
  Sn  Sn18  1  0.41638400  0.50000000  0.47260800  1
  Sn  Sn19  1  0.49807400  0.00000000  0.56244400  1
  Sn  Sn20  1  0.49963300  0.50000000  0.65766000  1
  Sn  Sn21  1  0.03562000  0.50000000  0.75007900  1
  Sn  Sn22  1  0.11520400  0.50000000  0.93520300  1
  Sn  Sn23  1  0.06010300  0.00000000  0.84301100  1
  Sb  Sb24  1  0.89424500  0.50000000  0.04200700  1
  Sb  Sb25  1  0.87038800  0.00000000  0.11532500  1
  Sb  Sb26  1  0.85302300  0.50000000  0.18690800  1
  Sb  Sb27  1  0.84401000  0.00000000  0.25945400  1
  Sb  Sb28  1  0.82989900  0.50000000  0.32984300  1
  Sb  Sb29  1  0.81370200  0.00000000  0.40562700  1
  Sb  Sb30  1  0.75395700  0.50000000  0.50527500  1
  Sb  Sb31  1  0.83545000  0.00000000  0.59538700  1
  Sb  Sb32  1  0.83521400  0.50000000  0.68987100  1
  Sb  Sb33  1  0.87207800  0.00000000  0.78261800  1
  Sb  Sb34  1  0.89595100  0.50000000  0.87585500  1
  Sb  Sb35  1  0.95056100  0.00000000  0.96740100  1
  Sb  Sb36  1  0.39424500  0.00000000  0.04200700  1
  Sb  Sb37  1  0.37038800  0.50000000  0.11532500  1
  Sb  Sb38  1  0.35302300  0.00000000  0.18690800  1
  Sb  Sb39  1  0.34401000  0.50000000  0.25945400  1
  Sb  Sb40  1  0.32989900  0.00000000  0.32984300  1
  Sb  Sb41  1  0.31370200  0.50000000  0.40562700  1
  Sb  Sb42  1  0.25395700  0.00000000  0.50527500  1
  Sb  Sb43  1  0.33545000  0.50000000  0.59538700  1
  Sb  Sb44  1  0.33521400  0.00000000  0.68987100  1
  Sb  Sb45  1  0.37207800  0.50000000  0.78261800  1
  Sb  Sb46  1  0.39595100  0.00000000  0.87585500  1
  Sb  Sb47  1  0.45056100  0.50000000  0.96740100  1
