# generated using pymatgen
data_Cr4Cu3Te8
_symmetry_space_group_name_H-M   'P 1'
_cell_length_a   8.00712200
_cell_length_b   8.02751400
_cell_length_c   11.32389600
_cell_angle_alpha   90.00000000
_cell_angle_beta   90.00000000
_cell_angle_gamma   90.00000000
_symmetry_Int_Tables_number   1
_chemical_formula_structural   Cr4Cu3Te8
_chemical_formula_sum   'Cr8 Cu6 Te16'
_cell_volume   727.86927867
_cell_formula_units_Z   2
loop_
 _symmetry_equiv_pos_site_id
 _symmetry_equiv_pos_as_xyz
  1  'x, y, z'
loop_
 _atom_site_type_symbol
 _atom_site_label
 _atom_site_symmetry_multiplicity
 _atom_site_fract_x
 _atom_site_fract_y
 _atom_site_fract_z
 _atom_site_occupancy
  Cr  Cr0  1  0.75660950  0.00000000  0.75502050  1
  Cr  Cr1  1  0.00000000  0.25711600  0.50377500  1
  Cr  Cr2  1  0.00000000  0.74288400  0.50377500  1
  Cr  Cr3  1  0.24339050  0.00000000  0.75502050  1
  Cr  Cr4  1  0.25660950  0.50000000  0.25502050  1
  Cr  Cr5  1  0.50000000  0.75711600  0.00377500  1
  Cr  Cr6  1  0.50000000  0.24288400  0.00377500  1
  Cr  Cr7  1  0.74339050  0.50000000  0.25502050  1
  Cu  Cu8  1  0.50000000  0.00000000  0.37512200  1
  Cu  Cu9  1  0.50000000  0.00000000  0.61074200  1
  Cu  Cu10  1  0.00000000  0.00000000  0.12435700  1
  Cu  Cu11  1  0.00000000  0.50000000  0.87512200  1
  Cu  Cu12  1  0.00000000  0.50000000  0.11074200  1
  Cu  Cu13  1  0.50000000  0.50000000  0.62435700  1
  Te  Te14  1  0.00000000  0.23545150  0.74318550  1
  Te  Te15  1  0.22380250  0.00000000  0.50141250  1
  Te  Te16  1  0.00000000  0.76454850  0.74318550  1
  Te  Te17  1  0.77619750  0.00000000  0.50141250  1
  Te  Te18  1  0.73553000  0.00000000  0.99341400  1
  Te  Te19  1  0.26447000  0.00000000  0.99341400  1
  Te  Te20  1  0.00000000  0.74341400  0.26198300  1
  Te  Te21  1  0.00000000  0.25658600  0.26198300  1
  Te  Te22  1  0.50000000  0.73545150  0.24318550  1
  Te  Te23  1  0.72380250  0.50000000  0.00141250  1
  Te  Te24  1  0.50000000  0.26454850  0.24318550  1
  Te  Te25  1  0.27619750  0.50000000  0.00141250  1
  Te  Te26  1  0.23553000  0.50000000  0.49341400  1
  Te  Te27  1  0.76447000  0.50000000  0.49341400  1
  Te  Te28  1  0.50000000  0.24341400  0.76198300  1
  Te  Te29  1  0.50000000  0.75658600  0.76198300  1
