# generated using pymatgen
data_La6Mg22Al
_symmetry_space_group_name_H-M   'P 1'
_cell_length_a   14.57016800
_cell_length_b   14.57016800
_cell_length_c   14.57016800
_cell_angle_alpha   90.00000000
_cell_angle_beta   90.00000000
_cell_angle_gamma   90.00000000
_symmetry_Int_Tables_number   1
_chemical_formula_structural   La6Mg22Al
_chemical_formula_sum   'La24 Mg88 Al4'
_cell_volume   3093.09798582
_cell_formula_units_Z   4
loop_
 _symmetry_equiv_pos_site_id
 _symmetry_equiv_pos_as_xyz
  1  'x, y, z'
loop_
 _atom_site_type_symbol
 _atom_site_label
 _atom_site_symmetry_multiplicity
 _atom_site_fract_x
 _atom_site_fract_y
 _atom_site_fract_z
 _atom_site_occupancy
  La  La0  1  0.21203800  0.00000000  0.00000000  1
  La  La1  1  0.50000000  0.28796200  0.00000000  1
  La  La2  1  0.50000000  0.00000000  0.71203800  1
  La  La3  1  0.78796200  0.00000000  0.00000000  1
  La  La4  1  0.00000000  0.00000000  0.78796200  1
  La  La5  1  0.50000000  0.71203800  0.00000000  1
  La  La6  1  0.21203800  0.50000000  0.50000000  1
  La  La7  1  0.50000000  0.78796200  0.50000000  1
  La  La8  1  0.50000000  0.50000000  0.21203800  1
  La  La9  1  0.78796200  0.50000000  0.50000000  1
  La  La10  1  0.00000000  0.50000000  0.28796200  1
  La  La11  1  0.50000000  0.21203800  0.50000000  1
  La  La12  1  0.71203800  0.00000000  0.50000000  1
  La  La13  1  0.00000000  0.28796200  0.50000000  1
  La  La14  1  0.00000000  0.00000000  0.21203800  1
  La  La15  1  0.28796200  0.00000000  0.50000000  1
  La  La16  1  0.50000000  0.00000000  0.28796200  1
  La  La17  1  0.00000000  0.71203800  0.50000000  1
  La  La18  1  0.71203800  0.50000000  0.00000000  1
  La  La19  1  0.00000000  0.78796200  0.00000000  1
  La  La20  1  0.00000000  0.50000000  0.71203800  1
  La  La21  1  0.28796200  0.50000000  0.00000000  1
  La  La22  1  0.50000000  0.50000000  0.78796200  1
  La  La23  1  0.00000000  0.21203800  0.00000000  1
  Mg  Mg24  1  0.87877000  0.12123000  0.62123000  1
  Mg  Mg25  1  0.32880800  0.32880800  0.82880800  1
  Mg  Mg26  1  0.37877000  0.87877000  0.87877000  1
  Mg  Mg27  1  0.25000000  0.25000000  0.00000000  1
  Mg  Mg28  1  0.25000000  0.75000000  0.00000000  1
  Mg  Mg29  1  0.17119200  0.82880800  0.82880800  1
  Mg  Mg30  1  0.62123000  0.12123000  0.87877000  1
  Mg  Mg31  1  0.17119200  0.32880800  0.67119200  1
  Mg  Mg32  1  0.17119200  0.17119200  0.82880800  1
  Mg  Mg33  1  0.87877000  0.87877000  0.62123000  1
  Mg  Mg34  1  0.62123000  0.87877000  0.87877000  1
  Mg  Mg35  1  0.32880800  0.82880800  0.67119200  1
  Mg  Mg36  1  0.12123000  0.87877000  0.62123000  1
  Mg  Mg37  1  0.12123000  0.12123000  0.62123000  1
  Mg  Mg38  1  0.75000000  0.00000000  0.75000000  1
  Mg  Mg39  1  0.00000000  0.25000000  0.75000000  1
  Mg  Mg40  1  0.32880800  0.67119200  0.82880800  1
  Mg  Mg41  1  0.37877000  0.12123000  0.87877000  1
  Mg  Mg42  1  0.32880800  0.17119200  0.67119200  1
  Mg  Mg43  1  0.00000000  0.75000000  0.75000000  1
  Mg  Mg44  1  0.25000000  0.00000000  0.75000000  1
  Mg  Mg45  1  0.17119200  0.67119200  0.67119200  1
  Mg  Mg46  1  0.87877000  0.62123000  0.12123000  1
  Mg  Mg47  1  0.32880800  0.82880800  0.32880800  1
  Mg  Mg48  1  0.37877000  0.37877000  0.37877000  1
  Mg  Mg49  1  0.25000000  0.75000000  0.50000000  1
  Mg  Mg50  1  0.25000000  0.25000000  0.50000000  1
  Mg  Mg51  1  0.17119200  0.32880800  0.32880800  1
  Mg  Mg52  1  0.62123000  0.62123000  0.37877000  1
  Mg  Mg53  1  0.17119200  0.82880800  0.17119200  1
  Mg  Mg54  1  0.17119200  0.67119200  0.32880800  1
  Mg  Mg55  1  0.87877000  0.37877000  0.12123000  1
  Mg  Mg56  1  0.62123000  0.37877000  0.37877000  1
  Mg  Mg57  1  0.32880800  0.32880800  0.17119200  1
  Mg  Mg58  1  0.12123000  0.37877000  0.12123000  1
  Mg  Mg59  1  0.12123000  0.62123000  0.12123000  1
  Mg  Mg60  1  0.75000000  0.50000000  0.25000000  1
  Mg  Mg61  1  0.00000000  0.75000000  0.25000000  1
  Mg  Mg62  1  0.32880800  0.17119200  0.32880800  1
  Mg  Mg63  1  0.37877000  0.62123000  0.37877000  1
  Mg  Mg64  1  0.32880800  0.67119200  0.17119200  1
  Mg  Mg65  1  0.00000000  0.25000000  0.25000000  1
  Mg  Mg66  1  0.25000000  0.50000000  0.25000000  1
  Mg  Mg67  1  0.17119200  0.17119200  0.17119200  1
  Mg  Mg68  1  0.37877000  0.12123000  0.12123000  1
  Mg  Mg69  1  0.82880800  0.32880800  0.32880800  1
  Mg  Mg70  1  0.87877000  0.87877000  0.37877000  1
  Mg  Mg71  1  0.75000000  0.25000000  0.50000000  1
  Mg  Mg72  1  0.75000000  0.75000000  0.50000000  1
  Mg  Mg73  1  0.67119200  0.82880800  0.32880800  1
  Mg  Mg74  1  0.12123000  0.12123000  0.37877000  1
  Mg  Mg75  1  0.67119200  0.32880800  0.17119200  1
  Mg  Mg76  1  0.67119200  0.17119200  0.32880800  1
  Mg  Mg77  1  0.37877000  0.87877000  0.12123000  1
  Mg  Mg78  1  0.12123000  0.87877000  0.37877000  1
  Mg  Mg79  1  0.82880800  0.82880800  0.17119200  1
  Mg  Mg80  1  0.62123000  0.87877000  0.12123000  1
  Mg  Mg81  1  0.62123000  0.12123000  0.12123000  1
  Mg  Mg82  1  0.25000000  0.00000000  0.25000000  1
  Mg  Mg83  1  0.50000000  0.25000000  0.25000000  1
  Mg  Mg84  1  0.82880800  0.67119200  0.32880800  1
  Mg  Mg85  1  0.87877000  0.12123000  0.37877000  1
  Mg  Mg86  1  0.82880800  0.17119200  0.17119200  1
  Mg  Mg87  1  0.50000000  0.75000000  0.25000000  1
  Mg  Mg88  1  0.75000000  0.00000000  0.25000000  1
  Mg  Mg89  1  0.67119200  0.67119200  0.17119200  1
  Mg  Mg90  1  0.37877000  0.62123000  0.62123000  1
  Mg  Mg91  1  0.82880800  0.82880800  0.82880800  1
  Mg  Mg92  1  0.87877000  0.37877000  0.87877000  1
  Mg  Mg93  1  0.75000000  0.75000000  0.00000000  1
  Mg  Mg94  1  0.75000000  0.25000000  0.00000000  1
  Mg  Mg95  1  0.67119200  0.32880800  0.82880800  1
  Mg  Mg96  1  0.12123000  0.62123000  0.87877000  1
  Mg  Mg97  1  0.67119200  0.82880800  0.67119200  1
  Mg  Mg98  1  0.67119200  0.67119200  0.82880800  1
  Mg  Mg99  1  0.37877000  0.37877000  0.62123000  1
  Mg  Mg100  1  0.12123000  0.37877000  0.87877000  1
  Mg  Mg101  1  0.82880800  0.32880800  0.67119200  1
  Mg  Mg102  1  0.62123000  0.37877000  0.62123000  1
  Mg  Mg103  1  0.62123000  0.62123000  0.62123000  1
  Mg  Mg104  1  0.25000000  0.50000000  0.75000000  1
  Mg  Mg105  1  0.50000000  0.75000000  0.75000000  1
  Mg  Mg106  1  0.82880800  0.17119200  0.82880800  1
  Mg  Mg107  1  0.87877000  0.62123000  0.87877000  1
  Mg  Mg108  1  0.82880800  0.67119200  0.67119200  1
  Mg  Mg109  1  0.50000000  0.25000000  0.75000000  1
  Mg  Mg110  1  0.75000000  0.50000000  0.75000000  1
  Mg  Mg111  1  0.67119200  0.17119200  0.67119200  1
  Al  Al112  1  0.50000000  0.00000000  0.00000000  1
  Al  Al113  1  0.50000000  0.50000000  0.50000000  1
  Al  Al114  1  0.00000000  0.00000000  0.50000000  1
  Al  Al115  1  0.00000000  0.50000000  0.00000000  1
