# generated using pymatgen
data_CaP(H2O3)2
_symmetry_space_group_name_H-M   'P 1'
_cell_length_a   6.51097400
_cell_length_b   15.04320200
_cell_length_c   5.82138476
_cell_angle_alpha   90.00000000
_cell_angle_beta   115.58248056
_cell_angle_gamma   90.00000000
_symmetry_Int_Tables_number   1
_chemical_formula_structural   CaP(H2O3)2
_chemical_formula_sum   'Ca4 P4 H16 O24'
_cell_volume   514.28285682
_cell_formula_units_Z   4
loop_
 _symmetry_equiv_pos_site_id
 _symmetry_equiv_pos_as_xyz
  1  'x, y, z'
loop_
 _atom_site_type_symbol
 _atom_site_label
 _atom_site_symmetry_multiplicity
 _atom_site_fract_x
 _atom_site_fract_y
 _atom_site_fract_z
 _atom_site_occupancy
  Ca  Ca0  1  0.50000000  0.66754400  0.25000000  1
  Ca  Ca1  1  0.00000000  0.83245600  0.75000000  1
  Ca  Ca2  1  0.00000000  0.16754400  0.25000000  1
  Ca  Ca3  1  0.50000000  0.33245600  0.75000000  1
  P  P4  1  0.00000000  0.67121200  0.25000000  1
  P  P5  1  0.50000000  0.82878800  0.75000000  1
  P  P6  1  0.50000000  0.17121200  0.25000000  1
  P  P7  1  0.00000000  0.32878800  0.75000000  1
  H  H8  1  0.23934050  0.50448750  0.91810400  1
  H  H9  1  0.76065950  0.50448750  0.58189600  1
  H  H10  1  0.26065950  0.99551250  0.08189600  1
  H  H11  1  0.73934050  0.99551250  0.41810400  1
  H  H12  1  0.23583350  0.58597350  0.74246200  1
  H  H13  1  0.76416650  0.58597350  0.75753800  1
  H  H14  1  0.26416650  0.91402650  0.25753800  1
  H  H15  1  0.73583350  0.91402650  0.24246200  1
  H  H16  1  0.73934050  0.00448750  0.91810400  1
  H  H17  1  0.26065950  0.00448750  0.58189600  1
  H  H18  1  0.76065950  0.49551250  0.08189600  1
  H  H19  1  0.23934050  0.49551250  0.41810400  1
  H  H20  1  0.73583350  0.08597350  0.74246200  1
  H  H21  1  0.26416650  0.08597350  0.75753800  1
  H  H22  1  0.76416650  0.41402650  0.25753800  1
  H  H23  1  0.23583350  0.41402650  0.24246200  1
  O  O24  1  0.79629050  0.61280050  0.07605000  1
  O  O25  1  0.20370950  0.61280050  0.42395000  1
  O  O26  1  0.70370950  0.88719950  0.92395000  1
  O  O27  1  0.29629050  0.88719950  0.57605000  1
  O  O28  1  0.91436300  0.73173800  0.40605500  1
  O  O29  1  0.08563700  0.73173800  0.09394500  1
  O  O30  1  0.58563700  0.76826200  0.59394500  1
  O  O31  1  0.41436300  0.76826200  0.90605500  1
  O  O32  1  0.27516450  0.56855750  0.92021300  1
  O  O33  1  0.72483550  0.56855750  0.57978700  1
  O  O34  1  0.22483550  0.93144250  0.07978700  1
  O  O35  1  0.77516450  0.93144250  0.42021300  1
  O  O36  1  0.29629050  0.11280050  0.07605000  1
  O  O37  1  0.70370950  0.11280050  0.42395000  1
  O  O38  1  0.20370950  0.38719950  0.92395000  1
  O  O39  1  0.79629050  0.38719950  0.57605000  1
  O  O40  1  0.41436300  0.23173800  0.40605500  1
  O  O41  1  0.58563700  0.23173800  0.09394500  1
  O  O42  1  0.08563700  0.26826200  0.59394500  1
  O  O43  1  0.91436300  0.26826200  0.90605500  1
  O  O44  1  0.77516450  0.06855750  0.92021300  1
  O  O45  1  0.22483550  0.06855750  0.57978700  1
  O  O46  1  0.72483550  0.43144250  0.07978700  1
  O  O47  1  0.27516450  0.43144250  0.42021300  1
