# generated using pymatgen
data_Ba6In5N
_symmetry_space_group_name_H-M   'P 1'
_cell_length_a   8.32109013
_cell_length_b   8.32109013
_cell_length_c   44.78165555
_cell_angle_alpha   90.00000000
_cell_angle_beta   90.00000000
_cell_angle_gamma   120.00000000
_symmetry_Int_Tables_number   1
_chemical_formula_structural   Ba6In5N
_chemical_formula_sum   'Ba36 In30 N6'
_cell_volume   2685.29021426
_cell_formula_units_Z   6
loop_
 _symmetry_equiv_pos_site_id
 _symmetry_equiv_pos_as_xyz
  1  'x, y, z'
loop_
 _atom_site_type_symbol
 _atom_site_label
 _atom_site_symmetry_multiplicity
 _atom_site_fract_x
 _atom_site_fract_y
 _atom_site_fract_z
 _atom_site_occupancy
  Ba  Ba0  1  0.64966233  0.88356867  0.13172367  1
  Ba  Ba1  1  0.09942700  0.78309800  0.03494300  1
  Ba  Ba2  1  0.21690200  0.31632900  0.03494300  1
  Ba  Ba3  1  0.56723967  0.55023533  0.29839033  1
  Ba  Ba4  1  0.44976467  0.01700433  0.29839033  1
  Ba  Ba5  1  0.98299567  0.43276033  0.29839033  1
  Ba  Ba6  1  0.55023533  0.56723967  0.20160967  1
  Ba  Ba7  1  0.23390633  0.35033767  0.13172367  1
  Ba  Ba8  1  0.01700433  0.44976467  0.20160967  1
  Ba  Ba9  1  0.11643133  0.76609367  0.13172367  1
  Ba  Ba10  1  0.43276033  0.98299567  0.20160967  1
  Ba  Ba11  1  0.68367100  0.90057300  0.03494300  1
  Ba  Ba12  1  0.31632900  0.21690200  0.46505700  1
  Ba  Ba13  1  0.76609367  0.11643133  0.36827633  1
  Ba  Ba14  1  0.88356867  0.64966233  0.36827633  1
  Ba  Ba15  1  0.23390633  0.88356867  0.63172367  1
  Ba  Ba16  1  0.11643133  0.35033767  0.63172367  1
  Ba  Ba17  1  0.64966233  0.76609367  0.63172367  1
  Ba  Ba18  1  0.21690200  0.90057300  0.53494300  1
  Ba  Ba19  1  0.90057300  0.68367100  0.46505700  1
  Ba  Ba20  1  0.68367100  0.78309800  0.53494300  1
  Ba  Ba21  1  0.78309800  0.09942700  0.46505700  1
  Ba  Ba22  1  0.09942700  0.31632900  0.53494300  1
  Ba  Ba23  1  0.35033767  0.23390633  0.36827633  1
  Ba  Ba24  1  0.98299567  0.55023533  0.79839033  1
  Ba  Ba25  1  0.43276033  0.44976467  0.70160967  1
  Ba  Ba26  1  0.55023533  0.98299567  0.70160967  1
  Ba  Ba27  1  0.90057300  0.21690200  0.96505700  1
  Ba  Ba28  1  0.78309800  0.68367100  0.96505700  1
  Ba  Ba29  1  0.31632900  0.09942700  0.96505700  1
  Ba  Ba30  1  0.88356867  0.23390633  0.86827633  1
  Ba  Ba31  1  0.56723967  0.01700433  0.79839033  1
  Ba  Ba32  1  0.35033767  0.11643133  0.86827633  1
  Ba  Ba33  1  0.44976467  0.43276033  0.79839033  1
  Ba  Ba34  1  0.76609367  0.64966233  0.86827633  1
  Ba  Ba35  1  0.01700433  0.56723967  0.70160967  1
  In  In36  1  0.78368100  0.00000000  0.25000000  1
  In  In37  1  0.66666667  0.33333333  0.14006133  1
  In  In38  1  0.00000000  0.00000000  0.19327200  1
  In  In39  1  0.21631900  0.21631900  0.25000000  1
  In  In40  1  0.00000000  0.78368100  0.25000000  1
  In  In41  1  0.00000000  0.00000000  0.30672800  1
  In  In42  1  0.88298567  0.33333333  0.08333333  1
  In  In43  1  0.66666667  0.54965233  0.08333333  1
  In  In44  1  0.45034767  0.11701433  0.08333333  1
  In  In45  1  0.66666667  0.33333333  0.02660533  1
  In  In46  1  0.45034767  0.33333333  0.58333333  1
  In  In47  1  0.33333333  0.66666667  0.47339467  1
  In  In48  1  0.66666667  0.33333333  0.52660533  1
  In  In49  1  0.88298567  0.54965233  0.58333333  1
  In  In50  1  0.66666667  0.11701433  0.58333333  1
  In  In51  1  0.66666667  0.33333333  0.64006133  1
  In  In52  1  0.54965233  0.66666667  0.41666667  1
  In  In53  1  0.33333333  0.88298567  0.41666667  1
  In  In54  1  0.11701433  0.45034767  0.41666667  1
  In  In55  1  0.33333333  0.66666667  0.35993867  1
  In  In56  1  0.11701433  0.66666667  0.91666667  1
  In  In57  1  0.00000000  0.00000000  0.80672800  1
  In  In58  1  0.33333333  0.66666667  0.85993867  1
  In  In59  1  0.54965233  0.88298567  0.91666667  1
  In  In60  1  0.33333333  0.45034767  0.91666667  1
  In  In61  1  0.33333333  0.66666667  0.97339467  1
  In  In62  1  0.21631900  0.00000000  0.75000000  1
  In  In63  1  0.00000000  0.21631900  0.75000000  1
  In  In64  1  0.78368100  0.78368100  0.75000000  1
  In  In65  1  0.00000000  1.00000000  0.69327200  1
  N  N66  1  0.00000000  0.00000000  0.00000000  1
  N  N67  1  0.33333333  0.66666667  0.16666667  1
  N  N68  1  0.66666667  0.33333333  0.33333333  1
  N  N69  1  0.00000000  0.00000000  0.50000000  1
  N  N70  1  0.33333333  0.66666667  0.66666667  1
  N  N71  1  0.66666667  0.33333333  0.83333333  1
