# generated using pymatgen
data_La4MgRu
_symmetry_space_group_name_H-M   'P 1'
_cell_length_a   14.35061800
_cell_length_b   14.35061800
_cell_length_c   14.35061800
_cell_angle_alpha   90.00000000
_cell_angle_beta   90.00000000
_cell_angle_gamma   90.00000000
_symmetry_Int_Tables_number   1
_chemical_formula_structural   La4MgRu
_chemical_formula_sum   'La64 Mg16 Ru16'
_cell_volume   2955.36967176
_cell_formula_units_Z   16
loop_
 _symmetry_equiv_pos_site_id
 _symmetry_equiv_pos_as_xyz
  1  'x, y, z'
loop_
 _atom_site_type_symbol
 _atom_site_label
 _atom_site_symmetry_multiplicity
 _atom_site_fract_x
 _atom_site_fract_y
 _atom_site_fract_z
 _atom_site_occupancy
  La  La0  1  0.68980875  0.00000000  0.50000000  1
  La  La1  1  0.00000000  0.31019125  0.50000000  1
  La  La2  1  0.50000000  0.18980875  0.50000000  1
  La  La3  1  0.31019125  0.00000000  0.50000000  1
  La  La4  1  0.40590625  0.40590625  0.40590625  1
  La  La5  1  0.56223775  0.25000000  0.25000000  1
  La  La6  1  0.75000000  0.25000000  0.06223775  1
  La  La7  1  0.75000000  0.25000000  0.43776225  1
  La  La8  1  0.09409375  0.09409375  0.40590625  1
  La  La9  1  0.93776225  0.25000000  0.25000000  1
  La  La10  1  0.90590625  0.09409375  0.59409375  1
  La  La11  1  0.59409375  0.40590625  0.59409375  1
  La  La12  1  0.00000000  0.00000000  0.18980875  1
  La  La13  1  0.00000000  0.00000000  0.81019125  1
  La  La14  1  0.75000000  0.43776225  0.25000000  1
  La  La15  1  0.75000000  0.06223775  0.25000000  1
  La  La16  1  0.68980875  0.50000000  0.00000000  1
  La  La17  1  0.00000000  0.81019125  0.00000000  1
  La  La18  1  0.50000000  0.68980875  0.00000000  1
  La  La19  1  0.31019125  0.50000000  0.00000000  1
  La  La20  1  0.40590625  0.90590625  0.90590625  1
  La  La21  1  0.56223775  0.75000000  0.75000000  1
  La  La22  1  0.75000000  0.75000000  0.56223775  1
  La  La23  1  0.75000000  0.75000000  0.93776225  1
  La  La24  1  0.09409375  0.59409375  0.90590625  1
  La  La25  1  0.93776225  0.75000000  0.75000000  1
  La  La26  1  0.90590625  0.59409375  0.09409375  1
  La  La27  1  0.59409375  0.90590625  0.09409375  1
  La  La28  1  0.00000000  0.50000000  0.68980875  1
  La  La29  1  0.00000000  0.50000000  0.31019125  1
  La  La30  1  0.75000000  0.93776225  0.75000000  1
  La  La31  1  0.75000000  0.56223775  0.75000000  1
  La  La32  1  0.18980875  0.00000000  0.00000000  1
  La  La33  1  0.50000000  0.31019125  0.00000000  1
  La  La34  1  0.00000000  0.18980875  0.00000000  1
  La  La35  1  0.81019125  0.00000000  0.00000000  1
  La  La36  1  0.90590625  0.40590625  0.90590625  1
  La  La37  1  0.06223775  0.25000000  0.75000000  1
  La  La38  1  0.25000000  0.25000000  0.56223775  1
  La  La39  1  0.25000000  0.25000000  0.93776225  1
  La  La40  1  0.59409375  0.09409375  0.90590625  1
  La  La41  1  0.43776225  0.25000000  0.75000000  1
  La  La42  1  0.40590625  0.09409375  0.09409375  1
  La  La43  1  0.09409375  0.40590625  0.09409375  1
  La  La44  1  0.50000000  0.00000000  0.68980875  1
  La  La45  1  0.50000000  0.00000000  0.31019125  1
  La  La46  1  0.25000000  0.43776225  0.75000000  1
  La  La47  1  0.25000000  0.06223775  0.75000000  1
  La  La48  1  0.18980875  0.50000000  0.50000000  1
  La  La49  1  0.50000000  0.81019125  0.50000000  1
  La  La50  1  0.00000000  0.68980875  0.50000000  1
  La  La51  1  0.81019125  0.50000000  0.50000000  1
  La  La52  1  0.90590625  0.90590625  0.40590625  1
  La  La53  1  0.06223775  0.75000000  0.25000000  1
  La  La54  1  0.25000000  0.75000000  0.06223775  1
  La  La55  1  0.25000000  0.75000000  0.43776225  1
  La  La56  1  0.59409375  0.59409375  0.40590625  1
  La  La57  1  0.43776225  0.75000000  0.25000000  1
  La  La58  1  0.40590625  0.59409375  0.59409375  1
  La  La59  1  0.09409375  0.90590625  0.59409375  1
  La  La60  1  0.50000000  0.50000000  0.18980875  1
  La  La61  1  0.50000000  0.50000000  0.81019125  1
  La  La62  1  0.25000000  0.93776225  0.25000000  1
  La  La63  1  0.25000000  0.56223775  0.25000000  1
  Mg  Mg64  1  0.82805375  0.17194625  0.82805375  1
  Mg  Mg65  1  0.82805375  0.32805375  0.67194625  1
  Mg  Mg66  1  0.67194625  0.32805375  0.82805375  1
  Mg  Mg67  1  0.67194625  0.17194625  0.67194625  1
  Mg  Mg68  1  0.82805375  0.67194625  0.32805375  1
  Mg  Mg69  1  0.82805375  0.82805375  0.17194625  1
  Mg  Mg70  1  0.67194625  0.82805375  0.32805375  1
  Mg  Mg71  1  0.67194625  0.67194625  0.17194625  1
  Mg  Mg72  1  0.32805375  0.17194625  0.32805375  1
  Mg  Mg73  1  0.32805375  0.32805375  0.17194625  1
  Mg  Mg74  1  0.17194625  0.32805375  0.32805375  1
  Mg  Mg75  1  0.17194625  0.17194625  0.17194625  1
  Mg  Mg76  1  0.32805375  0.67194625  0.82805375  1
  Mg  Mg77  1  0.32805375  0.82805375  0.67194625  1
  Mg  Mg78  1  0.17194625  0.82805375  0.82805375  1
  Mg  Mg79  1  0.17194625  0.67194625  0.67194625  1
  Ru  Ru80  1  0.38727208  0.38727208  0.61272792  1
  Ru  Ru81  1  0.88727208  0.11272792  0.38727208  1
  Ru  Ru82  1  0.61272792  0.38727208  0.38727208  1
  Ru  Ru83  1  0.11272792  0.11272792  0.61272792  1
  Ru  Ru84  1  0.38727208  0.88727208  0.11272792  1
  Ru  Ru85  1  0.88727208  0.61272792  0.88727208  1
  Ru  Ru86  1  0.61272792  0.88727208  0.88727208  1
  Ru  Ru87  1  0.11272792  0.61272792  0.11272792  1
  Ru  Ru88  1  0.88727208  0.38727208  0.11272792  1
  Ru  Ru89  1  0.38727208  0.11272792  0.88727208  1
  Ru  Ru90  1  0.11272792  0.38727208  0.88727208  1
  Ru  Ru91  1  0.61272792  0.11272792  0.11272792  1
  Ru  Ru92  1  0.88727208  0.88727208  0.61272792  1
  Ru  Ru93  1  0.38727208  0.61272792  0.38727208  1
  Ru  Ru94  1  0.11272792  0.88727208  0.38727208  1
  Ru  Ru95  1  0.61272792  0.61272792  0.61272792  1
