# generated using pymatgen
data_LuNiGe2
_symmetry_space_group_name_H-M   'P 1'
_cell_length_a   4.12507400
_cell_length_b   8.45778600
_cell_length_c   15.78480600
_cell_angle_alpha   90.00000000
_cell_angle_beta   90.00000000
_cell_angle_gamma   90.00000000
_symmetry_Int_Tables_number   1
_chemical_formula_structural   LuNiGe2
_chemical_formula_sum   'Lu8 Ni8 Ge16'
_cell_volume   550.71598803
_cell_formula_units_Z   8
loop_
 _symmetry_equiv_pos_site_id
 _symmetry_equiv_pos_as_xyz
  1  'x, y, z'
loop_
 _atom_site_type_symbol
 _atom_site_label
 _atom_site_symmetry_multiplicity
 _atom_site_fract_x
 _atom_site_fract_y
 _atom_site_fract_z
 _atom_site_occupancy
  Lu  Lu0  1  0.50000000  0.23819000  0.00000000  1
  Lu  Lu1  1  0.50000000  0.76181000  0.00000000  1
  Lu  Lu2  1  0.50000000  0.00000000  0.79667300  1
  Lu  Lu3  1  0.00000000  0.50000000  0.70332700  1
  Lu  Lu4  1  0.00000000  0.73819000  0.50000000  1
  Lu  Lu5  1  0.00000000  0.26181000  0.50000000  1
  Lu  Lu6  1  0.00000000  0.50000000  0.29667300  1
  Lu  Lu7  1  0.50000000  0.00000000  0.20332700  1
  Ni  Ni8  1  0.50000000  0.25148650  0.64731050  1
  Ni  Ni9  1  0.00000000  0.24851350  0.85268950  1
  Ni  Ni10  1  0.50000000  0.74851350  0.64731050  1
  Ni  Ni11  1  0.00000000  0.75148650  0.85268950  1
  Ni  Ni12  1  0.00000000  0.75148650  0.14731050  1
  Ni  Ni13  1  0.50000000  0.74851350  0.35268950  1
  Ni  Ni14  1  0.00000000  0.24851350  0.14731050  1
  Ni  Ni15  1  0.50000000  0.25148650  0.35268950  1
  Ge  Ge16  1  0.50000000  0.34241800  0.80325400  1
  Ge  Ge17  1  0.50000000  0.00000000  0.57938200  1
  Ge  Ge18  1  0.50000000  0.50000000  0.57710100  1
  Ge  Ge19  1  0.00000000  0.15758200  0.69674600  1
  Ge  Ge20  1  0.00000000  0.00000000  0.92289900  1
  Ge  Ge21  1  0.50000000  0.65758200  0.80325400  1
  Ge  Ge22  1  0.00000000  0.50000000  0.92061800  1
  Ge  Ge23  1  0.00000000  0.84241800  0.69674600  1
  Ge  Ge24  1  0.00000000  0.84241800  0.30325400  1
  Ge  Ge25  1  0.00000000  0.50000000  0.07938200  1
  Ge  Ge26  1  0.00000000  0.00000000  0.07710100  1
  Ge  Ge27  1  0.50000000  0.65758200  0.19674600  1
  Ge  Ge28  1  0.50000000  0.50000000  0.42289900  1
  Ge  Ge29  1  0.00000000  0.15758200  0.30325400  1
  Ge  Ge30  1  0.50000000  0.00000000  0.42061800  1
  Ge  Ge31  1  0.50000000  0.34241800  0.19674600  1
