# generated using pymatgen
data_VHO3
_symmetry_space_group_name_H-M   'P 1'
_cell_length_a   5.04568900
_cell_length_b   8.69704900
_cell_length_c   7.87183646
_cell_angle_alpha   90.00000000
_cell_angle_beta   103.97230200
_cell_angle_gamma   90.00000000
_symmetry_Int_Tables_number   1
_chemical_formula_structural   VHO3
_chemical_formula_sum   'V6 H6 O18'
_cell_volume   335.21609989
_cell_formula_units_Z   6
loop_
 _symmetry_equiv_pos_site_id
 _symmetry_equiv_pos_as_xyz
  1  'x, y, z'
loop_
 _atom_site_type_symbol
 _atom_site_label
 _atom_site_symmetry_multiplicity
 _atom_site_fract_x
 _atom_site_fract_y
 _atom_site_fract_z
 _atom_site_occupancy
  V  V0  1  0.46883700  0.44223700  0.18599000  1
  V  V1  1  0.53116300  0.94223700  0.81401000  1
  V  V2  1  0.52975600  0.55074600  0.81500400  1
  V  V3  1  0.47024400  0.05074600  0.18499600  1
  V  V4  1  0.94268900  0.24684900  0.07813200  1
  V  V5  1  0.05731100  0.74684900  0.92186800  1
  H  H6  1  0.08698200  0.15452800  0.57829100  1
  H  H7  1  0.83041100  0.25299700  0.44038600  1
  H  H8  1  0.09824300  0.33714400  0.59234900  1
  H  H9  1  0.91301800  0.65452800  0.42170900  1
  H  H10  1  0.16958900  0.75299700  0.55961400  1
  H  H11  1  0.90175700  0.83714400  0.40765100  1
  O  O12  1  0.67684200  0.40647100  0.00349800  1
  O  O13  1  0.32315800  0.90647100  0.99650200  1
  O  O14  1  0.32266500  0.58720900  0.99691300  1
  O  O15  1  0.67733500  0.08720900  0.00308700  1
  O  O16  1  0.15233100  0.39505300  0.23348300  1
  O  O17  1  0.84766900  0.89505300  0.76651700  1
  O  O18  1  0.84535500  0.59709300  0.76708500  1
  O  O19  1  0.15464500  0.09709300  0.23291500  1
  O  O20  1  0.63443400  0.24694500  0.26397500  1
  O  O21  1  0.36556600  0.74694500  0.73602500  1
  O  O22  1  0.12014600  0.24657800  0.93117600  1
  O  O23  1  0.87985400  0.74657800  0.06882400  1
  O  O24  1  0.63607500  0.55183700  0.34463500  1
  O  O25  1  0.36392500  0.05183700  0.65536500  1
  O  O26  1  0.35937100  0.43975500  0.65846100  1
  O  O27  1  0.64062900  0.93975500  0.34153900  1
  O  O28  1  0.96463500  0.24774600  0.56356500  1
  O  O29  1  0.03536500  0.74774600  0.43643500  1
