# generated using pymatgen
data_Sr(YbS2)2
_symmetry_space_group_name_H-M   'P 1'
_cell_length_a   8.42780800
_cell_length_b   8.42780800
_cell_length_c   8.88846400
_cell_angle_alpha   90.00000000
_cell_angle_beta   90.00000000
_cell_angle_gamma   90.00000000
_symmetry_Int_Tables_number   1
_chemical_formula_structural   Sr(YbS2)2
_chemical_formula_sum   'Sr4 Yb8 S16'
_cell_volume   631.32935599
_cell_formula_units_Z   4
loop_
 _symmetry_equiv_pos_site_id
 _symmetry_equiv_pos_as_xyz
  1  'x, y, z'
loop_
 _atom_site_type_symbol
 _atom_site_label
 _atom_site_symmetry_multiplicity
 _atom_site_fract_x
 _atom_site_fract_y
 _atom_site_fract_z
 _atom_site_occupancy
  Sr  Sr0  1  0.00000000  0.50000000  0.25000000  1
  Sr  Sr1  1  0.00000000  0.00000000  0.00000000  1
  Sr  Sr2  1  0.50000000  0.00000000  0.75000000  1
  Sr  Sr3  1  0.50000000  0.50000000  0.50000000  1
  Yb  Yb4  1  0.87434800  0.25000000  0.62500000  1
  Yb  Yb5  1  0.25000000  0.37434800  0.87500000  1
  Yb  Yb6  1  0.62565200  0.25000000  0.12500000  1
  Yb  Yb7  1  0.25000000  0.12565200  0.37500000  1
  Yb  Yb8  1  0.37434800  0.75000000  0.12500000  1
  Yb  Yb9  1  0.75000000  0.87434800  0.37500000  1
  Yb  Yb10  1  0.12565200  0.75000000  0.62500000  1
  Yb  Yb11  1  0.75000000  0.62565200  0.87500000  1
  S  S12  1  0.09398750  0.66306350  0.93742950  1
  S  S13  1  0.33693650  0.40601250  0.18742950  1
  S  S14  1  0.33693650  0.09398750  0.06257050  1
  S  S15  1  0.16306350  0.09398750  0.68742950  1
  S  S16  1  0.59398750  0.33693650  0.81257050  1
  S  S17  1  0.90601250  0.16306350  0.31257050  1
  S  S18  1  0.16306350  0.40601250  0.56257050  1
  S  S19  1  0.40601250  0.83693650  0.43742950  1
  S  S20  1  0.59398750  0.16306350  0.43742950  1
  S  S21  1  0.83693650  0.90601250  0.68742950  1
  S  S22  1  0.83693650  0.59398750  0.56257050  1
  S  S23  1  0.66306350  0.59398750  0.18742950  1
  S  S24  1  0.09398750  0.83693650  0.31257050  1
  S  S25  1  0.40601250  0.66306350  0.81257050  1
  S  S26  1  0.66306350  0.90601250  0.06257050  1
  S  S27  1  0.90601250  0.33693650  0.93742950  1
