# generated using pymatgen
data_Ni7Te6(ClO9)2
_symmetry_space_group_name_H-M   'P 1'
_cell_length_a   11.30051255
_cell_length_b   11.30051255
_cell_length_c   13.62348106
_cell_angle_alpha   90.00000000
_cell_angle_beta   90.00000000
_cell_angle_gamma   120.00000000
_symmetry_Int_Tables_number   1
_chemical_formula_structural   Ni7Te6(ClO9)2
_chemical_formula_sum   'Ni21 Te18 Cl6 O54'
_cell_volume   1506.65913178
_cell_formula_units_Z   3
loop_
 _symmetry_equiv_pos_site_id
 _symmetry_equiv_pos_as_xyz
  1  'x, y, z'
loop_
 _atom_site_type_symbol
 _atom_site_label
 _atom_site_symmetry_multiplicity
 _atom_site_fract_x
 _atom_site_fract_y
 _atom_site_fract_z
 _atom_site_occupancy
  Ni  Ni0  1  0.80764433  0.86434067  0.32335267  1
  Ni  Ni1  1  0.13565933  0.94330367  0.32335267  1
  Ni  Ni2  1  0.94330367  0.80764433  0.67664733  1
  Ni  Ni3  1  0.05669633  0.19235567  0.32335267  1
  Ni  Ni4  1  0.00000000  0.00000000  0.50000000  1
  Ni  Ni5  1  0.86434067  0.05669633  0.67664733  1
  Ni  Ni6  1  0.19235567  0.13565933  0.67664733  1
  Ni  Ni7  1  0.47431100  0.19767400  0.65668600  1
  Ni  Ni8  1  0.80232600  0.27663700  0.65668600  1
  Ni  Ni9  1  0.60997033  0.14097767  0.00998067  1
  Ni  Ni10  1  0.72336300  0.52568900  0.65668600  1
  Ni  Ni11  1  0.66666667  0.33333333  0.83333333  1
  Ni  Ni12  1  0.53100733  0.39002967  0.00998067  1
  Ni  Ni13  1  0.85902233  0.46899267  0.00998067  1
  Ni  Ni14  1  0.14097767  0.53100733  0.99001933  1
  Ni  Ni15  1  0.46899267  0.60997033  0.99001933  1
  Ni  Ni16  1  0.27663700  0.47431100  0.34331400  1
  Ni  Ni17  1  0.39002967  0.85902233  0.99001933  1
  Ni  Ni18  1  0.33333333  0.66666667  0.16666667  1
  Ni  Ni19  1  0.19767400  0.72336300  0.34331400  1
  Ni  Ni20  1  0.52568900  0.80232600  0.34331400  1
  Te  Te21  1  0.87117267  0.64110833  0.43508833  1
  Te  Te22  1  0.76993567  0.12882733  0.43508833  1
  Te  Te23  1  0.23006433  0.87117267  0.56491167  1
  Te  Te24  1  0.35889167  0.23006433  0.43508833  1
  Te  Te25  1  0.64110833  0.76993567  0.56491167  1
  Te  Te26  1  0.12882733  0.35889167  0.56491167  1
  Te  Te27  1  0.53783933  0.97444167  0.76842167  1
  Te  Te28  1  0.43660233  0.46216067  0.76842167  1
  Te  Te29  1  0.89673100  0.20450600  0.89824500  1
  Te  Te30  1  0.02555833  0.56339767  0.76842167  1
  Te  Te31  1  0.30777500  0.10326900  0.89824500  1
  Te  Te32  1  0.79549400  0.69222500  0.89824500  1
  Te  Te33  1  0.20450600  0.30777500  0.10175500  1
  Te  Te34  1  0.10326900  0.79549400  0.10175500  1
  Te  Te35  1  0.56339767  0.53783933  0.23157833  1
  Te  Te36  1  0.69222500  0.89673100  0.10175500  1
  Te  Te37  1  0.97444167  0.43660233  0.23157833  1
  Te  Te38  1  0.46216067  0.02555833  0.23157833  1
  Cl  Cl39  1  0.00000000  0.00000000  0.79548900  1
  Cl  Cl40  1  0.00000000  0.00000000  0.20451100  1
  Cl  Cl41  1  0.66666667  0.33333333  0.12882233  1
  Cl  Cl42  1  0.66666667  0.33333333  0.53784433  1
  Cl  Cl43  1  0.33333333  0.66666667  0.46215567  1
  Cl  Cl44  1  0.33333333  0.66666667  0.87117767  1
  O  O45  1  0.10742233  0.34291367  0.42569867  1
  O  O46  1  0.59428400  0.98398700  0.41143800  1
  O  O47  1  0.98398700  0.38970300  0.58856200  1
  O  O48  1  0.34291367  0.23549133  0.57430133  1
  O  O49  1  0.83693400  0.88555300  0.59659200  1
  O  O50  1  0.01601300  0.61029700  0.41143800  1
  O  O51  1  0.38970300  0.40571600  0.41143800  1
  O  O52  1  0.76450867  0.10742233  0.57430133  1
  O  O53  1  0.11444700  0.95138100  0.59659200  1
  O  O54  1  0.16306600  0.11444700  0.40340800  1
  O  O55  1  0.65708633  0.76450867  0.42569867  1
  O  O56  1  0.40571600  0.01601300  0.58856200  1
  O  O57  1  0.88555300  0.04861900  0.40340800  1
  O  O58  1  0.23549133  0.89257767  0.42569867  1
  O  O59  1  0.89257767  0.65708633  0.57430133  1
  O  O60  1  0.61029700  0.59428400  0.58856200  1
  O  O61  1  0.04861900  0.16306600  0.59659200  1
  O  O62  1  0.95138100  0.83693400  0.40340800  1
  O  O63  1  0.77408900  0.67624700  0.75903200  1
  O  O64  1  0.26095067  0.31732033  0.74477133  1
  O  O65  1  0.65065367  0.72303633  0.92189533  1
  O  O66  1  0.00958033  0.56882467  0.90763467  1
  O  O67  1  0.50360067  0.21888633  0.92992533  1
  O  O68  1  0.68267967  0.94363033  0.74477133  1
  O  O69  1  0.05636967  0.73904933  0.74477133  1
  O  O70  1  0.43117533  0.44075567  0.90763467  1
  O  O71  1  0.78111367  0.28471433  0.92992533  1
  O  O72  1  0.82973267  0.44778033  0.73674133  1
  O  O73  1  0.32375300  0.09784200  0.75903200  1
  O  O74  1  0.07238267  0.34934633  0.92189533  1
  O  O75  1  0.55221967  0.38195233  0.73674133  1
  O  O76  1  0.90215800  0.22591100  0.75903200  1
  O  O77  1  0.55924433  0.99041967  0.90763467  1
  O  O78  1  0.27696367  0.92761733  0.92189533  1
  O  O79  1  0.71528567  0.49639933  0.92992533  1
  O  O80  1  0.61804767  0.17026733  0.73674133  1
  O  O81  1  0.44075567  0.00958033  0.09236533  1
  O  O82  1  0.92761733  0.65065367  0.07810467  1
  O  O83  1  0.31732033  0.05636967  0.25522867  1
  O  O84  1  0.67624700  0.90215800  0.24096800  1
  O  O85  1  0.17026733  0.55221967  0.26325867  1
  O  O86  1  0.34934633  0.27696367  0.07810467  1
  O  O87  1  0.72303633  0.07238267  0.07810467  1
  O  O88  1  0.09784200  0.77408900  0.24096800  1
  O  O89  1  0.44778033  0.61804767  0.26325867  1
  O  O90  1  0.49639933  0.78111367  0.07007467  1
  O  O91  1  0.99041967  0.43117533  0.09236533  1
  O  O92  1  0.73904933  0.68267967  0.25522867  1
  O  O93  1  0.21888633  0.71528567  0.07007467  1
  O  O94  1  0.56882467  0.55924433  0.09236533  1
  O  O95  1  0.22591100  0.32375300  0.24096800  1
  O  O96  1  0.94363033  0.26095067  0.25522867  1
  O  O97  1  0.38195233  0.82973267  0.26325867  1
  O  O98  1  0.28471433  0.50360067  0.07007467  1
