# generated using pymatgen
data_Li7Mn10O24
_symmetry_space_group_name_H-M   'P 1'
_cell_length_a   8.25975400
_cell_length_b   8.24729800
_cell_length_c   13.04297448
_cell_angle_alpha   90.00000000
_cell_angle_beta   108.14398527
_cell_angle_gamma   90.00000000
_symmetry_Int_Tables_number   1
_chemical_formula_structural   Li7Mn10O24
_chemical_formula_sum   'Li14 Mn20 O48'
_cell_volume   844.31720572
_cell_formula_units_Z   2
loop_
 _symmetry_equiv_pos_site_id
 _symmetry_equiv_pos_as_xyz
  1  'x, y, z'
loop_
 _atom_site_type_symbol
 _atom_site_label
 _atom_site_symmetry_multiplicity
 _atom_site_fract_x
 _atom_site_fract_y
 _atom_site_fract_z
 _atom_site_occupancy
  Li  Li0  1  0.33789500  0.28757200  0.66996000  1
  Li  Li1  1  0.66210500  0.28757200  0.33004000  1
  Li  Li2  1  0.50010050  0.66848750  0.24853400  1
  Li  Li3  1  0.33703700  0.04528100  0.16666700  1
  Li  Li4  1  0.49989950  0.66848750  0.75146600  1
  Li  Li5  1  0.66296300  0.04528100  0.83333300  1
  Li  Li6  1  0.50000000  0.54593500  0.50000000  1
  Li  Li7  1  0.83789500  0.78757200  0.66996000  1
  Li  Li8  1  0.16210500  0.78757200  0.33004000  1
  Li  Li9  1  0.00010050  0.16848750  0.24853400  1
  Li  Li10  1  0.83703700  0.54528100  0.16666700  1
  Li  Li11  1  0.99989950  0.16848750  0.75146600  1
  Li  Li12  1  0.16296300  0.54528100  0.83333300  1
  Li  Li13  1  0.00000000  0.04593500  0.50000000  1
  Mn  Mn14  1  0.33174450  0.16542950  0.91566600  1
  Mn  Mn15  1  0.66926800  0.16626300  0.58555300  1
  Mn  Mn16  1  0.41657950  0.91355050  0.58542800  1
  Mn  Mn17  1  0.33073200  0.16626300  0.41444700  1
  Mn  Mn18  1  0.91687500  0.92037500  0.08483800  1
  Mn  Mn19  1  0.75002050  0.91683450  0.24842500  1
  Mn  Mn20  1  0.58342050  0.91355050  0.41457200  1
  Mn  Mn21  1  0.66825550  0.16542950  0.08433400  1
  Mn  Mn22  1  0.24997950  0.91683450  0.75157500  1
  Mn  Mn23  1  0.08312500  0.92037500  0.91516200  1
  Mn  Mn24  1  0.83174450  0.66542950  0.91566600  1
  Mn  Mn25  1  0.16926800  0.66626300  0.58555300  1
  Mn  Mn26  1  0.91657950  0.41355050  0.58542800  1
  Mn  Mn27  1  0.83073200  0.66626300  0.41444700  1
  Mn  Mn28  1  0.41687500  0.42037500  0.08483800  1
  Mn  Mn29  1  0.25002050  0.41683450  0.24842500  1
  Mn  Mn30  1  0.08342050  0.41355050  0.41457200  1
  Mn  Mn31  1  0.16825550  0.66542950  0.08433400  1
  Mn  Mn32  1  0.74997950  0.41683450  0.75157500  1
  Mn  Mn33  1  0.58312500  0.42037500  0.91516200  1
  O  O34  1  0.25596350  0.14795950  0.76309600  1
  O  O35  1  0.64820150  0.92988550  0.57595100  1
  O  O36  1  0.57380450  0.15213850  0.42654700  1
  O  O37  1  0.47608950  0.91568350  0.73533200  1
  O  O38  1  0.42619550  0.15213850  0.57345300  1
  O  O39  1  0.25643600  0.18410700  0.26334200  1
  O  O40  1  0.47577000  0.41821200  0.23668400  1
  O  O41  1  0.68633600  0.92965300  0.09306300  1
  O  O42  1  0.39584000  0.64598300  0.08194000  1
  O  O43  1  0.81629950  0.90378950  0.40855500  1
  O  O44  1  0.52391050  0.91568350  0.26466800  1
  O  O45  1  0.74403650  0.14795950  0.23690400  1
  O  O46  1  0.57554600  0.18022700  0.92655000  1
  O  O47  1  0.31366400  0.92965300  0.90693700  1
  O  O48  1  0.52423000  0.41821200  0.76331600  1
  O  O49  1  0.42445400  0.18022700  0.07345000  1
  O  O50  1  0.14987550  0.90281350  0.07567100  1
  O  O51  1  0.85012450  0.90281350  0.92432900  1
  O  O52  1  0.60416000  0.64598300  0.91806000  1
  O  O53  1  0.39584200  0.68518900  0.58094200  1
  O  O54  1  0.74356400  0.18410700  0.73665800  1
  O  O55  1  0.35179850  0.92988550  0.42404900  1
  O  O56  1  0.18370050  0.90378950  0.59144500  1
  O  O57  1  0.60415800  0.68518900  0.41905800  1
  O  O58  1  0.75596350  0.64795950  0.76309600  1
  O  O59  1  0.14820150  0.42988550  0.57595100  1
  O  O60  1  0.07380450  0.65213850  0.42654700  1
  O  O61  1  0.97608950  0.41568350  0.73533200  1
  O  O62  1  0.92619550  0.65213850  0.57345300  1
  O  O63  1  0.75643600  0.68410700  0.26334200  1
  O  O64  1  0.97577000  0.91821200  0.23668400  1
  O  O65  1  0.18633600  0.42965300  0.09306300  1
  O  O66  1  0.89584000  0.14598300  0.08194000  1
  O  O67  1  0.31629950  0.40378950  0.40855500  1
  O  O68  1  0.02391050  0.41568350  0.26466800  1
  O  O69  1  0.24403650  0.64795950  0.23690400  1
  O  O70  1  0.07554600  0.68022700  0.92655000  1
  O  O71  1  0.81366400  0.42965300  0.90693700  1
  O  O72  1  0.02423000  0.91821200  0.76331600  1
  O  O73  1  0.92445400  0.68022700  0.07345000  1
  O  O74  1  0.64987550  0.40281350  0.07567100  1
  O  O75  1  0.35012450  0.40281350  0.92432900  1
  O  O76  1  0.10416000  0.14598300  0.91806000  1
  O  O77  1  0.89584200  0.18518900  0.58094200  1
  O  O78  1  0.24356400  0.68410700  0.73665800  1
  O  O79  1  0.85179850  0.42988550  0.42404900  1
  O  O80  1  0.68370050  0.40378950  0.59144500  1
  O  O81  1  0.10415800  0.18518900  0.41905800  1
