# generated using pymatgen
data_Si2HgTe
_symmetry_space_group_name_H-M   'P 1'
_cell_length_a   7.04554600
_cell_length_b   7.04554600
_cell_length_c   7.04554600
_cell_angle_alpha   90.00000000
_cell_angle_beta   90.00000000
_cell_angle_gamma   90.00000000
_symmetry_Int_Tables_number   1
_chemical_formula_structural   Si2HgTe
_chemical_formula_sum   'Si8 Hg4 Te4'
_cell_volume   349.73891968
_cell_formula_units_Z   4
loop_
 _symmetry_equiv_pos_site_id
 _symmetry_equiv_pos_as_xyz
  1  'x, y, z'
loop_
 _atom_site_type_symbol
 _atom_site_label
 _atom_site_symmetry_multiplicity
 _atom_site_fract_x
 _atom_site_fract_y
 _atom_site_fract_z
 _atom_site_occupancy
  Si  Si0  1  0.25000000  0.25000000  0.75000000  1
  Si  Si1  1  0.25000000  0.75000000  0.75000000  1
  Si  Si2  1  0.25000000  0.75000000  0.25000000  1
  Si  Si3  1  0.25000000  0.25000000  0.25000000  1
  Si  Si4  1  0.75000000  0.25000000  0.25000000  1
  Si  Si5  1  0.75000000  0.75000000  0.25000000  1
  Si  Si6  1  0.75000000  0.75000000  0.75000000  1
  Si  Si7  1  0.75000000  0.25000000  0.75000000  1
  Hg  Hg8  1  0.00000000  0.00000000  0.00000000  1
  Hg  Hg9  1  0.00000000  0.50000000  0.50000000  1
  Hg  Hg10  1  0.50000000  0.00000000  0.50000000  1
  Hg  Hg11  1  0.50000000  0.50000000  0.00000000  1
  Te  Te12  1  0.50000000  0.00000000  0.00000000  1
  Te  Te13  1  0.50000000  0.50000000  0.50000000  1
  Te  Te14  1  0.00000000  0.00000000  0.50000000  1
  Te  Te15  1  0.00000000  0.50000000  0.00000000  1
