# generated using pymatgen
data_BaFe2(P2O7)2
_symmetry_space_group_name_H-M   'P 1'
_cell_length_a   10.74014200
_cell_length_b   10.62727400
_cell_length_c   9.85307081
_cell_angle_alpha   90.00000000
_cell_angle_beta   103.23173991
_cell_angle_gamma   90.00000000
_symmetry_Int_Tables_number   1
_chemical_formula_structural   BaFe2(P2O7)2
_chemical_formula_sum   'Ba4 Fe8 P16 O56'
_cell_volume   1094.75808409
_cell_formula_units_Z   4
loop_
 _symmetry_equiv_pos_site_id
 _symmetry_equiv_pos_as_xyz
  1  'x, y, z'
loop_
 _atom_site_type_symbol
 _atom_site_label
 _atom_site_symmetry_multiplicity
 _atom_site_fract_x
 _atom_site_fract_y
 _atom_site_fract_z
 _atom_site_occupancy
  Ba  Ba0  1  0.25000000  0.75000000  0.50000000  1
  Ba  Ba1  1  0.75000000  0.75000000  0.00000000  1
  Ba  Ba2  1  0.75000000  0.25000000  0.50000000  1
  Ba  Ba3  1  0.25000000  0.25000000  0.00000000  1
  Fe  Fe4  1  0.00000000  0.04690800  0.25000000  1
  Fe  Fe5  1  0.00000000  0.95309200  0.75000000  1
  Fe  Fe6  1  0.00000000  0.50000000  0.00000000  1
  Fe  Fe7  1  0.00000000  0.50000000  0.50000000  1
  Fe  Fe8  1  0.50000000  0.54690800  0.25000000  1
  Fe  Fe9  1  0.50000000  0.45309200  0.75000000  1
  Fe  Fe10  1  0.50000000  0.00000000  0.00000000  1
  Fe  Fe11  1  0.50000000  0.00000000  0.50000000  1
  P  P12  1  0.21932350  0.54296050  0.79848500  1
  P  P13  1  0.78067650  0.45703950  0.20151500  1
  P  P14  1  0.78067650  0.54296050  0.70151500  1
  P  P15  1  0.06055200  0.81027600  0.05565300  1
  P  P16  1  0.21932350  0.45703950  0.29848500  1
  P  P17  1  0.93944800  0.81027600  0.44434700  1
  P  P18  1  0.06055200  0.18972400  0.55565300  1
  P  P19  1  0.93944800  0.18972400  0.94434700  1
  P  P20  1  0.71932350  0.04296050  0.79848500  1
  P  P21  1  0.28067650  0.95703950  0.20151500  1
  P  P22  1  0.28067650  0.04296050  0.70151500  1
  P  P23  1  0.56055200  0.31027600  0.05565300  1
  P  P24  1  0.71932350  0.95703950  0.29848500  1
  P  P25  1  0.43944800  0.31027600  0.44434700  1
  P  P26  1  0.56055200  0.68972400  0.55565300  1
  P  P27  1  0.43944800  0.68972400  0.94434700  1
  O  O28  1  0.12874750  0.58154850  0.66146100  1
  O  O29  1  0.12874750  0.41845150  0.16146100  1
  O  O30  1  0.03277500  0.89920000  0.39290200  1
  O  O31  1  0.68093750  0.44307350  0.71380900  1
  O  O32  1  0.06498300  0.83355300  0.90473800  1
  O  O33  1  0.29843600  0.67306400  0.84378100  1
  O  O34  1  0.03277500  0.10080000  0.89290200  1
  O  O35  1  0.02449050  0.32570850  0.58116800  1
  O  O36  1  0.93501700  0.16644700  0.09526200  1
  O  O37  1  0.87125250  0.58154850  0.83853900  1
  O  O38  1  0.96722500  0.10080000  0.60709800  1
  O  O39  1  0.84765800  0.49515400  0.08740900  1
  O  O40  1  0.70156400  0.32693600  0.15621900  1
  O  O41  1  0.68093750  0.55692650  0.21380900  1
  O  O42  1  0.06498300  0.16644700  0.40473800  1
  O  O43  1  0.29843600  0.32693600  0.34378100  1
  O  O44  1  0.97550950  0.67429150  0.41883200  1
  O  O45  1  0.96722500  0.89920000  0.10709800  1
  O  O46  1  0.97550950  0.32570850  0.91883200  1
  O  O47  1  0.84765800  0.50484600  0.58740900  1
  O  O48  1  0.31906250  0.55692650  0.28619100  1
  O  O49  1  0.93501700  0.83355300  0.59526200  1
  O  O50  1  0.15234200  0.49515400  0.41259100  1
  O  O51  1  0.87125250  0.41845150  0.33853900  1
  O  O52  1  0.70156400  0.67306400  0.65621900  1
  O  O53  1  0.02449050  0.67429150  0.08116800  1
  O  O54  1  0.31906250  0.44307350  0.78619100  1
  O  O55  1  0.15234200  0.50484600  0.91259100  1
  O  O56  1  0.62874750  0.08154850  0.66146100  1
  O  O57  1  0.62874750  0.91845150  0.16146100  1
  O  O58  1  0.53277500  0.39920000  0.39290200  1
  O  O59  1  0.18093750  0.94307350  0.71380900  1
  O  O60  1  0.56498300  0.33355300  0.90473800  1
  O  O61  1  0.79843600  0.17306400  0.84378100  1
  O  O62  1  0.53277500  0.60080000  0.89290200  1
  O  O63  1  0.52449050  0.82570850  0.58116800  1
  O  O64  1  0.43501700  0.66644700  0.09526200  1
  O  O65  1  0.37125250  0.08154850  0.83853900  1
  O  O66  1  0.46722500  0.60080000  0.60709800  1
  O  O67  1  0.34765800  0.99515400  0.08740900  1
  O  O68  1  0.20156400  0.82693600  0.15621900  1
  O  O69  1  0.18093750  0.05692650  0.21380900  1
  O  O70  1  0.56498300  0.66644700  0.40473800  1
  O  O71  1  0.79843600  0.82693600  0.34378100  1
  O  O72  1  0.47550950  0.17429150  0.41883200  1
  O  O73  1  0.46722500  0.39920000  0.10709800  1
  O  O74  1  0.47550950  0.82570850  0.91883200  1
  O  O75  1  0.34765800  0.00484600  0.58740900  1
  O  O76  1  0.81906250  0.05692650  0.28619100  1
  O  O77  1  0.43501700  0.33355300  0.59526200  1
  O  O78  1  0.65234200  0.99515400  0.41259100  1
  O  O79  1  0.37125250  0.91845150  0.33853900  1
  O  O80  1  0.20156400  0.17306400  0.65621900  1
  O  O81  1  0.52449050  0.17429150  0.08116800  1
  O  O82  1  0.81906250  0.94307350  0.78619100  1
  O  O83  1  0.65234200  0.00484600  0.91259100  1
