# generated using pymatgen
data_Ga7(CuSe4)3
_symmetry_space_group_name_H-M   'P 1'
_cell_length_a   20.84775800
_cell_length_b   3.91879800
_cell_length_c   15.77726993
_cell_angle_alpha   90.00000000
_cell_angle_beta   124.33446046
_cell_angle_gamma   90.00000000
_symmetry_Int_Tables_number   1
_chemical_formula_structural   Ga7(CuSe4)3
_chemical_formula_sum   'Ga14 Cu6 Se24'
_cell_volume   1064.38199266
_cell_formula_units_Z   2
loop_
 _symmetry_equiv_pos_site_id
 _symmetry_equiv_pos_as_xyz
  1  'x, y, z'
loop_
 _atom_site_type_symbol
 _atom_site_label
 _atom_site_symmetry_multiplicity
 _atom_site_fract_x
 _atom_site_fract_y
 _atom_site_fract_z
 _atom_site_occupancy
  Ga  Ga0  1  0.49645100  0.50000000  0.99730500  1
  Ga  Ga1  1  0.99660500  0.00000000  0.49866200  1
  Ga  Ga2  1  0.65970500  0.00000000  0.24829700  1
  Ga  Ga3  1  0.83086200  0.50000000  0.23877600  1
  Ga  Ga4  1  0.32852500  0.00000000  0.99416900  1
  Ga  Ga5  1  0.00494400  0.00000000  0.75449200  1
  Ga  Ga6  1  0.16850000  0.50000000  0.49114300  1
  Ga  Ga7  1  0.99645100  0.00000000  0.99730500  1
  Ga  Ga8  1  0.49660500  0.50000000  0.49866200  1
  Ga  Ga9  1  0.15970500  0.50000000  0.24829700  1
  Ga  Ga10  1  0.33086200  0.00000000  0.23877600  1
  Ga  Ga11  1  0.82852500  0.50000000  0.99416900  1
  Ga  Ga12  1  0.50494400  0.50000000  0.75449200  1
  Ga  Ga13  1  0.66850000  0.00000000  0.49114300  1
  Cu  Cu14  1  0.83425700  0.50000000  0.50172400  1
  Cu  Cu15  1  0.17030700  0.50000000  0.75803200  1
  Cu  Cu16  1  0.33442800  0.00000000  0.75618000  1
  Cu  Cu17  1  0.33425700  0.00000000  0.50172400  1
  Cu  Cu18  1  0.67030700  0.00000000  0.75803200  1
  Cu  Cu19  1  0.83442800  0.50000000  0.75618000  1
  Se  Se20  1  0.58766500  0.00000000  0.05862100  1
  Se  Se21  1  0.74890800  0.50000000  0.06017000  1
  Se  Se22  1  0.92082900  0.00000000  0.31007600  1
  Se  Se23  1  0.92088900  0.00000000  0.07154100  1
  Se  Se24  1  0.08750400  0.50000000  0.56812700  1
  Se  Se25  1  0.08036000  0.50000000  0.31018600  1
  Se  Se26  1  0.25533900  0.00000000  0.56990500  1
  Se  Se27  1  0.75221700  0.50000000  0.31449700  1
  Se  Se28  1  0.91526300  0.00000000  0.81047600  1
  Se  Se29  1  0.91452100  0.00000000  0.56232000  1
  Se  Se30  1  0.08733400  0.50000000  0.81829400  1
  Se  Se31  1  0.24904400  0.00000000  0.81051900  1
  Se  Se32  1  0.08766500  0.50000000  0.05862100  1
  Se  Se33  1  0.24890800  0.00000000  0.06017000  1
  Se  Se34  1  0.42082900  0.50000000  0.31007600  1
  Se  Se35  1  0.42088900  0.50000000  0.07154100  1
  Se  Se36  1  0.58750400  0.00000000  0.56812700  1
  Se  Se37  1  0.58036000  0.00000000  0.31018600  1
  Se  Se38  1  0.75533900  0.50000000  0.56990500  1
  Se  Se39  1  0.25221700  0.00000000  0.31449700  1
  Se  Se40  1  0.41526300  0.50000000  0.81047600  1
  Se  Se41  1  0.41452100  0.50000000  0.56232000  1
  Se  Se42  1  0.58733400  0.00000000  0.81829400  1
  Se  Se43  1  0.74904400  0.50000000  0.81051900  1
