# generated using pymatgen
data_Sc9Ni5Ge8
_symmetry_space_group_name_H-M   'P 1'
_cell_length_a   3.92279400
_cell_length_b   9.07353400
_cell_length_c   20.98712400
_cell_angle_alpha   90.00000000
_cell_angle_beta   90.00000000
_cell_angle_gamma   90.00000000
_symmetry_Int_Tables_number   1
_chemical_formula_structural   Sc9Ni5Ge8
_chemical_formula_sum   'Sc18 Ni10 Ge16'
_cell_volume   747.00739616
_cell_formula_units_Z   2
loop_
 _symmetry_equiv_pos_site_id
 _symmetry_equiv_pos_as_xyz
  1  'x, y, z'
loop_
 _atom_site_type_symbol
 _atom_site_label
 _atom_site_symmetry_multiplicity
 _atom_site_fract_x
 _atom_site_fract_y
 _atom_site_fract_z
 _atom_site_occupancy
  Sc  Sc0  1  0.50000000  0.30536550  0.91471950  1
  Sc  Sc1  1  0.00000000  0.00000000  0.72766450  1
  Sc  Sc2  1  0.50000000  0.69463450  0.91471950  1
  Sc  Sc3  1  0.50000000  0.50000000  0.60758350  1
  Sc  Sc4  1  0.00000000  0.19463450  0.58528050  1
  Sc  Sc5  1  0.00000000  0.80536550  0.58528050  1
  Sc  Sc6  1  0.00000000  0.00000000  0.89241650  1
  Sc  Sc7  1  0.50000000  0.50000000  0.77233550  1
  Sc  Sc8  1  0.00000000  0.50000000  0.00000000  1
  Sc  Sc9  1  0.00000000  0.80536550  0.41471950  1
  Sc  Sc10  1  0.50000000  0.50000000  0.22766450  1
  Sc  Sc11  1  0.00000000  0.19463450  0.41471950  1
  Sc  Sc12  1  0.00000000  0.00000000  0.10758350  1
  Sc  Sc13  1  0.50000000  0.69463450  0.08528050  1
  Sc  Sc14  1  0.50000000  0.30536550  0.08528050  1
  Sc  Sc15  1  0.50000000  0.50000000  0.39241650  1
  Sc  Sc16  1  0.00000000  0.00000000  0.27233550  1
  Sc  Sc17  1  0.50000000  0.00000000  0.50000000  1
  Ni  Ni18  1  0.00000000  0.27491200  0.80438100  1
  Ni  Ni19  1  0.50000000  0.22508800  0.69561900  1
  Ni  Ni20  1  0.00000000  0.72508800  0.80438100  1
  Ni  Ni21  1  0.50000000  0.00000000  0.00000000  1
  Ni  Ni22  1  0.50000000  0.77491200  0.69561900  1
  Ni  Ni23  1  0.50000000  0.77491200  0.30438100  1
  Ni  Ni24  1  0.00000000  0.72508800  0.19561900  1
  Ni  Ni25  1  0.50000000  0.22508800  0.30438100  1
  Ni  Ni26  1  0.00000000  0.50000000  0.50000000  1
  Ni  Ni27  1  0.00000000  0.27491200  0.19561900  1
  Ge  Ge28  1  0.50000000  0.86217800  0.80862900  1
  Ge  Ge29  1  0.00000000  0.18727050  0.00000000  1
  Ge  Ge30  1  0.00000000  0.50000000  0.86637150  1
  Ge  Ge31  1  0.00000000  0.36217800  0.69137100  1
  Ge  Ge32  1  0.00000000  0.81272950  0.00000000  1
  Ge  Ge33  1  0.00000000  0.63782200  0.69137100  1
  Ge  Ge34  1  0.50000000  0.00000000  0.63362850  1
  Ge  Ge35  1  0.50000000  0.13782200  0.80862900  1
  Ge  Ge36  1  0.00000000  0.36217800  0.30862900  1
  Ge  Ge37  1  0.50000000  0.68727050  0.50000000  1
  Ge  Ge38  1  0.50000000  0.00000000  0.36637150  1
  Ge  Ge39  1  0.50000000  0.86217800  0.19137100  1
  Ge  Ge40  1  0.50000000  0.31272950  0.50000000  1
  Ge  Ge41  1  0.50000000  0.13782200  0.19137100  1
  Ge  Ge42  1  0.00000000  0.50000000  0.13362850  1
  Ge  Ge43  1  0.00000000  0.63782200  0.30862900  1
