# generated using pymatgen
data_Cr(PO3)4
_symmetry_space_group_name_H-M   'P 1'
_cell_length_a   12.02670709
_cell_length_b   8.38741236
_cell_length_c   9.77819530
_cell_angle_alpha   90.00000000
_cell_angle_beta   116.96604490
_cell_angle_gamma   90.00000000
_symmetry_Int_Tables_number   1
_chemical_formula_structural   Cr(PO3)4
_chemical_formula_sum   'Cr4 P16 O48'
_cell_volume   879.11433926
_cell_formula_units_Z   4
loop_
 _symmetry_equiv_pos_site_id
 _symmetry_equiv_pos_as_xyz
  1  'x, y, z'
loop_
 _atom_site_type_symbol
 _atom_site_label
 _atom_site_symmetry_multiplicity
 _atom_site_fract_x
 _atom_site_fract_y
 _atom_site_fract_z
 _atom_site_occupancy
  Cr  Cr0  1  0.25000000  0.75000000  0.50000000  1
  Cr  Cr1  1  0.75000000  0.75000000  0.00000000  1
  Cr  Cr2  1  0.75000000  0.25000000  0.50000000  1
  Cr  Cr3  1  0.25000000  0.25000000  0.00000000  1
  P  P4  1  0.00261200  0.73084900  0.96984200  1
  P  P5  1  0.81189900  0.50622700  0.30341400  1
  P  P6  1  0.99738800  0.73084900  0.53015800  1
  P  P7  1  0.18810100  0.50622700  0.19658600  1
  P  P8  1  0.18810100  0.49377300  0.69658600  1
  P  P9  1  0.00261200  0.26915100  0.46984200  1
  P  P10  1  0.81189900  0.49377300  0.80341400  1
  P  P11  1  0.99738800  0.26915100  0.03015800  1
  P  P12  1  0.50261200  0.23084900  0.96984200  1
  P  P13  1  0.31189900  0.00622700  0.30341400  1
  P  P14  1  0.49738800  0.23084900  0.53015800  1
  P  P15  1  0.68810100  0.00622700  0.19658600  1
  P  P16  1  0.68810100  0.99377300  0.69658600  1
  P  P17  1  0.50261200  0.76915100  0.46984200  1
  P  P18  1  0.31189900  0.99377300  0.80341400  1
  P  P19  1  0.49738800  0.76915100  0.03015800  1
  O  O20  1  0.27936150  0.59009850  0.66494100  1
  O  O21  1  0.06713600  0.39956600  0.16542100  1
  O  O22  1  0.13498450  0.35357350  0.57033100  1
  O  O23  1  0.76396400  0.57454900  0.14548600  1
  O  O24  1  0.23603600  0.57454900  0.35451400  1
  O  O25  1  0.93286400  0.60043400  0.83457900  1
  O  O26  1  0.02350150  0.11776250  0.40436300  1
  O  O27  1  0.86501550  0.35357350  0.92966900  1
  O  O28  1  0.97649850  0.11776250  0.09563700  1
  O  O29  1  0.13498450  0.64642650  0.07033100  1
  O  O30  1  0.93286400  0.39956600  0.33457900  1
  O  O31  1  0.72063850  0.40990150  0.33505900  1
  O  O32  1  0.86501550  0.64642650  0.42966900  1
  O  O33  1  0.02350150  0.88223750  0.90436300  1
  O  O34  1  0.06858450  0.73697950  0.43458700  1
  O  O35  1  0.76396400  0.42545100  0.64548600  1
  O  O36  1  0.27936150  0.40990150  0.16494100  1
  O  O37  1  0.06858450  0.26302050  0.93458700  1
  O  O38  1  0.97649850  0.88223750  0.59563700  1
  O  O39  1  0.72063850  0.59009850  0.83505900  1
  O  O40  1  0.06713600  0.60043400  0.66542100  1
  O  O41  1  0.23603600  0.42545100  0.85451400  1
  O  O42  1  0.93141550  0.26302050  0.56541300  1
  O  O43  1  0.93141550  0.73697950  0.06541300  1
  O  O44  1  0.77936150  0.09009850  0.66494100  1
  O  O45  1  0.56713600  0.89956600  0.16542100  1
  O  O46  1  0.63498450  0.85357350  0.57033100  1
  O  O47  1  0.26396400  0.07454900  0.14548600  1
  O  O48  1  0.73603600  0.07454900  0.35451400  1
  O  O49  1  0.43286400  0.10043400  0.83457900  1
  O  O50  1  0.52350150  0.61776250  0.40436300  1
  O  O51  1  0.36501550  0.85357350  0.92966900  1
  O  O52  1  0.47649850  0.61776250  0.09563700  1
  O  O53  1  0.63498450  0.14642650  0.07033100  1
  O  O54  1  0.43286400  0.89956600  0.33457900  1
  O  O55  1  0.22063850  0.90990150  0.33505900  1
  O  O56  1  0.36501550  0.14642650  0.42966900  1
  O  O57  1  0.52350150  0.38223750  0.90436300  1
  O  O58  1  0.56858450  0.23697950  0.43458700  1
  O  O59  1  0.26396400  0.92545100  0.64548600  1
  O  O60  1  0.77936150  0.90990150  0.16494100  1
  O  O61  1  0.56858450  0.76302050  0.93458700  1
  O  O62  1  0.47649850  0.38223750  0.59563700  1
  O  O63  1  0.22063850  0.09009850  0.83505900  1
  O  O64  1  0.56713600  0.10043400  0.66542100  1
  O  O65  1  0.73603600  0.92545100  0.85451400  1
  O  O66  1  0.43141550  0.76302050  0.56541300  1
  O  O67  1  0.43141550  0.23697950  0.06541300  1
