# generated using pymatgen
data_In2Cu2O5
_symmetry_space_group_name_H-M   'P 1'
_cell_length_a   10.71817748
_cell_length_b   3.32945700
_cell_length_c   13.55581918
_cell_angle_alpha   90.00000000
_cell_angle_beta   113.14013240
_cell_angle_gamma   90.00000000
_symmetry_Int_Tables_number   1
_chemical_formula_structural   In2Cu2O5
_chemical_formula_sum   'In8 Cu8 O20'
_cell_volume   444.82972402
_cell_formula_units_Z   4
loop_
 _symmetry_equiv_pos_site_id
 _symmetry_equiv_pos_as_xyz
  1  'x, y, z'
loop_
 _atom_site_type_symbol
 _atom_site_label
 _atom_site_symmetry_multiplicity
 _atom_site_fract_x
 _atom_site_fract_y
 _atom_site_fract_z
 _atom_site_occupancy
  In  In0  1  0.74488200  0.53610900  0.66546300  1
  In  In1  1  0.24488200  0.46389100  0.66546300  1
  In  In2  1  0.75511800  0.53610900  0.33453700  1
  In  In3  1  0.57918300  0.95471400  0.83554100  1
  In  In4  1  0.07918300  0.04528600  0.83554100  1
  In  In5  1  0.92081700  0.95471400  0.16445900  1
  In  In6  1  0.25511800  0.46389100  0.33453700  1
  In  In7  1  0.42081700  0.04528600  0.16445900  1
  Cu  Cu8  1  0.64506300  0.40392900  0.05437600  1
  Cu  Cu9  1  0.85493700  0.40392900  0.94562400  1
  Cu  Cu10  1  0.90762600  0.07958300  0.55257700  1
  Cu  Cu11  1  0.09237400  0.92041700  0.44742300  1
  Cu  Cu12  1  0.40762600  0.92041700  0.55257700  1
  Cu  Cu13  1  0.14506300  0.59607100  0.05437600  1
  Cu  Cu14  1  0.59237400  0.07958300  0.44742300  1
  Cu  Cu15  1  0.35493700  0.59607100  0.94562400  1
  O  O16  1  0.25000000  0.93500500  0.00000000  1
  O  O17  1  0.89772000  0.03233000  0.40358400  1
  O  O18  1  0.20081600  0.52988100  0.80777500  1
  O  O19  1  0.10228000  0.96767000  0.59641600  1
  O  O20  1  0.70081600  0.47011900  0.80777500  1
  O  O21  1  0.99431300  0.44871500  0.09501100  1
  O  O22  1  0.50568700  0.44871500  0.90498900  1
  O  O23  1  0.79918400  0.47011900  0.19222500  1
  O  O24  1  0.00568700  0.55128500  0.90498900  1
  O  O25  1  0.75000000  0.06499500  0.00000000  1
  O  O26  1  0.10752100  0.96248200  0.30653500  1
  O  O27  1  0.39247900  0.96248200  0.69346500  1
  O  O28  1  0.75000000  0.44791100  0.50000000  1
  O  O29  1  0.25000000  0.55208900  0.50000000  1
  O  O30  1  0.60752100  0.03751800  0.30653500  1
  O  O31  1  0.49431300  0.55128500  0.09501100  1
  O  O32  1  0.89247900  0.03751800  0.69346500  1
  O  O33  1  0.60228000  0.03233000  0.59641600  1
  O  O34  1  0.29918400  0.52988100  0.19222500  1
  O  O35  1  0.39772000  0.96767000  0.40358400  1
