# generated using pymatgen
data_Co5(Bi2O5)4
_symmetry_space_group_name_H-M   'P 1'
_cell_length_a   8.25394379
_cell_length_b   8.57330535
_cell_length_c   8.78896746
_cell_angle_alpha   112.03265052
_cell_angle_beta   107.55402909
_cell_angle_gamma   106.49476398
_symmetry_Int_Tables_number   1
_chemical_formula_structural   Co5(Bi2O5)4
_chemical_formula_sum   'Co5 Bi8 O20'
_cell_volume   491.07362539
_cell_formula_units_Z   1
loop_
 _symmetry_equiv_pos_site_id
 _symmetry_equiv_pos_as_xyz
  1  'x, y, z'
loop_
 _atom_site_type_symbol
 _atom_site_label
 _atom_site_symmetry_multiplicity
 _atom_site_fract_x
 _atom_site_fract_y
 _atom_site_fract_z
 _atom_site_occupancy
  Co  Co0  1  0.70037013  0.19582826  0.09830463  1
  Co  Co1  1  0.98804750  0.99154579  0.98672833  1
  Co  Co2  1  0.22168617  0.89736331  0.37058239  1
  Co  Co3  1  0.76786877  0.09376803  0.72132665  1
  Co  Co4  1  0.27712698  0.78125143  0.88520966  1
  Bi  Bi5  1  0.82394138  0.67261336  0.84328431  1
  Bi  Bi6  1  0.37707474  0.19944805  0.50128054  1
  Bi  Bi7  1  0.50203936  0.30149311  0.82496169  1
  Bi  Bi8  1  0.87328157  0.55874014  0.28752272  1
  Bi  Bi9  1  0.15531906  0.49717463  0.67605736  1
  Bi  Bi10  1  0.49426323  0.72394560  0.14340099  1
  Bi  Bi11  1  0.67770748  0.84838508  0.49858635  1
  Bi  Bi12  1  0.13695750  0.26997241  0.21884197  1
  O  O13  1  0.70677678  0.62227510  0.65655483  1
  O  O14  1  0.67696475  0.34723878  0.26651153  1
  O  O15  1  0.94167107  0.03045624  0.77119338  1
  O  O16  1  0.76950418  0.77002408  0.22114311  1
  O  O17  1  0.39772086  0.38655070  0.61997318  1
  O  O18  1  0.42871128  0.12594938  0.21447951  1
  O  O19  1  0.78681271  0.40393585  0.87354837  1
  O  O20  1  0.70696001  0.28080735  0.62132496  1
  O  O21  1  0.09534514  0.75833086  0.62163796  1
  O  O22  1  0.25827482  0.99559740  0.87464930  1
  O  O23  1  0.62127167  0.04433817  0.96623434  1
  O  O24  1  0.35240697  0.74857359  0.38270070  1
  O  O25  1  0.87207153  0.12669394  0.47529570  1
  O  O26  1  0.01178419  0.65951377  0.98280350  1
  O  O27  1  0.55723695  0.87467317  0.77617386  1
  O  O28  1  0.21901695  0.62804358  0.13183852  1
  O  O29  1  0.29707103  0.37981640  0.34416020  1
  O  O30  1  0.32877585  0.64355905  0.75785674  1
  O  O31  1  0.92300118  0.17472630  0.06489088  1
  O  O32  1  0.05293819  0.96736709  0.32094185  1
