# generated using pymatgen
data_Yb2FeS4
_symmetry_space_group_name_H-M   'P 1'
_cell_length_a   13.37363200
_cell_length_b   7.62705200
_cell_length_c   25.87748957
_cell_angle_alpha   90.00000000
_cell_angle_beta   100.32811874
_cell_angle_gamma   90.00000000
_symmetry_Int_Tables_number   1
_chemical_formula_structural   Yb2FeS4
_chemical_formula_sum   'Yb32 Fe16 S64'
_cell_volume   2596.77180471
_cell_formula_units_Z   16
loop_
 _symmetry_equiv_pos_site_id
 _symmetry_equiv_pos_as_xyz
  1  'x, y, z'
loop_
 _atom_site_type_symbol
 _atom_site_label
 _atom_site_symmetry_multiplicity
 _atom_site_fract_x
 _atom_site_fract_y
 _atom_site_fract_z
 _atom_site_occupancy
  Yb  Yb0  1  0.50000000  0.50000000  0.50000000  1
  Yb  Yb1  1  0.25000000  0.75000000  0.50000000  1
  Yb  Yb2  1  0.25010200  0.00000000  0.25095200  1
  Yb  Yb3  1  0.25000000  0.25000000  0.50000000  1
  Yb  Yb4  1  0.62519600  0.50000000  0.37505800  1
  Yb  Yb5  1  0.50032600  0.75558400  0.25122300  1
  Yb  Yb6  1  0.34650300  0.50000000  0.12962000  1
  Yb  Yb7  1  0.00000000  0.50000000  0.00000000  1
  Yb  Yb8  1  0.50032600  0.24441600  0.25122300  1
  Yb  Yb9  1  0.37499300  0.00000000  0.12431800  1
  Yb  Yb10  1  0.65349700  0.50000000  0.87038000  1
  Yb  Yb11  1  0.74989800  0.00000000  0.74904800  1
  Yb  Yb12  1  0.62500700  0.00000000  0.87568200  1
  Yb  Yb13  1  0.49967400  0.24441600  0.74877700  1
  Yb  Yb14  1  0.49967400  0.75558400  0.74877700  1
  Yb  Yb15  1  0.37480400  0.50000000  0.62494200  1
  Yb  Yb16  1  0.00000000  0.00000000  0.50000000  1
  Yb  Yb17  1  0.75000000  0.25000000  0.50000000  1
  Yb  Yb18  1  0.75010200  0.50000000  0.25095200  1
  Yb  Yb19  1  0.75000000  0.75000000  0.50000000  1
  Yb  Yb20  1  0.12519600  0.00000000  0.37505800  1
  Yb  Yb21  1  0.00032600  0.25558400  0.25122300  1
  Yb  Yb22  1  0.84650300  0.00000000  0.12962000  1
  Yb  Yb23  1  0.50000000  0.00000000  0.00000000  1
  Yb  Yb24  1  0.00032600  0.74441600  0.25122300  1
  Yb  Yb25  1  0.87499300  0.50000000  0.12431800  1
  Yb  Yb26  1  0.15349700  0.00000000  0.87038000  1
  Yb  Yb27  1  0.24989800  0.50000000  0.74904800  1
  Yb  Yb28  1  0.12500700  0.50000000  0.87568200  1
  Yb  Yb29  1  0.99967400  0.74441600  0.74877700  1
  Yb  Yb30  1  0.99967400  0.25558400  0.74877700  1
  Yb  Yb31  1  0.87480400  0.00000000  0.62494200  1
  Fe  Fe32  1  0.53137800  0.00000000  0.59267100  1
  Fe  Fe33  1  0.28251500  0.50000000  0.34487100  1
  Fe  Fe34  1  0.54194500  0.50000000  0.08796800  1
  Fe  Fe35  1  0.46862200  0.00000000  0.40732900  1
  Fe  Fe36  1  0.25000000  0.25000000  0.00000000  1
  Fe  Fe37  1  0.25000000  0.75000000  0.00000000  1
  Fe  Fe38  1  0.45805500  0.50000000  0.91203200  1
  Fe  Fe39  1  0.71748500  0.50000000  0.65512900  1
  Fe  Fe40  1  0.03137800  0.50000000  0.59267100  1
  Fe  Fe41  1  0.78251500  0.00000000  0.34487100  1
  Fe  Fe42  1  0.04194500  0.00000000  0.08796800  1
  Fe  Fe43  1  0.96862200  0.50000000  0.40732900  1
  Fe  Fe44  1  0.75000000  0.75000000  0.00000000  1
  Fe  Fe45  1  0.75000000  0.25000000  0.00000000  1
  Fe  Fe46  1  0.95805500  0.00000000  0.91203200  1
  Fe  Fe47  1  0.21748500  0.00000000  0.65512900  1
  S  S48  1  0.44154900  0.23892900  0.56389800  1
  S  S49  1  0.44154900  0.76107100  0.56389800  1
  S  S50  1  0.31095900  0.50000000  0.43232200  1
  S  S51  1  0.67990600  0.00000000  0.56408900  1
  S  S52  1  0.19354600  0.73460100  0.31487000  1
  S  S53  1  0.32009400  0.00000000  0.43591100  1
  S  S54  1  0.19354600  0.26539900  0.31487000  1
  S  S55  1  0.55845100  0.23892900  0.43610200  1
  S  S56  1  0.55750600  0.50000000  0.17597800  1
  S  S57  1  0.68904100  0.50000000  0.56767800  1
  S  S58  1  0.42800400  0.50000000  0.31482800  1
  S  S59  1  0.55845100  0.76107100  0.43610200  1
  S  S60  1  0.55910400  0.00000000  0.18748000  1
  S  S61  1  0.43125150  0.72884550  0.05975500  1
  S  S62  1  0.31572150  0.76231850  0.19003100  1
  S  S63  1  0.79854800  0.50000000  0.96105700  1
  S  S64  1  0.43125150  0.27115450  0.05975500  1
  S  S65  1  0.43992200  0.00000000  0.32110500  1
  S  S66  1  0.19209400  0.00000000  0.05000100  1
  S  S67  1  0.31572150  0.23768150  0.19003100  1
  S  S68  1  0.68427850  0.76231850  0.80996900  1
  S  S69  1  0.80790600  0.00000000  0.94999900  1
  S  S70  1  0.68427850  0.23768150  0.80996900  1
  S  S71  1  0.56874850  0.72884550  0.94024500  1
  S  S72  1  0.56007800  0.00000000  0.67889500  1
  S  S73  1  0.20145200  0.50000000  0.03894300  1
  S  S74  1  0.44089600  0.00000000  0.81252000  1
  S  S75  1  0.56874850  0.27115450  0.94024500  1
  S  S76  1  0.57199600  0.50000000  0.68517200  1
  S  S77  1  0.80645400  0.73460100  0.68513000  1
  S  S78  1  0.44249400  0.50000000  0.82402200  1
  S  S79  1  0.80645400  0.26539900  0.68513000  1
  S  S80  1  0.94154900  0.73892900  0.56389800  1
  S  S81  1  0.94154900  0.26107100  0.56389800  1
  S  S82  1  0.81095900  0.00000000  0.43232200  1
  S  S83  1  0.17990600  0.50000000  0.56408900  1
  S  S84  1  0.69354600  0.23460100  0.31487000  1
  S  S85  1  0.82009400  0.50000000  0.43591100  1
  S  S86  1  0.69354600  0.76539900  0.31487000  1
  S  S87  1  0.05845100  0.73892900  0.43610200  1
  S  S88  1  0.05750600  0.00000000  0.17597800  1
  S  S89  1  0.18904100  0.00000000  0.56767800  1
  S  S90  1  0.92800400  0.00000000  0.31482800  1
  S  S91  1  0.05845100  0.26107100  0.43610200  1
  S  S92  1  0.05910400  0.50000000  0.18748000  1
  S  S93  1  0.93125150  0.22884550  0.05975500  1
  S  S94  1  0.81572150  0.26231850  0.19003100  1
  S  S95  1  0.29854800  0.00000000  0.96105700  1
  S  S96  1  0.93125150  0.77115450  0.05975500  1
  S  S97  1  0.93992200  0.50000000  0.32110500  1
  S  S98  1  0.69209400  0.50000000  0.05000100  1
  S  S99  1  0.81572150  0.73768150  0.19003100  1
  S  S100  1  0.18427850  0.26231850  0.80996900  1
  S  S101  1  0.30790600  0.50000000  0.94999900  1
  S  S102  1  0.18427850  0.73768150  0.80996900  1
  S  S103  1  0.06874850  0.22884550  0.94024500  1
  S  S104  1  0.06007800  0.50000000  0.67889500  1
  S  S105  1  0.70145200  0.00000000  0.03894300  1
  S  S106  1  0.94089600  0.50000000  0.81252000  1
  S  S107  1  0.06874850  0.77115450  0.94024500  1
  S  S108  1  0.07199600  0.00000000  0.68517200  1
  S  S109  1  0.30645400  0.23460100  0.68513000  1
  S  S110  1  0.94249400  0.00000000  0.82402200  1
  S  S111  1  0.30645400  0.76539900  0.68513000  1
