# generated using pymatgen
data_FeHO2
_symmetry_space_group_name_H-M   'P 1'
_cell_length_a   3.05611900
_cell_length_b   4.64196100
_cell_length_c   10.05552300
_cell_angle_alpha   90.00000000
_cell_angle_beta   90.00000000
_cell_angle_gamma   90.00000000
_symmetry_Int_Tables_number   1
_chemical_formula_structural   FeHO2
_chemical_formula_sum   'Fe4 H4 O8'
_cell_volume   142.65152278
_cell_formula_units_Z   4
loop_
 _symmetry_equiv_pos_site_id
 _symmetry_equiv_pos_as_xyz
  1  'x, y, z'
loop_
 _atom_site_type_symbol
 _atom_site_label
 _atom_site_symmetry_multiplicity
 _atom_site_fract_x
 _atom_site_fract_y
 _atom_site_fract_z
 _atom_site_occupancy
  Fe  Fe0  1  0.75000000  0.94302550  0.35534900  1
  Fe  Fe1  1  0.75000000  0.55697450  0.85534900  1
  Fe  Fe2  1  0.25000000  0.05697450  0.64465100  1
  Fe  Fe3  1  0.25000000  0.44302550  0.14465100  1
  H  H4  1  0.25000000  0.39621850  0.40905900  1
  H  H5  1  0.25000000  0.10378150  0.90905900  1
  H  H6  1  0.75000000  0.60378150  0.59094100  1
  H  H7  1  0.75000000  0.89621850  0.09094100  1
  O  O8  1  0.25000000  0.69027250  0.30428900  1
  O  O9  1  0.25000000  0.80972750  0.80428900  1
  O  O10  1  0.75000000  0.30972750  0.69571100  1
  O  O11  1  0.75000000  0.19027250  0.19571100  1
  O  O12  1  0.25000000  0.19328250  0.44329600  1
  O  O13  1  0.25000000  0.30671750  0.94329600  1
  O  O14  1  0.75000000  0.80671750  0.55670400  1
  O  O15  1  0.75000000  0.69328250  0.05670400  1
