# generated using pymatgen
data_Ce2PbSe4
_symmetry_space_group_name_H-M   'P 1'
_cell_length_a   9.09840000
_cell_length_b   9.09840000
_cell_length_c   9.05016400
_cell_angle_alpha   90.00000000
_cell_angle_beta   90.00000000
_cell_angle_gamma   90.00000000
_symmetry_Int_Tables_number   1
_chemical_formula_structural   Ce2PbSe4
_chemical_formula_sum   'Ce8 Pb4 Se16'
_cell_volume   749.18056323
_cell_formula_units_Z   4
loop_
 _symmetry_equiv_pos_site_id
 _symmetry_equiv_pos_as_xyz
  1  'x, y, z'
loop_
 _atom_site_type_symbol
 _atom_site_label
 _atom_site_symmetry_multiplicity
 _atom_site_fract_x
 _atom_site_fract_y
 _atom_site_fract_z
 _atom_site_occupancy
  Ce  Ce0  1  0.25000000  0.13152100  0.12500000  1
  Ce  Ce1  1  0.86847900  0.25000000  0.87500000  1
  Ce  Ce2  1  0.25000000  0.36847900  0.62500000  1
  Ce  Ce3  1  0.63152100  0.25000000  0.37500000  1
  Ce  Ce4  1  0.75000000  0.63152100  0.62500000  1
  Ce  Ce5  1  0.36847900  0.75000000  0.37500000  1
  Ce  Ce6  1  0.75000000  0.86847900  0.12500000  1
  Ce  Ce7  1  0.13152100  0.75000000  0.87500000  1
  Pb  Pb8  1  0.50000000  0.00000000  0.75000000  1
  Pb  Pb9  1  0.00000000  0.00000000  0.50000000  1
  Pb  Pb10  1  0.00000000  0.50000000  0.25000000  1
  Pb  Pb11  1  0.50000000  0.50000000  0.00000000  1
  Se  Se12  1  0.67146950  0.92428650  0.44170550  1
  Se  Se13  1  0.92428650  0.17146950  0.19170550  1
  Se  Se14  1  0.82853050  0.92428650  0.80829450  1
  Se  Se15  1  0.57571350  0.32853050  0.69170550  1
  Se  Se16  1  0.92428650  0.32853050  0.55829450  1
  Se  Se17  1  0.82853050  0.57571350  0.94170550  1
  Se  Se18  1  0.57571350  0.17146950  0.05829450  1
  Se  Se19  1  0.67146950  0.57571350  0.30829450  1
  Se  Se20  1  0.17146950  0.42428650  0.94170550  1
  Se  Se21  1  0.42428650  0.67146950  0.69170550  1
  Se  Se22  1  0.32853050  0.42428650  0.30829450  1
  Se  Se23  1  0.07571350  0.82853050  0.19170550  1
  Se  Se24  1  0.42428650  0.82853050  0.05829450  1
  Se  Se25  1  0.32853050  0.07571350  0.44170550  1
  Se  Se26  1  0.07571350  0.67146950  0.55829450  1
  Se  Se27  1  0.17146950  0.07571350  0.80829450  1
