# generated using pymatgen
data_Ba3Li2V2Cl4O7
_symmetry_space_group_name_H-M   'P 1'
_cell_length_a   16.34190400
_cell_length_b   5.88206400
_cell_length_c   14.60865299
_cell_angle_alpha   90.00000000
_cell_angle_beta   90.52101542
_cell_angle_gamma   90.00000000
_symmetry_Int_Tables_number   1
_chemical_formula_structural   Ba3Li2V2Cl4O7
_chemical_formula_sum   'Ba12 Li8 V8 Cl16 O28'
_cell_volume   1404.18593115
_cell_formula_units_Z   4
loop_
 _symmetry_equiv_pos_site_id
 _symmetry_equiv_pos_as_xyz
  1  'x, y, z'
loop_
 _atom_site_type_symbol
 _atom_site_label
 _atom_site_symmetry_multiplicity
 _atom_site_fract_x
 _atom_site_fract_y
 _atom_site_fract_z
 _atom_site_occupancy
  Ba  Ba0  1  0.63584900  0.50000000  0.72599600  1
  Ba  Ba1  1  0.86587400  0.00000000  0.71976700  1
  Ba  Ba2  1  0.86415100  0.00000000  0.27400400  1
  Ba  Ba3  1  0.00000000  0.50000000  0.50000000  1
  Ba  Ba4  1  0.63412600  0.50000000  0.28023300  1
  Ba  Ba5  1  0.00000000  0.50000000  0.00000000  1
  Ba  Ba6  1  0.13584900  0.00000000  0.72599600  1
  Ba  Ba7  1  0.36587400  0.50000000  0.71976700  1
  Ba  Ba8  1  0.36415100  0.50000000  0.27400400  1
  Ba  Ba9  1  0.50000000  0.00000000  0.50000000  1
  Ba  Ba10  1  0.13412600  0.00000000  0.28023300  1
  Ba  Ba11  1  0.50000000  0.00000000  0.00000000  1
  Li  Li12  1  0.75000000  0.75000000  0.50000000  1
  Li  Li13  1  0.80200000  0.50000000  0.11667900  1
  Li  Li14  1  0.69800000  0.00000000  0.88332100  1
  Li  Li15  1  0.75000000  0.25000000  0.50000000  1
  Li  Li16  1  0.25000000  0.25000000  0.50000000  1
  Li  Li17  1  0.30200000  0.00000000  0.11667900  1
  Li  Li18  1  0.19800000  0.50000000  0.88332100  1
  Li  Li19  1  0.25000000  0.75000000  0.50000000  1
  V  V20  1  0.50381900  0.00000000  0.74832400  1
  V  V21  1  0.68873800  0.00000000  0.12721800  1
  V  V22  1  0.99618100  0.50000000  0.25167600  1
  V  V23  1  0.81126200  0.50000000  0.87278200  1
  V  V24  1  0.00381900  0.50000000  0.74832400  1
  V  V25  1  0.18873800  0.50000000  0.12721800  1
  V  V26  1  0.49618100  0.00000000  0.25167600  1
  V  V27  1  0.31126200  0.00000000  0.87278200  1
  Cl  Cl28  1  0.99821800  0.00000000  0.88422400  1
  Cl  Cl29  1  0.81472000  0.50000000  0.61981100  1
  Cl  Cl30  1  0.61718400  0.50000000  0.50129600  1
  Cl  Cl31  1  0.50178200  0.50000000  0.11577600  1
  Cl  Cl32  1  0.88281600  0.00000000  0.49870400  1
  Cl  Cl33  1  0.81071500  0.50000000  0.37961000  1
  Cl  Cl34  1  0.68928500  0.00000000  0.62039000  1
  Cl  Cl35  1  0.68528000  0.00000000  0.38018900  1
  Cl  Cl36  1  0.49821800  0.50000000  0.88422400  1
  Cl  Cl37  1  0.31472000  0.00000000  0.61981100  1
  Cl  Cl38  1  0.11718400  0.00000000  0.50129600  1
  Cl  Cl39  1  0.00178200  0.00000000  0.11577600  1
  Cl  Cl40  1  0.38281600  0.50000000  0.49870400  1
  Cl  Cl41  1  0.31071500  0.00000000  0.37961000  1
  Cl  Cl42  1  0.18928500  0.50000000  0.62039000  1
  Cl  Cl43  1  0.18528000  0.50000000  0.38018900  1
  O  O44  1  0.50267200  0.76691000  0.67721200  1
  O  O45  1  0.50267200  0.23309000  0.67721200  1
  O  O46  1  0.91286800  0.50000000  0.82120700  1
  O  O47  1  0.58840800  0.00000000  0.81810000  1
  O  O48  1  0.99732800  0.73309000  0.32278800  1
  O  O49  1  0.74155650  0.23578750  0.16567600  1
  O  O50  1  0.75844350  0.73578750  0.83432400  1
  O  O51  1  0.58713200  0.00000000  0.17879300  1
  O  O52  1  0.91159200  0.50000000  0.18190000  1
  O  O53  1  0.75844350  0.26421250  0.83432400  1
  O  O54  1  0.66946400  0.00000000  0.01249800  1
  O  O55  1  0.99732800  0.26691000  0.32278800  1
  O  O56  1  0.83053600  0.50000000  0.98750200  1
  O  O57  1  0.74155650  0.76421250  0.16567600  1
  O  O58  1  0.00267200  0.26691000  0.67721200  1
  O  O59  1  0.00267200  0.73309000  0.67721200  1
  O  O60  1  0.41286800  0.00000000  0.82120700  1
  O  O61  1  0.08840800  0.50000000  0.81810000  1
  O  O62  1  0.49732800  0.23309000  0.32278800  1
  O  O63  1  0.24155650  0.73578750  0.16567600  1
  O  O64  1  0.25844350  0.23578750  0.83432400  1
  O  O65  1  0.08713200  0.50000000  0.17879300  1
  O  O66  1  0.41159200  0.00000000  0.18190000  1
  O  O67  1  0.25844350  0.76421250  0.83432400  1
  O  O68  1  0.16946400  0.50000000  0.01249800  1
  O  O69  1  0.49732800  0.76691000  0.32278800  1
  O  O70  1  0.33053600  0.00000000  0.98750200  1
  O  O71  1  0.24155650  0.26421250  0.16567600  1
