# generated using pymatgen
data_Ti20H2N17
_symmetry_space_group_name_H-M   'P 1'
_cell_length_a   15.62091000
_cell_length_b   3.00824600
_cell_length_c   16.93981894
_cell_angle_alpha   90.00000000
_cell_angle_beta   105.83610322
_cell_angle_gamma   90.00000000
_symmetry_Int_Tables_number   1
_chemical_formula_structural   Ti20H2N17
_chemical_formula_sum   'Ti40 H4 N34'
_cell_volume   765.81591171
_cell_formula_units_Z   2
loop_
 _symmetry_equiv_pos_site_id
 _symmetry_equiv_pos_as_xyz
  1  'x, y, z'
loop_
 _atom_site_type_symbol
 _atom_site_label
 _atom_site_symmetry_multiplicity
 _atom_site_fract_x
 _atom_site_fract_y
 _atom_site_fract_z
 _atom_site_occupancy
  Ti  Ti0  1  0.80020300  0.50000000  0.07652500  1
  Ti  Ti1  1  0.39541700  0.50000000  0.97367100  1
  Ti  Ti2  1  0.99949600  0.50000000  0.87064200  1
  Ti  Ti3  1  0.10053000  0.00000000  0.77883800  1
  Ti  Ti4  1  0.20371200  0.50000000  0.67611400  1
  Ti  Ti5  1  0.99632500  0.50000000  0.62376100  1
  Ti  Ti6  1  0.09913600  0.00000000  0.52310800  1
  Ti  Ti7  1  0.79886900  0.50000000  0.57334300  1
  Ti  Ti8  1  0.20113100  0.50000000  0.42665700  1
  Ti  Ti9  1  0.90086400  0.00000000  0.47689200  1
  Ti  Ti10  1  0.00367500  0.50000000  0.37623900  1
  Ti  Ti11  1  0.79628800  0.50000000  0.32388600  1
  Ti  Ti12  1  0.10003600  0.00000000  0.27344600  1
  Ti  Ti13  1  0.89947000  0.00000000  0.22116200  1
  Ti  Ti14  1  0.00050400  0.50000000  0.12935800  1
  Ti  Ti15  1  0.69959200  0.00000000  0.17473800  1
  Ti  Ti16  1  0.60458300  0.50000000  0.02632900  1
  Ti  Ti17  1  0.19979700  0.50000000  0.92347500  1
  Ti  Ti18  1  0.30040800  0.00000000  0.82526200  1
  Ti  Ti19  1  0.89996400  0.00000000  0.72655400  1
  Ti  Ti20  1  0.30020300  0.00000000  0.07652500  1
  Ti  Ti21  1  0.89541700  0.00000000  0.97367100  1
  Ti  Ti22  1  0.49949600  0.00000000  0.87064200  1
  Ti  Ti23  1  0.60053000  0.50000000  0.77883800  1
  Ti  Ti24  1  0.70371200  0.00000000  0.67611400  1
  Ti  Ti25  1  0.49632500  0.00000000  0.62376100  1
  Ti  Ti26  1  0.59913600  0.50000000  0.52310800  1
  Ti  Ti27  1  0.29886900  0.00000000  0.57334300  1
  Ti  Ti28  1  0.70113100  0.00000000  0.42665700  1
  Ti  Ti29  1  0.40086400  0.50000000  0.47689200  1
  Ti  Ti30  1  0.50367500  0.00000000  0.37623900  1
  Ti  Ti31  1  0.29628800  0.00000000  0.32388600  1
  Ti  Ti32  1  0.60003600  0.50000000  0.27344600  1
  Ti  Ti33  1  0.39947000  0.50000000  0.22116200  1
  Ti  Ti34  1  0.50050400  0.00000000  0.12935800  1
  Ti  Ti35  1  0.19959200  0.50000000  0.17473800  1
  Ti  Ti36  1  0.10458300  0.00000000  0.02632900  1
  Ti  Ti37  1  0.69979700  0.00000000  0.92347500  1
  Ti  Ti38  1  0.80040800  0.50000000  0.82526200  1
  Ti  Ti39  1  0.39996400  0.50000000  0.72655400  1
  H  H40  1  0.10026000  0.00000000  0.64985100  1
  H  H41  1  0.89974000  0.00000000  0.35014900  1
  H  H42  1  0.60026000  0.50000000  0.64985100  1
  H  H43  1  0.39974000  0.50000000  0.35014900  1
  N  N44  1  0.09921700  0.00000000  0.39983500  1
  N  N45  1  0.70064700  0.00000000  0.30078800  1
  N  N46  1  0.80067900  0.50000000  0.20112600  1
  N  N47  1  0.90079300  0.00000000  0.09916900  1
  N  N48  1  0.09920700  0.00000000  0.90083100  1
  N  N49  1  0.19932100  0.50000000  0.79887400  1
  N  N50  1  0.40103800  0.50000000  0.85137800  1
  N  N51  1  0.29935300  0.00000000  0.69921200  1
  N  N52  1  0.00007200  0.50000000  0.74907300  1
  N  N53  1  0.90078300  0.00000000  0.60016500  1
  N  N54  1  0.19976200  0.50000000  0.55041500  1
  N  N55  1  0.80023800  0.50000000  0.44958500  1
  N  N56  1  0.00000000  0.50000000  0.50000000  1
  N  N57  1  0.99992800  0.50000000  0.25092700  1
  N  N58  1  0.59896200  0.50000000  0.14862200  1
  N  N59  1  0.69818400  0.00000000  0.04895200  1
  N  N60  1  0.30181600  0.00000000  0.95104800  1
  N  N61  1  0.59921700  0.50000000  0.39983500  1
  N  N62  1  0.20064700  0.50000000  0.30078800  1
  N  N63  1  0.30067900  0.00000000  0.20112600  1
  N  N64  1  0.40079300  0.50000000  0.09916900  1
  N  N65  1  0.59920700  0.50000000  0.90083100  1
  N  N66  1  0.69932100  0.00000000  0.79887400  1
  N  N67  1  0.90103800  0.00000000  0.85137800  1
  N  N68  1  0.79935300  0.50000000  0.69921200  1
  N  N69  1  0.50007200  0.00000000  0.74907300  1
  N  N70  1  0.40078300  0.50000000  0.60016500  1
  N  N71  1  0.69976200  0.00000000  0.55041500  1
  N  N72  1  0.30023800  0.00000000  0.44958500  1
  N  N73  1  0.50000000  0.00000000  0.50000000  1
  N  N74  1  0.49992800  0.00000000  0.25092700  1
  N  N75  1  0.09896200  0.00000000  0.14862200  1
  N  N76  1  0.19818400  0.50000000  0.04895200  1
  N  N77  1  0.80181600  0.50000000  0.95104800  1
