# generated using pymatgen
data_B2IrCl
_symmetry_space_group_name_H-M   'P 1'
_cell_length_a   5.70043800
_cell_length_b   5.70043800
_cell_length_c   5.70043800
_cell_angle_alpha   90.00000000
_cell_angle_beta   90.00000000
_cell_angle_gamma   90.00000000
_symmetry_Int_Tables_number   1
_chemical_formula_structural   B2IrCl
_chemical_formula_sum   'B8 Ir4 Cl4'
_cell_volume   185.23569514
_cell_formula_units_Z   4
loop_
 _symmetry_equiv_pos_site_id
 _symmetry_equiv_pos_as_xyz
  1  'x, y, z'
loop_
 _atom_site_type_symbol
 _atom_site_label
 _atom_site_symmetry_multiplicity
 _atom_site_fract_x
 _atom_site_fract_y
 _atom_site_fract_z
 _atom_site_occupancy
  B  B0  1  0.25000000  0.25000000  0.75000000  1
  B  B1  1  0.25000000  0.75000000  0.75000000  1
  B  B2  1  0.25000000  0.75000000  0.25000000  1
  B  B3  1  0.25000000  0.25000000  0.25000000  1
  B  B4  1  0.75000000  0.25000000  0.25000000  1
  B  B5  1  0.75000000  0.75000000  0.25000000  1
  B  B6  1  0.75000000  0.75000000  0.75000000  1
  B  B7  1  0.75000000  0.25000000  0.75000000  1
  Ir  Ir8  1  0.50000000  0.00000000  0.00000000  1
  Ir  Ir9  1  0.50000000  0.50000000  0.50000000  1
  Ir  Ir10  1  0.00000000  0.00000000  0.50000000  1
  Ir  Ir11  1  0.00000000  0.50000000  0.00000000  1
  Cl  Cl12  1  0.00000000  0.00000000  0.00000000  1
  Cl  Cl13  1  0.00000000  0.50000000  0.50000000  1
  Cl  Cl14  1  0.50000000  0.00000000  0.50000000  1
  Cl  Cl15  1  0.50000000  0.50000000  0.00000000  1
