# generated using pymatgen
data_U7Cd3O20
_symmetry_space_group_name_H-M   'P 1'
_cell_length_a   6.59479800
_cell_length_b   19.01032000
_cell_length_c   6.54468954
_cell_angle_alpha   90.00000000
_cell_angle_beta   109.40963000
_cell_angle_gamma   90.00000000
_symmetry_Int_Tables_number   1
_chemical_formula_structural   U7Cd3O20
_chemical_formula_sum   'U14 Cd6 O40'
_cell_volume   773.87084879
_cell_formula_units_Z   2
loop_
 _symmetry_equiv_pos_site_id
 _symmetry_equiv_pos_as_xyz
  1  'x, y, z'
loop_
 _atom_site_type_symbol
 _atom_site_label
 _atom_site_symmetry_multiplicity
 _atom_site_fract_x
 _atom_site_fract_y
 _atom_site_fract_z
 _atom_site_occupancy
  U  U0  1  0.50000000  0.60028400  0.00000000  1
  U  U1  1  0.00000000  0.60081300  0.50000000  1
  U  U2  1  0.00000000  0.89971600  0.00000000  1
  U  U3  1  0.00000000  0.00000000  0.50000000  1
  U  U4  1  0.50000000  0.80050800  0.00000000  1
  U  U5  1  0.50000000  0.89918700  0.50000000  1
  U  U6  1  0.00000000  0.69949200  0.00000000  1
  U  U7  1  0.00000000  0.10028400  0.00000000  1
  U  U8  1  0.50000000  0.10081300  0.50000000  1
  U  U9  1  0.50000000  0.39971600  0.00000000  1
  U  U10  1  0.50000000  0.50000000  0.50000000  1
  U  U11  1  0.00000000  0.30050800  0.00000000  1
  U  U12  1  0.00000000  0.39918700  0.50000000  1
  U  U13  1  0.50000000  0.19949200  0.00000000  1
  Cd  Cd14  1  0.50000000  0.00000000  0.00000000  1
  Cd  Cd15  1  0.00000000  0.79758600  0.50000000  1
  Cd  Cd16  1  0.50000000  0.70241400  0.50000000  1
  Cd  Cd17  1  0.00000000  0.50000000  0.00000000  1
  Cd  Cd18  1  0.50000000  0.29758600  0.50000000  1
  Cd  Cd19  1  0.00000000  0.20241400  0.50000000  1
  O  O20  1  0.86621200  0.60221800  0.12636000  1
  O  O21  1  0.88868500  0.00000000  0.12977500  1
  O  O22  1  0.37316400  0.59626000  0.63144800  1
  O  O23  1  0.62683600  0.59626000  0.36855200  1
  O  O24  1  0.36621200  0.89778200  0.12636000  1
  O  O25  1  0.36917400  0.00000000  0.60989400  1
  O  O26  1  0.63082600  0.00000000  0.39010600  1
  O  O27  1  0.86949650  0.80069050  0.10479000  1
  O  O28  1  0.13378800  0.60221800  0.87364000  1
  O  O29  1  0.87316400  0.90374000  0.63144800  1
  O  O30  1  0.12683600  0.90374000  0.36855200  1
  O  O31  1  0.36949650  0.69930950  0.10479000  1
  O  O32  1  0.11131500  0.00000000  0.87022500  1
  O  O33  1  0.38613800  0.80544600  0.64327600  1
  O  O34  1  0.61386200  0.80544600  0.35672400  1
  O  O35  1  0.11386200  0.69455400  0.35672400  1
  O  O36  1  0.63378800  0.89778200  0.87364000  1
  O  O37  1  0.88613800  0.69455400  0.64327600  1
  O  O38  1  0.13050350  0.80069050  0.89521000  1
  O  O39  1  0.63050350  0.69930950  0.89521000  1
  O  O40  1  0.36621200  0.10221800  0.12636000  1
  O  O41  1  0.38868500  0.50000000  0.12977500  1
  O  O42  1  0.87316400  0.09626000  0.63144800  1
  O  O43  1  0.12683600  0.09626000  0.36855200  1
  O  O44  1  0.86621200  0.39778200  0.12636000  1
  O  O45  1  0.86917400  0.50000000  0.60989400  1
  O  O46  1  0.13082600  0.50000000  0.39010600  1
  O  O47  1  0.36949650  0.30069050  0.10479000  1
  O  O48  1  0.63378800  0.10221800  0.87364000  1
  O  O49  1  0.37316400  0.40374000  0.63144800  1
  O  O50  1  0.62683600  0.40374000  0.36855200  1
  O  O51  1  0.86949650  0.19930950  0.10479000  1
  O  O52  1  0.61131500  0.50000000  0.87022500  1
  O  O53  1  0.88613800  0.30544600  0.64327600  1
  O  O54  1  0.11386200  0.30544600  0.35672400  1
  O  O55  1  0.61386200  0.19455400  0.35672400  1
  O  O56  1  0.13378800  0.39778200  0.87364000  1
  O  O57  1  0.38613800  0.19455400  0.64327600  1
  O  O58  1  0.63050350  0.30069050  0.89521000  1
  O  O59  1  0.13050350  0.19930950  0.89521000  1
