# generated using pymatgen
data_Re3Pb3O10
_symmetry_space_group_name_H-M   'P 1'
_cell_length_a   7.46415531
_cell_length_b   7.46415531
_cell_length_c   31.83826637
_cell_angle_alpha   90.00000000
_cell_angle_beta   90.00000000
_cell_angle_gamma   90.00000000
_symmetry_Int_Tables_number   1
_chemical_formula_structural   Re3Pb3O10
_chemical_formula_sum   'Re24 Pb24 O80'
_cell_volume   1773.82490045
_cell_formula_units_Z   8
loop_
 _symmetry_equiv_pos_site_id
 _symmetry_equiv_pos_as_xyz
  1  'x, y, z'
loop_
 _atom_site_type_symbol
 _atom_site_label
 _atom_site_symmetry_multiplicity
 _atom_site_fract_x
 _atom_site_fract_y
 _atom_site_fract_z
 _atom_site_occupancy
  Re  Re0  1  0.50000000  0.74966450  0.79308100  1
  Re  Re1  1  0.74966450  0.00000000  0.04308100  1
  Re  Re2  1  0.00000000  0.74966450  0.95691900  1
  Re  Re3  1  0.00000000  0.25033550  0.95691900  1
  Re  Re4  1  0.25033550  0.00000000  0.04308100  1
  Re  Re5  1  0.50000000  0.25000000  0.12500000  1
  Re  Re6  1  0.50000000  0.75000000  0.12500000  1
  Re  Re7  1  0.74966450  0.50000000  0.20691900  1
  Re  Re8  1  0.50000000  0.25033550  0.79308100  1
  Re  Re9  1  0.25033550  0.50000000  0.20691900  1
  Re  Re10  1  0.75000000  0.50000000  0.87500000  1
  Re  Re11  1  0.25000000  0.50000000  0.87500000  1
  Re  Re12  1  0.00000000  0.24966450  0.29308100  1
  Re  Re13  1  0.24966450  0.50000000  0.54308100  1
  Re  Re14  1  0.50000000  0.24966450  0.45691900  1
  Re  Re15  1  0.50000000  0.75033550  0.45691900  1
  Re  Re16  1  0.75033550  0.50000000  0.54308100  1
  Re  Re17  1  0.00000000  0.75000000  0.62500000  1
  Re  Re18  1  0.00000000  0.25000000  0.62500000  1
  Re  Re19  1  0.24966450  0.00000000  0.70691900  1
  Re  Re20  1  0.00000000  0.75033550  0.29308100  1
  Re  Re21  1  0.75033550  0.00000000  0.70691900  1
  Re  Re22  1  0.25000000  0.00000000  0.37500000  1
  Re  Re23  1  0.75000000  0.00000000  0.37500000  1
  Pb  Pb24  1  0.75072550  0.50000000  0.71162400  1
  Pb  Pb25  1  0.24927450  0.50000000  0.71162400  1
  Pb  Pb26  1  0.25000000  0.00000000  0.87500000  1
  Pb  Pb27  1  0.75000000  0.00000000  0.87500000  1
  Pb  Pb28  1  0.74927450  0.50000000  0.03837600  1
  Pb  Pb29  1  0.00000000  0.74927450  0.78837600  1
  Pb  Pb30  1  0.00000000  0.75000000  0.12500000  1
  Pb  Pb31  1  0.00000000  0.25000000  0.12500000  1
  Pb  Pb32  1  0.25072550  0.50000000  0.03837600  1
  Pb  Pb33  1  0.50000000  0.25072550  0.96162400  1
  Pb  Pb34  1  0.00000000  0.25072550  0.78837600  1
  Pb  Pb35  1  0.50000000  0.74927450  0.96162400  1
  Pb  Pb36  1  0.25072550  0.00000000  0.21162400  1
  Pb  Pb37  1  0.74927450  0.00000000  0.21162400  1
  Pb  Pb38  1  0.75000000  0.50000000  0.37500000  1
  Pb  Pb39  1  0.25000000  0.50000000  0.37500000  1
  Pb  Pb40  1  0.24927450  0.00000000  0.53837600  1
  Pb  Pb41  1  0.50000000  0.24927450  0.28837600  1
  Pb  Pb42  1  0.50000000  0.25000000  0.62500000  1
  Pb  Pb43  1  0.50000000  0.75000000  0.62500000  1
  Pb  Pb44  1  0.75072550  0.00000000  0.53837600  1
  Pb  Pb45  1  0.00000000  0.75072550  0.46162400  1
  Pb  Pb46  1  0.50000000  0.75072550  0.28837600  1
  Pb  Pb47  1  0.00000000  0.24927450  0.46162400  1
  O  O48  1  0.30722250  0.69008050  0.83400100  1
  O  O49  1  0.50000000  0.00000000  0.92552750  1
  O  O50  1  0.69277750  0.69008050  0.83400100  1
  O  O51  1  0.80628950  0.80628950  0.00000000  1
  O  O52  1  0.80628950  0.19371050  0.00000000  1
  O  O53  1  0.00000000  0.00000000  0.93696050  1
  O  O54  1  0.00000000  0.50000000  0.07447250  1
  O  O55  1  0.00000000  0.00000000  0.06303950  1
  O  O56  1  0.19371050  0.80628950  0.00000000  1
  O  O57  1  0.19371050  0.19371050  0.00000000  1
  O  O58  1  0.30991950  0.30722250  0.16599900  1
  O  O59  1  0.30991950  0.19277750  0.08400100  1
  O  O60  1  0.30991950  0.69277750  0.16599900  1
  O  O61  1  0.50000000  0.50000000  0.10638500  1
  O  O62  1  0.50000000  0.00000000  0.01971600  1
  O  O63  1  0.50000000  0.00000000  0.14361500  1
  O  O64  1  0.00000000  0.00000000  0.73028400  1
  O  O65  1  0.69008050  0.30722250  0.16599900  1
  O  O66  1  0.69008050  0.19277750  0.08400100  1
  O  O67  1  0.69008050  0.69277750  0.16599900  1
  O  O68  1  0.30722250  0.30991950  0.83400100  1
  O  O69  1  0.30628950  0.80628950  0.75000000  1
  O  O70  1  0.30628950  0.19371050  0.75000000  1
  O  O71  1  0.50000000  0.50000000  0.76971600  1
  O  O72  1  0.00000000  0.00000000  0.17552750  1
  O  O73  1  0.00000000  0.50000000  0.18696050  1
  O  O74  1  0.50000000  0.00000000  0.81303950  1
  O  O75  1  0.50000000  0.50000000  0.89361500  1
  O  O76  1  0.69277750  0.30991950  0.83400100  1
  O  O77  1  0.69371050  0.80628950  0.75000000  1
  O  O78  1  0.69371050  0.19371050  0.75000000  1
  O  O79  1  0.80722250  0.30991950  0.91599900  1
  O  O80  1  0.80722250  0.69008050  0.91599900  1
  O  O81  1  0.00000000  0.50000000  0.85638500  1
  O  O82  1  0.00000000  0.00000000  0.82447250  1
  O  O83  1  0.00000000  0.50000000  0.98028400  1
  O  O84  1  0.19277750  0.30991950  0.91599900  1
  O  O85  1  0.19277750  0.69008050  0.91599900  1
  O  O86  1  0.30991950  0.80722250  0.08400100  1
  O  O87  1  0.69008050  0.80722250  0.08400100  1
  O  O88  1  0.80722250  0.19008050  0.33400100  1
  O  O89  1  0.00000000  0.50000000  0.42552750  1
  O  O90  1  0.19277750  0.19008050  0.33400100  1
  O  O91  1  0.30628950  0.30628950  0.50000000  1
  O  O92  1  0.30628950  0.69371050  0.50000000  1
  O  O93  1  0.50000000  0.50000000  0.43696050  1
  O  O94  1  0.50000000  0.00000000  0.57447250  1
  O  O95  1  0.50000000  0.50000000  0.56303950  1
  O  O96  1  0.69371050  0.30628950  0.50000000  1
  O  O97  1  0.69371050  0.69371050  0.50000000  1
  O  O98  1  0.80991950  0.80722250  0.66599900  1
  O  O99  1  0.80991950  0.69277750  0.58400100  1
  O  O100  1  0.80991950  0.19277750  0.66599900  1
  O  O101  1  0.00000000  0.00000000  0.60638500  1
  O  O102  1  0.00000000  0.50000000  0.51971600  1
  O  O103  1  0.00000000  0.50000000  0.64361500  1
  O  O104  1  0.50000000  0.50000000  0.23028400  1
  O  O105  1  0.19008050  0.80722250  0.66599900  1
  O  O106  1  0.19008050  0.69277750  0.58400100  1
  O  O107  1  0.19008050  0.19277750  0.66599900  1
  O  O108  1  0.80722250  0.80991950  0.33400100  1
  O  O109  1  0.80628950  0.30628950  0.25000000  1
  O  O110  1  0.80628950  0.69371050  0.25000000  1
  O  O111  1  0.00000000  0.00000000  0.26971600  1
  O  O112  1  0.50000000  0.50000000  0.67552750  1
  O  O113  1  0.50000000  0.00000000  0.68696050  1
  O  O114  1  0.00000000  0.50000000  0.31303950  1
  O  O115  1  0.00000000  0.00000000  0.39361500  1
  O  O116  1  0.19277750  0.80991950  0.33400100  1
  O  O117  1  0.19371050  0.30628950  0.25000000  1
  O  O118  1  0.19371050  0.69371050  0.25000000  1
  O  O119  1  0.30722250  0.80991950  0.41599900  1
  O  O120  1  0.30722250  0.19008050  0.41599900  1
  O  O121  1  0.50000000  0.00000000  0.35638500  1
  O  O122  1  0.50000000  0.50000000  0.32447250  1
  O  O123  1  0.50000000  0.00000000  0.48028400  1
  O  O124  1  0.69277750  0.80991950  0.41599900  1
  O  O125  1  0.69277750  0.19008050  0.41599900  1
  O  O126  1  0.80991950  0.30722250  0.58400100  1
  O  O127  1  0.19008050  0.30722250  0.58400100  1
