# generated using pymatgen
data_Fe2Mo4N
_symmetry_space_group_name_H-M   'P 1'
_cell_length_a   11.27025200
_cell_length_b   11.27025200
_cell_length_c   11.27025200
_cell_angle_alpha   90.00000000
_cell_angle_beta   90.00000000
_cell_angle_gamma   90.00000000
_symmetry_Int_Tables_number   1
_chemical_formula_structural   Fe2Mo4N
_chemical_formula_sum   'Fe32 Mo64 N16'
_cell_volume   1431.53140690
_cell_formula_units_Z   16
loop_
 _symmetry_equiv_pos_site_id
 _symmetry_equiv_pos_as_xyz
  1  'x, y, z'
loop_
 _atom_site_type_symbol
 _atom_site_label
 _atom_site_symmetry_multiplicity
 _atom_site_fract_x
 _atom_site_fract_y
 _atom_site_fract_z
 _atom_site_occupancy
  Fe  Fe0  1  0.08065000  0.08065000  0.41935000  1
  Fe  Fe1  1  0.41935000  0.08065000  0.08065000  1
  Fe  Fe2  1  0.08065000  0.41935000  0.08065000  1
  Fe  Fe3  1  0.16935000  0.83065000  0.16935000  1
  Fe  Fe4  1  0.16935000  0.66935000  0.33065000  1
  Fe  Fe5  1  0.33065000  0.83065000  0.33065000  1
  Fe  Fe6  1  0.41935000  0.41935000  0.41935000  1
  Fe  Fe7  1  0.33065000  0.66935000  0.16935000  1
  Fe  Fe8  1  0.08065000  0.58065000  0.91935000  1
  Fe  Fe9  1  0.41935000  0.58065000  0.58065000  1
  Fe  Fe10  1  0.08065000  0.91935000  0.58065000  1
  Fe  Fe11  1  0.16935000  0.33065000  0.66935000  1
  Fe  Fe12  1  0.16935000  0.16935000  0.83065000  1
  Fe  Fe13  1  0.33065000  0.33065000  0.83065000  1
  Fe  Fe14  1  0.41935000  0.91935000  0.91935000  1
  Fe  Fe15  1  0.33065000  0.16935000  0.66935000  1
  Fe  Fe16  1  0.58065000  0.08065000  0.91935000  1
  Fe  Fe17  1  0.91935000  0.08065000  0.58065000  1
  Fe  Fe18  1  0.58065000  0.41935000  0.58065000  1
  Fe  Fe19  1  0.66935000  0.83065000  0.66935000  1
  Fe  Fe20  1  0.66935000  0.66935000  0.83065000  1
  Fe  Fe21  1  0.83065000  0.83065000  0.83065000  1
  Fe  Fe22  1  0.91935000  0.41935000  0.91935000  1
  Fe  Fe23  1  0.83065000  0.66935000  0.66935000  1
  Fe  Fe24  1  0.58065000  0.58065000  0.41935000  1
  Fe  Fe25  1  0.91935000  0.58065000  0.08065000  1
  Fe  Fe26  1  0.58065000  0.91935000  0.08065000  1
  Fe  Fe27  1  0.66935000  0.33065000  0.16935000  1
  Fe  Fe28  1  0.66935000  0.16935000  0.33065000  1
  Fe  Fe29  1  0.83065000  0.33065000  0.33065000  1
  Fe  Fe30  1  0.91935000  0.91935000  0.41935000  1
  Fe  Fe31  1  0.83065000  0.16935000  0.16935000  1
  Mo  Mo32  1  0.44276600  0.25000000  0.25000000  1
  Mo  Mo33  1  0.12500000  0.87500000  0.37500000  1
  Mo  Mo34  1  0.50000000  0.80723400  0.50000000  1
  Mo  Mo35  1  0.25000000  0.25000000  0.44276600  1
  Mo  Mo36  1  0.05723400  0.25000000  0.25000000  1
  Mo  Mo37  1  0.50000000  0.19276600  0.50000000  1
  Mo  Mo38  1  0.50000000  0.00000000  0.30723400  1
  Mo  Mo39  1  0.30723400  0.00000000  0.50000000  1
  Mo  Mo40  1  0.25000000  0.05723400  0.25000000  1
  Mo  Mo41  1  0.69276600  0.00000000  0.50000000  1
  Mo  Mo42  1  0.37500000  0.87500000  0.12500000  1
  Mo  Mo43  1  0.25000000  0.44276600  0.25000000  1
  Mo  Mo44  1  0.25000000  0.25000000  0.05723400  1
  Mo  Mo45  1  0.00000000  0.00000000  0.19276600  1
  Mo  Mo46  1  0.37500000  0.62500000  0.37500000  1
  Mo  Mo47  1  0.12500000  0.62500000  0.12500000  1
  Mo  Mo48  1  0.44276600  0.75000000  0.75000000  1
  Mo  Mo49  1  0.12500000  0.37500000  0.87500000  1
  Mo  Mo50  1  0.50000000  0.30723400  0.00000000  1
  Mo  Mo51  1  0.25000000  0.75000000  0.94276600  1
  Mo  Mo52  1  0.05723400  0.75000000  0.75000000  1
  Mo  Mo53  1  0.50000000  0.69276600  0.00000000  1
  Mo  Mo54  1  0.50000000  0.50000000  0.80723400  1
  Mo  Mo55  1  0.30723400  0.50000000  0.00000000  1
  Mo  Mo56  1  0.25000000  0.55723400  0.75000000  1
  Mo  Mo57  1  0.69276600  0.50000000  0.00000000  1
  Mo  Mo58  1  0.37500000  0.37500000  0.62500000  1
  Mo  Mo59  1  0.25000000  0.94276600  0.75000000  1
  Mo  Mo60  1  0.25000000  0.75000000  0.55723400  1
  Mo  Mo61  1  0.00000000  0.50000000  0.69276600  1
  Mo  Mo62  1  0.37500000  0.12500000  0.87500000  1
  Mo  Mo63  1  0.12500000  0.12500000  0.62500000  1
  Mo  Mo64  1  0.94276600  0.25000000  0.75000000  1
  Mo  Mo65  1  0.62500000  0.87500000  0.87500000  1
  Mo  Mo66  1  0.00000000  0.80723400  0.00000000  1
  Mo  Mo67  1  0.75000000  0.25000000  0.94276600  1
  Mo  Mo68  1  0.55723400  0.25000000  0.75000000  1
  Mo  Mo69  1  0.00000000  0.19276600  0.00000000  1
  Mo  Mo70  1  0.00000000  0.00000000  0.80723400  1
  Mo  Mo71  1  0.80723400  0.00000000  0.00000000  1
  Mo  Mo72  1  0.75000000  0.05723400  0.75000000  1
  Mo  Mo73  1  0.19276600  0.00000000  0.00000000  1
  Mo  Mo74  1  0.87500000  0.87500000  0.62500000  1
  Mo  Mo75  1  0.75000000  0.44276600  0.75000000  1
  Mo  Mo76  1  0.75000000  0.25000000  0.55723400  1
  Mo  Mo77  1  0.50000000  0.00000000  0.69276600  1
  Mo  Mo78  1  0.87500000  0.62500000  0.87500000  1
  Mo  Mo79  1  0.62500000  0.62500000  0.62500000  1
  Mo  Mo80  1  0.94276600  0.75000000  0.25000000  1
  Mo  Mo81  1  0.62500000  0.37500000  0.37500000  1
  Mo  Mo82  1  0.00000000  0.30723400  0.50000000  1
  Mo  Mo83  1  0.75000000  0.75000000  0.44276600  1
  Mo  Mo84  1  0.55723400  0.75000000  0.25000000  1
  Mo  Mo85  1  0.00000000  0.69276600  0.50000000  1
  Mo  Mo86  1  0.00000000  0.50000000  0.30723400  1
  Mo  Mo87  1  0.80723400  0.50000000  0.50000000  1
  Mo  Mo88  1  0.75000000  0.55723400  0.25000000  1
  Mo  Mo89  1  0.19276600  0.50000000  0.50000000  1
  Mo  Mo90  1  0.87500000  0.37500000  0.12500000  1
  Mo  Mo91  1  0.75000000  0.94276600  0.25000000  1
  Mo  Mo92  1  0.75000000  0.75000000  0.05723400  1
  Mo  Mo93  1  0.50000000  0.50000000  0.19276600  1
  Mo  Mo94  1  0.87500000  0.12500000  0.37500000  1
  Mo  Mo95  1  0.62500000  0.12500000  0.12500000  1
  N  N96  1  0.12500000  0.12500000  0.12500000  1
  N  N97  1  0.62500000  0.87500000  0.37500000  1
  N  N98  1  0.37500000  0.12500000  0.37500000  1
  N  N99  1  0.87500000  0.87500000  0.12500000  1
  N  N100  1  0.12500000  0.62500000  0.62500000  1
  N  N101  1  0.62500000  0.37500000  0.87500000  1
  N  N102  1  0.37500000  0.62500000  0.87500000  1
  N  N103  1  0.87500000  0.37500000  0.62500000  1
  N  N104  1  0.62500000  0.12500000  0.62500000  1
  N  N105  1  0.12500000  0.87500000  0.87500000  1
  N  N106  1  0.87500000  0.12500000  0.87500000  1
  N  N107  1  0.37500000  0.87500000  0.62500000  1
  N  N108  1  0.62500000  0.62500000  0.12500000  1
  N  N109  1  0.12500000  0.37500000  0.37500000  1
  N  N110  1  0.87500000  0.62500000  0.37500000  1
  N  N111  1  0.37500000  0.37500000  0.12500000  1
