# generated using pymatgen
data_U5O11
_symmetry_space_group_name_H-M   'P 1'
_cell_length_a   6.62741000
_cell_length_b   3.85523800
_cell_length_c   15.72824411
_cell_angle_alpha   90.00000000
_cell_angle_beta   98.12021248
_cell_angle_gamma   90.00000000
_symmetry_Int_Tables_number   1
_chemical_formula_structural   U5O11
_chemical_formula_sum   'U10 O22'
_cell_volume   397.83135973
_cell_formula_units_Z   2
loop_
 _symmetry_equiv_pos_site_id
 _symmetry_equiv_pos_as_xyz
  1  'x, y, z'
loop_
 _atom_site_type_symbol
 _atom_site_label
 _atom_site_symmetry_multiplicity
 _atom_site_fract_x
 _atom_site_fract_y
 _atom_site_fract_z
 _atom_site_occupancy
  U  U0  1  0.79740300  0.50000000  0.41031100  1
  U  U1  1  0.89558300  0.00000000  0.20125100  1
  U  U2  1  0.50000000  0.00000000  0.00000000  1
  U  U3  1  0.60441700  0.50000000  0.79874900  1
  U  U4  1  0.70259700  0.00000000  0.58968900  1
  U  U5  1  0.29740300  0.00000000  0.41031100  1
  U  U6  1  0.39558300  0.50000000  0.20125100  1
  U  U7  1  0.00000000  0.50000000  0.00000000  1
  U  U8  1  0.10441700  0.00000000  0.79874900  1
  U  U9  1  0.20259700  0.50000000  0.58968900  1
  O  O10  1  0.93803100  0.00000000  0.33642300  1
  O  O11  1  0.74237800  0.50000000  0.24431600  1
  O  O12  1  0.54518300  0.00000000  0.14826500  1
  O  O13  1  0.84883900  0.00000000  0.04907000  1
  O  O14  1  0.75762200  0.00000000  0.75568400  1
  O  O15  1  0.65116100  0.50000000  0.95093000  1
  O  O16  1  0.95481700  0.50000000  0.85173500  1
  O  O17  1  0.85728200  0.50000000  0.56713200  1
  O  O18  1  0.56196900  0.50000000  0.66357700  1
  O  O19  1  0.00000000  0.00000000  0.50000000  1
  O  O20  1  0.64271800  0.00000000  0.43286800  1
  O  O21  1  0.43803100  0.50000000  0.33642300  1
  O  O22  1  0.24237800  0.00000000  0.24431600  1
  O  O23  1  0.04518300  0.50000000  0.14826500  1
  O  O24  1  0.34883900  0.50000000  0.04907000  1
  O  O25  1  0.25762200  0.50000000  0.75568400  1
  O  O26  1  0.15116100  0.00000000  0.95093000  1
  O  O27  1  0.45481700  0.00000000  0.85173500  1
  O  O28  1  0.35728200  0.00000000  0.56713200  1
  O  O29  1  0.06196900  0.00000000  0.66357700  1
  O  O30  1  0.50000000  0.50000000  0.50000000  1
  O  O31  1  0.14271800  0.50000000  0.43286800  1
