# generated using pymatgen
data_Ho6Mn23
_symmetry_space_group_name_H-M   'P 1'
_cell_length_a   12.02961318
_cell_length_b   12.02961318
_cell_length_c   12.02961318
_cell_angle_alpha   90.00000000
_cell_angle_beta   90.00000000
_cell_angle_gamma   90.00000000
_symmetry_Int_Tables_number   1
_chemical_formula_structural   Ho6Mn23
_chemical_formula_sum   'Ho24 Mn92'
_cell_volume   1740.82448881
_cell_formula_units_Z   4
loop_
 _symmetry_equiv_pos_site_id
 _symmetry_equiv_pos_as_xyz
  1  'x, y, z'
loop_
 _atom_site_type_symbol
 _atom_site_label
 _atom_site_symmetry_multiplicity
 _atom_site_fract_x
 _atom_site_fract_y
 _atom_site_fract_z
 _atom_site_occupancy
  Ho  Ho0  1  0.00000000  0.20433200  0.00000000  1
  Ho  Ho1  1  0.29566800  0.50000000  0.00000000  1
  Ho  Ho2  1  0.00000000  0.79566800  0.00000000  1
  Ho  Ho3  1  0.00000000  0.50000000  0.29566800  1
  Ho  Ho4  1  0.20433200  0.50000000  0.50000000  1
  Ho  Ho5  1  0.00000000  0.50000000  0.70433200  1
  Ho  Ho6  1  0.00000000  0.70433200  0.50000000  1
  Ho  Ho7  1  0.29566800  0.00000000  0.50000000  1
  Ho  Ho8  1  0.00000000  0.29566800  0.50000000  1
  Ho  Ho9  1  0.00000000  0.00000000  0.79566800  1
  Ho  Ho10  1  0.20433200  0.00000000  0.00000000  1
  Ho  Ho11  1  0.00000000  0.00000000  0.20433200  1
  Ho  Ho12  1  0.50000000  0.20433200  0.50000000  1
  Ho  Ho13  1  0.79566800  0.50000000  0.50000000  1
  Ho  Ho14  1  0.50000000  0.79566800  0.50000000  1
  Ho  Ho15  1  0.50000000  0.50000000  0.79566800  1
  Ho  Ho16  1  0.70433200  0.50000000  0.00000000  1
  Ho  Ho17  1  0.50000000  0.50000000  0.20433200  1
  Ho  Ho18  1  0.50000000  0.70433200  0.00000000  1
  Ho  Ho19  1  0.79566800  0.00000000  0.00000000  1
  Ho  Ho20  1  0.50000000  0.29566800  0.00000000  1
  Ho  Ho21  1  0.50000000  0.00000000  0.29566800  1
  Ho  Ho22  1  0.70433200  0.00000000  0.50000000  1
  Ho  Ho23  1  0.50000000  0.00000000  0.70433200  1
  Mn  Mn24  1  0.17709333  0.17709333  0.82290667  1
  Mn  Mn25  1  0.32290667  0.82290667  0.67709333  1
  Mn  Mn26  1  0.00000000  0.75000000  0.75000000  1
  Mn  Mn27  1  0.37817900  0.37817900  0.37817900  1
  Mn  Mn28  1  0.17709333  0.32290667  0.67709333  1
  Mn  Mn29  1  0.37817900  0.62182100  0.37817900  1
  Mn  Mn30  1  0.17709333  0.82290667  0.82290667  1
  Mn  Mn31  1  0.32290667  0.32290667  0.82290667  1
  Mn  Mn32  1  0.37817900  0.37817900  0.62182100  1
  Mn  Mn33  1  0.25000000  0.00000000  0.75000000  1
  Mn  Mn34  1  0.32290667  0.67709333  0.82290667  1
  Mn  Mn35  1  0.12182100  0.37817900  0.12182100  1
  Mn  Mn36  1  0.17709333  0.67709333  0.67709333  1
  Mn  Mn37  1  0.25000000  0.75000000  0.50000000  1
  Mn  Mn38  1  0.25000000  0.50000000  0.75000000  1
  Mn  Mn39  1  0.12182100  0.37817900  0.87817900  1
  Mn  Mn40  1  0.32290667  0.17709333  0.67709333  1
  Mn  Mn41  1  0.12182100  0.62182100  0.12182100  1
  Mn  Mn42  1  0.12182100  0.62182100  0.87817900  1
  Mn  Mn43  1  0.37817900  0.62182100  0.62182100  1
  Mn  Mn44  1  0.25000000  0.75000000  0.00000000  1
  Mn  Mn45  1  0.00000000  0.50000000  0.00000000  1
  Mn  Mn46  1  0.00000000  0.75000000  0.25000000  1
  Mn  Mn47  1  0.17709333  0.67709333  0.32290667  1
  Mn  Mn48  1  0.32290667  0.32290667  0.17709333  1
  Mn  Mn49  1  0.00000000  0.25000000  0.25000000  1
  Mn  Mn50  1  0.37817900  0.87817900  0.87817900  1
  Mn  Mn51  1  0.17709333  0.82290667  0.17709333  1
  Mn  Mn52  1  0.37817900  0.12182100  0.87817900  1
  Mn  Mn53  1  0.17709333  0.32290667  0.32290667  1
  Mn  Mn54  1  0.32290667  0.82290667  0.32290667  1
  Mn  Mn55  1  0.37817900  0.87817900  0.12182100  1
  Mn  Mn56  1  0.25000000  0.50000000  0.25000000  1
  Mn  Mn57  1  0.32290667  0.17709333  0.32290667  1
  Mn  Mn58  1  0.12182100  0.87817900  0.62182100  1
  Mn  Mn59  1  0.17709333  0.17709333  0.17709333  1
  Mn  Mn60  1  0.25000000  0.25000000  0.00000000  1
  Mn  Mn61  1  0.25000000  0.00000000  0.25000000  1
  Mn  Mn62  1  0.12182100  0.87817900  0.37817900  1
  Mn  Mn63  1  0.32290667  0.67709333  0.17709333  1
  Mn  Mn64  1  0.12182100  0.12182100  0.62182100  1
  Mn  Mn65  1  0.12182100  0.12182100  0.37817900  1
  Mn  Mn66  1  0.37817900  0.12182100  0.12182100  1
  Mn  Mn67  1  0.25000000  0.25000000  0.50000000  1
  Mn  Mn68  1  0.00000000  0.00000000  0.50000000  1
  Mn  Mn69  1  0.00000000  0.25000000  0.75000000  1
  Mn  Mn70  1  0.67709333  0.17709333  0.32290667  1
  Mn  Mn71  1  0.82290667  0.82290667  0.17709333  1
  Mn  Mn72  1  0.50000000  0.75000000  0.25000000  1
  Mn  Mn73  1  0.87817900  0.37817900  0.87817900  1
  Mn  Mn74  1  0.67709333  0.32290667  0.17709333  1
  Mn  Mn75  1  0.87817900  0.62182100  0.87817900  1
  Mn  Mn76  1  0.67709333  0.82290667  0.32290667  1
  Mn  Mn77  1  0.82290667  0.32290667  0.32290667  1
  Mn  Mn78  1  0.87817900  0.37817900  0.12182100  1
  Mn  Mn79  1  0.75000000  0.00000000  0.25000000  1
  Mn  Mn80  1  0.82290667  0.67709333  0.32290667  1
  Mn  Mn81  1  0.62182100  0.37817900  0.62182100  1
  Mn  Mn82  1  0.67709333  0.67709333  0.17709333  1
  Mn  Mn83  1  0.75000000  0.75000000  0.00000000  1
  Mn  Mn84  1  0.75000000  0.50000000  0.25000000  1
  Mn  Mn85  1  0.62182100  0.37817900  0.37817900  1
  Mn  Mn86  1  0.82290667  0.17709333  0.17709333  1
  Mn  Mn87  1  0.62182100  0.62182100  0.62182100  1
  Mn  Mn88  1  0.62182100  0.62182100  0.37817900  1
  Mn  Mn89  1  0.87817900  0.62182100  0.12182100  1
  Mn  Mn90  1  0.75000000  0.75000000  0.50000000  1
  Mn  Mn91  1  0.50000000  0.50000000  0.50000000  1
  Mn  Mn92  1  0.50000000  0.75000000  0.75000000  1
  Mn  Mn93  1  0.67709333  0.67709333  0.82290667  1
  Mn  Mn94  1  0.82290667  0.32290667  0.67709333  1
  Mn  Mn95  1  0.50000000  0.25000000  0.75000000  1
  Mn  Mn96  1  0.87817900  0.87817900  0.37817900  1
  Mn  Mn97  1  0.67709333  0.82290667  0.67709333  1
  Mn  Mn98  1  0.87817900  0.12182100  0.37817900  1
  Mn  Mn99  1  0.67709333  0.32290667  0.82290667  1
  Mn  Mn100  1  0.82290667  0.82290667  0.82290667  1
  Mn  Mn101  1  0.87817900  0.87817900  0.62182100  1
  Mn  Mn102  1  0.75000000  0.50000000  0.75000000  1
  Mn  Mn103  1  0.82290667  0.17709333  0.82290667  1
  Mn  Mn104  1  0.62182100  0.87817900  0.12182100  1
  Mn  Mn105  1  0.67709333  0.17709333  0.67709333  1
  Mn  Mn106  1  0.75000000  0.25000000  0.50000000  1
  Mn  Mn107  1  0.75000000  0.00000000  0.75000000  1
  Mn  Mn108  1  0.62182100  0.87817900  0.87817900  1
  Mn  Mn109  1  0.82290667  0.67709333  0.67709333  1
  Mn  Mn110  1  0.62182100  0.12182100  0.12182100  1
  Mn  Mn111  1  0.62182100  0.12182100  0.87817900  1
  Mn  Mn112  1  0.87817900  0.12182100  0.62182100  1
  Mn  Mn113  1  0.75000000  0.25000000  0.00000000  1
  Mn  Mn114  1  0.50000000  0.00000000  0.00000000  1
  Mn  Mn115  1  0.50000000  0.25000000  0.25000000  1
