# generated using pymatgen
data_K(OsO3)2
_symmetry_space_group_name_H-M   'P 1'
_cell_length_a   7.21725202
_cell_length_b   7.21725202
_cell_length_c   17.72307684
_cell_angle_alpha   90.00000000
_cell_angle_beta   90.00000000
_cell_angle_gamma   120.00000000
_symmetry_Int_Tables_number   1
_chemical_formula_structural   K(OsO3)2
_chemical_formula_sum   'K6 Os12 O36'
_cell_volume   799.49084153
_cell_formula_units_Z   6
loop_
 _symmetry_equiv_pos_site_id
 _symmetry_equiv_pos_as_xyz
  1  'x, y, z'
loop_
 _atom_site_type_symbol
 _atom_site_label
 _atom_site_symmetry_multiplicity
 _atom_site_fract_x
 _atom_site_fract_y
 _atom_site_fract_z
 _atom_site_occupancy
  K  K0  1  0.00000000  0.00000000  0.26682100  1
  K  K1  1  0.33333333  0.66666667  0.16748367  1
  K  K2  1  0.66666667  0.33333333  0.60015433  1
  K  K3  1  0.00000000  0.00000000  0.50081700  1
  K  K4  1  0.33333333  0.66666667  0.93348767  1
  K  K5  1  0.66666667  0.33333333  0.83415033  1
  Os  Os6  1  0.33310400  0.16655200  0.04228100  1
  Os  Os7  1  0.83344800  0.66689600  0.04228100  1
  Os  Os8  1  0.83344800  0.16655200  0.04228100  1
  Os  Os9  1  0.66666667  0.33333333  0.20889533  1
  Os  Os10  1  0.99977067  0.49988533  0.37561433  1
  Os  Os11  1  0.50011467  0.00022933  0.37561433  1
  Os  Os12  1  0.50011467  0.49988533  0.37561433  1
  Os  Os13  1  0.33333333  0.66666667  0.54222867  1
  Os  Os14  1  0.66643733  0.83321867  0.70894767  1
  Os  Os15  1  0.16678133  0.33356267  0.70894767  1
  Os  Os16  1  0.16678133  0.83321867  0.70894767  1
  Os  Os17  1  0.00000000  0.00000000  0.87556200  1
  O  O18  1  0.12723767  0.25447533  0.06319133  1
  O  O19  1  0.12723767  0.87276233  0.06319133  1
  O  O20  1  0.74552467  0.87276233  0.06319133  1
  O  O21  1  0.92211800  0.46105900  0.26947900  1
  O  O22  1  0.53891767  0.07783533  0.01948733  1
  O  O23  1  0.53891767  0.46108233  0.01948733  1
  O  O24  1  0.53894100  0.07788200  0.26947900  1
  O  O25  1  0.53894100  0.46105900  0.26947900  1
  O  O26  1  0.41383667  0.20691833  0.14709333  1
  O  O27  1  0.92216467  0.46108233  0.01948733  1
  O  O28  1  0.79308167  0.58616333  0.14709333  1
  O  O29  1  0.79308167  0.20691833  0.14709333  1
  O  O30  1  0.79390433  0.58780867  0.39652467  1
  O  O31  1  0.79390433  0.20609567  0.39652467  1
  O  O32  1  0.41219133  0.20609567  0.39652467  1
  O  O33  1  0.58878467  0.79439233  0.60281233  1
  O  O34  1  0.20558433  0.41116867  0.35282067  1
  O  O35  1  0.20558433  0.79441567  0.35282067  1
  O  O36  1  0.20560767  0.41121533  0.60281233  1
  O  O37  1  0.20560767  0.79439233  0.60281233  1
  O  O38  1  0.08050333  0.54025167  0.48042667  1
  O  O39  1  0.58883133  0.79441567  0.35282067  1
  O  O40  1  0.45974833  0.91949667  0.48042667  1
  O  O41  1  0.45974833  0.54025167  0.48042667  1
  O  O42  1  0.46057100  0.92114200  0.72985800  1
  O  O43  1  0.46057100  0.53942900  0.72985800  1
  O  O44  1  0.07885800  0.53942900  0.72985800  1
  O  O45  1  0.25545133  0.12772567  0.93614567  1
  O  O46  1  0.87225100  0.74450200  0.68615400  1
  O  O47  1  0.87225100  0.12774900  0.68615400  1
  O  O48  1  0.87227433  0.74454867  0.93614567  1
  O  O49  1  0.87227433  0.12772567  0.93614567  1
  O  O50  1  0.74717000  0.87358500  0.81376000  1
  O  O51  1  0.25549800  0.12774900  0.68615400  1
  O  O52  1  0.12641500  0.25283000  0.81376000  1
  O  O53  1  0.12641500  0.87358500  0.81376000  1
