# generated using pymatgen
data_Gd2Al6Si4Au
_symmetry_space_group_name_H-M   'P 1'
_cell_length_a   4.23542764
_cell_length_b   4.23542764
_cell_length_c   50.28419941
_cell_angle_alpha   90.00000000
_cell_angle_beta   90.00000000
_cell_angle_gamma   120.00000000
_symmetry_Int_Tables_number   1
_chemical_formula_structural   Gd2Al6Si4Au
_chemical_formula_sum   'Gd6 Al18 Si12 Au3'
_cell_volume   781.19005464
_cell_formula_units_Z   3
loop_
 _symmetry_equiv_pos_site_id
 _symmetry_equiv_pos_as_xyz
  1  'x, y, z'
loop_
 _atom_site_type_symbol
 _atom_site_label
 _atom_site_symmetry_multiplicity
 _atom_site_fract_x
 _atom_site_fract_y
 _atom_site_fract_z
 _atom_site_occupancy
  Gd  Gd0  1  0.33333333  0.66666667  0.23228267  1
  Gd  Gd1  1  0.33333333  0.66666667  0.10105067  1
  Gd  Gd2  1  0.00000000  0.00000000  0.56561600  1
  Gd  Gd3  1  0.00000000  0.00000000  0.43438400  1
  Gd  Gd4  1  0.66666667  0.33333333  0.89894933  1
  Gd  Gd5  1  0.66666667  0.33333333  0.76771733  1
  Al  Al6  1  0.00000000  0.00000000  0.18540800  1
  Al  Al7  1  0.00000000  0.00000000  0.05240800  1
  Al  Al8  1  0.66666667  0.33333333  0.14792533  1
  Al  Al9  1  0.66666667  0.33333333  0.28092533  1
  Al  Al10  1  0.66666667  0.33333333  0.01663933  1
  Al  Al11  1  0.00000000  0.00000000  0.31669400  1
  Al  Al12  1  0.66666667  0.33333333  0.51874133  1
  Al  Al13  1  0.66666667  0.33333333  0.38574133  1
  Al  Al14  1  0.33333333  0.66666667  0.48125867  1
  Al  Al15  1  0.33333333  0.66666667  0.61425867  1
  Al  Al16  1  0.33333333  0.66666667  0.34997267  1
  Al  Al17  1  0.66666667  0.33333333  0.65002733  1
  Al  Al18  1  0.33333333  0.66666667  0.85207467  1
  Al  Al19  1  0.33333333  0.66666667  0.71907467  1
  Al  Al20  1  0.00000000  0.00000000  0.81459200  1
  Al  Al21  1  0.00000000  0.00000000  0.94759200  1
  Al  Al22  1  0.00000000  0.00000000  0.68330600  1
  Al  Al23  1  0.33333333  0.66666667  0.98336067  1
  Si  Si24  1  0.66666667  0.33333333  0.06720833  1
  Si  Si25  1  0.00000000  0.00000000  0.26612500  1
  Si  Si26  1  0.00000000  0.00000000  0.13543300  1
  Si  Si27  1  0.66666667  0.33333333  0.19790033  1
  Si  Si28  1  0.33333333  0.66666667  0.40054167  1
  Si  Si29  1  0.66666667  0.33333333  0.59945833  1
  Si  Si30  1  0.66666667  0.33333333  0.46876633  1
  Si  Si31  1  0.33333333  0.66666667  0.53123367  1
  Si  Si32  1  0.00000000  0.00000000  0.73387500  1
  Si  Si33  1  0.33333333  0.66666667  0.93279167  1
  Si  Si34  1  0.33333333  0.66666667  0.80209967  1
  Si  Si35  1  0.00000000  0.00000000  0.86456700  1
  Au  Au36  1  0.00000000  0.00000000  0.00000000  1
  Au  Au37  1  0.66666667  0.33333333  0.33333333  1
  Au  Au38  1  0.33333333  0.66666667  0.66666667  1
