# generated using pymatgen
data_Sn(PO3)3
_symmetry_space_group_name_H-M   'P 1'
_cell_length_a   6.72517714
_cell_length_b   6.72517714
_cell_length_c   10.29463500
_cell_angle_alpha   90.00000000
_cell_angle_beta   90.00000000
_cell_angle_gamma   120.00000000
_symmetry_Int_Tables_number   1
_chemical_formula_structural   Sn(PO3)3
_chemical_formula_sum   'Sn2 P6 O18'
_cell_volume   403.22647664
_cell_formula_units_Z   2
loop_
 _symmetry_equiv_pos_site_id
 _symmetry_equiv_pos_as_xyz
  1  'x, y, z'
loop_
 _atom_site_type_symbol
 _atom_site_label
 _atom_site_symmetry_multiplicity
 _atom_site_fract_x
 _atom_site_fract_y
 _atom_site_fract_z
 _atom_site_occupancy
  Sn  Sn0  1  0.66666667  0.33333333  0.00000000  1
  Sn  Sn1  1  0.66666667  0.33333333  0.50000000  1
  P  P2  1  0.56811767  0.94124333  0.25000000  1
  P  P3  1  0.05875667  0.43188233  0.75000000  1
  P  P4  1  0.56811767  0.62687433  0.75000000  1
  P  P5  1  0.37312567  0.43188233  0.25000000  1
  P  P6  1  0.37312567  0.94124333  0.75000000  1
  P  P7  1  0.05875667  0.62687433  0.25000000  1
  O  O8  1  0.29917767  0.86444533  0.25000000  1
  O  O9  1  0.93415367  0.60996933  0.37506000  1
  O  O10  1  0.93415367  0.32418433  0.87506000  1
  O  O11  1  0.67581567  0.06584633  0.12494000  1
  O  O12  1  0.39003067  0.32418433  0.12494000  1
  O  O13  1  0.56526767  0.70082233  0.25000000  1
  O  O14  1  0.93415367  0.60996933  0.12494000  1
  O  O15  1  0.67581567  0.60996933  0.62494000  1
  O  O16  1  0.39003067  0.32418433  0.37506000  1
  O  O17  1  0.93415367  0.32418433  0.62494000  1
  O  O18  1  0.39003067  0.06584633  0.87506000  1
  O  O19  1  0.13555467  0.70082233  0.75000000  1
  O  O20  1  0.39003067  0.06584633  0.62494000  1
  O  O21  1  0.67581567  0.06584633  0.37506000  1
  O  O22  1  0.29917767  0.43473233  0.75000000  1
  O  O23  1  0.13555467  0.43473233  0.25000000  1
  O  O24  1  0.56526767  0.86444533  0.75000000  1
  O  O25  1  0.67581567  0.60996933  0.87506000  1
