# generated using pymatgen
data_FeHO2
_symmetry_space_group_name_H-M   'P 1'
_cell_length_a   10.62540950
_cell_length_b   10.62540950
_cell_length_c   3.06492200
_cell_angle_alpha   90.00000000
_cell_angle_beta   90.00000000
_cell_angle_gamma   90.00000000
_symmetry_Int_Tables_number   1
_chemical_formula_structural   FeHO2
_chemical_formula_sum   'Fe8 H8 O16'
_cell_volume   346.02763134
_cell_formula_units_Z   8
loop_
 _symmetry_equiv_pos_site_id
 _symmetry_equiv_pos_as_xyz
  1  'x, y, z'
loop_
 _atom_site_type_symbol
 _atom_site_label
 _atom_site_symmetry_multiplicity
 _atom_site_fract_x
 _atom_site_fract_y
 _atom_site_fract_z
 _atom_site_occupancy
  Fe  Fe0  1  0.35260950  0.14744650  0.00000000  1
  Fe  Fe1  1  0.64739050  0.85255350  0.00000000  1
  Fe  Fe2  1  0.35255350  0.85260950  0.50000000  1
  Fe  Fe3  1  0.64744650  0.14739050  0.50000000  1
  Fe  Fe4  1  0.85260950  0.64744650  0.50000000  1
  Fe  Fe5  1  0.14739050  0.35255350  0.50000000  1
  Fe  Fe6  1  0.85255350  0.35260950  0.00000000  1
  Fe  Fe7  1  0.14744650  0.64739050  0.00000000  1
  H  H8  1  0.83719900  0.08158700  0.00000000  1
  H  H9  1  0.16280100  0.91841300  0.00000000  1
  H  H10  1  0.58158700  0.66280100  0.50000000  1
  H  H11  1  0.41841300  0.33719900  0.50000000  1
  H  H12  1  0.33719900  0.58158700  0.50000000  1
  H  H13  1  0.66280100  0.41841300  0.50000000  1
  H  H14  1  0.08158700  0.16280100  0.00000000  1
  H  H15  1  0.91841300  0.83719900  0.00000000  1
  O  O16  1  0.78847600  0.15879500  0.00000000  1
  O  O17  1  0.21152400  0.84120500  0.00000000  1
  O  O18  1  0.65879500  0.71152400  0.50000000  1
  O  O19  1  0.34120500  0.28847600  0.50000000  1
  O  O20  1  0.33079050  0.03349550  0.50000000  1
  O  O21  1  0.66920950  0.96650450  0.50000000  1
  O  O22  1  0.53349550  0.16920950  0.00000000  1
  O  O23  1  0.46650450  0.83079050  0.00000000  1
  O  O24  1  0.28847600  0.65879500  0.50000000  1
  O  O25  1  0.71152400  0.34120500  0.50000000  1
  O  O26  1  0.15879500  0.21152400  0.00000000  1
  O  O27  1  0.84120500  0.78847600  0.00000000  1
  O  O28  1  0.83079050  0.53349550  0.00000000  1
  O  O29  1  0.16920950  0.46650450  0.00000000  1
  O  O30  1  0.03349550  0.66920950  0.50000000  1
  O  O31  1  0.96650450  0.33079050  0.50000000  1
