# generated using pymatgen
data_Cs2MnV2(BrO3)2
_symmetry_space_group_name_H-M   'P 1'
_cell_length_a   5.76260091
_cell_length_b   17.98964539
_cell_length_c   6.03213650
_cell_angle_alpha   90.00000000
_cell_angle_beta   90.00000000
_cell_angle_gamma   90.00000000
_symmetry_Int_Tables_number   1
_chemical_formula_structural   Cs2MnV2(BrO3)2
_chemical_formula_sum   'Cs4 Mn2 V4 Br4 O12'
_cell_volume   625.33438065
_cell_formula_units_Z   2
loop_
 _symmetry_equiv_pos_site_id
 _symmetry_equiv_pos_as_xyz
  1  'x, y, z'
loop_
 _atom_site_type_symbol
 _atom_site_label
 _atom_site_symmetry_multiplicity
 _atom_site_fract_x
 _atom_site_fract_y
 _atom_site_fract_z
 _atom_site_occupancy
  Cs  Cs0  1  0.00000000  0.63340600  0.05567600  1
  Cs  Cs1  1  0.50000000  0.86659400  0.05567600  1
  Cs  Cs2  1  0.50000000  0.13340600  0.05567600  1
  Cs  Cs3  1  0.00000000  0.36659400  0.05567600  1
  Mn  Mn4  1  0.50000000  0.50000000  0.54413200  1
  Mn  Mn5  1  0.00000000  0.00000000  0.54413200  1
  V  V6  1  0.00000000  0.80031375  0.54832100  1
  V  V7  1  0.50000000  0.69968625  0.54832100  1
  V  V8  1  0.50000000  0.30031375  0.54832100  1
  V  V9  1  0.00000000  0.19968625  0.54832100  1
  Br  Br10  1  0.50000000  0.00000000  0.52731700  1
  Br  Br11  1  0.00000000  0.00000000  0.97508800  1
  Br  Br12  1  0.00000000  0.50000000  0.52731700  1
  Br  Br13  1  0.50000000  0.50000000  0.97508800  1
  O  O14  1  0.75000000  0.75000000  0.43983300  1
  O  O15  1  0.25000000  0.75000000  0.43983300  1
  O  O16  1  0.00000000  0.88969775  0.45415800  1
  O  O17  1  0.50000000  0.61030225  0.45415800  1
  O  O18  1  0.00000000  0.79796700  0.82223300  1
  O  O19  1  0.50000000  0.70203300  0.82223300  1
  O  O20  1  0.25000000  0.25000000  0.43983300  1
  O  O21  1  0.75000000  0.25000000  0.43983300  1
  O  O22  1  0.50000000  0.38969775  0.45415800  1
  O  O23  1  0.00000000  0.11030225  0.45415800  1
  O  O24  1  0.50000000  0.29796700  0.82223300  1
  O  O25  1  0.00000000  0.20203300  0.82223300  1
