# generated using pymatgen
data_LiFe2(PO4)3
_symmetry_space_group_name_H-M   'P 1'
_cell_length_a   11.72493773
_cell_length_b   12.87434449
_cell_length_c   6.40962434
_cell_angle_alpha   90.00000000
_cell_angle_beta   112.89252386
_cell_angle_gamma   90.00000000
_symmetry_Int_Tables_number   1
_chemical_formula_structural   LiFe2(PO4)3
_chemical_formula_sum   'Li4 Fe8 P12 O48'
_cell_volume   891.33144793
_cell_formula_units_Z   4
loop_
 _symmetry_equiv_pos_site_id
 _symmetry_equiv_pos_as_xyz
  1  'x, y, z'
loop_
 _atom_site_type_symbol
 _atom_site_label
 _atom_site_symmetry_multiplicity
 _atom_site_fract_x
 _atom_site_fract_y
 _atom_site_fract_z
 _atom_site_occupancy
  Li  Li0  1  0.50000000  0.78462600  0.75000000  1
  Li  Li1  1  0.50000000  0.21537400  0.25000000  1
  Li  Li2  1  0.00000000  0.28462600  0.75000000  1
  Li  Li3  1  0.00000000  0.71537400  0.25000000  1
  Fe  Fe4  1  0.78965650  0.85121650  0.38012100  1
  Fe  Fe5  1  0.78965650  0.14878350  0.88012100  1
  Fe  Fe6  1  0.21034350  0.85121650  0.11987900  1
  Fe  Fe7  1  0.21034350  0.14878350  0.61987900  1
  Fe  Fe8  1  0.28965650  0.35121650  0.38012100  1
  Fe  Fe9  1  0.28965650  0.64878350  0.88012100  1
  Fe  Fe10  1  0.71034350  0.35121650  0.11987900  1
  Fe  Fe11  1  0.71034350  0.64878350  0.61987900  1
  P  P12  1  0.23466000  0.10437900  0.12021700  1
  P  P13  1  0.23466000  0.89562100  0.62021700  1
  P  P14  1  0.76534000  0.89562100  0.87978300  1
  P  P15  1  0.50000000  0.79012500  0.25000000  1
  P  P16  1  0.50000000  0.20987500  0.75000000  1
  P  P17  1  0.76534000  0.10437900  0.37978300  1
  P  P18  1  0.73466000  0.60437900  0.12021700  1
  P  P19  1  0.73466000  0.39562100  0.62021700  1
  P  P20  1  0.26534000  0.39562100  0.87978300  1
  P  P21  1  0.00000000  0.29012500  0.25000000  1
  P  P22  1  0.00000000  0.70987500  0.75000000  1
  P  P23  1  0.26534000  0.60437900  0.37978300  1
  O  O24  1  0.77511700  0.83098200  0.68124800  1
  O  O25  1  0.39389900  0.85837900  0.26433200  1
  O  O26  1  0.17307850  0.00262750  0.60446100  1
  O  O27  1  0.62615600  0.90204300  0.83577200  1
  O  O28  1  0.37384400  0.90204300  0.66422800  1
  O  O29  1  0.17307850  0.99737250  0.10446100  1
  O  O30  1  0.82858800  0.16391600  0.60527100  1
  O  O31  1  0.17141200  0.83608400  0.39472900  1
  O  O32  1  0.62615600  0.09795700  0.33577200  1
  O  O33  1  0.77511700  0.16901800  0.18124800  1
  O  O34  1  0.22488300  0.16901800  0.31875200  1
  O  O35  1  0.22488300  0.83098200  0.81875200  1
  O  O36  1  0.45180350  0.72320050  0.03083000  1
  O  O37  1  0.82858800  0.83608400  0.10527100  1
  O  O38  1  0.60610100  0.14162100  0.73566800  1
  O  O39  1  0.54819650  0.72320050  0.46917000  1
  O  O40  1  0.39389900  0.14162100  0.76433200  1
  O  O41  1  0.60610100  0.85837900  0.23566800  1
  O  O42  1  0.17141200  0.16391600  0.89472900  1
  O  O43  1  0.45180350  0.27679950  0.53083000  1
  O  O44  1  0.82692150  0.00262750  0.89553900  1
  O  O45  1  0.54819650  0.27679950  0.96917000  1
  O  O46  1  0.82692150  0.99737250  0.39553900  1
  O  O47  1  0.37384400  0.09795700  0.16422800  1
  O  O48  1  0.27511700  0.33098200  0.68124800  1
  O  O49  1  0.89389900  0.35837900  0.26433200  1
  O  O50  1  0.67307850  0.50262750  0.60446100  1
  O  O51  1  0.12615600  0.40204300  0.83577200  1
  O  O52  1  0.87384400  0.40204300  0.66422800  1
  O  O53  1  0.67307850  0.49737250  0.10446100  1
  O  O54  1  0.32858800  0.66391600  0.60527100  1
  O  O55  1  0.67141200  0.33608400  0.39472900  1
  O  O56  1  0.12615600  0.59795700  0.33577200  1
  O  O57  1  0.27511700  0.66901800  0.18124800  1
  O  O58  1  0.72488300  0.66901800  0.31875200  1
  O  O59  1  0.72488300  0.33098200  0.81875200  1
  O  O60  1  0.95180350  0.22320050  0.03083000  1
  O  O61  1  0.32858800  0.33608400  0.10527100  1
  O  O62  1  0.10610100  0.64162100  0.73566800  1
  O  O63  1  0.04819650  0.22320050  0.46917000  1
  O  O64  1  0.89389900  0.64162100  0.76433200  1
  O  O65  1  0.10610100  0.35837900  0.23566800  1
  O  O66  1  0.67141200  0.66391600  0.89472900  1
  O  O67  1  0.95180350  0.77679950  0.53083000  1
  O  O68  1  0.32692150  0.50262750  0.89553900  1
  O  O69  1  0.04819650  0.77679950  0.96917000  1
  O  O70  1  0.32692150  0.49737250  0.39553900  1
  O  O71  1  0.87384400  0.59795700  0.16422800  1
