# generated using pymatgen
data_Li2VCl4
_symmetry_space_group_name_H-M   'P 1'
_cell_length_a   7.38953400
_cell_length_b   7.43217000
_cell_length_c   10.45560200
_cell_angle_alpha   90.00000000
_cell_angle_beta   90.00000000
_cell_angle_gamma   90.00000000
_symmetry_Int_Tables_number   1
_chemical_formula_structural   Li2VCl4
_chemical_formula_sum   'Li8 V4 Cl16'
_cell_volume   574.22451527
_cell_formula_units_Z   4
loop_
 _symmetry_equiv_pos_site_id
 _symmetry_equiv_pos_as_xyz
  1  'x, y, z'
loop_
 _atom_site_type_symbol
 _atom_site_label
 _atom_site_symmetry_multiplicity
 _atom_site_fract_x
 _atom_site_fract_y
 _atom_site_fract_z
 _atom_site_occupancy
  Li  Li0  1  0.50000000  0.25000000  0.63408700  1
  Li  Li1  1  0.50000000  0.75000000  0.36591300  1
  Li  Li2  1  0.25000000  0.25000000  0.25000000  1
  Li  Li3  1  0.75000000  0.25000000  0.25000000  1
  Li  Li4  1  0.00000000  0.75000000  0.13408700  1
  Li  Li5  1  0.00000000  0.25000000  0.86591300  1
  Li  Li6  1  0.75000000  0.75000000  0.75000000  1
  Li  Li7  1  0.25000000  0.75000000  0.75000000  1
  V  V8  1  0.00000000  0.00000000  0.50000000  1
  V  V9  1  0.50000000  0.00000000  0.00000000  1
  V  V10  1  0.50000000  0.50000000  0.00000000  1
  V  V11  1  0.00000000  0.50000000  0.50000000  1
  Cl  Cl12  1  0.77068300  0.75000000  0.50348200  1
  Cl  Cl13  1  0.22931700  0.75000000  0.50348200  1
  Cl  Cl14  1  0.00000000  0.98742600  0.73793700  1
  Cl  Cl15  1  0.50000000  0.01257400  0.23793700  1
  Cl  Cl16  1  0.50000000  0.98742600  0.76206300  1
  Cl  Cl17  1  0.77068300  0.25000000  0.49651800  1
  Cl  Cl18  1  0.00000000  0.01257400  0.26206300  1
  Cl  Cl19  1  0.22931700  0.25000000  0.49651800  1
  Cl  Cl20  1  0.27068300  0.25000000  0.00348200  1
  Cl  Cl21  1  0.72931700  0.25000000  0.00348200  1
  Cl  Cl22  1  0.50000000  0.48742600  0.23793700  1
  Cl  Cl23  1  0.00000000  0.51257400  0.73793700  1
  Cl  Cl24  1  0.00000000  0.48742600  0.26206300  1
  Cl  Cl25  1  0.27068300  0.75000000  0.99651800  1
  Cl  Cl26  1  0.50000000  0.51257400  0.76206300  1
  Cl  Cl27  1  0.72931700  0.75000000  0.99651800  1
