# generated using pymatgen
data_TlAs3PbS6
_symmetry_space_group_name_H-M   'P 1'
_cell_length_a   6.02121400
_cell_length_b   15.69333400
_cell_length_c   48.35676800
_cell_angle_alpha   90.00000000
_cell_angle_beta   90.00000000
_cell_angle_gamma   90.00000000
_symmetry_Int_Tables_number   1
_chemical_formula_structural   TlAs3PbS6
_chemical_formula_sum   'Tl16 As48 Pb16 S96'
_cell_volume   4569.37232553
_cell_formula_units_Z   16
loop_
 _symmetry_equiv_pos_site_id
 _symmetry_equiv_pos_as_xyz
  1  'x, y, z'
loop_
 _atom_site_type_symbol
 _atom_site_label
 _atom_site_symmetry_multiplicity
 _atom_site_fract_x
 _atom_site_fract_y
 _atom_site_fract_z
 _atom_site_occupancy
  Tl  Tl0  1  0.69118700  0.54589500  0.21911000  1
  Tl  Tl1  1  0.69118700  0.95410500  0.28089000  1
  Tl  Tl2  1  0.94118700  0.79589500  0.03089000  1
  Tl  Tl3  1  0.94118700  0.70410500  0.46911000  1
  Tl  Tl4  1  0.19118700  0.54589500  0.71911000  1
  Tl  Tl5  1  0.19118700  0.95410500  0.78089000  1
  Tl  Tl6  1  0.44118700  0.79589500  0.53089000  1
  Tl  Tl7  1  0.44118700  0.70410500  0.96911000  1
  Tl  Tl8  1  0.19118700  0.04589500  0.21911000  1
  Tl  Tl9  1  0.19118700  0.45410500  0.28089000  1
  Tl  Tl10  1  0.44118700  0.29589500  0.03089000  1
  Tl  Tl11  1  0.44118700  0.20410500  0.46911000  1
  Tl  Tl12  1  0.69118700  0.04589500  0.71911000  1
  Tl  Tl13  1  0.69118700  0.45410500  0.78089000  1
  Tl  Tl14  1  0.94118700  0.29589500  0.53089000  1
  Tl  Tl15  1  0.94118700  0.20410500  0.96911000  1
  As  As16  1  0.86938300  0.51143550  0.03389650  1
  As  As17  1  0.26269250  0.55297050  0.16698400  1
  As  As18  1  0.55001400  0.65287450  0.32617350  1
  As  As19  1  0.11938300  0.76143550  0.21610350  1
  As  As20  1  0.51269250  0.80297050  0.08301600  1
  As  As21  1  0.11938300  0.73856450  0.28389650  1
  As  As22  1  0.55001400  0.84712550  0.17382650  1
  As  As23  1  0.26269250  0.94702950  0.33301600  1
  As  As24  1  0.86938300  0.98856450  0.46610350  1
  As  As25  1  0.30001400  0.59712550  0.07617350  1
  As  As26  1  0.51269250  0.69702950  0.41698400  1
  As  As27  1  0.30001400  0.90287450  0.42382650  1
  As  As28  1  0.36938300  0.51143550  0.53389650  1
  As  As29  1  0.76269250  0.55297050  0.66698400  1
  As  As30  1  0.05001400  0.65287450  0.82617350  1
  As  As31  1  0.61938300  0.76143550  0.71610350  1
  As  As32  1  0.01269250  0.80297050  0.58301600  1
  As  As33  1  0.61938300  0.73856450  0.78389650  1
  As  As34  1  0.05001400  0.84712550  0.67382650  1
  As  As35  1  0.76269250  0.94702950  0.83301600  1
  As  As36  1  0.36938300  0.98856450  0.96610350  1
  As  As37  1  0.80001400  0.59712550  0.57617350  1
  As  As38  1  0.01269250  0.69702950  0.91698400  1
  As  As39  1  0.80001400  0.90287450  0.92382650  1
  As  As40  1  0.36938300  0.01143550  0.03389650  1
  As  As41  1  0.76269250  0.05297050  0.16698400  1
  As  As42  1  0.05001400  0.15287450  0.32617350  1
  As  As43  1  0.61938300  0.26143550  0.21610350  1
  As  As44  1  0.01269250  0.30297050  0.08301600  1
  As  As45  1  0.61938300  0.23856450  0.28389650  1
  As  As46  1  0.05001400  0.34712550  0.17382650  1
  As  As47  1  0.76269250  0.44702950  0.33301600  1
  As  As48  1  0.36938300  0.48856450  0.46610350  1
  As  As49  1  0.80001400  0.09712550  0.07617350  1
  As  As50  1  0.01269250  0.19702950  0.41698400  1
  As  As51  1  0.80001400  0.40287450  0.42382650  1
  As  As52  1  0.86938300  0.01143550  0.53389650  1
  As  As53  1  0.26269250  0.05297050  0.66698400  1
  As  As54  1  0.55001400  0.15287450  0.82617350  1
  As  As55  1  0.11938300  0.26143550  0.71610350  1
  As  As56  1  0.51269250  0.30297050  0.58301600  1
  As  As57  1  0.11938300  0.23856450  0.78389650  1
  As  As58  1  0.55001400  0.34712550  0.67382650  1
  As  As59  1  0.26269250  0.44702950  0.83301600  1
  As  As60  1  0.86938300  0.48856450  0.96610350  1
  As  As61  1  0.30001400  0.09712550  0.57617350  1
  As  As62  1  0.51269250  0.19702950  0.91698400  1
  As  As63  1  0.30001400  0.40287450  0.92382650  1
  Pb  Pb64  1  0.00579400  0.77430950  0.12772650  1
  Pb  Pb65  1  0.75579400  0.97569050  0.37772650  1
  Pb  Pb66  1  0.75579400  0.52430950  0.12227350  1
  Pb  Pb67  1  0.00579400  0.72569050  0.37227350  1
  Pb  Pb68  1  0.50579400  0.77430950  0.62772650  1
  Pb  Pb69  1  0.25579400  0.97569050  0.87772650  1
  Pb  Pb70  1  0.25579400  0.52430950  0.62227350  1
  Pb  Pb71  1  0.50579400  0.72569050  0.87227350  1
  Pb  Pb72  1  0.50579400  0.27430950  0.12772650  1
  Pb  Pb73  1  0.25579400  0.47569050  0.37772650  1
  Pb  Pb74  1  0.25579400  0.02430950  0.12227350  1
  Pb  Pb75  1  0.50579400  0.22569050  0.37227350  1
  Pb  Pb76  1  0.00579400  0.27430950  0.62772650  1
  Pb  Pb77  1  0.75579400  0.47569050  0.87772650  1
  Pb  Pb78  1  0.75579400  0.02430950  0.62227350  1
  Pb  Pb79  1  0.00579400  0.22569050  0.87227350  1
  S  S80  1  0.67091200  0.54327750  0.29729950  1
  S  S81  1  0.95428550  0.63484950  0.16820000  1
  S  S82  1  0.94626200  0.64132550  0.08089050  1
  S  S83  1  0.42091200  0.79327750  0.45270050  1
  S  S84  1  0.20428550  0.61515050  0.41820000  1
  S  S85  1  0.11308700  0.85549150  0.25439550  1
  S  S86  1  0.67091200  0.95672250  0.20270050  1
  S  S87  1  0.95428550  0.86515050  0.33180000  1
  S  S88  1  0.49201050  0.74805800  0.20944250  1
  S  S89  1  0.44976050  0.77936900  0.37909050  1
  S  S90  1  0.49201050  0.75194200  0.29055750  1
  S  S91  1  0.69976050  0.97063100  0.12909050  1
  S  S92  1  0.74201050  0.99805800  0.04055750  1
  S  S93  1  0.36308700  0.60549150  0.49560450  1
  S  S94  1  0.74201050  0.50194200  0.45944250  1
  S  S95  1  0.44976050  0.72063100  0.12090950  1
  S  S96  1  0.11308700  0.64450850  0.24560450  1
  S  S97  1  0.42091200  0.70672250  0.04729950  1
  S  S98  1  0.69976050  0.52936900  0.37090950  1
  S  S99  1  0.19626200  0.60867450  0.33089050  1
  S  S100  1  0.36308700  0.89450850  0.00439550  1
  S  S101  1  0.20428550  0.88484950  0.08180000  1
  S  S102  1  0.94626200  0.85867450  0.41910950  1
  S  S103  1  0.19626200  0.89132550  0.16910950  1
  S  S104  1  0.17091200  0.54327750  0.79729950  1
  S  S105  1  0.45428550  0.63484950  0.66820000  1
  S  S106  1  0.44626200  0.64132550  0.58089050  1
  S  S107  1  0.92091200  0.79327750  0.95270050  1
  S  S108  1  0.70428550  0.61515050  0.91820000  1
  S  S109  1  0.61308700  0.85549150  0.75439550  1
  S  S110  1  0.17091200  0.95672250  0.70270050  1
  S  S111  1  0.45428550  0.86515050  0.83180000  1
  S  S112  1  0.99201050  0.74805800  0.70944250  1
  S  S113  1  0.94976050  0.77936900  0.87909050  1
  S  S114  1  0.99201050  0.75194200  0.79055750  1
  S  S115  1  0.19976050  0.97063100  0.62909050  1
  S  S116  1  0.24201050  0.99805800  0.54055750  1
  S  S117  1  0.86308700  0.60549150  0.99560450  1
  S  S118  1  0.24201050  0.50194200  0.95944250  1
  S  S119  1  0.94976050  0.72063100  0.62090950  1
  S  S120  1  0.61308700  0.64450850  0.74560450  1
  S  S121  1  0.92091200  0.70672250  0.54729950  1
  S  S122  1  0.19976050  0.52936900  0.87090950  1
  S  S123  1  0.69626200  0.60867450  0.83089050  1
  S  S124  1  0.86308700  0.89450850  0.50439550  1
  S  S125  1  0.70428550  0.88484950  0.58180000  1
  S  S126  1  0.44626200  0.85867450  0.91910950  1
  S  S127  1  0.69626200  0.89132550  0.66910950  1
  S  S128  1  0.17091200  0.04327750  0.29729950  1
  S  S129  1  0.45428550  0.13484950  0.16820000  1
  S  S130  1  0.44626200  0.14132550  0.08089050  1
  S  S131  1  0.92091200  0.29327750  0.45270050  1
  S  S132  1  0.70428550  0.11515050  0.41820000  1
  S  S133  1  0.61308700  0.35549150  0.25439550  1
  S  S134  1  0.17091200  0.45672250  0.20270050  1
  S  S135  1  0.45428550  0.36515050  0.33180000  1
  S  S136  1  0.99201050  0.24805800  0.20944250  1
  S  S137  1  0.94976050  0.27936900  0.37909050  1
  S  S138  1  0.99201050  0.25194200  0.29055750  1
  S  S139  1  0.19976050  0.47063100  0.12909050  1
  S  S140  1  0.24201050  0.49805800  0.04055750  1
  S  S141  1  0.86308700  0.10549150  0.49560450  1
  S  S142  1  0.24201050  0.00194200  0.45944250  1
  S  S143  1  0.94976050  0.22063100  0.12090950  1
  S  S144  1  0.61308700  0.14450850  0.24560450  1
  S  S145  1  0.92091200  0.20672250  0.04729950  1
  S  S146  1  0.19976050  0.02936900  0.37090950  1
  S  S147  1  0.69626200  0.10867450  0.33089050  1
  S  S148  1  0.86308700  0.39450850  0.00439550  1
  S  S149  1  0.70428550  0.38484950  0.08180000  1
  S  S150  1  0.44626200  0.35867450  0.41910950  1
  S  S151  1  0.69626200  0.39132550  0.16910950  1
  S  S152  1  0.67091200  0.04327750  0.79729950  1
  S  S153  1  0.95428550  0.13484950  0.66820000  1
  S  S154  1  0.94626200  0.14132550  0.58089050  1
  S  S155  1  0.42091200  0.29327750  0.95270050  1
  S  S156  1  0.20428550  0.11515050  0.91820000  1
  S  S157  1  0.11308700  0.35549150  0.75439550  1
  S  S158  1  0.67091200  0.45672250  0.70270050  1
  S  S159  1  0.95428550  0.36515050  0.83180000  1
  S  S160  1  0.49201050  0.24805800  0.70944250  1
  S  S161  1  0.44976050  0.27936900  0.87909050  1
  S  S162  1  0.49201050  0.25194200  0.79055750  1
  S  S163  1  0.69976050  0.47063100  0.62909050  1
  S  S164  1  0.74201050  0.49805800  0.54055750  1
  S  S165  1  0.36308700  0.10549150  0.99560450  1
  S  S166  1  0.74201050  0.00194200  0.95944250  1
  S  S167  1  0.44976050  0.22063100  0.62090950  1
  S  S168  1  0.11308700  0.14450850  0.74560450  1
  S  S169  1  0.42091200  0.20672250  0.54729950  1
  S  S170  1  0.69976050  0.02936900  0.87090950  1
  S  S171  1  0.19626200  0.10867450  0.83089050  1
  S  S172  1  0.36308700  0.39450850  0.50439550  1
  S  S173  1  0.20428550  0.38484950  0.58180000  1
  S  S174  1  0.94626200  0.35867450  0.91910950  1
  S  S175  1  0.19626200  0.39132550  0.66910950  1
