# generated using pymatgen
data_Ba3Co10O17
_symmetry_space_group_name_H-M   'P 1'
_cell_length_a   5.72287814
_cell_length_b   5.72287814
_cell_length_c   36.40244985
_cell_angle_alpha   90.00000000
_cell_angle_beta   90.00000000
_cell_angle_gamma   120.00000000
_symmetry_Int_Tables_number   1
_chemical_formula_structural   Ba3Co10O17
_chemical_formula_sum   'Ba9 Co30 O51'
_cell_volume   1032.50042908
_cell_formula_units_Z   3
loop_
 _symmetry_equiv_pos_site_id
 _symmetry_equiv_pos_as_xyz
  1  'x, y, z'
loop_
 _atom_site_type_symbol
 _atom_site_label
 _atom_site_symmetry_multiplicity
 _atom_site_fract_x
 _atom_site_fract_y
 _atom_site_fract_z
 _atom_site_occupancy
  Ba  Ba0  1  0.33333333  0.66666667  0.06513467  1
  Ba  Ba1  1  0.33333333  0.66666667  0.26819867  1
  Ba  Ba2  1  0.00000000  0.00000000  0.00000000  1
  Ba  Ba3  1  0.00000000  0.00000000  0.39846800  1
  Ba  Ba4  1  0.00000000  0.00000000  0.60153200  1
  Ba  Ba5  1  0.66666667  0.33333333  0.33333333  1
  Ba  Ba6  1  0.66666667  0.33333333  0.73180133  1
  Ba  Ba7  1  0.66666667  0.33333333  0.93486533  1
  Ba  Ba8  1  0.33333333  0.66666667  0.66666667  1
  Co  Co9  1  0.83333333  0.16666667  0.16666667  1
  Co  Co10  1  0.00000000  0.00000000  0.23184500  1
  Co  Co11  1  0.66666667  0.33333333  0.02870333  1
  Co  Co12  1  0.00000000  0.00000000  0.30463000  1
  Co  Co13  1  0.66666667  0.33333333  0.10148833  1
  Co  Co14  1  0.33333333  0.16666667  0.16666667  1
  Co  Co15  1  0.66666667  0.33333333  0.24522533  1
  Co  Co16  1  0.00000000  0.00000000  0.08810800  1
  Co  Co17  1  0.83333333  0.66666667  0.16666667  1
  Co  Co18  1  0.33333333  0.66666667  0.16666667  1
  Co  Co19  1  0.50000000  0.50000000  0.50000000  1
  Co  Co20  1  0.66666667  0.33333333  0.56517833  1
  Co  Co21  1  0.33333333  0.66666667  0.36203667  1
  Co  Co22  1  0.66666667  0.33333333  0.63796333  1
  Co  Co23  1  0.33333333  0.66666667  0.43482167  1
  Co  Co24  1  0.00000000  0.50000000  0.50000000  1
  Co  Co25  1  0.33333333  0.66666667  0.57855867  1
  Co  Co26  1  0.66666667  0.33333333  0.42144133  1
  Co  Co27  1  0.50000000  0.00000000  0.50000000  1
  Co  Co28  1  1.00000000  1.00000000  0.50000000  1
  Co  Co29  1  0.16666667  0.83333333  0.83333333  1
  Co  Co30  1  0.33333333  0.66666667  0.89851167  1
  Co  Co31  1  0.00000000  0.00000000  0.69537000  1
  Co  Co32  1  0.33333333  0.66666667  0.97129667  1
  Co  Co33  1  0.00000000  0.00000000  0.76815500  1
  Co  Co34  1  0.66666667  0.83333333  0.83333333  1
  Co  Co35  1  0.00000000  0.00000000  0.91189200  1
  Co  Co36  1  0.33333333  0.66666667  0.75477467  1
  Co  Co37  1  0.16666667  0.33333333  0.83333333  1
  Co  Co38  1  0.66666667  0.33333333  0.83333333  1
  O  O39  1  0.97953000  0.48976500  0.13719500  1
  O  O40  1  0.66666667  0.33333333  0.19278933  1
  O  O41  1  0.68713667  0.84356833  0.19613833  1
  O  O42  1  0.15643167  0.31286333  0.19613833  1
  O  O43  1  0.51023500  0.48976500  0.13719500  1
  O  O44  1  0.84815167  0.15184833  0.26417933  1
  O  O45  1  0.30369667  0.15184833  0.26417933  1
  O  O46  1  0.00000000  0.50000000  0.00000000  1
  O  O47  1  0.50000000  0.50000000  0.00000000  1
  O  O48  1  0.36297000  0.18148500  0.06915400  1
  O  O49  1  0.81851500  0.18148500  0.06915400  1
  O  O50  1  0.51023500  0.02047000  0.13719500  1
  O  O51  1  0.15643167  0.84356833  0.19613833  1
  O  O52  1  0.84815167  0.69630333  0.26417933  1
  O  O53  1  0.50000000  0.00000000  0.00000000  1
  O  O54  1  0.00000000  0.00000000  0.14054400  1
  O  O55  1  0.81851500  0.63703000  0.06915400  1
  O  O56  1  0.64619667  0.82309833  0.47052833  1
  O  O57  1  0.33333333  0.66666667  0.52612267  1
  O  O58  1  0.35380333  0.17690167  0.52947167  1
  O  O59  1  0.82309833  0.64619667  0.52947167  1
  O  O60  1  0.17690167  0.82309833  0.47052833  1
  O  O61  1  0.51481833  0.48518167  0.59751267  1
  O  O62  1  0.97036333  0.48518167  0.59751267  1
  O  O63  1  0.66666667  0.83333333  0.33333333  1
  O  O64  1  0.16666667  0.83333333  0.33333333  1
  O  O65  1  0.02963667  0.51481833  0.40248733  1
  O  O66  1  0.48518167  0.51481833  0.40248733  1
  O  O67  1  0.17690167  0.35380333  0.47052833  1
  O  O68  1  0.82309833  0.17690167  0.52947167  1
  O  O69  1  0.51481833  0.02963667  0.59751267  1
  O  O70  1  0.16666667  0.33333333  0.33333333  1
  O  O71  1  0.66666667  0.33333333  0.47387733  1
  O  O72  1  0.48518167  0.97036333  0.40248733  1
  O  O73  1  0.31286333  0.15643167  0.80386167  1
  O  O74  1  0.00000000  0.00000000  0.85945600  1
  O  O75  1  0.02047000  0.51023500  0.86280500  1
  O  O76  1  0.48976500  0.97953000  0.86280500  1
  O  O77  1  0.84356833  0.15643167  0.80386167  1
  O  O78  1  0.18148500  0.81851500  0.93084600  1
  O  O79  1  0.63703000  0.81851500  0.93084600  1
  O  O80  1  0.33333333  0.16666667  0.66666667  1
  O  O81  1  0.83333333  0.16666667  0.66666667  1
  O  O82  1  0.69630333  0.84815167  0.73582067  1
  O  O83  1  0.15184833  0.84815167  0.73582067  1
  O  O84  1  0.84356833  0.68713667  0.80386167  1
  O  O85  1  0.48976500  0.51023500  0.86280500  1
  O  O86  1  0.18148500  0.36297000  0.93084600  1
  O  O87  1  0.83333333  0.66666667  0.66666667  1
  O  O88  1  0.33333333  0.66666667  0.80721067  1
  O  O89  1  0.15184833  0.30369667  0.73582067  1
