# generated using pymatgen
data_BiAs2Os
_symmetry_space_group_name_H-M   'P 1'
_cell_length_a   6.78557600
_cell_length_b   6.78557600
_cell_length_c   6.78557600
_cell_angle_alpha   90.00000000
_cell_angle_beta   90.00000000
_cell_angle_gamma   90.00000000
_symmetry_Int_Tables_number   1
_chemical_formula_structural   BiAs2Os
_chemical_formula_sum   'Bi4 As8 Os4'
_cell_volume   312.43534398
_cell_formula_units_Z   4
loop_
 _symmetry_equiv_pos_site_id
 _symmetry_equiv_pos_as_xyz
  1  'x, y, z'
loop_
 _atom_site_type_symbol
 _atom_site_label
 _atom_site_symmetry_multiplicity
 _atom_site_fract_x
 _atom_site_fract_y
 _atom_site_fract_z
 _atom_site_occupancy
  Bi  Bi0  1  0.50000000  0.00000000  0.00000000  1
  Bi  Bi1  1  0.50000000  0.50000000  0.50000000  1
  Bi  Bi2  1  0.00000000  0.00000000  0.50000000  1
  Bi  Bi3  1  0.00000000  0.50000000  0.00000000  1
  As  As4  1  0.00000000  0.00000000  0.00000000  1
  As  As5  1  0.25000000  0.25000000  0.75000000  1
  As  As6  1  0.00000000  0.50000000  0.50000000  1
  As  As7  1  0.25000000  0.75000000  0.25000000  1
  As  As8  1  0.50000000  0.00000000  0.50000000  1
  As  As9  1  0.75000000  0.25000000  0.25000000  1
  As  As10  1  0.50000000  0.50000000  0.00000000  1
  As  As11  1  0.75000000  0.75000000  0.75000000  1
  Os  Os12  1  0.25000000  0.25000000  0.25000000  1
  Os  Os13  1  0.25000000  0.75000000  0.75000000  1
  Os  Os14  1  0.75000000  0.25000000  0.75000000  1
  Os  Os15  1  0.75000000  0.75000000  0.25000000  1
