# generated using pymatgen
data_Lu4V4O13
_symmetry_space_group_name_H-M   'P 1'
_cell_length_a   9.97869400
_cell_length_b   9.97869400
_cell_length_c   9.97869400
_cell_angle_alpha   90.00000000
_cell_angle_beta   90.00000000
_cell_angle_gamma   90.00000000
_symmetry_Int_Tables_number   1
_chemical_formula_structural   Lu4V4O13
_chemical_formula_sum   'Lu16 V16 O52'
_cell_volume   993.62180870
_cell_formula_units_Z   4
loop_
 _symmetry_equiv_pos_site_id
 _symmetry_equiv_pos_as_xyz
  1  'x, y, z'
loop_
 _atom_site_type_symbol
 _atom_site_label
 _atom_site_symmetry_multiplicity
 _atom_site_fract_x
 _atom_site_fract_y
 _atom_site_fract_z
 _atom_site_occupancy
  Lu  Lu0  1  0.62329025  0.37670975  0.87670975  1
  Lu  Lu1  1  0.87670975  0.37670975  0.62329025  1
  Lu  Lu2  1  0.62329025  0.12329025  0.62329025  1
  Lu  Lu3  1  0.87670975  0.12329025  0.87670975  1
  Lu  Lu4  1  0.62329025  0.87670975  0.37670975  1
  Lu  Lu5  1  0.87670975  0.87670975  0.12329025  1
  Lu  Lu6  1  0.62329025  0.62329025  0.12329025  1
  Lu  Lu7  1  0.87670975  0.62329025  0.37670975  1
  Lu  Lu8  1  0.12329025  0.37670975  0.37670975  1
  Lu  Lu9  1  0.37670975  0.37670975  0.12329025  1
  Lu  Lu10  1  0.12329025  0.12329025  0.12329025  1
  Lu  Lu11  1  0.37670975  0.12329025  0.37670975  1
  Lu  Lu12  1  0.12329025  0.87670975  0.87670975  1
  Lu  Lu13  1  0.37670975  0.87670975  0.62329025  1
  Lu  Lu14  1  0.12329025  0.62329025  0.62329025  1
  Lu  Lu15  1  0.37670975  0.62329025  0.87670975  1
  V  V16  1  0.87627975  0.12372025  0.37627975  1
  V  V17  1  0.12372025  0.12372025  0.62372025  1
  V  V18  1  0.62372025  0.37627975  0.37627975  1
  V  V19  1  0.37627975  0.37627975  0.62372025  1
  V  V20  1  0.87627975  0.62372025  0.87627975  1
  V  V21  1  0.12372025  0.62372025  0.12372025  1
  V  V22  1  0.62372025  0.87627975  0.87627975  1
  V  V23  1  0.37627975  0.87627975  0.12372025  1
  V  V24  1  0.37627975  0.12372025  0.87627975  1
  V  V25  1  0.62372025  0.12372025  0.12372025  1
  V  V26  1  0.12372025  0.37627975  0.87627975  1
  V  V27  1  0.87627975  0.37627975  0.12372025  1
  V  V28  1  0.37627975  0.62372025  0.37627975  1
  V  V29  1  0.62372025  0.62372025  0.62372025  1
  V  V30  1  0.12372025  0.87627975  0.37627975  1
  V  V31  1  0.87627975  0.87627975  0.62372025  1
  O  O32  1  0.00000000  0.00000000  0.71419775  1
  O  O33  1  0.78580225  0.00000000  0.50000000  1
  O  O34  1  0.00000000  0.21419775  0.50000000  1
  O  O35  1  0.50000000  0.28580225  0.50000000  1
  O  O36  1  0.21419775  0.00000000  0.50000000  1
  O  O37  1  0.00000000  0.00000000  0.28580225  1
  O  O38  1  0.75000000  0.25000000  0.46621575  1
  O  O39  1  0.53378425  0.25000000  0.25000000  1
  O  O40  1  0.75000000  0.46621575  0.25000000  1
  O  O41  1  0.75000000  0.03378425  0.25000000  1
  O  O42  1  0.96621575  0.25000000  0.25000000  1
  O  O43  1  0.75000000  0.25000000  0.03378425  1
  O  O44  1  0.50000000  0.00000000  0.50000000  1
  O  O45  1  0.00000000  0.50000000  0.21419775  1
  O  O46  1  0.78580225  0.50000000  0.00000000  1
  O  O47  1  0.00000000  0.71419775  0.00000000  1
  O  O48  1  0.50000000  0.78580225  0.00000000  1
  O  O49  1  0.21419775  0.50000000  0.00000000  1
  O  O50  1  0.00000000  0.50000000  0.78580225  1
  O  O51  1  0.75000000  0.75000000  0.96621575  1
  O  O52  1  0.53378425  0.75000000  0.75000000  1
  O  O53  1  0.75000000  0.96621575  0.75000000  1
  O  O54  1  0.75000000  0.53378425  0.75000000  1
  O  O55  1  0.96621575  0.75000000  0.75000000  1
  O  O56  1  0.75000000  0.75000000  0.53378425  1
  O  O57  1  0.50000000  0.50000000  0.00000000  1
  O  O58  1  0.50000000  0.00000000  0.21419775  1
  O  O59  1  0.28580225  0.00000000  0.00000000  1
  O  O60  1  0.50000000  0.21419775  0.00000000  1
  O  O61  1  0.00000000  0.28580225  0.00000000  1
  O  O62  1  0.71419775  0.00000000  0.00000000  1
  O  O63  1  0.50000000  0.00000000  0.78580225  1
  O  O64  1  0.25000000  0.25000000  0.96621575  1
  O  O65  1  0.03378425  0.25000000  0.75000000  1
  O  O66  1  0.25000000  0.46621575  0.75000000  1
  O  O67  1  0.25000000  0.03378425  0.75000000  1
  O  O68  1  0.46621575  0.25000000  0.75000000  1
  O  O69  1  0.25000000  0.25000000  0.53378425  1
  O  O70  1  0.00000000  0.00000000  0.00000000  1
  O  O71  1  0.50000000  0.50000000  0.71419775  1
  O  O72  1  0.28580225  0.50000000  0.50000000  1
  O  O73  1  0.50000000  0.71419775  0.50000000  1
  O  O74  1  0.00000000  0.78580225  0.50000000  1
  O  O75  1  0.71419775  0.50000000  0.50000000  1
  O  O76  1  0.50000000  0.50000000  0.28580225  1
  O  O77  1  0.25000000  0.75000000  0.46621575  1
  O  O78  1  0.03378425  0.75000000  0.25000000  1
  O  O79  1  0.25000000  0.96621575  0.25000000  1
  O  O80  1  0.25000000  0.53378425  0.25000000  1
  O  O81  1  0.46621575  0.75000000  0.25000000  1
  O  O82  1  0.25000000  0.75000000  0.03378425  1
  O  O83  1  0.00000000  0.50000000  0.50000000  1
