# generated using pymatgen
data_Cs2KMn3F12
_symmetry_space_group_name_H-M   'P 1'
_cell_length_a   13.42781000
_cell_length_b   7.74824400
_cell_length_c   12.96440797
_cell_angle_alpha   90.00000000
_cell_angle_beta   108.85765256
_cell_angle_gamma   90.00000000
_symmetry_Int_Tables_number   1
_chemical_formula_structural   Cs2KMn3F12
_chemical_formula_sum   'Cs8 K4 Mn12 F48'
_cell_volume   1276.44249185
_cell_formula_units_Z   4
loop_
 _symmetry_equiv_pos_site_id
 _symmetry_equiv_pos_as_xyz
  1  'x, y, z'
loop_
 _atom_site_type_symbol
 _atom_site_label
 _atom_site_symmetry_multiplicity
 _atom_site_fract_x
 _atom_site_fract_y
 _atom_site_fract_z
 _atom_site_occupancy
  Cs  Cs0  1  0.68974200  0.78523900  0.32254900  1
  Cs  Cs1  1  0.81025800  0.71476100  0.67745100  1
  Cs  Cs2  1  0.81025800  0.28523900  0.17745100  1
  Cs  Cs3  1  0.68974200  0.21476100  0.82254900  1
  Cs  Cs4  1  0.18974200  0.28523900  0.32254900  1
  Cs  Cs5  1  0.31025800  0.21476100  0.67745100  1
  Cs  Cs6  1  0.31025800  0.78523900  0.17745100  1
  Cs  Cs7  1  0.18974200  0.71476100  0.82254900  1
  K  K8  1  0.00000000  0.77207500  0.25000000  1
  K  K9  1  0.00000000  0.22792500  0.75000000  1
  K  K10  1  0.50000000  0.27207500  0.25000000  1
  K  K11  1  0.50000000  0.72792500  0.75000000  1
  Mn  Mn12  1  0.75000000  0.25000000  0.50000000  1
  Mn  Mn13  1  0.75000000  0.75000000  0.00000000  1
  Mn  Mn14  1  0.00000000  0.00000000  0.50000000  1
  Mn  Mn15  1  0.00000000  0.00000000  0.00000000  1
  Mn  Mn16  1  0.00000000  0.50000000  0.50000000  1
  Mn  Mn17  1  0.00000000  0.50000000  0.00000000  1
  Mn  Mn18  1  0.25000000  0.75000000  0.50000000  1
  Mn  Mn19  1  0.25000000  0.25000000  0.00000000  1
  Mn  Mn20  1  0.50000000  0.50000000  0.50000000  1
  Mn  Mn21  1  0.50000000  0.50000000  0.00000000  1
  Mn  Mn22  1  0.50000000  0.00000000  0.50000000  1
  Mn  Mn23  1  0.50000000  0.00000000  0.00000000  1
  F  F24  1  0.92864850  0.03337250  0.35198200  1
  F  F25  1  0.70304100  0.18956400  0.35236900  1
  F  F26  1  0.83705650  0.57510050  0.97015700  1
  F  F27  1  0.94885450  0.26703350  0.97125100  1
  F  F28  1  0.70304100  0.81043600  0.85236900  1
  F  F29  1  0.79695900  0.68956400  0.14763100  1
  F  F30  1  0.79695900  0.31043600  0.64763100  1
  F  F31  1  0.55114550  0.76703350  0.52874900  1
  F  F32  1  0.57135150  0.46662750  0.64801800  1
  F  F33  1  0.66294350  0.07510050  0.52984300  1
  F  F34  1  0.98266650  0.52879250  0.85322000  1
  F  F35  1  0.83705650  0.42489950  0.47015700  1
  F  F36  1  0.98266650  0.47120750  0.35322000  1
  F  F37  1  0.87528700  0.05381300  0.53615400  1
  F  F38  1  0.62471300  0.44618700  0.46384600  1
  F  F39  1  0.51733350  0.97120750  0.14678000  1
  F  F40  1  0.87528700  0.94618700  0.03615400  1
  F  F41  1  0.51733350  0.02879250  0.64678000  1
  F  F42  1  0.66294350  0.92489950  0.02984300  1
  F  F43  1  0.92864850  0.96662750  0.85198200  1
  F  F44  1  0.62471300  0.55381300  0.96384600  1
  F  F45  1  0.55114550  0.23296650  0.02874900  1
  F  F46  1  0.57135150  0.53337250  0.14801800  1
  F  F47  1  0.94885450  0.73296650  0.47125100  1
  F  F48  1  0.42864850  0.53337250  0.35198200  1
  F  F49  1  0.20304100  0.68956400  0.35236900  1
  F  F50  1  0.33705650  0.07510050  0.97015700  1
  F  F51  1  0.44885450  0.76703350  0.97125100  1
  F  F52  1  0.20304100  0.31043600  0.85236900  1
  F  F53  1  0.29695900  0.18956400  0.14763100  1
  F  F54  1  0.29695900  0.81043600  0.64763100  1
  F  F55  1  0.05114550  0.26703350  0.52874900  1
  F  F56  1  0.07135150  0.96662750  0.64801800  1
  F  F57  1  0.16294350  0.57510050  0.52984300  1
  F  F58  1  0.48266650  0.02879250  0.85322000  1
  F  F59  1  0.33705650  0.92489950  0.47015700  1
  F  F60  1  0.48266650  0.97120750  0.35322000  1
  F  F61  1  0.37528700  0.55381300  0.53615400  1
  F  F62  1  0.12471300  0.94618700  0.46384600  1
  F  F63  1  0.01733350  0.47120750  0.14678000  1
  F  F64  1  0.37528700  0.44618700  0.03615400  1
  F  F65  1  0.01733350  0.52879250  0.64678000  1
  F  F66  1  0.16294350  0.42489950  0.02984300  1
  F  F67  1  0.42864850  0.46662750  0.85198200  1
  F  F68  1  0.12471300  0.05381300  0.96384600  1
  F  F69  1  0.05114550  0.73296650  0.02874900  1
  F  F70  1  0.07135150  0.03337250  0.14801800  1
  F  F71  1  0.44885450  0.23296650  0.47125100  1
