# generated using pymatgen
data_Sr2DyGaCu2O7
_symmetry_space_group_name_H-M   'P 1'
_cell_length_a   5.41494600
_cell_length_b   5.51836200
_cell_length_c   23.16911600
_cell_angle_alpha   90.00000000
_cell_angle_beta   90.00000000
_cell_angle_gamma   90.00000000
_symmetry_Int_Tables_number   1
_chemical_formula_structural   Sr2DyGaCu2O7
_chemical_formula_sum   'Sr8 Dy4 Ga4 Cu8 O28'
_cell_volume   692.33100360
_cell_formula_units_Z   4
loop_
 _symmetry_equiv_pos_site_id
 _symmetry_equiv_pos_as_xyz
  1  'x, y, z'
loop_
 _atom_site_type_symbol
 _atom_site_label
 _atom_site_symmetry_multiplicity
 _atom_site_fract_x
 _atom_site_fract_y
 _atom_site_fract_z
 _atom_site_occupancy
  Sr  Sr0  1  0.99776350  0.48472950  0.84884050  1
  Sr  Sr1  1  0.49776350  0.01527050  0.84884050  1
  Sr  Sr2  1  0.99776350  0.48472950  0.65115950  1
  Sr  Sr3  1  0.49776350  0.01527050  0.65115950  1
  Sr  Sr4  1  0.49776350  0.98472950  0.34884050  1
  Sr  Sr5  1  0.99776350  0.51527050  0.34884050  1
  Sr  Sr6  1  0.49776350  0.98472950  0.15115950  1
  Sr  Sr7  1  0.99776350  0.51527050  0.15115950  1
  Dy  Dy8  1  0.50027800  0.00000000  0.00000000  1
  Dy  Dy9  1  0.00027800  0.50000000  0.00000000  1
  Dy  Dy10  1  0.00027800  0.50000000  0.50000000  1
  Dy  Dy11  1  0.50027800  0.00000000  0.50000000  1
  Ga  Ga12  1  0.95890100  0.93166000  0.75000000  1
  Ga  Ga13  1  0.45890100  0.56834000  0.75000000  1
  Ga  Ga14  1  0.45890100  0.43166000  0.25000000  1
  Ga  Ga15  1  0.95890100  0.06834000  0.25000000  1
  Cu  Cu16  1  0.50041250  0.50055050  0.57152750  1
  Cu  Cu17  1  0.50041250  0.50055050  0.92847250  1
  Cu  Cu18  1  0.00041250  0.99944950  0.92847250  1
  Cu  Cu19  1  0.00041250  0.99944950  0.57152750  1
  Cu  Cu20  1  0.00041250  0.00055050  0.07152750  1
  Cu  Cu21  1  0.00041250  0.00055050  0.42847250  1
  Cu  Cu22  1  0.50041250  0.49944950  0.42847250  1
  Cu  Cu23  1  0.50041250  0.49944950  0.07152750  1
  O  O24  1  0.24971700  0.25114900  0.56107400  1
  O  O25  1  0.02353700  0.04464200  0.82381600  1
  O  O26  1  0.25030950  0.74947850  0.56492950  1
  O  O27  1  0.60697900  0.88343600  0.75000000  1
  O  O28  1  0.75030950  0.75052150  0.93507050  1
  O  O29  1  0.24971700  0.25114900  0.93892600  1
  O  O30  1  0.74971700  0.24885100  0.56107400  1
  O  O31  1  0.10697900  0.61656400  0.75000000  1
  O  O32  1  0.25030950  0.74947850  0.93507050  1
  O  O33  1  0.02353700  0.04464200  0.67618400  1
  O  O34  1  0.52353700  0.45535800  0.82381600  1
  O  O35  1  0.75030950  0.75052150  0.56492950  1
  O  O36  1  0.52353700  0.45535800  0.67618400  1
  O  O37  1  0.74971700  0.24885100  0.93892600  1
  O  O38  1  0.74971700  0.75114900  0.06107400  1
  O  O39  1  0.52353700  0.54464200  0.32381600  1
  O  O40  1  0.75030950  0.24947850  0.06492950  1
  O  O41  1  0.10697900  0.38343600  0.25000000  1
  O  O42  1  0.25030950  0.25052150  0.43507050  1
  O  O43  1  0.74971700  0.75114900  0.43892600  1
  O  O44  1  0.24971700  0.74885100  0.06107400  1
  O  O45  1  0.60697900  0.11656400  0.25000000  1
  O  O46  1  0.75030950  0.24947850  0.43507050  1
  O  O47  1  0.52353700  0.54464200  0.17618400  1
  O  O48  1  0.02353700  0.95535800  0.32381600  1
  O  O49  1  0.25030950  0.25052150  0.06492950  1
  O  O50  1  0.02353700  0.95535800  0.17618400  1
  O  O51  1  0.24971700  0.74885100  0.43892600  1
