# generated using pymatgen
data_Pr4MgRu
_symmetry_space_group_name_H-M   'P 1'
_cell_length_a   14.27080600
_cell_length_b   14.27080600
_cell_length_c   14.27080600
_cell_angle_alpha   90.00000000
_cell_angle_beta   90.00000000
_cell_angle_gamma   90.00000000
_symmetry_Int_Tables_number   1
_chemical_formula_structural   Pr4MgRu
_chemical_formula_sum   'Pr64 Mg16 Ru16'
_cell_volume   2906.33389516
_cell_formula_units_Z   16
loop_
 _symmetry_equiv_pos_site_id
 _symmetry_equiv_pos_as_xyz
  1  'x, y, z'
loop_
 _atom_site_type_symbol
 _atom_site_label
 _atom_site_symmetry_multiplicity
 _atom_site_fract_x
 _atom_site_fract_y
 _atom_site_fract_z
 _atom_site_occupancy
  Pr  Pr0  1  0.93863775  0.25000000  0.25000000  1
  Pr  Pr1  1  0.00000000  0.00000000  0.18841075  1
  Pr  Pr2  1  0.65535675  0.34464325  0.65535675  1
  Pr  Pr3  1  0.75000000  0.06136225  0.25000000  1
  Pr  Pr4  1  0.75000000  0.25000000  0.06136225  1
  Pr  Pr5  1  0.56136225  0.25000000  0.25000000  1
  Pr  Pr6  1  0.75000000  0.43863775  0.25000000  1
  Pr  Pr7  1  0.34464325  0.34464325  0.34464325  1
  Pr  Pr8  1  0.84464325  0.15535675  0.65535675  1
  Pr  Pr9  1  0.31158925  0.00000000  0.50000000  1
  Pr  Pr10  1  0.75000000  0.25000000  0.43863775  1
  Pr  Pr11  1  0.00000000  0.31158925  0.50000000  1
  Pr  Pr12  1  0.15535675  0.15535675  0.34464325  1
  Pr  Pr13  1  0.50000000  0.18841075  0.50000000  1
  Pr  Pr14  1  0.68841075  0.00000000  0.50000000  1
  Pr  Pr15  1  0.00000000  0.00000000  0.81158925  1
  Pr  Pr16  1  0.93863775  0.75000000  0.75000000  1
  Pr  Pr17  1  0.00000000  0.50000000  0.68841075  1
  Pr  Pr18  1  0.65535675  0.84464325  0.15535675  1
  Pr  Pr19  1  0.75000000  0.56136225  0.75000000  1
  Pr  Pr20  1  0.75000000  0.75000000  0.56136225  1
  Pr  Pr21  1  0.56136225  0.75000000  0.75000000  1
  Pr  Pr22  1  0.75000000  0.93863775  0.75000000  1
  Pr  Pr23  1  0.34464325  0.84464325  0.84464325  1
  Pr  Pr24  1  0.84464325  0.65535675  0.15535675  1
  Pr  Pr25  1  0.31158925  0.50000000  0.00000000  1
  Pr  Pr26  1  0.75000000  0.75000000  0.93863775  1
  Pr  Pr27  1  0.00000000  0.81158925  0.00000000  1
  Pr  Pr28  1  0.15535675  0.65535675  0.84464325  1
  Pr  Pr29  1  0.50000000  0.68841075  0.00000000  1
  Pr  Pr30  1  0.68841075  0.50000000  0.00000000  1
  Pr  Pr31  1  0.00000000  0.50000000  0.31158925  1
  Pr  Pr32  1  0.43863775  0.25000000  0.75000000  1
  Pr  Pr33  1  0.50000000  0.00000000  0.68841075  1
  Pr  Pr34  1  0.15535675  0.34464325  0.15535675  1
  Pr  Pr35  1  0.25000000  0.06136225  0.75000000  1
  Pr  Pr36  1  0.25000000  0.25000000  0.56136225  1
  Pr  Pr37  1  0.06136225  0.25000000  0.75000000  1
  Pr  Pr38  1  0.25000000  0.43863775  0.75000000  1
  Pr  Pr39  1  0.84464325  0.34464325  0.84464325  1
  Pr  Pr40  1  0.34464325  0.15535675  0.15535675  1
  Pr  Pr41  1  0.81158925  0.00000000  0.00000000  1
  Pr  Pr42  1  0.25000000  0.25000000  0.93863775  1
  Pr  Pr43  1  0.50000000  0.31158925  0.00000000  1
  Pr  Pr44  1  0.65535675  0.15535675  0.84464325  1
  Pr  Pr45  1  0.00000000  0.18841075  0.00000000  1
  Pr  Pr46  1  0.18841075  0.00000000  0.00000000  1
  Pr  Pr47  1  0.50000000  0.00000000  0.31158925  1
  Pr  Pr48  1  0.43863775  0.75000000  0.25000000  1
  Pr  Pr49  1  0.50000000  0.50000000  0.18841075  1
  Pr  Pr50  1  0.15535675  0.84464325  0.65535675  1
  Pr  Pr51  1  0.25000000  0.56136225  0.25000000  1
  Pr  Pr52  1  0.25000000  0.75000000  0.06136225  1
  Pr  Pr53  1  0.06136225  0.75000000  0.25000000  1
  Pr  Pr54  1  0.25000000  0.93863775  0.25000000  1
  Pr  Pr55  1  0.84464325  0.84464325  0.34464325  1
  Pr  Pr56  1  0.34464325  0.65535675  0.65535675  1
  Pr  Pr57  1  0.81158925  0.50000000  0.50000000  1
  Pr  Pr58  1  0.25000000  0.75000000  0.43863775  1
  Pr  Pr59  1  0.50000000  0.81158925  0.50000000  1
  Pr  Pr60  1  0.65535675  0.65535675  0.34464325  1
  Pr  Pr61  1  0.00000000  0.68841075  0.50000000  1
  Pr  Pr62  1  0.18841075  0.50000000  0.50000000  1
  Pr  Pr63  1  0.50000000  0.50000000  0.81158925  1
  Mg  Mg64  1  0.92153775  0.07846225  0.42153775  1
  Mg  Mg65  1  0.57846225  0.42153775  0.42153775  1
  Mg  Mg66  1  0.42153775  0.42153775  0.57846225  1
  Mg  Mg67  1  0.07846225  0.07846225  0.57846225  1
  Mg  Mg68  1  0.92153775  0.57846225  0.92153775  1
  Mg  Mg69  1  0.57846225  0.92153775  0.92153775  1
  Mg  Mg70  1  0.42153775  0.92153775  0.07846225  1
  Mg  Mg71  1  0.07846225  0.57846225  0.07846225  1
  Mg  Mg72  1  0.42153775  0.07846225  0.92153775  1
  Mg  Mg73  1  0.07846225  0.42153775  0.92153775  1
  Mg  Mg74  1  0.92153775  0.42153775  0.07846225  1
  Mg  Mg75  1  0.57846225  0.07846225  0.07846225  1
  Mg  Mg76  1  0.42153775  0.57846225  0.42153775  1
  Mg  Mg77  1  0.07846225  0.92153775  0.42153775  1
  Mg  Mg78  1  0.92153775  0.92153775  0.57846225  1
  Mg  Mg79  1  0.57846225  0.57846225  0.57846225  1
  Ru  Ru80  1  0.86199075  0.13800925  0.86199075  1
  Ru  Ru81  1  0.86199075  0.36199075  0.63800925  1
  Ru  Ru82  1  0.63800925  0.36199075  0.86199075  1
  Ru  Ru83  1  0.63800925  0.13800925  0.63800925  1
  Ru  Ru84  1  0.86199075  0.63800925  0.36199075  1
  Ru  Ru85  1  0.86199075  0.86199075  0.13800925  1
  Ru  Ru86  1  0.63800925  0.86199075  0.36199075  1
  Ru  Ru87  1  0.63800925  0.63800925  0.13800925  1
  Ru  Ru88  1  0.36199075  0.13800925  0.36199075  1
  Ru  Ru89  1  0.36199075  0.36199075  0.13800925  1
  Ru  Ru90  1  0.13800925  0.36199075  0.36199075  1
  Ru  Ru91  1  0.13800925  0.13800925  0.13800925  1
  Ru  Ru92  1  0.36199075  0.63800925  0.86199075  1
  Ru  Ru93  1  0.36199075  0.86199075  0.63800925  1
  Ru  Ru94  1  0.13800925  0.86199075  0.86199075  1
  Ru  Ru95  1  0.13800925  0.63800925  0.63800925  1
