# generated using pymatgen
data_Ga2NiO4
_symmetry_space_group_name_H-M   'P 1'
_cell_length_a   10.21371200
_cell_length_b   5.97109600
_cell_length_c   19.56325313
_cell_angle_alpha   90.00000000
_cell_angle_beta   99.84246378
_cell_angle_gamma   90.00000000
_symmetry_Int_Tables_number   1
_chemical_formula_structural   Ga2NiO4
_chemical_formula_sum   'Ga32 Ni16 O64'
_cell_volume   1175.54444956
_cell_formula_units_Z   16
loop_
 _symmetry_equiv_pos_site_id
 _symmetry_equiv_pos_as_xyz
  1  'x, y, z'
loop_
 _atom_site_type_symbol
 _atom_site_label
 _atom_site_symmetry_multiplicity
 _atom_site_fract_x
 _atom_site_fract_y
 _atom_site_fract_z
 _atom_site_occupancy
  Ga  Ga0  1  0.69308300  0.00000000  0.06144300  1
  Ga  Ga1  1  0.46983800  0.74740200  0.15812700  1
  Ga  Ga2  1  0.34324500  0.00000000  0.02807900  1
  Ga  Ga3  1  0.44371800  0.00000000  0.31511600  1
  Ga  Ga4  1  0.46983800  0.25259800  0.15812700  1
  Ga  Ga5  1  0.74415200  0.00000000  0.25046700  1
  Ga  Ga6  1  0.71875700  0.25010100  0.40698600  1
  Ga  Ga7  1  0.19360400  0.00000000  0.56476800  1
  Ga  Ga8  1  0.24356500  0.00000000  0.74666200  1
  Ga  Ga9  1  0.71875700  0.74989900  0.40698600  1
  Ga  Ga10  1  0.46861400  0.25000800  0.65622000  1
  Ga  Ga11  1  0.49381700  0.00000000  0.49842100  1
  Ga  Ga12  1  0.94398300  0.00000000  0.81466100  1
  Ga  Ga13  1  0.46861400  0.74999200  0.65622000  1
  Ga  Ga14  1  0.71934200  0.74841700  0.90467400  1
  Ga  Ga15  1  0.71934200  0.25158300  0.90467400  1
  Ga  Ga16  1  0.19308300  0.50000000  0.06144300  1
  Ga  Ga17  1  0.96983800  0.24740200  0.15812700  1
  Ga  Ga18  1  0.84324500  0.50000000  0.02807900  1
  Ga  Ga19  1  0.94371800  0.50000000  0.31511600  1
  Ga  Ga20  1  0.96983800  0.75259800  0.15812700  1
  Ga  Ga21  1  0.24415200  0.50000000  0.25046700  1
  Ga  Ga22  1  0.21875700  0.75010100  0.40698600  1
  Ga  Ga23  1  0.69360400  0.50000000  0.56476800  1
  Ga  Ga24  1  0.74356500  0.50000000  0.74666200  1
  Ga  Ga25  1  0.21875700  0.24989900  0.40698600  1
  Ga  Ga26  1  0.96861400  0.75000800  0.65622000  1
  Ga  Ga27  1  0.99381700  0.50000000  0.49842100  1
  Ga  Ga28  1  0.44398300  0.50000000  0.81466100  1
  Ga  Ga29  1  0.96861400  0.24999200  0.65622000  1
  Ga  Ga30  1  0.21934200  0.24841700  0.90467400  1
  Ga  Ga31  1  0.21934200  0.75158300  0.90467400  1
  Ni  Ni32  1  0.99706400  0.00000000  0.00039600  1
  Ni  Ni33  1  0.21827900  0.00000000  0.15784900  1
  Ni  Ni34  1  0.96890600  0.00000000  0.40674600  1
  Ni  Ni35  1  0.09386400  0.00000000  0.28190600  1
  Ni  Ni36  1  0.71869600  0.00000000  0.65605900  1
  Ni  Ni37  1  0.84379700  0.00000000  0.53137200  1
  Ni  Ni38  1  0.46772100  0.00000000  0.90477200  1
  Ni  Ni39  1  0.59378000  0.00000000  0.78086300  1
  Ni  Ni40  1  0.49706400  0.50000000  0.00039600  1
  Ni  Ni41  1  0.71827900  0.50000000  0.15784900  1
  Ni  Ni42  1  0.46890600  0.50000000  0.40674600  1
  Ni  Ni43  1  0.59386400  0.50000000  0.28190600  1
  Ni  Ni44  1  0.21869600  0.50000000  0.65605900  1
  Ni  Ni45  1  0.34379700  0.50000000  0.53137200  1
  Ni  Ni46  1  0.96772100  0.50000000  0.90477200  1
  Ni  Ni47  1  0.09378000  0.50000000  0.78086300  1
  O  O48  1  0.28996800  0.76426100  0.09449400  1
  O  O49  1  0.41003100  0.00000000  0.21459000  1
  O  O50  1  0.28996800  0.23573900  0.09449400  1
  O  O51  1  0.52391100  0.00000000  0.09492200  1
  O  O52  1  0.90792700  0.00000000  0.21703100  1
  O  O53  1  0.54066300  0.25810200  0.34701200  1
  O  O54  1  0.15915200  0.00000000  0.46501600  1
  O  O55  1  0.64832300  0.25614600  0.21699600  1
  O  O56  1  0.54066300  0.74189800  0.34701200  1
  O  O57  1  0.02715300  0.00000000  0.10525800  1
  O  O58  1  0.64832300  0.74385400  0.21699600  1
  O  O59  1  0.27699900  0.00000000  0.34720000  1
  O  O60  1  0.66018200  0.00000000  0.46558000  1
  O  O61  1  0.29059200  0.25817500  0.59670200  1
  O  O62  1  0.90915200  0.00000000  0.71485400  1
  O  O63  1  0.39691250  0.25786450  0.46575500  1
  O  O64  1  0.29059200  0.74182500  0.59670200  1
  O  O65  1  0.77853800  0.00000000  0.34918100  1
  O  O66  1  0.39691250  0.74213550  0.46575500  1
  O  O67  1  0.02684400  0.00000000  0.59696500  1
  O  O68  1  0.41068400  0.00000000  0.71464800  1
  O  O69  1  0.54079150  0.75829350  0.84635700  1
  O  O70  1  0.64651900  0.75874100  0.71499500  1
  O  O71  1  0.65865300  0.00000000  0.96373000  1
  O  O72  1  0.54079150  0.24170650  0.84635700  1
  O  O73  1  0.52825500  0.00000000  0.59738900  1
  O  O74  1  0.64651900  0.24125900  0.71499500  1
  O  O75  1  0.77751800  0.00000000  0.84707300  1
  O  O76  1  0.16769500  0.00000000  0.96394800  1
  O  O77  1  0.39360900  0.76895800  0.96584500  1
  O  O78  1  0.27817200  0.00000000  0.84470500  1
  O  O79  1  0.39360900  0.23104200  0.96584500  1
  O  O80  1  0.78996800  0.26426100  0.09449400  1
  O  O81  1  0.91003100  0.50000000  0.21459000  1
  O  O82  1  0.78996800  0.73573900  0.09449400  1
  O  O83  1  0.02391100  0.50000000  0.09492200  1
  O  O84  1  0.40792700  0.50000000  0.21703100  1
  O  O85  1  0.04066300  0.75810200  0.34701200  1
  O  O86  1  0.65915200  0.50000000  0.46501600  1
  O  O87  1  0.14832300  0.75614600  0.21699600  1
  O  O88  1  0.04066300  0.24189800  0.34701200  1
  O  O89  1  0.52715300  0.50000000  0.10525800  1
  O  O90  1  0.14832300  0.24385400  0.21699600  1
  O  O91  1  0.77699900  0.50000000  0.34720000  1
  O  O92  1  0.16018200  0.50000000  0.46558000  1
  O  O93  1  0.79059200  0.75817500  0.59670200  1
  O  O94  1  0.40915200  0.50000000  0.71485400  1
  O  O95  1  0.89691250  0.75786450  0.46575500  1
  O  O96  1  0.79059200  0.24182500  0.59670200  1
  O  O97  1  0.27853800  0.50000000  0.34918100  1
  O  O98  1  0.89691250  0.24213550  0.46575500  1
  O  O99  1  0.52684400  0.50000000  0.59696500  1
  O  O100  1  0.91068400  0.50000000  0.71464800  1
  O  O101  1  0.04079150  0.25829350  0.84635700  1
  O  O102  1  0.14651900  0.25874100  0.71499500  1
  O  O103  1  0.15865300  0.50000000  0.96373000  1
  O  O104  1  0.04079150  0.74170650  0.84635700  1
  O  O105  1  0.02825500  0.50000000  0.59738900  1
  O  O106  1  0.14651900  0.74125900  0.71499500  1
  O  O107  1  0.27751800  0.50000000  0.84707300  1
  O  O108  1  0.66769500  0.50000000  0.96394800  1
  O  O109  1  0.89360900  0.26895800  0.96584500  1
  O  O110  1  0.77817200  0.50000000  0.84470500  1
  O  O111  1  0.89360900  0.73104200  0.96584500  1
