# generated using pymatgen
data_Li4MoO5
_symmetry_space_group_name_H-M   'P 1'
_cell_length_a   6.59830000
_cell_length_b   6.59830000
_cell_length_c   4.27573200
_cell_angle_alpha   90.00000000
_cell_angle_beta   90.00000000
_cell_angle_gamma   90.00000000
_symmetry_Int_Tables_number   1
_chemical_formula_structural   Li4MoO5
_chemical_formula_sum   'Li8 Mo2 O10'
_cell_volume   186.15495085
_cell_formula_units_Z   2
loop_
 _symmetry_equiv_pos_site_id
 _symmetry_equiv_pos_as_xyz
  1  'x, y, z'
loop_
 _atom_site_type_symbol
 _atom_site_label
 _atom_site_symmetry_multiplicity
 _atom_site_fract_x
 _atom_site_fract_y
 _atom_site_fract_z
 _atom_site_occupancy
  Li  Li0  1  0.68590000  0.09634400  0.49870000  1
  Li  Li1  1  0.40365600  0.18590000  0.99870000  1
  Li  Li2  1  0.59634400  0.81410000  0.99870000  1
  Li  Li3  1  0.31410000  0.90365600  0.49870000  1
  Li  Li4  1  0.18590000  0.59634400  0.99870000  1
  Li  Li5  1  0.90365600  0.68590000  0.49870000  1
  Li  Li6  1  0.09634400  0.31410000  0.49870000  1
  Li  Li7  1  0.81410000  0.40365600  0.99870000  1
  Mo  Mo8  1  0.00000000  0.00000000  0.95014700  1
  Mo  Mo9  1  0.50000000  0.50000000  0.45014700  1
  O  O10  1  0.72539500  0.08743600  0.01365700  1
  O  O11  1  0.41256400  0.22539500  0.51365700  1
  O  O12  1  0.58743600  0.77460500  0.51365700  1
  O  O13  1  0.27460500  0.91256400  0.01365700  1
  O  O14  1  0.00000000  0.00000000  0.51872300  1
  O  O15  1  0.22539500  0.58743600  0.51365700  1
  O  O16  1  0.91256400  0.72539500  0.01365700  1
  O  O17  1  0.08743600  0.27460500  0.01365700  1
  O  O18  1  0.77460500  0.41256400  0.51365700  1
  O  O19  1  0.50000000  0.50000000  0.01872300  1
