# generated using pymatgen
data_SrIn6Cu7
_symmetry_space_group_name_H-M   'P 1'
_cell_length_a   12.77591400
_cell_length_b   12.78380200
_cell_length_c   12.74960400
_cell_angle_alpha   90.00000000
_cell_angle_beta   90.00000000
_cell_angle_gamma   90.00000000
_symmetry_Int_Tables_number   1
_chemical_formula_structural   SrIn6Cu7
_chemical_formula_sum   'Sr8 In48 Cu56'
_cell_volume   2082.32594895
_cell_formula_units_Z   8
loop_
 _symmetry_equiv_pos_site_id
 _symmetry_equiv_pos_as_xyz
  1  'x, y, z'
loop_
 _atom_site_type_symbol
 _atom_site_label
 _atom_site_symmetry_multiplicity
 _atom_site_fract_x
 _atom_site_fract_y
 _atom_site_fract_z
 _atom_site_occupancy
  Sr  Sr0  1  0.50000000  0.25206100  0.50000000  1
  Sr  Sr1  1  0.50000000  0.74793900  0.50000000  1
  Sr  Sr2  1  0.50000000  0.74793900  0.00000000  1
  Sr  Sr3  1  0.50000000  0.25206100  0.00000000  1
  Sr  Sr4  1  0.00000000  0.75206100  0.50000000  1
  Sr  Sr5  1  0.00000000  0.24793900  0.50000000  1
  Sr  Sr6  1  0.00000000  0.24793900  0.00000000  1
  Sr  Sr7  1  0.00000000  0.75206100  0.00000000  1
  In  In8  1  0.24893350  0.13723950  0.43574900  1
  In  In9  1  0.24893350  0.86276050  0.43574900  1
  In  In10  1  0.24893350  0.86276050  0.06425100  1
  In  In11  1  0.61303600  0.00000000  0.43192700  1
  In  In12  1  0.41767350  0.36477550  0.25000000  1
  In  In13  1  0.75106650  0.13723950  0.93574900  1
  In  In14  1  0.45381200  0.13949300  0.75000000  1
  In  In15  1  0.75106650  0.86276050  0.56425100  1
  In  In16  1  0.54618800  0.13949300  0.25000000  1
  In  In17  1  0.61303600  0.00000000  0.06807300  1
  In  In18  1  0.93831500  0.00000000  0.88465700  1
  In  In19  1  0.06168500  0.00000000  0.38465700  1
  In  In20  1  0.24893350  0.13723950  0.06425100  1
  In  In21  1  0.75106650  0.86276050  0.93574900  1
  In  In22  1  0.58232650  0.36477550  0.75000000  1
  In  In23  1  0.38696400  0.00000000  0.93192700  1
  In  In24  1  0.41767350  0.63522450  0.25000000  1
  In  In25  1  0.58232650  0.63522450  0.75000000  1
  In  In26  1  0.38696400  0.00000000  0.56807300  1
  In  In27  1  0.45381200  0.86050700  0.75000000  1
  In  In28  1  0.93831500  0.00000000  0.61534300  1
  In  In29  1  0.06168500  0.00000000  0.11534300  1
  In  In30  1  0.75106650  0.13723950  0.56425100  1
  In  In31  1  0.54618800  0.86050700  0.25000000  1
  In  In32  1  0.74893350  0.63723950  0.43574900  1
  In  In33  1  0.74893350  0.36276050  0.43574900  1
  In  In34  1  0.74893350  0.36276050  0.06425100  1
  In  In35  1  0.11303600  0.50000000  0.43192700  1
  In  In36  1  0.91767350  0.86477550  0.25000000  1
  In  In37  1  0.25106650  0.63723950  0.93574900  1
  In  In38  1  0.95381200  0.63949300  0.75000000  1
  In  In39  1  0.25106650  0.36276050  0.56425100  1
  In  In40  1  0.04618800  0.63949300  0.25000000  1
  In  In41  1  0.11303600  0.50000000  0.06807300  1
  In  In42  1  0.43831500  0.50000000  0.88465700  1
  In  In43  1  0.56168500  0.50000000  0.38465700  1
  In  In44  1  0.74893350  0.63723950  0.06425100  1
  In  In45  1  0.25106650  0.36276050  0.93574900  1
  In  In46  1  0.08232650  0.86477550  0.75000000  1
  In  In47  1  0.88696400  0.50000000  0.93192700  1
  In  In48  1  0.91767350  0.13522450  0.25000000  1
  In  In49  1  0.08232650  0.13522450  0.75000000  1
  In  In50  1  0.88696400  0.50000000  0.56807300  1
  In  In51  1  0.95381200  0.36050700  0.75000000  1
  In  In52  1  0.43831500  0.50000000  0.61534300  1
  In  In53  1  0.56168500  0.50000000  0.11534300  1
  In  In54  1  0.25106650  0.63723950  0.56425100  1
  In  In55  1  0.04618800  0.36050700  0.25000000  1
  Cu  Cu56  1  0.58861000  0.00000000  0.85448900  1
  Cu  Cu57  1  0.36731500  0.67090500  0.75000000  1
  Cu  Cu58  1  0.73486200  0.17143100  0.35400600  1
  Cu  Cu59  1  0.76096700  0.00000000  0.75000000  1
  Cu  Cu60  1  0.73486200  0.17143100  0.14599400  1
  Cu  Cu61  1  0.74042700  0.00000000  0.25000000  1
  Cu  Cu62  1  0.85096900  0.00000000  0.08112200  1
  Cu  Cu63  1  0.41139000  0.00000000  0.35448900  1
  Cu  Cu64  1  0.85096900  0.00000000  0.41887800  1
  Cu  Cu65  1  0.34075750  0.82854950  0.25000000  1
  Cu  Cu66  1  0.65924250  0.17145050  0.75000000  1
  Cu  Cu67  1  0.26513800  0.17143100  0.64599400  1
  Cu  Cu68  1  0.73486200  0.82856900  0.35400600  1
  Cu  Cu69  1  0.36731500  0.32909500  0.75000000  1
  Cu  Cu70  1  0.63268500  0.67090500  0.25000000  1
  Cu  Cu71  1  0.73486200  0.82856900  0.14599400  1
  Cu  Cu72  1  0.26513800  0.82856900  0.64599400  1
  Cu  Cu73  1  0.23903300  0.00000000  0.25000000  1
  Cu  Cu74  1  0.26513800  0.17143100  0.85400600  1
  Cu  Cu75  1  0.65924250  0.82854950  0.75000000  1
  Cu  Cu76  1  0.26513800  0.82856900  0.85400600  1
  Cu  Cu77  1  0.63268500  0.32909500  0.25000000  1
  Cu  Cu78  1  0.41139000  0.00000000  0.14551100  1
  Cu  Cu79  1  0.34075750  0.17145050  0.25000000  1
  Cu  Cu80  1  0.58861000  0.00000000  0.64551100  1
  Cu  Cu81  1  0.14903100  0.00000000  0.91887800  1
  Cu  Cu82  1  0.14903100  0.00000000  0.58112200  1
  Cu  Cu83  1  0.25957300  0.00000000  0.75000000  1
  Cu  Cu84  1  0.08861000  0.50000000  0.85448900  1
  Cu  Cu85  1  0.86731500  0.17090500  0.75000000  1
  Cu  Cu86  1  0.23486200  0.67143100  0.35400600  1
  Cu  Cu87  1  0.26096700  0.50000000  0.75000000  1
  Cu  Cu88  1  0.23486200  0.67143100  0.14599400  1
  Cu  Cu89  1  0.24042700  0.50000000  0.25000000  1
  Cu  Cu90  1  0.35096900  0.50000000  0.08112200  1
  Cu  Cu91  1  0.91139000  0.50000000  0.35448900  1
  Cu  Cu92  1  0.35096900  0.50000000  0.41887800  1
  Cu  Cu93  1  0.84075750  0.32854950  0.25000000  1
  Cu  Cu94  1  0.15924250  0.67145050  0.75000000  1
  Cu  Cu95  1  0.76513800  0.67143100  0.64599400  1
  Cu  Cu96  1  0.23486200  0.32856900  0.35400600  1
  Cu  Cu97  1  0.86731500  0.82909500  0.75000000  1
  Cu  Cu98  1  0.13268500  0.17090500  0.25000000  1
  Cu  Cu99  1  0.23486200  0.32856900  0.14599400  1
  Cu  Cu100  1  0.76513800  0.32856900  0.64599400  1
  Cu  Cu101  1  0.73903300  0.50000000  0.25000000  1
  Cu  Cu102  1  0.76513800  0.67143100  0.85400600  1
  Cu  Cu103  1  0.15924250  0.32854950  0.75000000  1
  Cu  Cu104  1  0.76513800  0.32856900  0.85400600  1
  Cu  Cu105  1  0.13268500  0.82909500  0.25000000  1
  Cu  Cu106  1  0.91139000  0.50000000  0.14551100  1
  Cu  Cu107  1  0.84075750  0.67145050  0.25000000  1
  Cu  Cu108  1  0.08861000  0.50000000  0.64551100  1
  Cu  Cu109  1  0.64903100  0.50000000  0.91887800  1
  Cu  Cu110  1  0.64903100  0.50000000  0.58112200  1
  Cu  Cu111  1  0.75957300  0.50000000  0.75000000  1
