# generated using pymatgen
data_La3Ga4Cl
_symmetry_space_group_name_H-M   'P 1'
_cell_length_a   8.26421000
_cell_length_b   8.26421000
_cell_length_c   11.45979600
_cell_angle_alpha   90.00000000
_cell_angle_beta   90.00000000
_cell_angle_gamma   90.00000000
_symmetry_Int_Tables_number   1
_chemical_formula_structural   La3Ga4Cl
_chemical_formula_sum   'La12 Ga16 Cl4'
_cell_volume   782.67160033
_cell_formula_units_Z   4
loop_
 _symmetry_equiv_pos_site_id
 _symmetry_equiv_pos_as_xyz
  1  'x, y, z'
loop_
 _atom_site_type_symbol
 _atom_site_label
 _atom_site_symmetry_multiplicity
 _atom_site_fract_x
 _atom_site_fract_y
 _atom_site_fract_z
 _atom_site_occupancy
  La  La0  1  0.16097350  0.66097350  0.00000000  1
  La  La1  1  0.33902650  0.16097350  0.00000000  1
  La  La2  1  0.16097350  0.33902650  0.50000000  1
  La  La3  1  0.00000000  0.00000000  0.75000000  1
  La  La4  1  0.33902650  0.83902650  0.50000000  1
  La  La5  1  0.00000000  0.00000000  0.25000000  1
  La  La6  1  0.66097350  0.16097350  0.50000000  1
  La  La7  1  0.83902650  0.66097350  0.50000000  1
  La  La8  1  0.66097350  0.83902650  0.00000000  1
  La  La9  1  0.50000000  0.50000000  0.25000000  1
  La  La10  1  0.83902650  0.33902650  0.00000000  1
  La  La11  1  0.50000000  0.50000000  0.75000000  1
  Ga  Ga12  1  0.14314950  0.64314950  0.30075050  1
  Ga  Ga13  1  0.85685050  0.64314950  0.19924950  1
  Ga  Ga14  1  0.64314950  0.14314950  0.19924950  1
  Ga  Ga15  1  0.35685050  0.14314950  0.30075050  1
  Ga  Ga16  1  0.14314950  0.35685050  0.19924950  1
  Ga  Ga17  1  0.35685050  0.85685050  0.19924950  1
  Ga  Ga18  1  0.64314950  0.85685050  0.30075050  1
  Ga  Ga19  1  0.85685050  0.35685050  0.30075050  1
  Ga  Ga20  1  0.64314950  0.14314950  0.80075050  1
  Ga  Ga21  1  0.35685050  0.14314950  0.69924950  1
  Ga  Ga22  1  0.14314950  0.64314950  0.69924950  1
  Ga  Ga23  1  0.85685050  0.64314950  0.80075050  1
  Ga  Ga24  1  0.64314950  0.85685050  0.69924950  1
  Ga  Ga25  1  0.85685050  0.35685050  0.69924950  1
  Ga  Ga26  1  0.14314950  0.35685050  0.80075050  1
  Ga  Ga27  1  0.35685050  0.85685050  0.80075050  1
  Cl  Cl28  1  0.00000000  0.00000000  0.50000000  1
  Cl  Cl29  1  0.00000000  0.00000000  0.00000000  1
  Cl  Cl30  1  0.50000000  0.50000000  0.00000000  1
  Cl  Cl31  1  0.50000000  0.50000000  0.50000000  1
