# generated using pymatgen
data_Sr3CuPtO6
_symmetry_space_group_name_H-M   'P 1'
_cell_length_a   9.48303800
_cell_length_b   9.84095600
_cell_length_c   6.76044239
_cell_angle_alpha   90.00000000
_cell_angle_beta   91.15197795
_cell_angle_gamma   90.00000000
_symmetry_Int_Tables_number   1
_chemical_formula_structural   Sr3CuPtO6
_chemical_formula_sum   'Sr12 Cu4 Pt4 O24'
_cell_volume   630.77156993
_cell_formula_units_Z   4
loop_
 _symmetry_equiv_pos_site_id
 _symmetry_equiv_pos_as_xyz
  1  'x, y, z'
loop_
 _atom_site_type_symbol
 _atom_site_label
 _atom_site_symmetry_multiplicity
 _atom_site_fract_x
 _atom_site_fract_y
 _atom_site_fract_z
 _atom_site_occupancy
  Sr  Sr0  1  0.50000000  0.40191100  0.75000000  1
  Sr  Sr1  1  0.50000000  0.59808900  0.25000000  1
  Sr  Sr2  1  0.31517650  0.92535050  0.12279400  1
  Sr  Sr3  1  0.68482350  0.92535050  0.37720600  1
  Sr  Sr4  1  0.68482350  0.07464950  0.87720600  1
  Sr  Sr5  1  0.31517650  0.07464950  0.62279400  1
  Sr  Sr6  1  0.00000000  0.90191100  0.75000000  1
  Sr  Sr7  1  0.00000000  0.09808900  0.25000000  1
  Sr  Sr8  1  0.81517650  0.42535050  0.12279400  1
  Sr  Sr9  1  0.18482350  0.42535050  0.37720600  1
  Sr  Sr10  1  0.18482350  0.57464950  0.87720600  1
  Sr  Sr11  1  0.81517650  0.57464950  0.62279400  1
  Cu  Cu12  1  0.50000000  0.80614200  0.75000000  1
  Cu  Cu13  1  0.50000000  0.19385800  0.25000000  1
  Cu  Cu14  1  0.00000000  0.30614200  0.75000000  1
  Cu  Cu15  1  0.00000000  0.69385800  0.25000000  1
  Pt  Pt16  1  0.75000000  0.25000000  0.50000000  1
  Pt  Pt17  1  0.75000000  0.75000000  0.00000000  1
  Pt  Pt18  1  0.25000000  0.75000000  0.50000000  1
  Pt  Pt19  1  0.25000000  0.25000000  0.00000000  1
  O  O20  1  0.55555850  0.16241950  0.53668700  1
  O  O21  1  0.44444150  0.16241950  0.96331300  1
  O  O22  1  0.44444150  0.83758050  0.46331300  1
  O  O23  1  0.55555850  0.83758050  0.03668700  1
  O  O24  1  0.85206750  0.06997050  0.56896800  1
  O  O25  1  0.14793250  0.06997050  0.93103200  1
  O  O26  1  0.14793250  0.93002950  0.43103200  1
  O  O27  1  0.85206750  0.93002950  0.06896800  1
  O  O28  1  0.70890300  0.18709600  0.21484800  1
  O  O29  1  0.29109700  0.18709600  0.28515200  1
  O  O30  1  0.70890300  0.81290400  0.71484800  1
  O  O31  1  0.29109700  0.81290400  0.78515200  1
  O  O32  1  0.05555850  0.66241950  0.53668700  1
  O  O33  1  0.94444150  0.66241950  0.96331300  1
  O  O34  1  0.94444150  0.33758050  0.46331300  1
  O  O35  1  0.05555850  0.33758050  0.03668700  1
  O  O36  1  0.35206750  0.56997050  0.56896800  1
  O  O37  1  0.64793250  0.56997050  0.93103200  1
  O  O38  1  0.64793250  0.43002950  0.43103200  1
  O  O39  1  0.35206750  0.43002950  0.06896800  1
  O  O40  1  0.20890300  0.68709600  0.21484800  1
  O  O41  1  0.79109700  0.68709600  0.28515200  1
  O  O42  1  0.20890300  0.31290400  0.71484800  1
  O  O43  1  0.79109700  0.31290400  0.78515200  1
