# generated using pymatgen
data_Gd3Se4
_symmetry_space_group_name_H-M   'P 1'
_cell_length_a   8.76219600
_cell_length_b   8.76219600
_cell_length_c   8.76219600
_cell_angle_alpha   90.00000000
_cell_angle_beta   90.00000000
_cell_angle_gamma   90.00000000
_symmetry_Int_Tables_number   1
_chemical_formula_structural   Gd3Se4
_chemical_formula_sum   'Gd12 Se16'
_cell_volume   672.72705005
_cell_formula_units_Z   4
loop_
 _symmetry_equiv_pos_site_id
 _symmetry_equiv_pos_as_xyz
  1  'x, y, z'
loop_
 _atom_site_type_symbol
 _atom_site_label
 _atom_site_symmetry_multiplicity
 _atom_site_fract_x
 _atom_site_fract_y
 _atom_site_fract_z
 _atom_site_occupancy
  Gd  Gd0  1  0.37500000  0.50000000  0.75000000  1
  Gd  Gd1  1  0.50000000  0.75000000  0.37500000  1
  Gd  Gd2  1  0.12500000  0.50000000  0.25000000  1
  Gd  Gd3  1  0.75000000  0.37500000  0.50000000  1
  Gd  Gd4  1  0.25000000  0.12500000  0.50000000  1
  Gd  Gd5  1  0.50000000  0.25000000  0.12500000  1
  Gd  Gd6  1  0.87500000  0.00000000  0.25000000  1
  Gd  Gd7  1  0.00000000  0.25000000  0.87500000  1
  Gd  Gd8  1  0.62500000  0.00000000  0.75000000  1
  Gd  Gd9  1  0.25000000  0.87500000  0.00000000  1
  Gd  Gd10  1  0.75000000  0.62500000  0.00000000  1
  Gd  Gd11  1  0.00000000  0.75000000  0.62500000  1
  Se  Se12  1  0.17602350  0.82397650  0.32397650  1
  Se  Se13  1  0.17602350  0.17602350  0.17602350  1
  Se  Se14  1  0.92602350  0.07397650  0.57397650  1
  Se  Se15  1  0.07397650  0.57397650  0.92602350  1
  Se  Se16  1  0.82397650  0.32397650  0.17602350  1
  Se  Se17  1  0.57397650  0.92602350  0.07397650  1
  Se  Se18  1  0.42602350  0.42602350  0.42602350  1
  Se  Se19  1  0.32397650  0.17602350  0.82397650  1
  Se  Se20  1  0.67602350  0.32397650  0.82397650  1
  Se  Se21  1  0.67602350  0.67602350  0.67602350  1
  Se  Se22  1  0.42602350  0.57397650  0.07397650  1
  Se  Se23  1  0.57397650  0.07397650  0.42602350  1
  Se  Se24  1  0.32397650  0.82397650  0.67602350  1
  Se  Se25  1  0.07397650  0.42602350  0.57397650  1
  Se  Se26  1  0.92602350  0.92602350  0.92602350  1
  Se  Se27  1  0.82397650  0.67602350  0.32397650  1
