# generated using pymatgen
data_Na4PtO4
_symmetry_space_group_name_H-M   'P 1'
_cell_length_a   10.74183800
_cell_length_b   4.54029800
_cell_length_c   9.97041143
_cell_angle_alpha   90.00000000
_cell_angle_beta   91.84027977
_cell_angle_gamma   90.00000000
_symmetry_Int_Tables_number   1
_chemical_formula_structural   Na4PtO4
_chemical_formula_sum   'Na16 Pt4 O16'
_cell_volume   486.01758522
_cell_formula_units_Z   4
loop_
 _symmetry_equiv_pos_site_id
 _symmetry_equiv_pos_as_xyz
  1  'x, y, z'
loop_
 _atom_site_type_symbol
 _atom_site_label
 _atom_site_symmetry_multiplicity
 _atom_site_fract_x
 _atom_site_fract_y
 _atom_site_fract_z
 _atom_site_occupancy
  Na  Na0  1  0.87232700  0.50000000  0.04411900  1
  Na  Na1  1  0.62767300  0.00000000  0.95588100  1
  Na  Na2  1  0.75783600  0.50000000  0.72668200  1
  Na  Na3  1  0.92748900  0.00000000  0.82270400  1
  Na  Na4  1  0.85343300  0.00000000  0.54736600  1
  Na  Na5  1  0.64656700  0.50000000  0.45263400  1
  Na  Na6  1  0.57251100  0.50000000  0.17729600  1
  Na  Na7  1  0.74216400  0.00000000  0.27331800  1
  Na  Na8  1  0.37232700  0.00000000  0.04411900  1
  Na  Na9  1  0.12767300  0.50000000  0.95588100  1
  Na  Na10  1  0.25783600  0.00000000  0.72668200  1
  Na  Na11  1  0.42748900  0.50000000  0.82270400  1
  Na  Na12  1  0.35343300  0.50000000  0.54736600  1
  Na  Na13  1  0.14656700  0.00000000  0.45263400  1
  Na  Na14  1  0.07251100  0.00000000  0.17729600  1
  Na  Na15  1  0.24216400  0.50000000  0.27331800  1
  Pt  Pt16  1  0.54810300  0.00000000  0.65493100  1
  Pt  Pt17  1  0.95189700  0.50000000  0.34506900  1
  Pt  Pt18  1  0.04810300  0.50000000  0.65493100  1
  Pt  Pt19  1  0.45189700  0.00000000  0.34506900  1
  O  O20  1  0.95648100  0.50000000  0.83626300  1
  O  O21  1  0.55579500  0.50000000  0.65813800  1
  O  O22  1  0.71830900  0.00000000  0.75527700  1
  O  O23  1  0.61822400  0.00000000  0.46436100  1
  O  O24  1  0.88177600  0.50000000  0.53563900  1
  O  O25  1  0.78169100  0.50000000  0.24472300  1
  O  O26  1  0.94420500  0.00000000  0.34186200  1
  O  O27  1  0.54351900  0.00000000  0.16373700  1
  O  O28  1  0.45648100  0.00000000  0.83626300  1
  O  O29  1  0.05579500  0.00000000  0.65813800  1
  O  O30  1  0.21830900  0.50000000  0.75527700  1
  O  O31  1  0.11822400  0.50000000  0.46436100  1
  O  O32  1  0.38177600  0.00000000  0.53563900  1
  O  O33  1  0.28169100  0.00000000  0.24472300  1
  O  O34  1  0.44420500  0.50000000  0.34186200  1
  O  O35  1  0.04351900  0.50000000  0.16373700  1
