# generated using pymatgen
data_Al2CrS4
_symmetry_space_group_name_H-M   'P 1'
_cell_length_a   7.05908000
_cell_length_b   7.19456800
_cell_length_c   10.03990000
_cell_angle_alpha   90.00000000
_cell_angle_beta   90.00000000
_cell_angle_gamma   90.00000000
_symmetry_Int_Tables_number   1
_chemical_formula_structural   Al2CrS4
_chemical_formula_sum   'Al8 Cr4 S16'
_cell_volume   509.89671331
_cell_formula_units_Z   4
loop_
 _symmetry_equiv_pos_site_id
 _symmetry_equiv_pos_as_xyz
  1  'x, y, z'
loop_
 _atom_site_type_symbol
 _atom_site_label
 _atom_site_symmetry_multiplicity
 _atom_site_fract_x
 _atom_site_fract_y
 _atom_site_fract_z
 _atom_site_occupancy
  Al  Al0  1  0.50000000  0.25000000  0.63096700  1
  Al  Al1  1  0.50000000  0.75000000  0.36903300  1
  Al  Al2  1  0.50000000  0.00000000  0.00000000  1
  Al  Al3  1  0.00000000  0.00000000  0.50000000  1
  Al  Al4  1  0.00000000  0.75000000  0.13096700  1
  Al  Al5  1  0.00000000  0.25000000  0.86903300  1
  Al  Al6  1  0.00000000  0.50000000  0.50000000  1
  Al  Al7  1  0.50000000  0.50000000  0.00000000  1
  Cr  Cr8  1  0.25000000  0.25000000  0.25000000  1
  Cr  Cr9  1  0.75000000  0.25000000  0.25000000  1
  Cr  Cr10  1  0.75000000  0.75000000  0.75000000  1
  Cr  Cr11  1  0.25000000  0.75000000  0.75000000  1
  S  S12  1  0.50000000  0.01382100  0.24129700  1
  S  S13  1  0.00000000  0.98617900  0.74129700  1
  S  S14  1  0.76468000  0.75000000  0.50679500  1
  S  S15  1  0.23532000  0.75000000  0.50679500  1
  S  S16  1  0.76468000  0.25000000  0.49320500  1
  S  S17  1  0.23532000  0.25000000  0.49320500  1
  S  S18  1  0.00000000  0.01382100  0.25870300  1
  S  S19  1  0.50000000  0.98617900  0.75870300  1
  S  S20  1  0.00000000  0.51382100  0.74129700  1
  S  S21  1  0.50000000  0.48617900  0.24129700  1
  S  S22  1  0.26468000  0.25000000  0.00679500  1
  S  S23  1  0.73532000  0.25000000  0.00679500  1
  S  S24  1  0.26468000  0.75000000  0.99320500  1
  S  S25  1  0.73532000  0.75000000  0.99320500  1
  S  S26  1  0.50000000  0.51382100  0.75870300  1
  S  S27  1  0.00000000  0.48617900  0.25870300  1
