# generated using pymatgen
data_MnNb2Zn2O8
_symmetry_space_group_name_H-M   'P 1'
_cell_length_a   19.62808800
_cell_length_b   6.01119200
_cell_length_c   5.31022688
_cell_angle_alpha   90.00000000
_cell_angle_beta   90.03307045
_cell_angle_gamma   90.00000000
_symmetry_Int_Tables_number   1
_chemical_formula_structural   MnNb2Zn2O8
_chemical_formula_sum   'Mn4 Nb8 Zn8 O32'
_cell_volume   626.54403686
_cell_formula_units_Z   4
loop_
 _symmetry_equiv_pos_site_id
 _symmetry_equiv_pos_as_xyz
  1  'x, y, z'
loop_
 _atom_site_type_symbol
 _atom_site_label
 _atom_site_symmetry_multiplicity
 _atom_site_fract_x
 _atom_site_fract_y
 _atom_site_fract_z
 _atom_site_occupancy
  Mn  Mn0  1  0.00000000  0.65850300  0.25000000  1
  Mn  Mn1  1  0.00000000  0.34149700  0.75000000  1
  Mn  Mn2  1  0.50000000  0.15850300  0.25000000  1
  Mn  Mn3  1  0.50000000  0.84149700  0.75000000  1
  Nb  Nb4  1  0.88340100  0.16139300  0.23522900  1
  Nb  Nb5  1  0.61659900  0.66139300  0.26477100  1
  Nb  Nb6  1  0.61659900  0.33860700  0.76477100  1
  Nb  Nb7  1  0.88340100  0.83860700  0.73522900  1
  Nb  Nb8  1  0.38340100  0.66139300  0.23522900  1
  Nb  Nb9  1  0.11659900  0.16139300  0.26477100  1
  Nb  Nb10  1  0.11659900  0.83860700  0.76477100  1
  Nb  Nb11  1  0.38340100  0.33860700  0.73522900  1
  Zn  Zn12  1  0.72100950  0.15375050  0.26390400  1
  Zn  Zn13  1  0.77899050  0.65375050  0.23609600  1
  Zn  Zn14  1  0.77899050  0.34624950  0.73609600  1
  Zn  Zn15  1  0.72100950  0.84624950  0.76390400  1
  Zn  Zn16  1  0.22100950  0.65375050  0.26390400  1
  Zn  Zn17  1  0.27899050  0.15375050  0.23609600  1
  Zn  Zn18  1  0.27899050  0.84624950  0.73609600  1
  Zn  Zn19  1  0.22100950  0.34624950  0.76390400  1
  O  O20  1  0.92850500  0.10878500  0.56840500  1
  O  O21  1  0.57149500  0.60878500  0.93159500  1
  O  O22  1  0.57149500  0.39121500  0.43159500  1
  O  O23  1  0.92850500  0.89121500  0.06840500  1
  O  O24  1  0.93966150  0.37344550  0.09189100  1
  O  O25  1  0.56033850  0.87344550  0.40810900  1
  O  O26  1  0.56033850  0.12655450  0.90810900  1
  O  O27  1  0.93966150  0.62655450  0.59189100  1
  O  O28  1  0.81916000  0.10192400  0.94137200  1
  O  O29  1  0.68084000  0.60192400  0.55862800  1
  O  O30  1  0.80635250  0.64346650  0.86843900  1
  O  O31  1  0.69364750  0.14346650  0.63156100  1
  O  O32  1  0.69364750  0.85653350  0.13156100  1
  O  O33  1  0.80635250  0.35653350  0.36843900  1
  O  O34  1  0.81916000  0.89807600  0.44137200  1
  O  O35  1  0.68084000  0.39807600  0.05862800  1
  O  O36  1  0.42850500  0.60878500  0.56840500  1
  O  O37  1  0.07149500  0.10878500  0.93159500  1
  O  O38  1  0.07149500  0.89121500  0.43159500  1
  O  O39  1  0.42850500  0.39121500  0.06840500  1
  O  O40  1  0.43966150  0.87344550  0.09189100  1
  O  O41  1  0.06033850  0.37344550  0.40810900  1
  O  O42  1  0.06033850  0.62655450  0.90810900  1
  O  O43  1  0.43966150  0.12655450  0.59189100  1
  O  O44  1  0.31916000  0.60192400  0.94137200  1
  O  O45  1  0.18084000  0.10192400  0.55862800  1
  O  O46  1  0.30635250  0.14346650  0.86843900  1
  O  O47  1  0.19364750  0.64346650  0.63156100  1
  O  O48  1  0.19364750  0.35653350  0.13156100  1
  O  O49  1  0.30635250  0.85653350  0.36843900  1
  O  O50  1  0.31916000  0.39807600  0.44137200  1
  O  O51  1  0.18084000  0.89807600  0.05862800  1
