# generated using pymatgen
data_Cu13I15
_symmetry_space_group_name_H-M   'P 1'
_cell_length_a   7.33170800
_cell_length_b   4.25318200
_cell_length_c   52.69698366
_cell_angle_alpha   90.00000000
_cell_angle_beta   90.25494034
_cell_angle_gamma   90.00000000
_symmetry_Int_Tables_number   1
_chemical_formula_structural   Cu13I15
_chemical_formula_sum   'Cu26 I30'
_cell_volume   1643.23843791
_cell_formula_units_Z   2
loop_
 _symmetry_equiv_pos_site_id
 _symmetry_equiv_pos_as_xyz
  1  'x, y, z'
loop_
 _atom_site_type_symbol
 _atom_site_label
 _atom_site_symmetry_multiplicity
 _atom_site_fract_x
 _atom_site_fract_y
 _atom_site_fract_z
 _atom_site_occupancy
  Cu  Cu0  1  0.33268800  0.00000000  0.91860600  1
  Cu  Cu1  1  0.97605900  0.00000000  0.84782400  1
  Cu  Cu2  1  0.31034600  0.00000000  0.71675100  1
  Cu  Cu3  1  0.97565200  0.00000000  0.64866600  1
  Cu  Cu4  1  0.64149400  0.00000000  0.58186400  1
  Cu  Cu5  1  0.30773400  0.00000000  0.51519400  1
  Cu  Cu6  1  0.97475400  0.00000000  0.44849500  1
  Cu  Cu7  1  0.64106900  0.00000000  0.38179500  1
  Cu  Cu8  1  0.30805200  0.00000000  0.31514100  1
  Cu  Cu9  1  0.97462700  0.00000000  0.24851700  1
  Cu  Cu10  1  0.64103700  0.00000000  0.18194300  1
  Cu  Cu11  1  0.30815000  0.00000000  0.11508200  1
  Cu  Cu12  1  0.97362200  0.00000000  0.04678400  1
  Cu  Cu13  1  0.83268800  0.50000000  0.91860600  1
  Cu  Cu14  1  0.47605900  0.50000000  0.84782400  1
  Cu  Cu15  1  0.81034600  0.50000000  0.71675100  1
  Cu  Cu16  1  0.47565200  0.50000000  0.64866600  1
  Cu  Cu17  1  0.14149400  0.50000000  0.58186400  1
  Cu  Cu18  1  0.80773400  0.50000000  0.51519400  1
  Cu  Cu19  1  0.47475400  0.50000000  0.44849500  1
  Cu  Cu20  1  0.14106900  0.50000000  0.38179500  1
  Cu  Cu21  1  0.80805200  0.50000000  0.31514100  1
  Cu  Cu22  1  0.47462700  0.50000000  0.24851700  1
  Cu  Cu23  1  0.14103700  0.50000000  0.18194300  1
  Cu  Cu24  1  0.80815000  0.50000000  0.11508200  1
  Cu  Cu25  1  0.47362200  0.50000000  0.04678400  1
  I  I26  1  0.99349600  0.00000000  0.00019500  1
  I  I27  1  0.66704700  0.00000000  0.93527100  1
  I  I28  1  0.31655100  0.00000000  0.86814400  1
  I  I29  1  0.64563800  0.00000000  0.73237300  1
  I  I30  1  0.99178100  0.00000000  0.80102600  1
  I  I31  1  0.31106900  0.00000000  0.66546800  1
  I  I32  1  0.31092100  0.00000000  0.46569500  1
  I  I33  1  0.97742500  0.00000000  0.39905900  1
  I  I34  1  0.97737200  0.00000000  0.59879900  1
  I  I35  1  0.64386100  0.00000000  0.53227900  1
  I  I36  1  0.64441400  0.00000000  0.33241800  1
  I  I37  1  0.31102100  0.00000000  0.26582700  1
  I  I38  1  0.64493800  0.00000000  0.13284400  1
  I  I39  1  0.97760800  0.00000000  0.19929500  1
  I  I40  1  0.31224500  0.00000000  0.06637900  1
  I  I41  1  0.49349600  0.50000000  0.00019500  1
  I  I42  1  0.16704700  0.50000000  0.93527100  1
  I  I43  1  0.81655100  0.50000000  0.86814400  1
  I  I44  1  0.14563800  0.50000000  0.73237300  1
  I  I45  1  0.49178100  0.50000000  0.80102600  1
  I  I46  1  0.81106900  0.50000000  0.66546800  1
  I  I47  1  0.81092100  0.50000000  0.46569500  1
  I  I48  1  0.47742500  0.50000000  0.39905900  1
  I  I49  1  0.47737200  0.50000000  0.59879900  1
  I  I50  1  0.14386100  0.50000000  0.53227900  1
  I  I51  1  0.14441400  0.50000000  0.33241800  1
  I  I52  1  0.81102100  0.50000000  0.26582700  1
  I  I53  1  0.14493800  0.50000000  0.13284400  1
  I  I54  1  0.47760800  0.50000000  0.19929500  1
  I  I55  1  0.81224500  0.50000000  0.06637900  1
