# generated using pymatgen
data_Ce5AgS8
_symmetry_space_group_name_H-M   'P 1'
_cell_length_a   8.51386400
_cell_length_b   8.51386400
_cell_length_c   8.61035400
_cell_angle_alpha   90.00000000
_cell_angle_beta   90.00000000
_cell_angle_gamma   90.00000000
_symmetry_Int_Tables_number   1
_chemical_formula_structural   Ce5AgS8
_chemical_formula_sum   'Ce10 Ag2 S16'
_cell_volume   624.12908861
_cell_formula_units_Z   2
loop_
 _symmetry_equiv_pos_site_id
 _symmetry_equiv_pos_as_xyz
  1  'x, y, z'
loop_
 _atom_site_type_symbol
 _atom_site_label
 _atom_site_symmetry_multiplicity
 _atom_site_fract_x
 _atom_site_fract_y
 _atom_site_fract_z
 _atom_site_occupancy
  Ce  Ce0  1  0.75044800  0.36839400  0.38250700  1
  Ce  Ce1  1  0.13160600  0.25044800  0.11749300  1
  Ce  Ce2  1  0.74955200  0.13160600  0.88250700  1
  Ce  Ce3  1  0.00000000  0.00000000  0.50000000  1
  Ce  Ce4  1  0.36839400  0.24955200  0.61749300  1
  Ce  Ce5  1  0.25044800  0.86839400  0.88250700  1
  Ce  Ce6  1  0.63160600  0.75044800  0.61749300  1
  Ce  Ce7  1  0.24955200  0.63160600  0.38250700  1
  Ce  Ce8  1  0.50000000  0.50000000  0.00000000  1
  Ce  Ce9  1  0.86839400  0.74955200  0.11749300  1
  Ag  Ag10  1  0.50000000  0.00000000  0.25000000  1
  Ag  Ag11  1  0.00000000  0.50000000  0.75000000  1
  S  S12  1  0.32340650  0.56975850  0.70328550  1
  S  S13  1  0.43024150  0.32340650  0.29671450  1
  S  S14  1  0.42112550  0.18167450  0.93612750  1
  S  S15  1  0.31832550  0.92112550  0.56387250  1
  S  S16  1  0.18167450  0.57887450  0.06387250  1
  S  S17  1  0.06975850  0.17659350  0.79671450  1
  S  S18  1  0.17659350  0.93024150  0.20328550  1
  S  S19  1  0.07887450  0.31832550  0.43612750  1
  S  S20  1  0.82340650  0.06975850  0.20328550  1
  S  S21  1  0.93024150  0.82340650  0.79671450  1
  S  S22  1  0.92112550  0.68167450  0.43612750  1
  S  S23  1  0.81832550  0.42112550  0.06387250  1
  S  S24  1  0.68167450  0.07887450  0.56387250  1
  S  S25  1  0.56975850  0.67659350  0.29671450  1
  S  S26  1  0.67659350  0.43024150  0.70328550  1
  S  S27  1  0.57887450  0.81832550  0.93612750  1
