# generated using pymatgen
data_Co(NiS2)2
_symmetry_space_group_name_H-M   'P 1'
_cell_length_a   6.60806400
_cell_length_b   6.64478800
_cell_length_c   9.37042600
_cell_angle_alpha   90.00000000
_cell_angle_beta   90.00000000
_cell_angle_gamma   90.00000000
_symmetry_Int_Tables_number   1
_chemical_formula_structural   Co(NiS2)2
_chemical_formula_sum   'Co4 Ni8 S16'
_cell_volume   411.44776286
_cell_formula_units_Z   4
loop_
 _symmetry_equiv_pos_site_id
 _symmetry_equiv_pos_as_xyz
  1  'x, y, z'
loop_
 _atom_site_type_symbol
 _atom_site_label
 _atom_site_symmetry_multiplicity
 _atom_site_fract_x
 _atom_site_fract_y
 _atom_site_fract_z
 _atom_site_occupancy
  Co  Co0  1  0.75000000  0.25000000  0.25000000  1
  Co  Co1  1  0.25000000  0.25000000  0.25000000  1
  Co  Co2  1  0.25000000  0.75000000  0.75000000  1
  Co  Co3  1  0.75000000  0.75000000  0.75000000  1
  Ni  Ni4  1  0.00000000  0.75000000  0.37438200  1
  Ni  Ni5  1  0.00000000  0.00000000  0.00000000  1
  Ni  Ni6  1  0.50000000  0.00000000  0.50000000  1
  Ni  Ni7  1  0.00000000  0.25000000  0.62561800  1
  Ni  Ni8  1  0.50000000  0.25000000  0.87438200  1
  Ni  Ni9  1  0.50000000  0.50000000  0.50000000  1
  Ni  Ni10  1  0.00000000  0.50000000  0.00000000  1
  Ni  Ni11  1  0.50000000  0.75000000  0.12561800  1
  S  S12  1  0.26558450  0.75000000  0.51068850  1
  S  S13  1  0.73441550  0.75000000  0.51068850  1
  S  S14  1  0.00000000  0.02147500  0.24242300  1
  S  S15  1  0.50000000  0.97852500  0.74242300  1
  S  S16  1  0.50000000  0.02147500  0.25757700  1
  S  S17  1  0.00000000  0.97852500  0.75757700  1
  S  S18  1  0.26558450  0.25000000  0.48931150  1
  S  S19  1  0.73441550  0.25000000  0.48931150  1
  S  S20  1  0.76558450  0.25000000  0.01068850  1
  S  S21  1  0.23441550  0.25000000  0.01068850  1
  S  S22  1  0.50000000  0.52147500  0.74242300  1
  S  S23  1  0.00000000  0.47852500  0.24242300  1
  S  S24  1  0.00000000  0.52147500  0.75757700  1
  S  S25  1  0.50000000  0.47852500  0.25757700  1
  S  S26  1  0.76558450  0.75000000  0.98931150  1
  S  S27  1  0.23441550  0.75000000  0.98931150  1
