# generated using pymatgen
data_Nb25S48
_symmetry_space_group_name_H-M   'P 1'
_cell_length_a   14.82826600
_cell_length_b   20.34135600
_cell_length_c   11.67508923
_cell_angle_alpha   90.00000000
_cell_angle_beta   121.75018749
_cell_angle_gamma   90.00000000
_symmetry_Int_Tables_number   1
_chemical_formula_structural   Nb25S48
_chemical_formula_sum   'Nb50 S96'
_cell_volume   2994.52849556
_cell_formula_units_Z   2
loop_
 _symmetry_equiv_pos_site_id
 _symmetry_equiv_pos_as_xyz
  1  'x, y, z'
loop_
 _atom_site_type_symbol
 _atom_site_label
 _atom_site_symmetry_multiplicity
 _atom_site_fract_x
 _atom_site_fract_y
 _atom_site_fract_z
 _atom_site_occupancy
  Nb  Nb0  1  0.83125750  0.83388750  0.99610400  1
  Nb  Nb1  1  0.33258100  0.83288900  0.49789000  1
  Nb  Nb2  1  0.33281850  0.25176050  0.25226200  1
  Nb  Nb3  1  0.83125750  0.16611250  0.99610400  1
  Nb  Nb4  1  0.33131300  0.75098600  0.74980700  1
  Nb  Nb5  1  0.33131300  0.24901400  0.74980700  1
  Nb  Nb6  1  0.34131350  0.08289150  0.75706000  1
  Nb  Nb7  1  0.33258100  0.16711100  0.49789000  1
  Nb  Nb8  1  0.83235050  0.16468350  0.49515600  1
  Nb  Nb9  1  0.83186400  0.00000000  0.49478900  1
  Nb  Nb10  1  0.33281850  0.74823950  0.25226200  1
  Nb  Nb11  1  0.83080900  0.08175500  0.25178200  1
  Nb  Nb12  1  0.33179850  0.08320750  0.25376500  1
  Nb  Nb13  1  0.33179850  0.91679250  0.25376500  1
  Nb  Nb14  1  0.33317100  0.16531500  0.99929600  1
  Nb  Nb15  1  0.33257000  0.00000000  0.99870500  1
  Nb  Nb16  1  0.82964400  0.00000000  0.99855300  1
  Nb  Nb17  1  0.83040400  0.08412500  0.75023400  1
  Nb  Nb18  1  0.83040400  0.91587500  0.75023400  1
  Nb  Nb19  1  0.56100200  0.00000000  0.81917900  1
  Nb  Nb20  1  0.34131350  0.91710850  0.75706000  1
  Nb  Nb21  1  0.34013800  0.00000000  0.50509000  1
  Nb  Nb22  1  0.83080900  0.91824500  0.25178200  1
  Nb  Nb23  1  0.33317100  0.83468500  0.99929600  1
  Nb  Nb24  1  0.83235050  0.83531650  0.49515600  1
  Nb  Nb25  1  0.33125750  0.33388750  0.99610400  1
  Nb  Nb26  1  0.83258100  0.33288900  0.49789000  1
  Nb  Nb27  1  0.83281850  0.75176050  0.25226200  1
  Nb  Nb28  1  0.33125750  0.66611250  0.99610400  1
  Nb  Nb29  1  0.83131300  0.25098600  0.74980700  1
  Nb  Nb30  1  0.83131300  0.74901400  0.74980700  1
  Nb  Nb31  1  0.84131350  0.58289150  0.75706000  1
  Nb  Nb32  1  0.83258100  0.66711100  0.49789000  1
  Nb  Nb33  1  0.33235050  0.66468350  0.49515600  1
  Nb  Nb34  1  0.33186400  0.50000000  0.49478900  1
  Nb  Nb35  1  0.83281850  0.24823950  0.25226200  1
  Nb  Nb36  1  0.33080900  0.58175500  0.25178200  1
  Nb  Nb37  1  0.83179850  0.58320750  0.25376500  1
  Nb  Nb38  1  0.83179850  0.41679250  0.25376500  1
  Nb  Nb39  1  0.83317100  0.66531500  0.99929600  1
  Nb  Nb40  1  0.83257000  0.50000000  0.99870500  1
  Nb  Nb41  1  0.32964400  0.50000000  0.99855300  1
  Nb  Nb42  1  0.33040400  0.58412500  0.75023400  1
  Nb  Nb43  1  0.33040400  0.41587500  0.75023400  1
  Nb  Nb44  1  0.06100200  0.50000000  0.81917900  1
  Nb  Nb45  1  0.84131350  0.41710850  0.75706000  1
  Nb  Nb46  1  0.84013800  0.50000000  0.50509000  1
  Nb  Nb47  1  0.33080900  0.41824500  0.25178200  1
  Nb  Nb48  1  0.83317100  0.33468500  0.99929600  1
  Nb  Nb49  1  0.33235050  0.33531650  0.49515600  1
  S  S50  1  0.45707750  0.33466350  0.41279900  1
  S  S51  1  0.70778150  0.83452950  0.24882800  1
  S  S52  1  0.45364350  0.74995650  0.16296200  1
  S  S53  1  0.45835800  0.83171200  0.91837100  1
  S  S54  1  0.70966300  0.25075400  0.00051400  1
  S  S55  1  0.21079800  0.83597800  0.74933500  1
  S  S56  1  0.45835800  0.16828800  0.91837100  1
  S  S57  1  0.45574650  0.33376350  0.91396000  1
  S  S58  1  0.45454450  0.25190450  0.66300700  1
  S  S59  1  0.21079800  0.16402200  0.74933500  1
  S  S60  1  0.70802900  0.83153500  0.74760600  1
  S  S61  1  0.71089750  0.75022650  0.49965700  1
  S  S62  1  0.45457600  0.58316600  0.66710800  1
  S  S63  1  0.45454450  0.74809550  0.66300700  1
  S  S64  1  0.45529350  0.83189050  0.41217500  1
  S  S65  1  0.45707750  0.66533650  0.41279900  1
  S  S66  1  0.70912950  0.08338450  0.50210200  1
  S  S67  1  0.71089750  0.24977350  0.49965700  1
  S  S68  1  0.70778150  0.16547050  0.24882800  1
  S  S69  1  0.20615400  0.83249100  0.24895000  1
  S  S70  1  0.45529350  0.16810950  0.41217500  1
  S  S71  1  0.45364350  0.25004350  0.16296200  1
  S  S72  1  0.45438550  0.08388150  0.16853500  1
  S  S73  1  0.20615400  0.16750900  0.24895000  1
  S  S74  1  0.21053100  0.00000000  0.25640100  1
  S  S75  1  0.70966300  0.74924600  0.00051400  1
  S  S76  1  0.20927700  0.08340700  0.00222000  1
  S  S77  1  0.45036900  0.58332300  0.16127600  1
  S  S78  1  0.95281900  0.00000000  0.91440600  1
  S  S79  1  0.45574650  0.66623650  0.91396000  1
  S  S80  1  0.70300650  0.08221750  0.99567700  1
  S  S81  1  0.70802900  0.16846500  0.74760600  1
  S  S82  1  0.70204800  0.00000000  0.74690300  1
  S  S83  1  0.46360950  0.08908750  0.66559100  1
  S  S84  1  0.46360950  0.91091250  0.66559100  1
  S  S85  1  0.45849800  0.00000000  0.41499400  1
  S  S86  1  0.21478800  0.00000000  0.75214900  1
  S  S87  1  0.21712000  0.08294300  0.50812800  1
  S  S88  1  0.21712000  0.91705700  0.50812800  1
  S  S89  1  0.95747700  0.00000000  0.41623800  1
  S  S90  1  0.45036900  0.41667700  0.16127600  1
  S  S91  1  0.70635400  0.00000000  0.25123300  1
  S  S92  1  0.70300650  0.91778250  0.99567700  1
  S  S93  1  0.45438550  0.91611850  0.16853500  1
  S  S94  1  0.46551300  0.00000000  0.93516000  1
  S  S95  1  0.20927700  0.91659300  0.00222000  1
  S  S96  1  0.45457600  0.41683400  0.66710800  1
  S  S97  1  0.70912950  0.91661550  0.50210200  1
  S  S98  1  0.95707750  0.83466350  0.41279900  1
  S  S99  1  0.20778150  0.33452950  0.24882800  1
  S  S100  1  0.95364350  0.24995650  0.16296200  1
  S  S101  1  0.95835800  0.33171200  0.91837100  1
  S  S102  1  0.20966300  0.75075400  0.00051400  1
  S  S103  1  0.71079800  0.33597800  0.74933500  1
  S  S104  1  0.95835800  0.66828800  0.91837100  1
  S  S105  1  0.95574650  0.83376350  0.91396000  1
  S  S106  1  0.95454450  0.75190450  0.66300700  1
  S  S107  1  0.71079800  0.66402200  0.74933500  1
  S  S108  1  0.20802900  0.33153500  0.74760600  1
  S  S109  1  0.21089750  0.25022650  0.49965700  1
  S  S110  1  0.95457600  0.08316600  0.66710800  1
  S  S111  1  0.95454450  0.24809550  0.66300700  1
  S  S112  1  0.95529350  0.33189050  0.41217500  1
  S  S113  1  0.95707750  0.16533650  0.41279900  1
  S  S114  1  0.20912950  0.58338450  0.50210200  1
  S  S115  1  0.21089750  0.74977350  0.49965700  1
  S  S116  1  0.20778150  0.66547050  0.24882800  1
  S  S117  1  0.70615400  0.33249100  0.24895000  1
  S  S118  1  0.95529350  0.66810950  0.41217500  1
  S  S119  1  0.95364350  0.75004350  0.16296200  1
  S  S120  1  0.95438550  0.58388150  0.16853500  1
  S  S121  1  0.70615400  0.66750900  0.24895000  1
  S  S122  1  0.71053100  0.50000000  0.25640100  1
  S  S123  1  0.20966300  0.24924600  0.00051400  1
  S  S124  1  0.70927700  0.58340700  0.00222000  1
  S  S125  1  0.95036900  0.08332300  0.16127600  1
  S  S126  1  0.45281900  0.50000000  0.91440600  1
  S  S127  1  0.95574650  0.16623650  0.91396000  1
  S  S128  1  0.20300650  0.58221750  0.99567700  1
  S  S129  1  0.20802900  0.66846500  0.74760600  1
  S  S130  1  0.20204800  0.50000000  0.74690300  1
  S  S131  1  0.96360950  0.58908750  0.66559100  1
  S  S132  1  0.96360950  0.41091250  0.66559100  1
  S  S133  1  0.95849800  0.50000000  0.41499400  1
  S  S134  1  0.71478800  0.50000000  0.75214900  1
  S  S135  1  0.71712000  0.58294300  0.50812800  1
  S  S136  1  0.71712000  0.41705700  0.50812800  1
  S  S137  1  0.45747700  0.50000000  0.41623800  1
  S  S138  1  0.95036900  0.91667700  0.16127600  1
  S  S139  1  0.20635400  0.50000000  0.25123300  1
  S  S140  1  0.20300650  0.41778250  0.99567700  1
  S  S141  1  0.95438550  0.41611850  0.16853500  1
  S  S142  1  0.96551300  0.50000000  0.93516000  1
  S  S143  1  0.70927700  0.41659300  0.00222000  1
  S  S144  1  0.95457600  0.91683400  0.66710800  1
  S  S145  1  0.20912950  0.41661550  0.50210200  1
