# generated using pymatgen
data_SnPO4
_symmetry_space_group_name_H-M   'P 1'
_cell_length_a   8.42778400
_cell_length_b   13.90920400
_cell_length_c   9.70867086
_cell_angle_alpha   90.00000000
_cell_angle_beta   90.50282067
_cell_angle_gamma   90.00000000
_symmetry_Int_Tables_number   1
_chemical_formula_structural   SnPO4
_chemical_formula_sum   'Sn12 P12 O48'
_cell_volume   1138.04314476
_cell_formula_units_Z   12
loop_
 _symmetry_equiv_pos_site_id
 _symmetry_equiv_pos_as_xyz
  1  'x, y, z'
loop_
 _atom_site_type_symbol
 _atom_site_label
 _atom_site_symmetry_multiplicity
 _atom_site_fract_x
 _atom_site_fract_y
 _atom_site_fract_z
 _atom_site_occupancy
  Sn  Sn0  1  0.31392400  0.69271800  0.54782400  1
  Sn  Sn1  1  0.78655800  0.79688400  0.54049100  1
  Sn  Sn2  1  0.38187400  0.96232000  0.53661100  1
  Sn  Sn3  1  0.31392400  0.30728200  0.04782400  1
  Sn  Sn4  1  0.78655800  0.20311600  0.04049100  1
  Sn  Sn5  1  0.38187400  0.03768000  0.03661100  1
  Sn  Sn6  1  0.81392400  0.19271800  0.54782400  1
  Sn  Sn7  1  0.28655800  0.29688400  0.54049100  1
  Sn  Sn8  1  0.88187400  0.46232000  0.53661100  1
  Sn  Sn9  1  0.81392400  0.80728200  0.04782400  1
  Sn  Sn10  1  0.28655800  0.70311600  0.04049100  1
  Sn  Sn11  1  0.88187400  0.53768000  0.03661100  1
  P  P12  1  0.50040000  0.14770900  0.33122300  1
  P  P13  1  0.50668900  0.50747100  0.96676500  1
  P  P14  1  0.49767250  0.14351850  0.73961700  1
  P  P15  1  0.49767250  0.85648150  0.23961700  1
  P  P16  1  0.50040000  0.85229100  0.83122300  1
  P  P17  1  0.50668900  0.49252900  0.46676500  1
  P  P18  1  0.00040000  0.64770900  0.33122300  1
  P  P19  1  0.00668900  0.00747100  0.96676500  1
  P  P20  1  0.99767250  0.64351850  0.73961700  1
  P  P21  1  0.99767250  0.35648150  0.23961700  1
  P  P22  1  0.00040000  0.35229100  0.83122300  1
  P  P23  1  0.00668900  0.99252900  0.46676500  1
  O  O24  1  0.01843800  0.99593600  0.31322300  1
  O  O25  1  0.42963900  0.24677900  0.36642700  1
  O  O26  1  0.85748450  0.93971450  0.52540400  1
  O  O27  1  0.67009700  0.88044300  0.19975000  1
  O  O28  1  0.45367050  0.75258150  0.19838700  1
  O  O29  1  0.37858450  0.07106850  0.67455600  1
  O  O30  1  0.67694550  0.14061350  0.37192200  1
  O  O31  1  0.85748450  0.06028550  0.02540400  1
  O  O32  1  0.48168100  0.13537600  0.90121400  1
  O  O33  1  0.42963900  0.75322100  0.86642700  1
  O  O34  1  0.48920600  0.86574700  0.66910300  1
  O  O35  1  0.67009700  0.11955700  0.69975000  1
  O  O36  1  0.39962600  0.06601500  0.39322000  1
  O  O37  1  0.15264550  0.93483450  0.53494300  1
  O  O38  1  0.50487450  0.40305650  0.03012500  1
  O  O39  1  0.50487450  0.59694350  0.53012500  1
  O  O40  1  0.48920600  0.13425300  0.16910300  1
  O  O41  1  0.39962600  0.93398500  0.89322000  1
  O  O42  1  0.45367050  0.24741850  0.69838700  1
  O  O43  1  0.67694550  0.85938650  0.87192200  1
  O  O44  1  0.01843800  0.00406400  0.81322300  1
  O  O45  1  0.48168100  0.86462400  0.40121400  1
  O  O46  1  0.37858450  0.92893150  0.17455600  1
  O  O47  1  0.15264550  0.06516550  0.03494300  1
  O  O48  1  0.51843800  0.49593600  0.31322300  1
  O  O49  1  0.92963900  0.74677900  0.36642700  1
  O  O50  1  0.35748450  0.43971450  0.52540400  1
  O  O51  1  0.17009700  0.38044300  0.19975000  1
  O  O52  1  0.95367050  0.25258150  0.19838700  1
  O  O53  1  0.87858450  0.57106850  0.67455600  1
  O  O54  1  0.17694550  0.64061350  0.37192200  1
  O  O55  1  0.35748450  0.56028550  0.02540400  1
  O  O56  1  0.98168100  0.63537600  0.90121400  1
  O  O57  1  0.92963900  0.25322100  0.86642700  1
  O  O58  1  0.98920600  0.36574700  0.66910300  1
  O  O59  1  0.17009700  0.61955700  0.69975000  1
  O  O60  1  0.89962600  0.56601500  0.39322000  1
  O  O61  1  0.65264550  0.43483450  0.53494300  1
  O  O62  1  0.00487450  0.90305650  0.03012500  1
  O  O63  1  0.00487450  0.09694350  0.53012500  1
  O  O64  1  0.98920600  0.63425300  0.16910300  1
  O  O65  1  0.89962600  0.43398500  0.89322000  1
  O  O66  1  0.95367050  0.74741850  0.69838700  1
  O  O67  1  0.17694550  0.35938650  0.87192200  1
  O  O68  1  0.51843800  0.50406400  0.81322300  1
  O  O69  1  0.98168100  0.36462400  0.40121400  1
  O  O70  1  0.87858450  0.42893150  0.17455600  1
  O  O71  1  0.65264550  0.56516550  0.03494300  1
