# generated using pymatgen
data_NaTi(SiO3)2
_symmetry_space_group_name_H-M   'P 1'
_cell_length_a   9.93390600
_cell_length_b   8.83534600
_cell_length_c   5.31239795
_cell_angle_alpha   90.00000000
_cell_angle_beta   106.17025315
_cell_angle_gamma   90.00000000
_symmetry_Int_Tables_number   1
_chemical_formula_structural   NaTi(SiO3)2
_chemical_formula_sum   'Na4 Ti4 Si8 O24'
_cell_volume   447.82024662
_cell_formula_units_Z   4
loop_
 _symmetry_equiv_pos_site_id
 _symmetry_equiv_pos_as_xyz
  1  'x, y, z'
loop_
 _atom_site_type_symbol
 _atom_site_label
 _atom_site_symmetry_multiplicity
 _atom_site_fract_x
 _atom_site_fract_y
 _atom_site_fract_z
 _atom_site_occupancy
  Na  Na0  1  0.00000000  0.30499400  0.25000000  1
  Na  Na1  1  0.00000000  0.69500600  0.75000000  1
  Na  Na2  1  0.50000000  0.80499400  0.25000000  1
  Na  Na3  1  0.50000000  0.19500600  0.75000000  1
  Ti  Ti4  1  0.00000000  0.08848000  0.75000000  1
  Ti  Ti5  1  0.00000000  0.91152000  0.25000000  1
  Ti  Ti6  1  0.50000000  0.58848000  0.75000000  1
  Ti  Ti7  1  0.50000000  0.41152000  0.25000000  1
  Si  Si8  1  0.20736550  0.40690450  0.75895800  1
  Si  Si9  1  0.20736550  0.59309550  0.25895800  1
  Si  Si10  1  0.79263450  0.59309550  0.24104200  1
  Si  Si11  1  0.79263450  0.40690450  0.74104200  1
  Si  Si12  1  0.70736550  0.90690450  0.75895800  1
  Si  Si13  1  0.70736550  0.09309550  0.25895800  1
  Si  Si14  1  0.29263450  0.09309550  0.24104200  1
  Si  Si15  1  0.29263450  0.90690450  0.74104200  1
  O  O16  1  0.86487250  0.75651150  0.30868300  1
  O  O17  1  0.13512750  0.24348850  0.69131700  1
  O  O18  1  0.61977250  0.58609150  0.15059300  1
  O  O19  1  0.38022750  0.41390850  0.84940700  1
  O  O20  1  0.85043550  0.50865450  0.01340100  1
  O  O21  1  0.14956450  0.49134550  0.98659900  1
  O  O22  1  0.85043550  0.49134550  0.51340100  1
  O  O23  1  0.14956450  0.50865450  0.48659900  1
  O  O24  1  0.13512750  0.75651150  0.19131700  1
  O  O25  1  0.86487250  0.24348850  0.80868300  1
  O  O26  1  0.38022750  0.58609150  0.34940700  1
  O  O27  1  0.61977250  0.41390850  0.65059300  1
  O  O28  1  0.36487250  0.25651150  0.30868300  1
  O  O29  1  0.63512750  0.74348850  0.69131700  1
  O  O30  1  0.11977250  0.08609150  0.15059300  1
  O  O31  1  0.88022750  0.91390850  0.84940700  1
  O  O32  1  0.35043550  0.00865450  0.01340100  1
  O  O33  1  0.64956450  0.99134550  0.98659900  1
  O  O34  1  0.35043550  0.99134550  0.51340100  1
  O  O35  1  0.64956450  0.00865450  0.48659900  1
  O  O36  1  0.63512750  0.25651150  0.19131700  1
  O  O37  1  0.36487250  0.74348850  0.80868300  1
  O  O38  1  0.88022750  0.08609150  0.34940700  1
  O  O39  1  0.11977250  0.91390850  0.65059300  1
