# generated using pymatgen
data_BaMo2P3O14
_symmetry_space_group_name_H-M   'P 1'
_cell_length_a   13.41777800
_cell_length_b   9.88045600
_cell_length_c   8.79983167
_cell_angle_alpha   90.00000000
_cell_angle_beta   99.56343255
_cell_angle_gamma   90.00000000
_symmetry_Int_Tables_number   1
_chemical_formula_structural   BaMo2P3O14
_chemical_formula_sum   'Ba4 Mo8 P12 O56'
_cell_volume   1150.41335457
_cell_formula_units_Z   4
loop_
 _symmetry_equiv_pos_site_id
 _symmetry_equiv_pos_as_xyz
  1  'x, y, z'
loop_
 _atom_site_type_symbol
 _atom_site_label
 _atom_site_symmetry_multiplicity
 _atom_site_fract_x
 _atom_site_fract_y
 _atom_site_fract_z
 _atom_site_occupancy
  Ba  Ba0  1  0.50052250  0.53744850  0.50543200  1
  Ba  Ba1  1  0.50052250  0.46255150  0.00543200  1
  Ba  Ba2  1  0.00052250  0.03744850  0.50543200  1
  Ba  Ba3  1  0.00052250  0.96255150  0.00543200  1
  Mo  Mo4  1  0.34287300  0.14701900  0.67396600  1
  Mo  Mo5  1  0.34287300  0.85298100  0.17396600  1
  Mo  Mo6  1  0.64916850  0.83926550  0.84695800  1
  Mo  Mo7  1  0.64916850  0.16073450  0.34695800  1
  Mo  Mo8  1  0.84287300  0.64701900  0.67396600  1
  Mo  Mo9  1  0.84287300  0.35298100  0.17396600  1
  Mo  Mo10  1  0.14916850  0.33926550  0.84695800  1
  Mo  Mo11  1  0.14916850  0.66073450  0.34695800  1
  P  P12  1  0.78415250  0.10278650  0.69755100  1
  P  P13  1  0.78415250  0.89721350  0.19755100  1
  P  P14  1  0.50455400  0.92967100  0.50611800  1
  P  P15  1  0.22250100  0.12071000  0.30737000  1
  P  P16  1  0.50455400  0.07032900  0.00611800  1
  P  P17  1  0.22250100  0.87929000  0.80737000  1
  P  P18  1  0.28415250  0.60278650  0.69755100  1
  P  P19  1  0.28415250  0.39721350  0.19755100  1
  P  P20  1  0.00455400  0.42967100  0.50611800  1
  P  P21  1  0.72250100  0.62071000  0.30737000  1
  P  P22  1  0.00455400  0.57032900  0.00611800  1
  P  P23  1  0.72250100  0.37929000  0.80737000  1
  O  O24  1  0.38465150  0.69975550  0.11348700  1
  O  O25  1  0.72522450  0.02342550  0.22832500  1
  O  O26  1  0.58515450  0.00504950  0.92550900  1
  O  O27  1  0.77027050  0.86268850  0.02313900  1
  O  O28  1  0.11533100  0.92658800  0.75242800  1
  O  O29  1  0.72807050  0.21898850  0.78031300  1
  O  O30  1  0.30749650  0.94368150  0.73759100  1
  O  O31  1  0.77027050  0.13731150  0.52313900  1
  O  O32  1  0.24116750  0.89356050  0.98673400  1
  O  O33  1  0.43633800  0.84260900  0.38179900  1
  O  O34  1  0.72807050  0.78101150  0.28031300  1
  O  O35  1  0.11533100  0.07341200  0.25242800  1
  O  O36  1  0.58398400  0.28049800  0.43386400  1
  O  O37  1  0.58398400  0.71950200  0.93386400  1
  O  O38  1  0.24116750  0.10643950  0.48673400  1
  O  O39  1  0.23825200  0.20238100  0.76389900  1
  O  O40  1  0.23825200  0.79761900  0.26389900  1
  O  O41  1  0.38465150  0.30024450  0.61348700  1
  O  O42  1  0.89598250  0.90615550  0.25927200  1
  O  O43  1  0.30749650  0.05631850  0.23759100  1
  O  O44  1  0.55084500  0.17334200  0.13095700  1
  O  O45  1  0.55084500  0.82665800  0.63095700  1
  O  O46  1  0.44513950  0.04014250  0.57598900  1
  O  O47  1  0.44513950  0.95985750  0.07598900  1
  O  O48  1  0.89598250  0.09384450  0.75927200  1
  O  O49  1  0.58515450  0.99495050  0.42550900  1
  O  O50  1  0.72522450  0.97657450  0.72832500  1
  O  O51  1  0.43633800  0.15739100  0.88179900  1
  O  O52  1  0.88465150  0.19975550  0.11348700  1
  O  O53  1  0.22522450  0.52342550  0.22832500  1
  O  O54  1  0.08515450  0.50504950  0.92550900  1
  O  O55  1  0.27027050  0.36268850  0.02313900  1
  O  O56  1  0.61533100  0.42658800  0.75242800  1
  O  O57  1  0.22807050  0.71898850  0.78031300  1
  O  O58  1  0.80749650  0.44368150  0.73759100  1
  O  O59  1  0.27027050  0.63731150  0.52313900  1
  O  O60  1  0.74116750  0.39356050  0.98673400  1
  O  O61  1  0.93633800  0.34260900  0.38179900  1
  O  O62  1  0.22807050  0.28101150  0.28031300  1
  O  O63  1  0.61533100  0.57341200  0.25242800  1
  O  O64  1  0.08398400  0.78049800  0.43386400  1
  O  O65  1  0.08398400  0.21950200  0.93386400  1
  O  O66  1  0.74116750  0.60643950  0.48673400  1
  O  O67  1  0.73825200  0.70238100  0.76389900  1
  O  O68  1  0.73825200  0.29761900  0.26389900  1
  O  O69  1  0.88465150  0.80024450  0.61348700  1
  O  O70  1  0.39598250  0.40615550  0.25927200  1
  O  O71  1  0.80749650  0.55631850  0.23759100  1
  O  O72  1  0.05084500  0.67334200  0.13095700  1
  O  O73  1  0.05084500  0.32665800  0.63095700  1
  O  O74  1  0.94513950  0.54014250  0.57598900  1
  O  O75  1  0.94513950  0.45985750  0.07598900  1
  O  O76  1  0.39598250  0.59384450  0.75927200  1
  O  O77  1  0.08515450  0.49495050  0.42550900  1
  O  O78  1  0.22522450  0.47657450  0.72832500  1
  O  O79  1  0.93633800  0.65739100  0.88179900  1
