# generated using pymatgen
data_VMoO5
_symmetry_space_group_name_H-M   'P 1'
_cell_length_a   9.61542455
_cell_length_b   3.81501219
_cell_length_c   6.52539457
_cell_angle_alpha   90.00000000
_cell_angle_beta   131.11288663
_cell_angle_gamma   90.00000000
_symmetry_Int_Tables_number   1
_chemical_formula_structural   VMoO5
_chemical_formula_sum   'V2 Mo2 O10'
_cell_volume   180.34567616
_cell_formula_units_Z   2
loop_
 _symmetry_equiv_pos_site_id
 _symmetry_equiv_pos_as_xyz
  1  'x, y, z'
loop_
 _atom_site_type_symbol
 _atom_site_label
 _atom_site_symmetry_multiplicity
 _atom_site_fract_x
 _atom_site_fract_y
 _atom_site_fract_z
 _atom_site_occupancy
  V  V0  1  0.99188400  0.50000000  0.35307500  1
  V  V1  1  0.49188400  0.00000000  0.35307500  1
  Mo  Mo2  1  0.85573000  0.50000000  0.66401500  1
  Mo  Mo3  1  0.35573000  0.00000000  0.66401500  1
  O  O4  1  0.77872900  0.50000000  0.24771950  1
  O  O5  1  0.07364125  0.00000000  0.41436100  1
  O  O6  1  0.93279200  0.50000000  0.99687600  1
  O  O7  1  0.07000625  0.50000000  0.73234400  1
  O  O8  1  0.79712775  0.00000000  0.59160850  1
  O  O9  1  0.27872900  0.00000000  0.24771950  1
  O  O10  1  0.57364125  0.50000000  0.41436100  1
  O  O11  1  0.43279200  0.00000000  0.99687600  1
  O  O12  1  0.57000625  0.00000000  0.73234400  1
  O  O13  1  0.29712775  0.50000000  0.59160850  1
