# generated using pymatgen
data_Li5SnP3
_symmetry_space_group_name_H-M   'P 1'
_cell_length_a   13.37533600
_cell_length_b   6.00715600
_cell_length_c   8.49873810
_cell_angle_alpha   90.00000000
_cell_angle_beta   108.54167000
_cell_angle_gamma   90.00000000
_symmetry_Int_Tables_number   1
_chemical_formula_structural   Li5SnP3
_chemical_formula_sum   'Li20 Sn4 P12'
_cell_volume   647.40914535
_cell_formula_units_Z   4
loop_
 _symmetry_equiv_pos_site_id
 _symmetry_equiv_pos_as_xyz
  1  'x, y, z'
loop_
 _atom_site_type_symbol
 _atom_site_label
 _atom_site_symmetry_multiplicity
 _atom_site_fract_x
 _atom_site_fract_y
 _atom_site_fract_z
 _atom_site_occupancy
  Li  Li0  1  0.17026100  0.74679400  0.09040400  1
  Li  Li1  1  0.16612200  0.25483200  0.07595600  1
  Li  Li2  1  0.32973900  0.24679400  0.40959600  1
  Li  Li3  1  0.16612200  0.74516800  0.57595600  1
  Li  Li4  1  0.00000000  0.24687200  0.75000000  1
  Li  Li5  1  0.17026100  0.25320600  0.59040400  1
  Li  Li6  1  0.33387800  0.24516800  0.92404400  1
  Li  Li7  1  0.32973900  0.75320600  0.90959600  1
  Li  Li8  1  0.00000000  0.75312800  0.25000000  1
  Li  Li9  1  0.33387800  0.75483200  0.42404400  1
  Li  Li10  1  0.67026100  0.24679400  0.09040400  1
  Li  Li11  1  0.66612200  0.75483200  0.07595600  1
  Li  Li12  1  0.82973900  0.74679400  0.40959600  1
  Li  Li13  1  0.66612200  0.24516800  0.57595600  1
  Li  Li14  1  0.50000000  0.74687200  0.75000000  1
  Li  Li15  1  0.67026100  0.75320600  0.59040400  1
  Li  Li16  1  0.83387800  0.74516800  0.92404400  1
  Li  Li17  1  0.82973900  0.25320600  0.90959600  1
  Li  Li18  1  0.50000000  0.25312800  0.25000000  1
  Li  Li19  1  0.83387800  0.25483200  0.42404400  1
  Sn  Sn20  1  0.00000000  0.73369300  0.75000000  1
  Sn  Sn21  1  0.00000000  0.26630700  0.25000000  1
  Sn  Sn22  1  0.50000000  0.23369300  0.75000000  1
  Sn  Sn23  1  0.50000000  0.76630700  0.25000000  1
  P  P24  1  0.00000000  0.00000000  0.00000000  1
  P  P25  1  0.00000000  0.00000000  0.50000000  1
  P  P26  1  0.16530050  0.50986750  0.82966100  1
  P  P27  1  0.33469950  0.99013250  0.17033900  1
  P  P28  1  0.16530050  0.49013250  0.32966100  1
  P  P29  1  0.33469950  0.00986750  0.67033900  1
  P  P30  1  0.50000000  0.50000000  0.00000000  1
  P  P31  1  0.50000000  0.50000000  0.50000000  1
  P  P32  1  0.66530050  0.00986750  0.82966100  1
  P  P33  1  0.83469950  0.49013250  0.17033900  1
  P  P34  1  0.66530050  0.99013250  0.32966100  1
  P  P35  1  0.83469950  0.50986750  0.67033900  1
