# generated using pymatgen
data_Sr3Cr2O7
_symmetry_space_group_name_H-M   'P 1'
_cell_length_a   15.66798200
_cell_length_b   4.11642600
_cell_length_c   9.33371336
_cell_angle_alpha   90.00000000
_cell_angle_beta   108.29093174
_cell_angle_gamma   90.00000000
_symmetry_Int_Tables_number   1
_chemical_formula_structural   Sr3Cr2O7
_chemical_formula_sum   'Sr6 Cr4 O14'
_cell_volume   571.57265604
_cell_formula_units_Z   2
loop_
 _symmetry_equiv_pos_site_id
 _symmetry_equiv_pos_as_xyz
  1  'x, y, z'
loop_
 _atom_site_type_symbol
 _atom_site_label
 _atom_site_symmetry_multiplicity
 _atom_site_fract_x
 _atom_site_fract_y
 _atom_site_fract_z
 _atom_site_occupancy
  Sr  Sr0  1  0.17130100  0.00000000  0.33174200  1
  Sr  Sr1  1  0.32869900  0.50000000  0.66825800  1
  Sr  Sr2  1  0.00000000  0.50000000  0.00000000  1
  Sr  Sr3  1  0.67130100  0.50000000  0.33174200  1
  Sr  Sr4  1  0.82869900  0.00000000  0.66825800  1
  Sr  Sr5  1  0.50000000  0.00000000  0.00000000  1
  Cr  Cr6  1  0.04661200  0.50000000  0.44903800  1
  Cr  Cr7  1  0.45338800  0.00000000  0.55096200  1
  Cr  Cr8  1  0.54661200  0.00000000  0.44903800  1
  Cr  Cr9  1  0.95338800  0.50000000  0.55096200  1
  O  O10  1  0.16786600  0.31769000  0.56407600  1
  O  O11  1  0.33213400  0.18231000  0.43592400  1
  O  O12  1  0.16786600  0.68231000  0.56407600  1
  O  O13  1  0.00000000  0.00000000  0.00000000  1
  O  O14  1  0.33213400  0.81769000  0.43592400  1
  O  O15  1  0.02942500  0.00000000  0.35848200  1
  O  O16  1  0.47057500  0.50000000  0.64151800  1
  O  O17  1  0.66786600  0.81769000  0.56407600  1
  O  O18  1  0.83213400  0.68231000  0.43592400  1
  O  O19  1  0.66786600  0.18231000  0.56407600  1
  O  O20  1  0.50000000  0.50000000  0.00000000  1
  O  O21  1  0.83213400  0.31769000  0.43592400  1
  O  O22  1  0.52942500  0.50000000  0.35848200  1
  O  O23  1  0.97057500  0.00000000  0.64151800  1
