# generated using pymatgen
data_Tl7Sb2
_symmetry_space_group_name_H-M   'P 1'
_cell_length_a   11.96629200
_cell_length_b   11.96629200
_cell_length_c   11.96629200
_cell_angle_alpha   90.00000000
_cell_angle_beta   90.00000000
_cell_angle_gamma   90.00000000
_symmetry_Int_Tables_number   1
_chemical_formula_structural   Tl7Sb2
_chemical_formula_sum   'Tl42 Sb12'
_cell_volume   1713.47900995
_cell_formula_units_Z   6
loop_
 _symmetry_equiv_pos_site_id
 _symmetry_equiv_pos_as_xyz
  1  'x, y, z'
loop_
 _atom_site_type_symbol
 _atom_site_label
 _atom_site_symmetry_multiplicity
 _atom_site_fract_x
 _atom_site_fract_y
 _atom_site_fract_z
 _atom_site_occupancy
  Tl  Tl0  1  0.15011200  0.84988800  0.50000000  1
  Tl  Tl1  1  0.34988800  0.34988800  0.00000000  1
  Tl  Tl2  1  0.33178450  0.33178450  0.33178450  1
  Tl  Tl3  1  0.84988800  0.15011200  0.50000000  1
  Tl  Tl4  1  0.33178450  0.66821550  0.33178450  1
  Tl  Tl5  1  0.34988800  0.00000000  0.34988800  1
  Tl  Tl6  1  0.16821550  0.16821550  0.83178450  1
  Tl  Tl7  1  0.50000000  0.15011200  0.84988800  1
  Tl  Tl8  1  0.33178450  0.33178450  0.66821550  1
  Tl  Tl9  1  0.50000000  0.84988800  0.15011200  1
  Tl  Tl10  1  0.16821550  0.83178450  0.16821550  1
  Tl  Tl11  1  0.15011200  0.50000000  0.15011200  1
  Tl  Tl12  1  0.84988800  0.50000000  0.15011200  1
  Tl  Tl13  1  0.83178450  0.16821550  0.16821550  1
  Tl  Tl14  1  0.66821550  0.33178450  0.33178450  1
  Tl  Tl15  1  0.00000000  0.00000000  0.00000000  1
  Tl  Tl16  1  0.15011200  0.50000000  0.84988800  1
  Tl  Tl17  1  0.15011200  0.15011200  0.50000000  1
  Tl  Tl18  1  0.50000000  0.15011200  0.15011200  1
  Tl  Tl19  1  0.00000000  0.34988800  0.34988800  1
  Tl  Tl20  1  0.16821550  0.16821550  0.16821550  1
  Tl  Tl21  1  0.65011200  0.34988800  0.00000000  1
  Tl  Tl22  1  0.84988800  0.84988800  0.50000000  1
  Tl  Tl23  1  0.83178450  0.83178450  0.83178450  1
  Tl  Tl24  1  0.34988800  0.65011200  0.00000000  1
  Tl  Tl25  1  0.83178450  0.16821550  0.83178450  1
  Tl  Tl26  1  0.84988800  0.50000000  0.84988800  1
  Tl  Tl27  1  0.66821550  0.66821550  0.33178450  1
  Tl  Tl28  1  0.00000000  0.65011200  0.34988800  1
  Tl  Tl29  1  0.83178450  0.83178450  0.16821550  1
  Tl  Tl30  1  0.00000000  0.34988800  0.65011200  1
  Tl  Tl31  1  0.66821550  0.33178450  0.66821550  1
  Tl  Tl32  1  0.65011200  0.00000000  0.65011200  1
  Tl  Tl33  1  0.34988800  0.00000000  0.65011200  1
  Tl  Tl34  1  0.33178450  0.66821550  0.66821550  1
  Tl  Tl35  1  0.16821550  0.83178450  0.83178450  1
  Tl  Tl36  1  0.50000000  0.50000000  0.50000000  1
  Tl  Tl37  1  0.65011200  0.00000000  0.34988800  1
  Tl  Tl38  1  0.65011200  0.65011200  0.00000000  1
  Tl  Tl39  1  0.00000000  0.65011200  0.65011200  1
  Tl  Tl40  1  0.50000000  0.84988800  0.84988800  1
  Tl  Tl41  1  0.66821550  0.66821550  0.66821550  1
  Sb  Sb42  1  0.00000000  0.00000000  0.68874800  1
  Sb  Sb43  1  0.00000000  0.00000000  0.31125200  1
  Sb  Sb44  1  0.31125200  0.00000000  0.00000000  1
  Sb  Sb45  1  0.00000000  0.31125200  0.00000000  1
  Sb  Sb46  1  0.68874800  0.00000000  0.00000000  1
  Sb  Sb47  1  0.00000000  0.68874800  0.00000000  1
  Sb  Sb48  1  0.50000000  0.50000000  0.18874800  1
  Sb  Sb49  1  0.50000000  0.50000000  0.81125200  1
  Sb  Sb50  1  0.81125200  0.50000000  0.50000000  1
  Sb  Sb51  1  0.50000000  0.81125200  0.50000000  1
  Sb  Sb52  1  0.18874800  0.50000000  0.50000000  1
  Sb  Sb53  1  0.50000000  0.18874800  0.50000000  1
