# generated using pymatgen
data_La3Ge3Br2
_symmetry_space_group_name_H-M   'P 1'
_cell_length_a   18.87507400
_cell_length_b   4.38552000
_cell_length_c   11.04146113
_cell_angle_alpha   90.00000000
_cell_angle_beta   98.15819218
_cell_angle_gamma   90.00000000
_symmetry_Int_Tables_number   1
_chemical_formula_structural   La3Ge3Br2
_chemical_formula_sum   'La12 Ge12 Br8'
_cell_volume   904.72975679
_cell_formula_units_Z   4
loop_
 _symmetry_equiv_pos_site_id
 _symmetry_equiv_pos_as_xyz
  1  'x, y, z'
loop_
 _atom_site_type_symbol
 _atom_site_label
 _atom_site_symmetry_multiplicity
 _atom_site_fract_x
 _atom_site_fract_y
 _atom_site_fract_z
 _atom_site_occupancy
  La  La0  1  0.53042800  0.00000000  0.83096200  1
  La  La1  1  0.82236600  0.50000000  0.85315800  1
  La  La2  1  0.67763400  0.00000000  0.14684200  1
  La  La3  1  0.96957200  0.50000000  0.16903800  1
  La  La4  1  0.88781600  0.50000000  0.51174100  1
  La  La5  1  0.61218400  0.00000000  0.48825900  1
  La  La6  1  0.03042800  0.50000000  0.83096200  1
  La  La7  1  0.32236600  0.00000000  0.85315800  1
  La  La8  1  0.17763400  0.50000000  0.14684200  1
  La  La9  1  0.46957200  0.00000000  0.16903800  1
  La  La10  1  0.38781600  0.00000000  0.51174100  1
  La  La11  1  0.11218400  0.50000000  0.48825900  1
  Ge  Ge12  1  0.56807600  0.50000000  0.04433800  1
  Ge  Ge13  1  0.52325200  0.50000000  0.61578800  1
  Ge  Ge14  1  0.90687700  0.00000000  0.71975400  1
  Ge  Ge15  1  0.97674800  0.00000000  0.38421200  1
  Ge  Ge16  1  0.59312300  0.50000000  0.28024600  1
  Ge  Ge17  1  0.93192400  0.00000000  0.95566200  1
  Ge  Ge18  1  0.06807600  0.00000000  0.04433800  1
  Ge  Ge19  1  0.02325200  0.00000000  0.61578800  1
  Ge  Ge20  1  0.40687700  0.50000000  0.71975400  1
  Ge  Ge21  1  0.47674800  0.50000000  0.38421200  1
  Ge  Ge22  1  0.09312300  0.00000000  0.28024600  1
  Ge  Ge23  1  0.43192400  0.50000000  0.95566200  1
  Br  Br24  1  0.77529300  0.00000000  0.39118600  1
  Br  Br25  1  0.70043800  0.00000000  0.87013100  1
  Br  Br26  1  0.72470700  0.50000000  0.60881400  1
  Br  Br27  1  0.79956200  0.50000000  0.12986900  1
  Br  Br28  1  0.27529300  0.50000000  0.39118600  1
  Br  Br29  1  0.20043800  0.50000000  0.87013100  1
  Br  Br30  1  0.22470700  0.00000000  0.60881400  1
  Br  Br31  1  0.29956200  0.00000000  0.12986900  1
