# generated using pymatgen
data_Cs2MnV2(ClO3)2
_symmetry_space_group_name_H-M   'P 1'
_cell_length_a   5.67211426
_cell_length_b   17.99571797
_cell_length_c   5.81639050
_cell_angle_alpha   90.00000000
_cell_angle_beta   90.00000000
_cell_angle_gamma   90.00000000
_symmetry_Int_Tables_number   1
_chemical_formula_structural   Cs2MnV2(ClO3)2
_chemical_formula_sum   'Cs4 Mn2 V4 Cl4 O12'
_cell_volume   593.70089761
_cell_formula_units_Z   2
loop_
 _symmetry_equiv_pos_site_id
 _symmetry_equiv_pos_as_xyz
  1  'x, y, z'
loop_
 _atom_site_type_symbol
 _atom_site_label
 _atom_site_symmetry_multiplicity
 _atom_site_fract_x
 _atom_site_fract_y
 _atom_site_fract_z
 _atom_site_occupancy
  Cs  Cs0  1  0.00000000  0.37251600  0.14749400  1
  Cs  Cs1  1  0.50000000  0.12748400  0.14749400  1
  Cs  Cs2  1  0.50000000  0.87251600  0.14749400  1
  Cs  Cs3  1  0.00000000  0.62748400  0.14749400  1
  Mn  Mn4  1  0.00000000  0.00000000  0.64057000  1
  Mn  Mn5  1  0.50000000  0.50000000  0.64057000  1
  V  V6  1  0.00000000  0.19848900  0.63878800  1
  V  V7  1  0.50000000  0.30151100  0.63878800  1
  V  V8  1  0.50000000  0.69848900  0.63878800  1
  V  V9  1  0.00000000  0.80151100  0.63878800  1
  Cl  Cl10  1  0.00000000  0.00000000  0.05756000  1
  Cl  Cl11  1  0.50000000  0.00000000  0.62133400  1
  Cl  Cl12  1  0.50000000  0.50000000  0.05756000  1
  Cl  Cl13  1  0.00000000  0.50000000  0.62133400  1
  O  O14  1  0.00000000  0.20051100  0.92263400  1
  O  O15  1  0.50000000  0.29948900  0.92263400  1
  O  O16  1  0.75000000  0.25000000  0.52571800  1
  O  O17  1  0.25000000  0.25000000  0.52571800  1
  O  O18  1  0.50000000  0.39075800  0.53918400  1
  O  O19  1  0.00000000  0.10924200  0.53918400  1
  O  O20  1  0.50000000  0.70051100  0.92263400  1
  O  O21  1  0.00000000  0.79948900  0.92263400  1
  O  O22  1  0.25000000  0.75000000  0.52571800  1
  O  O23  1  0.75000000  0.75000000  0.52571800  1
  O  O24  1  0.00000000  0.89075800  0.53918400  1
  O  O25  1  0.50000000  0.60924200  0.53918400  1
