# generated using pymatgen
data_Al2NiO4
_symmetry_space_group_name_H-M   'P 1'
_cell_length_a   9.95564600
_cell_length_b   5.77369400
_cell_length_c   18.91255559
_cell_angle_alpha   90.00000000
_cell_angle_beta   99.78456820
_cell_angle_gamma   90.00000000
_symmetry_Int_Tables_number   1
_chemical_formula_structural   Al2NiO4
_chemical_formula_sum   'Al32 Ni16 O64'
_cell_volume   1071.29641952
_cell_formula_units_Z   16
loop_
 _symmetry_equiv_pos_site_id
 _symmetry_equiv_pos_as_xyz
  1  'x, y, z'
loop_
 _atom_site_type_symbol
 _atom_site_label
 _atom_site_symmetry_multiplicity
 _atom_site_fract_x
 _atom_site_fract_y
 _atom_site_fract_z
 _atom_site_occupancy
  Al  Al0  1  0.62284800  0.25214000  0.12567300  1
  Al  Al1  1  0.00017800  0.00000000  0.00291900  1
  Al  Al2  1  0.09951000  0.00000000  0.28445000  1
  Al  Al3  1  0.62284800  0.74786000  0.12567300  1
  Al  Al4  1  0.37490600  0.25021700  0.37487400  1
  Al  Al5  1  0.84987200  0.00000000  0.53297400  1
  Al  Al6  1  0.37490600  0.74978300  0.37487400  1
  Al  Al7  1  0.39890300  0.00000000  0.21627800  1
  Al  Al8  1  0.60118600  0.00000000  0.78120400  1
  Al  Al9  1  0.62527000  0.24998300  0.62448300  1
  Al  Al10  1  0.15035000  0.00000000  0.46646200  1
  Al  Al11  1  0.62527000  0.75001700  0.62448300  1
  Al  Al12  1  0.37578200  0.75221100  0.87397500  1
  Al  Al13  1  0.37578200  0.24778900  0.87397500  1
  Al  Al14  1  0.90090200  0.00000000  0.71653900  1
  Al  Al15  1  0.65024300  0.00000000  0.96974500  1
  Al  Al16  1  0.12284800  0.75214000  0.12567300  1
  Al  Al17  1  0.50017800  0.50000000  0.00291900  1
  Al  Al18  1  0.59951000  0.50000000  0.28445000  1
  Al  Al19  1  0.12284800  0.24786000  0.12567300  1
  Al  Al20  1  0.87490600  0.75021700  0.37487400  1
  Al  Al21  1  0.34987200  0.50000000  0.53297400  1
  Al  Al22  1  0.87490600  0.24978300  0.37487400  1
  Al  Al23  1  0.89890300  0.50000000  0.21627800  1
  Al  Al24  1  0.10118600  0.50000000  0.78120400  1
  Al  Al25  1  0.12527000  0.74998300  0.62448300  1
  Al  Al26  1  0.65035000  0.50000000  0.46646200  1
  Al  Al27  1  0.12527000  0.25001700  0.62448300  1
  Al  Al28  1  0.87578200  0.25221100  0.87397500  1
  Al  Al29  1  0.87578200  0.74778900  0.87397500  1
  Al  Al30  1  0.40090200  0.50000000  0.71653900  1
  Al  Al31  1  0.15024300  0.50000000  0.96974500  1
  Ni  Ni32  1  0.34489500  0.00000000  0.03172700  1
  Ni  Ni33  1  0.87479900  0.00000000  0.12585300  1
  Ni  Ni34  1  0.62491100  0.00000000  0.37508000  1
  Ni  Ni35  1  0.74900400  0.00000000  0.24961100  1
  Ni  Ni36  1  0.37504700  0.00000000  0.62462400  1
  Ni  Ni37  1  0.49998500  0.00000000  0.49986900  1
  Ni  Ni38  1  0.12682200  0.00000000  0.87420700  1
  Ni  Ni39  1  0.25114200  0.00000000  0.74998800  1
  Ni  Ni40  1  0.84489500  0.50000000  0.03172700  1
  Ni  Ni41  1  0.37479900  0.50000000  0.12585300  1
  Ni  Ni42  1  0.12491100  0.50000000  0.37508000  1
  Ni  Ni43  1  0.24900400  0.50000000  0.24961100  1
  Ni  Ni44  1  0.87504700  0.50000000  0.62462400  1
  Ni  Ni45  1  0.99998500  0.50000000  0.49986900  1
  Ni  Ni46  1  0.62682200  0.50000000  0.87420700  1
  Ni  Ni47  1  0.75114200  0.50000000  0.74998800  1
  O  O48  1  0.45466000  0.27026100  0.06379500  1
  O  O49  1  0.06841400  0.00000000  0.18757900  1
  O  O50  1  0.45466000  0.72973900  0.06379500  1
  O  O51  1  0.16851000  0.00000000  0.06701100  1
  O  O52  1  0.56027500  0.00000000  0.18159100  1
  O  O53  1  0.69958400  0.74873600  0.31696500  1
  O  O54  1  0.67975000  0.00000000  0.06660600  1
  O  O55  1  0.69958400  0.25126400  0.31696500  1
  O  O56  1  0.29901900  0.24698200  0.18308800  1
  O  O57  1  0.81955100  0.00000000  0.43485800  1
  O  O58  1  0.93615200  0.00000000  0.31778300  1
  O  O59  1  0.29901900  0.75301800  0.18308800  1
  O  O60  1  0.31319400  0.00000000  0.43291300  1
  O  O61  1  0.44960200  0.74779100  0.56649200  1
  O  O62  1  0.55046850  0.74807550  0.43362800  1
  O  O63  1  0.43022800  0.00000000  0.31524600  1
  O  O64  1  0.44960200  0.25220900  0.56649200  1
  O  O65  1  0.56988600  0.00000000  0.68331700  1
  O  O66  1  0.68740000  0.00000000  0.56707500  1
  O  O67  1  0.55046850  0.25192450  0.43362800  1
  O  O68  1  0.06379900  0.00000000  0.68301600  1
  O  O69  1  0.70000400  0.24529100  0.81590400  1
  O  O70  1  0.30090650  0.74815650  0.68358200  1
  O  O71  1  0.18051900  0.00000000  0.56528500  1
  O  O72  1  0.70000400  0.75470900  0.81590400  1
  O  O73  1  0.32164000  0.00000000  0.92552900  1
  O  O74  1  0.44211600  0.00000000  0.81628400  1
  O  O75  1  0.30090650  0.25184350  0.68358200  1
  O  O76  1  0.82055900  0.00000000  0.93722700  1
  O  O77  1  0.93120000  0.00000000  0.81586900  1
  O  O78  1  0.55147950  0.26008950  0.93818100  1
  O  O79  1  0.55147950  0.73991050  0.93818100  1
  O  O80  1  0.95466000  0.77026100  0.06379500  1
  O  O81  1  0.56841400  0.50000000  0.18757900  1
  O  O82  1  0.95466000  0.22973900  0.06379500  1
  O  O83  1  0.66851000  0.50000000  0.06701100  1
  O  O84  1  0.06027500  0.50000000  0.18159100  1
  O  O85  1  0.19958400  0.24873600  0.31696500  1
  O  O86  1  0.17975000  0.50000000  0.06660600  1
  O  O87  1  0.19958400  0.75126400  0.31696500  1
  O  O88  1  0.79901900  0.74698200  0.18308800  1
  O  O89  1  0.31955100  0.50000000  0.43485800  1
  O  O90  1  0.43615200  0.50000000  0.31778300  1
  O  O91  1  0.79901900  0.25301800  0.18308800  1
  O  O92  1  0.81319400  0.50000000  0.43291300  1
  O  O93  1  0.94960200  0.24779100  0.56649200  1
  O  O94  1  0.05046850  0.24807550  0.43362800  1
  O  O95  1  0.93022800  0.50000000  0.31524600  1
  O  O96  1  0.94960200  0.75220900  0.56649200  1
  O  O97  1  0.06988600  0.50000000  0.68331700  1
  O  O98  1  0.18740000  0.50000000  0.56707500  1
  O  O99  1  0.05046850  0.75192450  0.43362800  1
  O  O100  1  0.56379900  0.50000000  0.68301600  1
  O  O101  1  0.20000400  0.74529100  0.81590400  1
  O  O102  1  0.80090650  0.24815650  0.68358200  1
  O  O103  1  0.68051900  0.50000000  0.56528500  1
  O  O104  1  0.20000400  0.25470900  0.81590400  1
  O  O105  1  0.82164000  0.50000000  0.92552900  1
  O  O106  1  0.94211600  0.50000000  0.81628400  1
  O  O107  1  0.80090650  0.75184350  0.68358200  1
  O  O108  1  0.32055900  0.50000000  0.93722700  1
  O  O109  1  0.43120000  0.50000000  0.81586900  1
  O  O110  1  0.05147950  0.76008950  0.93818100  1
  O  O111  1  0.05147950  0.23991050  0.93818100  1
