# generated using pymatgen
data_U2Te3
_symmetry_space_group_name_H-M   'P 1'
_cell_length_a   4.29704300
_cell_length_b   11.70933079
_cell_length_c   12.05867481
_cell_angle_alpha   90.00000000
_cell_angle_beta   90.00000000
_cell_angle_gamma   90.00000000
_symmetry_Int_Tables_number   1
_chemical_formula_structural   U2Te3
_chemical_formula_sum   'U8 Te12'
_cell_volume   606.73822762
_cell_formula_units_Z   4
loop_
 _symmetry_equiv_pos_site_id
 _symmetry_equiv_pos_as_xyz
  1  'x, y, z'
loop_
 _atom_site_type_symbol
 _atom_site_label
 _atom_site_symmetry_multiplicity
 _atom_site_fract_x
 _atom_site_fract_y
 _atom_site_fract_z
 _atom_site_occupancy
  U  U0  1  0.25000000  0.81242600  0.51595250  1
  U  U1  1  0.25000000  0.00031000  0.19761050  1
  U  U2  1  0.25000000  0.68757400  0.01595250  1
  U  U3  1  0.75000000  0.50031000  0.30238950  1
  U  U4  1  0.25000000  0.49969000  0.69761050  1
  U  U5  1  0.75000000  0.31242600  0.98404750  1
  U  U6  1  0.75000000  0.99969000  0.80238950  1
  U  U7  1  0.75000000  0.18757400  0.48404750  1
  Te  Te8  1  0.25000000  0.05840600  0.62127650  1
  Te  Te9  1  0.25000000  0.44159400  0.12127650  1
  Te  Te10  1  0.75000000  0.20223500  0.22541550  1
  Te  Te11  1  0.25000000  0.12441300  0.95409850  1
  Te  Te12  1  0.25000000  0.70223500  0.27458450  1
  Te  Te13  1  0.25000000  0.37558700  0.45409850  1
  Te  Te14  1  0.75000000  0.29776500  0.72541550  1
  Te  Te15  1  0.75000000  0.55840600  0.87872350  1
  Te  Te16  1  0.75000000  0.87558700  0.04590150  1
  Te  Te17  1  0.75000000  0.62441300  0.54590150  1
  Te  Te18  1  0.75000000  0.94159400  0.37872350  1
  Te  Te19  1  0.25000000  0.79776500  0.77458450  1
