# generated using pymatgen
data_Li2Co4O5
_symmetry_space_group_name_H-M   'P 1'
_cell_length_a   10.60014000
_cell_length_b   6.09125800
_cell_length_c   10.50141380
_cell_angle_alpha   90.00000000
_cell_angle_beta   109.05813001
_cell_angle_gamma   90.00000000
_symmetry_Int_Tables_number   1
_chemical_formula_structural   Li2Co4O5
_chemical_formula_sum   'Li12 Co24 O30'
_cell_volume   640.89143279
_cell_formula_units_Z   6
loop_
 _symmetry_equiv_pos_site_id
 _symmetry_equiv_pos_as_xyz
  1  'x, y, z'
loop_
 _atom_site_type_symbol
 _atom_site_label
 _atom_site_symmetry_multiplicity
 _atom_site_fract_x
 _atom_site_fract_y
 _atom_site_fract_z
 _atom_site_occupancy
  Li  Li0  1  0.53450300  0.50000000  0.02054300  1
  Li  Li1  1  0.75451900  0.50000000  0.09785400  1
  Li  Li2  1  0.70114950  0.78196950  0.97796500  1
  Li  Li3  1  0.70114950  0.21803050  0.97796500  1
  Li  Li4  1  0.74329600  0.50000000  0.29771600  1
  Li  Li5  1  0.83851100  0.00000000  0.93638700  1
  Li  Li6  1  0.03450300  0.00000000  0.02054300  1
  Li  Li7  1  0.25451900  0.00000000  0.09785400  1
  Li  Li8  1  0.20114950  0.28196950  0.97796500  1
  Li  Li9  1  0.20114950  0.71803050  0.97796500  1
  Li  Li10  1  0.24329600  0.00000000  0.29771600  1
  Li  Li11  1  0.33851100  0.50000000  0.93638700  1
  Co  Co12  1  0.99722800  0.50000000  0.00417400  1
  Co  Co13  1  0.75166800  0.00000000  0.24260600  1
  Co  Co14  1  0.50268550  0.74421050  0.75668100  1
  Co  Co15  1  0.98904200  0.00000000  0.49242700  1
  Co  Co16  1  0.50356000  0.74000000  0.24361500  1
  Co  Co17  1  0.50268550  0.25578950  0.75668100  1
  Co  Co18  1  0.75499000  0.50000000  0.76338900  1
  Co  Co19  1  0.50356000  0.26000000  0.24361500  1
  Co  Co20  1  0.74518100  0.74604700  0.49854700  1
  Co  Co21  1  0.74518100  0.25395300  0.49854700  1
  Co  Co22  1  0.98805300  0.50000000  0.49191500  1
  Co  Co23  1  0.72235700  0.00000000  0.70860000  1
  Co  Co24  1  0.49722800  0.00000000  0.00417400  1
  Co  Co25  1  0.25166800  0.50000000  0.24260600  1
  Co  Co26  1  0.00268550  0.24421050  0.75668100  1
  Co  Co27  1  0.48904200  0.50000000  0.49242700  1
  Co  Co28  1  0.00356000  0.24000000  0.24361500  1
  Co  Co29  1  0.00268550  0.75578950  0.75668100  1
  Co  Co30  1  0.25499000  0.00000000  0.76338900  1
  Co  Co31  1  0.00356000  0.76000000  0.24361500  1
  Co  Co32  1  0.24518100  0.24604700  0.49854700  1
  Co  Co33  1  0.24518100  0.75395300  0.49854700  1
  Co  Co34  1  0.48805300  0.00000000  0.49191500  1
  Co  Co35  1  0.22235700  0.50000000  0.70860000  1
  O  O36  1  0.61378900  0.00000000  0.36840800  1
  O  O37  1  0.62657950  0.24377450  0.12565200  1
  O  O38  1  0.62657950  0.75622550  0.12565200  1
  O  O39  1  0.86768700  0.00000000  0.62420800  1
  O  O40  1  0.87041600  0.25338700  0.36586000  1
  O  O41  1  0.64356600  0.50000000  0.89364000  1
  O  O42  1  0.88270700  0.00000000  0.12604400  1
  O  O43  1  0.87041600  0.74661300  0.36586000  1
  O  O44  1  0.61542250  0.73763450  0.62095700  1
  O  O45  1  0.61542250  0.26236550  0.62095700  1
  O  O46  1  0.61695500  0.50000000  0.38248200  1
  O  O47  1  0.89186400  0.73329300  0.88480800  1
  O  O48  1  0.86879900  0.50000000  0.61996600  1
  O  O49  1  0.89186400  0.26670700  0.88480800  1
  O  O50  1  0.63761100  0.00000000  0.85447100  1
  O  O51  1  0.11378900  0.50000000  0.36840800  1
  O  O52  1  0.12657950  0.74377450  0.12565200  1
  O  O53  1  0.12657950  0.25622550  0.12565200  1
  O  O54  1  0.36768700  0.50000000  0.62420800  1
  O  O55  1  0.37041600  0.75338700  0.36586000  1
  O  O56  1  0.14356600  0.00000000  0.89364000  1
  O  O57  1  0.38270700  0.50000000  0.12604400  1
  O  O58  1  0.37041600  0.24661300  0.36586000  1
  O  O59  1  0.11542250  0.23763450  0.62095700  1
  O  O60  1  0.11542250  0.76236550  0.62095700  1
  O  O61  1  0.11695500  0.00000000  0.38248200  1
  O  O62  1  0.39186400  0.23329300  0.88480800  1
  O  O63  1  0.36879900  0.00000000  0.61996600  1
  O  O64  1  0.39186400  0.76670700  0.88480800  1
  O  O65  1  0.13761100  0.50000000  0.85447100  1
