# generated using pymatgen
data_Mn4Nb2O9
_symmetry_space_group_name_H-M   'P 1'
_cell_length_a   5.38782109
_cell_length_b   5.38782109
_cell_length_c   14.53194200
_cell_angle_alpha   90.00000000
_cell_angle_beta   90.00000000
_cell_angle_gamma   120.00000000
_symmetry_Int_Tables_number   1
_chemical_formula_structural   Mn4Nb2O9
_chemical_formula_sum   'Mn8 Nb4 O18'
_cell_volume   365.32603153
_cell_formula_units_Z   2
loop_
 _symmetry_equiv_pos_site_id
 _symmetry_equiv_pos_as_xyz
  1  'x, y, z'
loop_
 _atom_site_type_symbol
 _atom_site_label
 _atom_site_symmetry_multiplicity
 _atom_site_fract_x
 _atom_site_fract_y
 _atom_site_fract_z
 _atom_site_occupancy
  Mn  Mn0  1  0.66666667  0.33333333  0.19679300  1
  Mn  Mn1  1  0.66666667  0.33333333  0.69679300  1
  Mn  Mn2  1  0.66666667  0.33333333  0.48203000  1
  Mn  Mn3  1  0.66666667  0.33333333  0.98203000  1
  Mn  Mn4  1  0.33333333  0.66666667  0.30320700  1
  Mn  Mn5  1  0.33333333  0.66666667  0.80320700  1
  Mn  Mn6  1  0.33333333  0.66666667  0.01797000  1
  Mn  Mn7  1  0.33333333  0.66666667  0.51797000  1
  Nb  Nb8  1  0.00000000  0.00000000  0.35746100  1
  Nb  Nb9  1  0.00000000  0.00000000  0.14253900  1
  Nb  Nb10  1  0.00000000  0.00000000  0.64253900  1
  Nb  Nb11  1  0.00000000  0.00000000  0.85746100  1
  O  O12  1  0.27885700  0.27885700  0.25000000  1
  O  O13  1  0.00000000  0.72114300  0.25000000  1
  O  O14  1  0.72114300  0.00000000  0.25000000  1
  O  O15  1  0.72114300  0.72114300  0.75000000  1
  O  O16  1  0.00000000  0.27885700  0.75000000  1
  O  O17  1  0.27885700  0.00000000  0.75000000  1
  O  O18  1  0.69091800  0.66312900  0.08567400  1
  O  O19  1  0.33687100  0.02778900  0.08567400  1
  O  O20  1  0.97221100  0.30908200  0.08567400  1
  O  O21  1  0.02778900  0.33687100  0.41432600  1
  O  O22  1  0.30908200  0.97221100  0.41432600  1
  O  O23  1  0.66312900  0.69091800  0.41432600  1
  O  O24  1  0.33687100  0.30908200  0.58567400  1
  O  O25  1  0.69091800  0.02778900  0.58567400  1
  O  O26  1  0.97221100  0.66312900  0.58567400  1
  O  O27  1  0.02778900  0.69091800  0.91432600  1
  O  O28  1  0.66312900  0.97221100  0.91432600  1
  O  O29  1  0.30908200  0.33687100  0.91432600  1
