# generated using pymatgen
data_LiFe2(PO4)3
_symmetry_space_group_name_H-M   'P 1'
_cell_length_a   8.00936400
_cell_length_b   5.29088800
_cell_length_c   19.52748307
_cell_angle_alpha   90.00000000
_cell_angle_beta   90.87672568
_cell_angle_gamma   90.00000000
_symmetry_Int_Tables_number   1
_chemical_formula_structural   LiFe2(PO4)3
_chemical_formula_sum   'Li4 Fe8 P12 O48'
_cell_volume   827.41239796
_cell_formula_units_Z   4
loop_
 _symmetry_equiv_pos_site_id
 _symmetry_equiv_pos_as_xyz
  1  'x, y, z'
loop_
 _atom_site_type_symbol
 _atom_site_label
 _atom_site_symmetry_multiplicity
 _atom_site_fract_x
 _atom_site_fract_y
 _atom_site_fract_z
 _atom_site_occupancy
  Li  Li0  1  0.99986100  0.00000000  0.66556700  1
  Li  Li1  1  0.00013900  0.00000000  0.33443300  1
  Li  Li2  1  0.49986100  0.50000000  0.66556700  1
  Li  Li3  1  0.50013900  0.50000000  0.33443300  1
  Fe  Fe4  1  0.00542400  0.00000000  0.16836100  1
  Fe  Fe5  1  0.00000000  0.00000000  0.00000000  1
  Fe  Fe6  1  0.00000000  0.00000000  0.50000000  1
  Fe  Fe7  1  0.99457600  0.00000000  0.83163900  1
  Fe  Fe8  1  0.50542400  0.50000000  0.16836100  1
  Fe  Fe9  1  0.50000000  0.50000000  0.00000000  1
  Fe  Fe10  1  0.50000000  0.50000000  0.50000000  1
  Fe  Fe11  1  0.49457600  0.50000000  0.83163900  1
  P  P12  1  0.64885500  0.00000000  0.24593100  1
  P  P13  1  0.35114500  0.00000000  0.75406900  1
  P  P14  1  0.65127600  0.00000000  0.91736000  1
  P  P15  1  0.35578800  0.00000000  0.42082300  1
  P  P16  1  0.64421200  0.00000000  0.57917700  1
  P  P17  1  0.34872400  0.00000000  0.08264000  1
  P  P18  1  0.14885500  0.50000000  0.24593100  1
  P  P19  1  0.85114500  0.50000000  0.75406900  1
  P  P20  1  0.15127600  0.50000000  0.91736000  1
  P  P21  1  0.85578800  0.50000000  0.42082300  1
  P  P22  1  0.14421200  0.50000000  0.57917700  1
  P  P23  1  0.84872400  0.50000000  0.08264000  1
  O  O24  1  0.53767900  0.23985500  0.24288800  1
  O  O25  1  0.46232100  0.23985500  0.75711200  1
  O  O26  1  0.76760100  0.00000000  0.18451200  1
  O  O27  1  0.53355850  0.24036150  0.57595800  1
  O  O28  1  0.76119700  0.00000000  0.98231400  1
  O  O29  1  0.46644150  0.75963850  0.42404200  1
  O  O30  1  0.53767900  0.76014500  0.24288800  1
  O  O31  1  0.46322150  0.75757450  0.08239800  1
  O  O32  1  0.53355850  0.75963850  0.57595800  1
  O  O33  1  0.74006600  0.00000000  0.64816500  1
  O  O34  1  0.46644150  0.24036150  0.42404200  1
  O  O35  1  0.25729100  0.00000000  0.68417700  1
  O  O36  1  0.46232100  0.76014500  0.75711200  1
  O  O37  1  0.53677850  0.75757450  0.91760200  1
  O  O38  1  0.75633300  0.00000000  0.85244000  1
  O  O39  1  0.46322150  0.24242550  0.08239800  1
  O  O40  1  0.53677850  0.24242550  0.91760200  1
  O  O41  1  0.24366700  0.00000000  0.14756000  1
  O  O42  1  0.74270900  0.00000000  0.31582300  1
  O  O43  1  0.23880300  0.00000000  0.01768600  1
  O  O44  1  0.23881400  0.00000000  0.48312200  1
  O  O45  1  0.23239900  0.00000000  0.81548800  1
  O  O46  1  0.25993400  0.00000000  0.35183500  1
  O  O47  1  0.76118600  0.00000000  0.51687800  1
  O  O48  1  0.03767900  0.73985500  0.24288800  1
  O  O49  1  0.96232100  0.73985500  0.75711200  1
  O  O50  1  0.26760100  0.50000000  0.18451200  1
  O  O51  1  0.03355850  0.74036150  0.57595800  1
  O  O52  1  0.26119700  0.50000000  0.98231400  1
  O  O53  1  0.96644150  0.25963850  0.42404200  1
  O  O54  1  0.03767900  0.26014500  0.24288800  1
  O  O55  1  0.96322150  0.25757450  0.08239800  1
  O  O56  1  0.03355850  0.25963850  0.57595800  1
  O  O57  1  0.24006600  0.50000000  0.64816500  1
  O  O58  1  0.96644150  0.74036150  0.42404200  1
  O  O59  1  0.75729100  0.50000000  0.68417700  1
  O  O60  1  0.96232100  0.26014500  0.75711200  1
  O  O61  1  0.03677850  0.25757450  0.91760200  1
  O  O62  1  0.25633300  0.50000000  0.85244000  1
  O  O63  1  0.96322150  0.74242550  0.08239800  1
  O  O64  1  0.03677850  0.74242550  0.91760200  1
  O  O65  1  0.74366700  0.50000000  0.14756000  1
  O  O66  1  0.24270900  0.50000000  0.31582300  1
  O  O67  1  0.73880300  0.50000000  0.01768600  1
  O  O68  1  0.73881400  0.50000000  0.48312200  1
  O  O69  1  0.73239900  0.50000000  0.81548800  1
  O  O70  1  0.75993400  0.50000000  0.35183500  1
  O  O71  1  0.26118600  0.50000000  0.51687800  1
