# generated using pymatgen
data_NaNd3Ti3MnO12
_symmetry_space_group_name_H-M   'P 1'
_cell_length_a   5.52810200
_cell_length_b   5.53492000
_cell_length_c   15.73701900
_cell_angle_alpha   90.00000000
_cell_angle_beta   90.09134113
_cell_angle_gamma   90.00000000
_symmetry_Int_Tables_number   1
_chemical_formula_structural   NaNd3Ti3MnO12
_chemical_formula_sum   'Na2 Nd6 Ti6 Mn2 O24'
_cell_volume   481.51443714
_cell_formula_units_Z   2
loop_
 _symmetry_equiv_pos_site_id
 _symmetry_equiv_pos_as_xyz
  1  'x, y, z'
loop_
 _atom_site_type_symbol
 _atom_site_label
 _atom_site_symmetry_multiplicity
 _atom_site_fract_x
 _atom_site_fract_y
 _atom_site_fract_z
 _atom_site_occupancy
  Na  Na0  1  0.74986800  0.50878600  0.37751600  1
  Na  Na1  1  0.25013200  0.00878600  0.62248400  1
  Nd  Nd2  1  0.23543700  0.97950800  0.87523400  1
  Nd  Nd3  1  0.24221900  0.98714200  0.38171200  1
  Nd  Nd4  1  0.73560100  0.51647800  0.87488400  1
  Nd  Nd5  1  0.76456300  0.47950800  0.12476600  1
  Nd  Nd6  1  0.75778100  0.48714200  0.61828800  1
  Nd  Nd7  1  0.26439900  0.01647800  0.12511600  1
  Ti  Ti8  1  0.74878400  0.99970600  0.49941500  1
  Ti  Ti9  1  0.25121600  0.49970600  0.50058500  1
  Ti  Ti10  1  0.25263600  0.50831300  0.25440700  1
  Ti  Ti11  1  0.24843100  0.49462000  0.74479800  1
  Ti  Ti12  1  0.75156900  0.99462000  0.25520200  1
  Ti  Ti13  1  0.74736400  0.00831300  0.74559300  1
  Mn  Mn14  1  0.74989600  0.99875700  0.00023900  1
  Mn  Mn15  1  0.25010400  0.49875700  0.99976100  1
  O  O16  1  0.76154100  0.09467200  0.86440200  1
  O  O17  1  0.75351300  0.07385600  0.37665000  1
  O  O18  1  0.99906400  0.25468400  0.72383900  1
  O  O19  1  0.51239200  0.26121400  0.02901800  1
  O  O20  1  0.50633700  0.25441600  0.52042900  1
  O  O21  1  0.01170800  0.23733900  0.02892300  1
  O  O22  1  0.00781900  0.24240600  0.22575600  1
  O  O23  1  0.51744400  0.26755700  0.72377400  1
  O  O24  1  0.99991400  0.24847300  0.51988500  1
  O  O25  1  0.50502100  0.25833400  0.22539000  1
  O  O26  1  0.25017400  0.41345800  0.37591800  1
  O  O27  1  0.26276600  0.40028200  0.86355900  1
  O  O28  1  0.23845900  0.59467200  0.13559800  1
  O  O29  1  0.24648700  0.57385600  0.62335000  1
  O  O30  1  0.00093600  0.75468400  0.27616100  1
  O  O31  1  0.99218100  0.74240600  0.77424400  1
  O  O32  1  0.48255600  0.76755700  0.27622600  1
  O  O33  1  0.48760800  0.76121400  0.97098200  1
  O  O34  1  0.49497900  0.75833400  0.77461000  1
  O  O35  1  0.98829200  0.73733900  0.97107700  1
  O  O36  1  0.49366300  0.75441600  0.47957100  1
  O  O37  1  0.00008600  0.74847300  0.48011500  1
  O  O38  1  0.73723400  0.90028200  0.13644100  1
  O  O39  1  0.74982600  0.91345800  0.62408200  1
