# generated using pymatgen
data_Ba14Na14LiN6
_symmetry_space_group_name_H-M   'P 1'
_cell_length_a   17.88475400
_cell_length_b   17.88475400
_cell_length_c   17.88475400
_cell_angle_alpha   90.00000000
_cell_angle_beta   90.00000000
_cell_angle_gamma   90.00000000
_symmetry_Int_Tables_number   1
_chemical_formula_structural   Ba14Na14LiN6
_chemical_formula_sum   'Ba56 Na56 Li4 N24'
_cell_volume   5720.69656593
_cell_formula_units_Z   4
loop_
 _symmetry_equiv_pos_site_id
 _symmetry_equiv_pos_as_xyz
  1  'x, y, z'
loop_
 _atom_site_type_symbol
 _atom_site_label
 _atom_site_symmetry_multiplicity
 _atom_site_fract_x
 _atom_site_fract_y
 _atom_site_fract_z
 _atom_site_occupancy
  Ba  Ba0  1  0.10326867  0.39673133  0.60326867  1
  Ba  Ba1  1  0.39673133  0.39673133  0.89673133  1
  Ba  Ba2  1  0.50000000  0.21315200  0.00000000  1
  Ba  Ba3  1  0.50000000  0.00000000  0.78684800  1
  Ba  Ba4  1  0.28684800  0.00000000  0.00000000  1
  Ba  Ba5  1  0.10326867  0.10326867  0.89673133  1
  Ba  Ba6  1  0.71315200  0.00000000  0.00000000  1
  Ba  Ba7  1  0.39673133  0.10326867  0.60326867  1
  Ba  Ba8  1  0.50000000  0.78684800  0.00000000  1
  Ba  Ba9  1  0.10326867  0.60326867  0.60326867  1
  Ba  Ba10  1  0.00000000  0.00000000  0.71315200  1
  Ba  Ba11  1  0.39673133  0.60326867  0.89673133  1
  Ba  Ba12  1  0.10326867  0.89673133  0.89673133  1
  Ba  Ba13  1  0.39673133  0.89673133  0.60326867  1
  Ba  Ba14  1  0.10326867  0.89673133  0.10326867  1
  Ba  Ba15  1  0.39673133  0.89673133  0.39673133  1
  Ba  Ba16  1  0.50000000  0.71315200  0.50000000  1
  Ba  Ba17  1  0.50000000  0.50000000  0.28684800  1
  Ba  Ba18  1  0.28684800  0.50000000  0.50000000  1
  Ba  Ba19  1  0.10326867  0.60326867  0.39673133  1
  Ba  Ba20  1  0.71315200  0.50000000  0.50000000  1
  Ba  Ba21  1  0.39673133  0.60326867  0.10326867  1
  Ba  Ba22  1  0.50000000  0.28684800  0.50000000  1
  Ba  Ba23  1  0.10326867  0.10326867  0.10326867  1
  Ba  Ba24  1  0.00000000  0.50000000  0.21315200  1
  Ba  Ba25  1  0.39673133  0.10326867  0.39673133  1
  Ba  Ba26  1  0.10326867  0.39673133  0.39673133  1
  Ba  Ba27  1  0.39673133  0.39673133  0.10326867  1
  Ba  Ba28  1  0.60326867  0.39673133  0.10326867  1
  Ba  Ba29  1  0.89673133  0.39673133  0.39673133  1
  Ba  Ba30  1  0.00000000  0.21315200  0.50000000  1
  Ba  Ba31  1  0.00000000  0.00000000  0.28684800  1
  Ba  Ba32  1  0.78684800  0.00000000  0.50000000  1
  Ba  Ba33  1  0.60326867  0.10326867  0.39673133  1
  Ba  Ba34  1  0.21315200  0.00000000  0.50000000  1
  Ba  Ba35  1  0.89673133  0.10326867  0.10326867  1
  Ba  Ba36  1  0.00000000  0.78684800  0.50000000  1
  Ba  Ba37  1  0.60326867  0.60326867  0.10326867  1
  Ba  Ba38  1  0.50000000  0.00000000  0.21315200  1
  Ba  Ba39  1  0.89673133  0.60326867  0.39673133  1
  Ba  Ba40  1  0.60326867  0.89673133  0.39673133  1
  Ba  Ba41  1  0.89673133  0.89673133  0.10326867  1
  Ba  Ba42  1  0.60326867  0.89673133  0.60326867  1
  Ba  Ba43  1  0.89673133  0.89673133  0.89673133  1
  Ba  Ba44  1  0.00000000  0.71315200  0.00000000  1
  Ba  Ba45  1  0.00000000  0.50000000  0.78684800  1
  Ba  Ba46  1  0.78684800  0.50000000  0.00000000  1
  Ba  Ba47  1  0.60326867  0.60326867  0.89673133  1
  Ba  Ba48  1  0.21315200  0.50000000  0.00000000  1
  Ba  Ba49  1  0.89673133  0.60326867  0.60326867  1
  Ba  Ba50  1  0.00000000  0.28684800  0.00000000  1
  Ba  Ba51  1  0.60326867  0.10326867  0.60326867  1
  Ba  Ba52  1  0.50000000  0.50000000  0.71315200  1
  Ba  Ba53  1  0.89673133  0.10326867  0.89673133  1
  Ba  Ba54  1  0.60326867  0.39673133  0.89673133  1
  Ba  Ba55  1  0.89673133  0.39673133  0.60326867  1
  Na  Na56  1  0.32908033  0.32908033  0.67091967  1
  Na  Na57  1  0.32908033  0.67091967  0.67091967  1
  Na  Na58  1  0.25000000  0.75000000  0.00000000  1
  Na  Na59  1  0.17091967  0.67091967  0.82908033  1
  Na  Na60  1  0.17091967  0.17091967  0.67091967  1
  Na  Na61  1  0.32908033  0.17091967  0.82908033  1
  Na  Na62  1  0.17091967  0.32908033  0.82908033  1
  Na  Na63  1  0.17091967  0.82908033  0.67091967  1
  Na  Na64  1  0.25000000  0.00000000  0.75000000  1
  Na  Na65  1  0.32908033  0.82908033  0.82908033  1
  Na  Na66  1  0.00000000  0.25000000  0.75000000  1
  Na  Na67  1  0.25000000  0.25000000  0.00000000  1
  Na  Na68  1  0.75000000  0.00000000  0.75000000  1
  Na  Na69  1  0.00000000  0.75000000  0.75000000  1
  Na  Na70  1  0.32908033  0.82908033  0.17091967  1
  Na  Na71  1  0.32908033  0.17091967  0.17091967  1
  Na  Na72  1  0.25000000  0.25000000  0.50000000  1
  Na  Na73  1  0.17091967  0.17091967  0.32908033  1
  Na  Na74  1  0.17091967  0.67091967  0.17091967  1
  Na  Na75  1  0.32908033  0.67091967  0.32908033  1
  Na  Na76  1  0.17091967  0.82908033  0.32908033  1
  Na  Na77  1  0.17091967  0.32908033  0.17091967  1
  Na  Na78  1  0.25000000  0.50000000  0.25000000  1
  Na  Na79  1  0.32908033  0.32908033  0.32908033  1
  Na  Na80  1  0.00000000  0.75000000  0.25000000  1
  Na  Na81  1  0.25000000  0.75000000  0.50000000  1
  Na  Na82  1  0.75000000  0.50000000  0.25000000  1
  Na  Na83  1  0.00000000  0.25000000  0.25000000  1
  Na  Na84  1  0.82908033  0.32908033  0.17091967  1
  Na  Na85  1  0.82908033  0.67091967  0.17091967  1
  Na  Na86  1  0.75000000  0.75000000  0.50000000  1
  Na  Na87  1  0.67091967  0.67091967  0.32908033  1
  Na  Na88  1  0.67091967  0.17091967  0.17091967  1
  Na  Na89  1  0.82908033  0.17091967  0.32908033  1
  Na  Na90  1  0.67091967  0.32908033  0.32908033  1
  Na  Na91  1  0.67091967  0.82908033  0.17091967  1
  Na  Na92  1  0.75000000  0.00000000  0.25000000  1
  Na  Na93  1  0.82908033  0.82908033  0.32908033  1
  Na  Na94  1  0.50000000  0.25000000  0.25000000  1
  Na  Na95  1  0.75000000  0.25000000  0.50000000  1
  Na  Na96  1  0.25000000  0.00000000  0.25000000  1
  Na  Na97  1  0.50000000  0.75000000  0.25000000  1
  Na  Na98  1  0.82908033  0.82908033  0.67091967  1
  Na  Na99  1  0.82908033  0.17091967  0.67091967  1
  Na  Na100  1  0.75000000  0.25000000  0.00000000  1
  Na  Na101  1  0.67091967  0.17091967  0.82908033  1
  Na  Na102  1  0.67091967  0.67091967  0.67091967  1
  Na  Na103  1  0.82908033  0.67091967  0.82908033  1
  Na  Na104  1  0.67091967  0.82908033  0.82908033  1
  Na  Na105  1  0.67091967  0.32908033  0.67091967  1
  Na  Na106  1  0.75000000  0.50000000  0.75000000  1
  Na  Na107  1  0.82908033  0.32908033  0.82908033  1
  Na  Na108  1  0.50000000  0.75000000  0.75000000  1
  Na  Na109  1  0.75000000  0.75000000  0.00000000  1
  Na  Na110  1  0.25000000  0.50000000  0.75000000  1
  Na  Na111  1  0.50000000  0.25000000  0.75000000  1
  Li  Li112  1  0.00000000  0.00000000  0.00000000  1
  Li  Li113  1  0.00000000  0.50000000  0.50000000  1
  Li  Li114  1  0.50000000  0.00000000  0.50000000  1
  Li  Li115  1  0.50000000  0.50000000  0.00000000  1
  N  N116  1  0.50000000  0.64672100  0.00000000  1
  N  N117  1  0.85327900  0.00000000  0.00000000  1
  N  N118  1  0.00000000  0.00000000  0.85327900  1
  N  N119  1  0.50000000  0.35327900  0.00000000  1
  N  N120  1  0.14672100  0.00000000  0.00000000  1
  N  N121  1  0.50000000  0.00000000  0.64672100  1
  N  N122  1  0.50000000  0.14672100  0.50000000  1
  N  N123  1  0.85327900  0.50000000  0.50000000  1
  N  N124  1  0.00000000  0.50000000  0.35327900  1
  N  N125  1  0.50000000  0.85327900  0.50000000  1
  N  N126  1  0.14672100  0.50000000  0.50000000  1
  N  N127  1  0.50000000  0.50000000  0.14672100  1
  N  N128  1  0.00000000  0.64672100  0.50000000  1
  N  N129  1  0.35327900  0.00000000  0.50000000  1
  N  N130  1  0.50000000  0.00000000  0.35327900  1
  N  N131  1  0.00000000  0.35327900  0.50000000  1
  N  N132  1  0.64672100  0.00000000  0.50000000  1
  N  N133  1  0.00000000  0.00000000  0.14672100  1
  N  N134  1  0.00000000  0.14672100  0.00000000  1
  N  N135  1  0.35327900  0.50000000  0.00000000  1
  N  N136  1  0.50000000  0.50000000  0.85327900  1
  N  N137  1  0.00000000  0.85327900  0.00000000  1
  N  N138  1  0.64672100  0.50000000  0.00000000  1
  N  N139  1  0.00000000  0.50000000  0.64672100  1
