# generated using pymatgen
data_DyCuSb2
_symmetry_space_group_name_H-M   'P 1'
_cell_length_a   6.11865435
_cell_length_b   6.10260043
_cell_length_c   9.77440098
_cell_angle_alpha   90.00000000
_cell_angle_beta   90.41150552
_cell_angle_gamma   90.00000000
_symmetry_Int_Tables_number   1
_chemical_formula_structural   DyCuSb2
_chemical_formula_sum   'Dy4 Cu4 Sb8'
_cell_volume   364.96381329
_cell_formula_units_Z   4
loop_
 _symmetry_equiv_pos_site_id
 _symmetry_equiv_pos_as_xyz
  1  'x, y, z'
loop_
 _atom_site_type_symbol
 _atom_site_label
 _atom_site_symmetry_multiplicity
 _atom_site_fract_x
 _atom_site_fract_y
 _atom_site_fract_z
 _atom_site_occupancy
  Dy  Dy0  1  0.25108463  0.00000000  0.24972915  1
  Dy  Dy1  1  0.24891537  0.50000000  0.75027085  1
  Dy  Dy2  1  0.75108463  0.50000000  0.24972915  1
  Dy  Dy3  1  0.74891537  0.00000000  0.75027085  1
  Cu  Cu4  1  0.50000000  0.24371542  0.50000000  1
  Cu  Cu5  1  0.00000000  0.25628458  0.50000000  1
  Cu  Cu6  1  0.00000000  0.74371542  0.50000000  1
  Cu  Cu7  1  0.50000000  0.75628458  0.50000000  1
  Sb  Sb8  1  0.24608009  0.00000000  0.66144743  1
  Sb  Sb9  1  0.25391991  0.50000000  0.33855257  1
  Sb  Sb10  1  0.00000000  0.24975064  0.00000000  1
  Sb  Sb11  1  0.50000000  0.25024936  0.00000000  1
  Sb  Sb12  1  0.74608009  0.50000000  0.66144743  1
  Sb  Sb13  1  0.75391991  0.00000000  0.33855257  1
  Sb  Sb14  1  0.50000000  0.74975064  0.00000000  1
  Sb  Sb15  1  0.00000000  0.75024936  0.00000000  1
