# generated using pymatgen
data_MgU2O6
_symmetry_space_group_name_H-M   'P 1'
_cell_length_a   6.39543800
_cell_length_b   11.13448800
_cell_length_c   6.55675625
_cell_angle_alpha   90.00000000
_cell_angle_beta   109.55190998
_cell_angle_gamma   90.00000000
_symmetry_Int_Tables_number   1
_chemical_formula_structural   MgU2O6
_chemical_formula_sum   'Mg4 U8 O24'
_cell_volume   439.98371192
_cell_formula_units_Z   4
loop_
 _symmetry_equiv_pos_site_id
 _symmetry_equiv_pos_as_xyz
  1  'x, y, z'
loop_
 _atom_site_type_symbol
 _atom_site_label
 _atom_site_symmetry_multiplicity
 _atom_site_fract_x
 _atom_site_fract_y
 _atom_site_fract_z
 _atom_site_occupancy
  Mg  Mg0  1  0.00000000  0.57768500  0.25000000  1
  Mg  Mg1  1  0.50000000  0.92231500  0.75000000  1
  Mg  Mg2  1  0.50000000  0.07768500  0.25000000  1
  Mg  Mg3  1  0.00000000  0.42231500  0.75000000  1
  U  U4  1  0.50000000  0.75438900  0.25000000  1
  U  U5  1  0.00000000  0.74561100  0.75000000  1
  U  U6  1  0.00000000  0.91604800  0.25000000  1
  U  U7  1  0.50000000  0.58395200  0.75000000  1
  U  U8  1  0.00000000  0.25438900  0.25000000  1
  U  U9  1  0.50000000  0.24561100  0.75000000  1
  U  U10  1  0.50000000  0.41604800  0.25000000  1
  U  U11  1  0.00000000  0.08395200  0.75000000  1
  O  O12  1  0.87482950  0.74762650  0.37672700  1
  O  O13  1  0.38475150  0.58583950  0.37913000  1
  O  O14  1  0.37482950  0.75237350  0.87672700  1
  O  O15  1  0.36457850  0.91638250  0.36694300  1
  O  O16  1  0.13542150  0.58361750  0.63305700  1
  O  O17  1  0.86457850  0.58361750  0.86694300  1
  O  O18  1  0.11524850  0.91416050  0.62087000  1
  O  O19  1  0.88475150  0.91416050  0.87913000  1
  O  O20  1  0.61524850  0.58583950  0.12087000  1
  O  O21  1  0.62517050  0.75237350  0.62327300  1
  O  O22  1  0.63542150  0.91638250  0.13305700  1
  O  O23  1  0.12517050  0.74762650  0.12327300  1
  O  O24  1  0.37482950  0.24762650  0.37672700  1
  O  O25  1  0.88475150  0.08583950  0.37913000  1
  O  O26  1  0.87482950  0.25237350  0.87672700  1
  O  O27  1  0.86457850  0.41638250  0.36694300  1
  O  O28  1  0.63542150  0.08361750  0.63305700  1
  O  O29  1  0.36457850  0.08361750  0.86694300  1
  O  O30  1  0.61524850  0.41416050  0.62087000  1
  O  O31  1  0.38475150  0.41416050  0.87913000  1
  O  O32  1  0.11524850  0.08583950  0.12087000  1
  O  O33  1  0.12517050  0.25237350  0.62327300  1
  O  O34  1  0.13542150  0.41638250  0.13305700  1
  O  O35  1  0.62517050  0.24762650  0.12327300  1
