# generated using pymatgen
data_Ce12InPt7
_symmetry_space_group_name_H-M   'P 1'
_cell_length_a   11.98797000
_cell_length_b   11.98797000
_cell_length_c   14.30205200
_cell_angle_alpha   90.00000000
_cell_angle_beta   90.00000000
_cell_angle_gamma   90.00000000
_symmetry_Int_Tables_number   1
_chemical_formula_structural   Ce12InPt7
_chemical_formula_sum   'Ce48 In4 Pt28'
_cell_volume   2055.36826935
_cell_formula_units_Z   4
loop_
 _symmetry_equiv_pos_site_id
 _symmetry_equiv_pos_as_xyz
  1  'x, y, z'
loop_
 _atom_site_type_symbol
 _atom_site_label
 _atom_site_symmetry_multiplicity
 _atom_site_fract_x
 _atom_site_fract_y
 _atom_site_fract_z
 _atom_site_occupancy
  Ce  Ce0  1  0.29120900  0.42951100  0.85616100  1
  Ce  Ce1  1  0.17463300  0.67463300  0.00000000  1
  Ce  Ce2  1  0.29120900  0.42951100  0.14383900  1
  Ce  Ce3  1  0.20879100  0.07048900  0.35616100  1
  Ce  Ce4  1  0.92951100  0.20879100  0.35616100  1
  Ce  Ce5  1  0.70879100  0.42951100  0.35616100  1
  Ce  Ce6  1  0.07048900  0.20879100  0.14383900  1
  Ce  Ce7  1  0.57048900  0.70879100  0.35616100  1
  Ce  Ce8  1  0.29120900  0.57048900  0.35616100  1
  Ce  Ce9  1  0.50000000  0.00000000  0.35377500  1
  Ce  Ce10  1  0.32536700  0.82536700  0.50000000  1
  Ce  Ce11  1  0.00000000  0.50000000  0.14622500  1
  Ce  Ce12  1  0.50000000  0.00000000  0.14622500  1
  Ce  Ce13  1  0.57048900  0.29120900  0.85616100  1
  Ce  Ce14  1  0.92951100  0.20879100  0.64383900  1
  Ce  Ce15  1  0.20879100  0.07048900  0.64383900  1
  Ce  Ce16  1  0.79120900  0.07048900  0.14383900  1
  Ce  Ce17  1  0.42951100  0.29120900  0.35616100  1
  Ce  Ce18  1  0.20879100  0.92951100  0.14383900  1
  Ce  Ce19  1  0.32536700  0.17463300  0.00000000  1
  Ce  Ce20  1  0.17463300  0.32536700  0.50000000  1
  Ce  Ce21  1  0.92951100  0.79120900  0.14383900  1
  Ce  Ce22  1  0.00000000  0.50000000  0.35377500  1
  Ce  Ce23  1  0.57048900  0.29120900  0.14383900  1
  Ce  Ce24  1  0.79120900  0.92951100  0.35616100  1
  Ce  Ce25  1  0.67463300  0.17463300  0.50000000  1
  Ce  Ce26  1  0.79120900  0.92951100  0.64383900  1
  Ce  Ce27  1  0.70879100  0.57048900  0.85616100  1
  Ce  Ce28  1  0.42951100  0.70879100  0.85616100  1
  Ce  Ce29  1  0.20879100  0.92951100  0.85616100  1
  Ce  Ce30  1  0.57048900  0.70879100  0.64383900  1
  Ce  Ce31  1  0.07048900  0.20879100  0.85616100  1
  Ce  Ce32  1  0.79120900  0.07048900  0.85616100  1
  Ce  Ce33  1  0.00000000  0.50000000  0.85377500  1
  Ce  Ce34  1  0.82536700  0.32536700  0.00000000  1
  Ce  Ce35  1  0.50000000  0.00000000  0.64622500  1
  Ce  Ce36  1  0.00000000  0.50000000  0.64622500  1
  Ce  Ce37  1  0.07048900  0.79120900  0.35616100  1
  Ce  Ce38  1  0.42951100  0.70879100  0.14383900  1
  Ce  Ce39  1  0.70879100  0.57048900  0.14383900  1
  Ce  Ce40  1  0.29120900  0.57048900  0.64383900  1
  Ce  Ce41  1  0.92951100  0.79120900  0.85616100  1
  Ce  Ce42  1  0.70879100  0.42951100  0.64383900  1
  Ce  Ce43  1  0.82536700  0.67463300  0.50000000  1
  Ce  Ce44  1  0.67463300  0.82536700  0.00000000  1
  Ce  Ce45  1  0.42951100  0.29120900  0.64383900  1
  Ce  Ce46  1  0.50000000  0.00000000  0.85377500  1
  Ce  Ce47  1  0.07048900  0.79120900  0.64383900  1
  In  In48  1  0.00000000  0.00000000  0.50000000  1
  In  In49  1  0.00000000  0.00000000  0.00000000  1
  In  In50  1  0.50000000  0.50000000  0.00000000  1
  In  In51  1  0.50000000  0.50000000  0.50000000  1
  Pt  Pt52  1  0.82576450  0.32576450  0.19268550  1
  Pt  Pt53  1  0.17423550  0.32576450  0.30731450  1
  Pt  Pt54  1  0.32576450  0.17423550  0.19268550  1
  Pt  Pt55  1  0.12590500  0.37409500  0.00000000  1
  Pt  Pt56  1  0.62590500  0.12590500  0.00000000  1
  Pt  Pt57  1  0.17423550  0.67423550  0.19268550  1
  Pt  Pt58  1  0.67423550  0.17423550  0.30731450  1
  Pt  Pt59  1  0.32576450  0.82576450  0.30731450  1
  Pt  Pt60  1  0.67423550  0.82576450  0.19268550  1
  Pt  Pt61  1  0.37409500  0.12590500  0.50000000  1
  Pt  Pt62  1  0.87409500  0.37409500  0.50000000  1
  Pt  Pt63  1  0.00000000  0.00000000  0.25000000  1
  Pt  Pt64  1  0.00000000  0.00000000  0.75000000  1
  Pt  Pt65  1  0.82576450  0.67423550  0.30731450  1
  Pt  Pt66  1  0.32576450  0.82576450  0.69268550  1
  Pt  Pt67  1  0.67423550  0.82576450  0.80731450  1
  Pt  Pt68  1  0.82576450  0.67423550  0.69268550  1
  Pt  Pt69  1  0.62590500  0.87409500  0.50000000  1
  Pt  Pt70  1  0.12590500  0.62590500  0.50000000  1
  Pt  Pt71  1  0.67423550  0.17423550  0.69268550  1
  Pt  Pt72  1  0.17423550  0.67423550  0.80731450  1
  Pt  Pt73  1  0.82576450  0.32576450  0.80731450  1
  Pt  Pt74  1  0.17423550  0.32576450  0.69268550  1
  Pt  Pt75  1  0.87409500  0.62590500  0.00000000  1
  Pt  Pt76  1  0.37409500  0.87409500  0.00000000  1
  Pt  Pt77  1  0.50000000  0.50000000  0.75000000  1
  Pt  Pt78  1  0.50000000  0.50000000  0.25000000  1
  Pt  Pt79  1  0.32576450  0.17423550  0.80731450  1
