# generated using pymatgen
data_Dy3Ge4
_symmetry_space_group_name_H-M   'P 1'
_cell_length_a   4.04871343
_cell_length_b   10.70262016
_cell_length_c   14.30488491
_cell_angle_alpha   90.00000000
_cell_angle_beta   90.00000000
_cell_angle_gamma   90.00000000
_symmetry_Int_Tables_number   1
_chemical_formula_structural   Dy3Ge4
_chemical_formula_sum   'Dy12 Ge16'
_cell_volume   619.85701293
_cell_formula_units_Z   4
loop_
 _symmetry_equiv_pos_site_id
 _symmetry_equiv_pos_as_xyz
  1  'x, y, z'
loop_
 _atom_site_type_symbol
 _atom_site_label
 _atom_site_symmetry_multiplicity
 _atom_site_fract_x
 _atom_site_fract_y
 _atom_site_fract_z
 _atom_site_occupancy
  Dy  Dy0  1  0.00000000  0.16021504  0.09699612  1
  Dy  Dy1  1  0.50000000  0.33521519  0.90301511  1
  Dy  Dy2  1  0.00000000  0.15539168  0.40386463  1
  Dy  Dy3  1  0.50000000  0.33978496  0.59699612  1
  Dy  Dy4  1  0.00000000  0.44035714  0.25173647  1
  Dy  Dy5  1  0.50000000  0.05964286  0.75173647  1
  Dy  Dy6  1  0.50000000  0.66021504  0.09699612  1
  Dy  Dy7  1  0.00000000  0.83521519  0.90301511  1
  Dy  Dy8  1  0.50000000  0.65539168  0.40386463  1
  Dy  Dy9  1  0.00000000  0.83978496  0.59699612  1
  Dy  Dy10  1  0.50000000  0.94035714  0.25173647  1
  Dy  Dy11  1  0.00000000  0.55964286  0.75173647  1
  Ge  Ge12  1  0.50000000  0.21111015  0.25059429  1
  Ge  Ge13  1  0.00000000  0.28888985  0.75059429  1
  Ge  Ge14  1  0.50000000  0.36876902  0.11003026  1
  Ge  Ge15  1  0.50000000  0.99644243  0.00139771  1
  Ge  Ge16  1  0.50000000  0.36419639  0.39186856  1
  Ge  Ge17  1  0.00000000  0.12548033  0.89076730  1
  Ge  Ge18  1  0.00000000  0.49253596  0.49842920  1
  Ge  Ge19  1  0.00000000  0.13123098  0.61003026  1
  Ge  Ge20  1  0.00000000  0.71111015  0.25059429  1
  Ge  Ge21  1  0.50000000  0.78888985  0.75059429  1
  Ge  Ge22  1  0.00000000  0.86876902  0.11003026  1
  Ge  Ge23  1  0.00000000  0.49644244  0.00139771  1
  Ge  Ge24  1  0.00000000  0.86419639  0.39186856  1
  Ge  Ge25  1  0.50000000  0.62548033  0.89076730  1
  Ge  Ge26  1  0.50000000  0.99253596  0.49842920  1
  Ge  Ge27  1  0.50000000  0.63123098  0.61003026  1
