# generated using pymatgen
data_Pu2O3
_symmetry_space_group_name_H-M   'P 1'
_cell_length_a   10.90029649
_cell_length_b   10.90029649
_cell_length_c   10.90029649
_cell_angle_alpha   90.00000000
_cell_angle_beta   90.00000000
_cell_angle_gamma   90.00000000
_symmetry_Int_Tables_number   1
_chemical_formula_structural   Pu2O3
_chemical_formula_sum   'Pu32 O48'
_cell_volume   1295.13468142
_cell_formula_units_Z   16
loop_
 _symmetry_equiv_pos_site_id
 _symmetry_equiv_pos_as_xyz
  1  'x, y, z'
loop_
 _atom_site_type_symbol
 _atom_site_label
 _atom_site_symmetry_multiplicity
 _atom_site_fract_x
 _atom_site_fract_y
 _atom_site_fract_z
 _atom_site_occupancy
  Pu  Pu0  1  0.47508900  0.50000000  0.75000000  1
  Pu  Pu1  1  0.00000000  0.75000000  0.52491100  1
  Pu  Pu2  1  0.52491100  0.50000000  0.25000000  1
  Pu  Pu3  1  0.75000000  0.02491100  0.00000000  1
  Pu  Pu4  1  0.47508900  0.00000000  0.25000000  1
  Pu  Pu5  1  0.25000000  0.97508900  0.00000000  1
  Pu  Pu6  1  0.25000000  0.02491100  0.50000000  1
  Pu  Pu7  1  0.75000000  0.97508900  0.50000000  1
  Pu  Pu8  1  0.75000000  0.75000000  0.25000000  1
  Pu  Pu9  1  0.52491100  0.00000000  0.75000000  1
  Pu  Pu10  1  0.50000000  0.75000000  0.47508900  1
  Pu  Pu11  1  0.50000000  0.25000000  0.52491100  1
  Pu  Pu12  1  0.00000000  0.25000000  0.47508900  1
  Pu  Pu13  1  0.25000000  0.75000000  0.75000000  1
  Pu  Pu14  1  0.75000000  0.75000000  0.75000000  1
  Pu  Pu15  1  0.25000000  0.75000000  0.25000000  1
  Pu  Pu16  1  0.97508900  0.00000000  0.25000000  1
  Pu  Pu17  1  0.50000000  0.25000000  0.02491100  1
  Pu  Pu18  1  0.02491100  0.00000000  0.75000000  1
  Pu  Pu19  1  0.25000000  0.52491100  0.50000000  1
  Pu  Pu20  1  0.97508900  0.50000000  0.75000000  1
  Pu  Pu21  1  0.75000000  0.47508900  0.50000000  1
  Pu  Pu22  1  0.75000000  0.52491100  0.00000000  1
  Pu  Pu23  1  0.25000000  0.47508900  0.00000000  1
  Pu  Pu24  1  0.25000000  0.25000000  0.75000000  1
  Pu  Pu25  1  0.02491100  0.50000000  0.25000000  1
  Pu  Pu26  1  0.00000000  0.25000000  0.97508900  1
  Pu  Pu27  1  0.00000000  0.75000000  0.02491100  1
  Pu  Pu28  1  0.50000000  0.75000000  0.97508900  1
  Pu  Pu29  1  0.75000000  0.25000000  0.25000000  1
  Pu  Pu30  1  0.25000000  0.25000000  0.25000000  1
  Pu  Pu31  1  0.75000000  0.25000000  0.75000000  1
  O  O32  1  0.14753850  0.37932350  0.38756750  1
  O  O33  1  0.64753850  0.62067650  0.38756750  1
  O  O34  1  0.61243250  0.14753850  0.87932350  1
  O  O35  1  0.38756750  0.14753850  0.37932350  1
  O  O36  1  0.62067650  0.88756750  0.35246150  1
  O  O37  1  0.38756750  0.64753850  0.62067650  1
  O  O38  1  0.14753850  0.87932350  0.61243250  1
  O  O39  1  0.12067650  0.88756750  0.14753850  1
  O  O40  1  0.87932350  0.88756750  0.64753850  1
  O  O41  1  0.35246150  0.87932350  0.38756750  1
  O  O42  1  0.37932350  0.88756750  0.85246150  1
  O  O43  1  0.38756750  0.85246150  0.12067650  1
  O  O44  1  0.61243250  0.64753850  0.12067650  1
  O  O45  1  0.61243250  0.35246150  0.37932350  1
  O  O46  1  0.37932350  0.11243250  0.64753850  1
  O  O47  1  0.64753850  0.12067650  0.61243250  1
  O  O48  1  0.38756750  0.35246150  0.87932350  1
  O  O49  1  0.62067650  0.11243250  0.14753850  1
  O  O50  1  0.85246150  0.62067650  0.61243250  1
  O  O51  1  0.85246150  0.12067650  0.38756750  1
  O  O52  1  0.12067650  0.11243250  0.35246150  1
  O  O53  1  0.61243250  0.85246150  0.62067650  1
  O  O54  1  0.87932350  0.11243250  0.85246150  1
  O  O55  1  0.35246150  0.37932350  0.61243250  1
  O  O56  1  0.64753850  0.87932350  0.88756750  1
  O  O57  1  0.14753850  0.12067650  0.88756750  1
  O  O58  1  0.11243250  0.64753850  0.37932350  1
  O  O59  1  0.88756750  0.64753850  0.87932350  1
  O  O60  1  0.12067650  0.38756750  0.85246150  1
  O  O61  1  0.88756750  0.14753850  0.12067650  1
  O  O62  1  0.64753850  0.37932350  0.11243250  1
  O  O63  1  0.62067650  0.38756750  0.64753850  1
  O  O64  1  0.37932350  0.38756750  0.14753850  1
  O  O65  1  0.85246150  0.37932350  0.88756750  1
  O  O66  1  0.87932350  0.38756750  0.35246150  1
  O  O67  1  0.88756750  0.35246150  0.62067650  1
  O  O68  1  0.11243250  0.14753850  0.62067650  1
  O  O69  1  0.11243250  0.85246150  0.87932350  1
  O  O70  1  0.87932350  0.61243250  0.14753850  1
  O  O71  1  0.14753850  0.62067650  0.11243250  1
  O  O72  1  0.88756750  0.85246150  0.37932350  1
  O  O73  1  0.12067650  0.61243250  0.64753850  1
  O  O74  1  0.35246150  0.12067650  0.11243250  1
  O  O75  1  0.35246150  0.62067650  0.88756750  1
  O  O76  1  0.62067650  0.61243250  0.85246150  1
  O  O77  1  0.11243250  0.35246150  0.12067650  1
  O  O78  1  0.37932350  0.61243250  0.35246150  1
  O  O79  1  0.85246150  0.87932350  0.11243250  1
