# generated using pymatgen
data_Cr(InS2)2
_symmetry_space_group_name_H-M   'P 1'
_cell_length_a   7.49690600
_cell_length_b   7.75813600
_cell_length_c   10.70947400
_cell_angle_alpha   90.00000000
_cell_angle_beta   90.00000000
_cell_angle_gamma   90.00000000
_symmetry_Int_Tables_number   1
_chemical_formula_structural   Cr(InS2)2
_chemical_formula_sum   'Cr4 In8 S16'
_cell_volume   622.88460164
_cell_formula_units_Z   4
loop_
 _symmetry_equiv_pos_site_id
 _symmetry_equiv_pos_as_xyz
  1  'x, y, z'
loop_
 _atom_site_type_symbol
 _atom_site_label
 _atom_site_symmetry_multiplicity
 _atom_site_fract_x
 _atom_site_fract_y
 _atom_site_fract_z
 _atom_site_occupancy
  Cr  Cr0  1  0.75000000  0.75000000  0.25000000  1
  Cr  Cr1  1  0.25000000  0.75000000  0.25000000  1
  Cr  Cr2  1  0.25000000  0.25000000  0.75000000  1
  Cr  Cr3  1  0.75000000  0.25000000  0.75000000  1
  In  In4  1  0.50000000  0.25000000  0.36600500  1
  In  In5  1  0.50000000  0.75000000  0.63399500  1
  In  In6  1  0.00000000  0.00000000  0.50000000  1
  In  In7  1  0.50000000  0.00000000  0.00000000  1
  In  In8  1  0.00000000  0.75000000  0.86600500  1
  In  In9  1  0.00000000  0.25000000  0.13399500  1
  In  In10  1  0.50000000  0.50000000  0.00000000  1
  In  In11  1  0.00000000  0.50000000  0.50000000  1
  S  S12  1  0.76196850  0.75000000  0.47839650  1
  S  S13  1  0.23803150  0.75000000  0.47839650  1
  S  S14  1  0.00000000  0.95857650  0.25443750  1
  S  S15  1  0.50000000  0.04142350  0.75443750  1
  S  S16  1  0.50000000  0.95857650  0.24556250  1
  S  S17  1  0.00000000  0.04142350  0.74556250  1
  S  S18  1  0.76196850  0.25000000  0.52160350  1
  S  S19  1  0.23803150  0.25000000  0.52160350  1
  S  S20  1  0.26196850  0.25000000  0.97839650  1
  S  S21  1  0.73803150  0.25000000  0.97839650  1
  S  S22  1  0.50000000  0.45857650  0.75443750  1
  S  S23  1  0.00000000  0.54142350  0.25443750  1
  S  S24  1  0.00000000  0.45857650  0.74556250  1
  S  S25  1  0.50000000  0.54142350  0.24556250  1
  S  S26  1  0.26196850  0.75000000  0.02160350  1
  S  S27  1  0.73803150  0.75000000  0.02160350  1
