# generated using pymatgen
data_Na2Ti3Cr(PO4)6
_symmetry_space_group_name_H-M   'P 1'
_cell_length_a   8.51781613
_cell_length_b   8.51781613
_cell_length_c   22.29526192
_cell_angle_alpha   90.00000000
_cell_angle_beta   90.00000000
_cell_angle_gamma   120.00000000
_symmetry_Int_Tables_number   1
_chemical_formula_structural   Na2Ti3Cr(PO4)6
_chemical_formula_sum   'Na6 Ti9 Cr3 P18 O72'
_cell_volume   1400.87612232
_cell_formula_units_Z   3
loop_
 _symmetry_equiv_pos_site_id
 _symmetry_equiv_pos_as_xyz
  1  'x, y, z'
loop_
 _atom_site_type_symbol
 _atom_site_label
 _atom_site_symmetry_multiplicity
 _atom_site_fract_x
 _atom_site_fract_y
 _atom_site_fract_z
 _atom_site_occupancy
  Na  Na0  1  0.00000000  0.00000000  0.00126400  1
  Na  Na1  1  0.33333333  0.66666667  0.16683667  1
  Na  Na2  1  0.66666667  0.33333333  0.33459733  1
  Na  Na3  1  0.00000000  0.00000000  0.50017000  1
  Na  Na4  1  0.33333333  0.66666667  0.66793067  1
  Na  Na5  1  0.66666667  0.33333333  0.83350333  1
  Ti  Ti6  1  0.33333333  0.66666667  0.01953667  1
  Ti  Ti7  1  0.33333333  0.66666667  0.31366967  1
  Ti  Ti8  1  0.66666667  0.33333333  0.18934933  1
  Ti  Ti9  1  0.00000000  0.00000000  0.35287000  1
  Ti  Ti10  1  0.00000000  0.00000000  0.64700300  1
  Ti  Ti11  1  0.33333333  0.66666667  0.52268267  1
  Ti  Ti12  1  0.66666667  0.33333333  0.68620333  1
  Ti  Ti13  1  0.66666667  0.33333333  0.98033633  1
  Ti  Ti14  1  0.00000000  0.00000000  0.85601600  1
  Cr  Cr15  1  0.00000000  0.00000000  0.14425700  1
  Cr  Cr16  1  0.66666667  0.33333333  0.47759033  1
  Cr  Cr17  1  0.33333333  0.66666667  0.81092367  1
  P  P18  1  0.67037633  0.62159867  0.08339267  1
  P  P19  1  0.71451833  0.00114367  0.25012167  1
  P  P20  1  0.28662533  0.28548167  0.25012167  1
  P  P21  1  0.37840133  0.04877767  0.08339267  1
  P  P22  1  0.95122233  0.32962367  0.08339267  1
  P  P23  1  0.99885633  0.71337467  0.25012167  1
  P  P24  1  0.33704300  0.95493200  0.41672600  1
  P  P25  1  0.38118500  0.33447700  0.58345500  1
  P  P26  1  0.95329200  0.61881500  0.58345500  1
  P  P27  1  0.04506800  0.38211100  0.41672600  1
  P  P28  1  0.61788900  0.66295700  0.41672600  1
  P  P29  1  0.66552300  0.04670800  0.58345500  1
  P  P30  1  0.00370967  0.28826533  0.75005933  1
  P  P31  1  0.04785167  0.66781033  0.91678833  1
  P  P32  1  0.61995867  0.95214833  0.91678833  1
  P  P33  1  0.71173467  0.71544433  0.75005933  1
  P  P34  1  0.28455567  0.99629033  0.75005933  1
  P  P35  1  0.33218967  0.38004133  0.91678833  1
  O  O36  1  0.66031233  0.51858267  0.14132267  1
  O  O37  1  0.81856333  0.82294267  0.08645967  1
  O  O38  1  0.48826800  0.33866100  0.24549000  1
  O  O39  1  0.82152867  0.28093733  0.02918233  1
  O  O40  1  0.48492167  0.61125233  0.07483433  1
  O  O41  1  0.54090700  0.81441600  0.25957100  1
  O  O42  1  0.20688200  0.15606700  0.30465500  1
  O  O43  1  0.01101300  0.81141100  0.19111100  1
  O  O44  1  0.18858900  0.19960200  0.19111100  1
  O  O45  1  0.66133900  0.14960700  0.24549000  1
  O  O46  1  0.94918500  0.79311800  0.30465500  1
  O  O47  1  0.27350900  0.45909300  0.25957100  1
  O  O48  1  0.38874767  0.87366933  0.07483433  1
  O  O49  1  0.71906267  0.54059133  0.02918233  1
  O  O50  1  0.00437933  0.18143667  0.08645967  1
  O  O51  1  0.48141733  0.14172967  0.14132267  1
  O  O52  1  0.45940867  0.17847133  0.02918233  1
  O  O53  1  0.12633067  0.51507833  0.07483433  1
  O  O54  1  0.18558400  0.72649100  0.25957100  1
  O  O55  1  0.84393300  0.05081500  0.30465500  1
  O  O56  1  0.80039800  0.98898700  0.19111100  1
  O  O57  1  0.85827033  0.33968767  0.14132267  1
  O  O58  1  0.17705733  0.99562067  0.08645967  1
  O  O59  1  0.85039300  0.51173200  0.24549000  1
  O  O60  1  0.32697900  0.85191600  0.47465600  1
  O  O61  1  0.48523000  0.15627600  0.41979300  1
  O  O62  1  0.15493467  0.67199433  0.57882333  1
  O  O63  1  0.48819533  0.61427067  0.36251567  1
  O  O64  1  0.15158833  0.94458567  0.40816767  1
  O  O65  1  0.20757367  0.14774933  0.59290433  1
  O  O66  1  0.87354867  0.48940033  0.63798833  1
  O  O67  1  0.67767967  0.14474433  0.52444433  1
  O  O68  1  0.85525567  0.53293533  0.52444433  1
  O  O69  1  0.32800567  0.48294033  0.57882333  1
  O  O70  1  0.61585167  0.12645133  0.63798833  1
  O  O71  1  0.94017567  0.79242633  0.59290433  1
  O  O72  1  0.05541433  0.20700267  0.40816767  1
  O  O73  1  0.38572933  0.87392467  0.36251567  1
  O  O74  1  0.67104600  0.51477000  0.41979300  1
  O  O75  1  0.14808400  0.47506300  0.47465600  1
  O  O76  1  0.12607533  0.51180467  0.36251567  1
  O  O77  1  0.79299733  0.84841167  0.40816767  1
  O  O78  1  0.85225067  0.05982433  0.59290433  1
  O  O79  1  0.51059967  0.38414833  0.63798833  1
  O  O80  1  0.46706467  0.32232033  0.52444433  1
  O  O81  1  0.52493700  0.67302100  0.47465600  1
  O  O82  1  0.84372400  0.32895400  0.41979300  1
  O  O83  1  0.51705967  0.84506533  0.57882333  1
  O  O84  1  0.99364567  0.18524933  0.80798933  1
  O  O85  1  0.15189667  0.48960933  0.75312633  1
  O  O86  1  0.82160133  0.00532767  0.91215667  1
  O  O87  1  0.15486200  0.94760400  0.69584900  1
  O  O88  1  0.81825500  0.27791900  0.74150100  1
  O  O89  1  0.87424033  0.48108267  0.92623767  1
  O  O90  1  0.54021533  0.82273367  0.97132167  1
  O  O91  1  0.34434633  0.47807767  0.85777767  1
  O  O92  1  0.52192233  0.86626867  0.85777767  1
  O  O93  1  0.99467233  0.81627367  0.91215667  1
  O  O94  1  0.28251833  0.45978467  0.97132167  1
  O  O95  1  0.60684233  0.12575967  0.92623767  1
  O  O96  1  0.72208100  0.54033600  0.74150100  1
  O  O97  1  0.05239600  0.20725800  0.69584900  1
  O  O98  1  0.33771267  0.84810333  0.75312633  1
  O  O99  1  0.81475067  0.80839633  0.80798933  1
  O  O100  1  0.79274200  0.84513800  0.69584900  1
  O  O101  1  0.45966400  0.18174500  0.74150100  1
  O  O102  1  0.51891733  0.39315767  0.92623767  1
  O  O103  1  0.17726633  0.71748167  0.97132167  1
  O  O104  1  0.13373133  0.65565367  0.85777767  1
  O  O105  1  0.19160367  0.00635433  0.80798933  1
  O  O106  1  0.51039067  0.66228733  0.75312633  1
  O  O107  1  0.18372633  0.17839867  0.91215667  1
