# generated using pymatgen
data_Na5(WO3)6
_symmetry_space_group_name_H-M   'P 1'
_cell_length_a   7.87876600
_cell_length_b   11.17505800
_cell_length_c   16.87793100
_cell_angle_alpha   90.00000000
_cell_angle_beta   90.00000000
_cell_angle_gamma   90.00000000
_symmetry_Int_Tables_number   1
_chemical_formula_structural   Na5(WO3)6
_chemical_formula_sum   'Na20 W24 O72'
_cell_volume   1486.02869279
_cell_formula_units_Z   4
loop_
 _symmetry_equiv_pos_site_id
 _symmetry_equiv_pos_as_xyz
  1  'x, y, z'
loop_
 _atom_site_type_symbol
 _atom_site_label
 _atom_site_symmetry_multiplicity
 _atom_site_fract_x
 _atom_site_fract_y
 _atom_site_fract_z
 _atom_site_occupancy
  Na  Na0  1  0.50000000  0.62537300  0.58367300  1
  Na  Na1  1  0.50000000  0.37462700  0.08367300  1
  Na  Na2  1  0.50000000  0.37499200  0.75000000  1
  Na  Na3  1  0.50000000  0.62537300  0.91632700  1
  Na  Na4  1  0.50000000  0.62500800  0.25000000  1
  Na  Na5  1  0.50000000  0.37462700  0.41632700  1
  Na  Na6  1  0.50000000  0.87533100  0.41618900  1
  Na  Na7  1  0.50000000  0.87533100  0.08381100  1
  Na  Na8  1  0.50000000  0.12466900  0.58381100  1
  Na  Na9  1  0.50000000  0.12466900  0.91618900  1
  Na  Na10  1  0.00000000  0.12537300  0.58367300  1
  Na  Na11  1  0.00000000  0.87462700  0.08367300  1
  Na  Na12  1  0.00000000  0.87499200  0.75000000  1
  Na  Na13  1  0.00000000  0.12537300  0.91632700  1
  Na  Na14  1  0.00000000  0.12500800  0.25000000  1
  Na  Na15  1  0.00000000  0.87462700  0.41632700  1
  Na  Na16  1  0.00000000  0.37533100  0.41618900  1
  Na  Na17  1  0.00000000  0.37533100  0.08381100  1
  Na  Na18  1  0.00000000  0.62466900  0.58381100  1
  Na  Na19  1  0.00000000  0.62466900  0.91618900  1
  W  W20  1  0.74878900  0.12504900  0.08493900  1
  W  W21  1  0.74878900  0.12504900  0.41506100  1
  W  W22  1  0.75003250  0.12485050  0.75000000  1
  W  W23  1  0.25121100  0.12504900  0.41506100  1
  W  W24  1  0.74878900  0.87495100  0.58493900  1
  W  W25  1  0.25121100  0.87495100  0.58493900  1
  W  W26  1  0.75003250  0.87514950  0.25000000  1
  W  W27  1  0.24996750  0.12485050  0.75000000  1
  W  W28  1  0.25121100  0.87495100  0.91506100  1
  W  W29  1  0.25121100  0.12504900  0.08493900  1
  W  W30  1  0.74878900  0.87495100  0.91506100  1
  W  W31  1  0.24996750  0.87514950  0.25000000  1
  W  W32  1  0.24878900  0.62504900  0.08493900  1
  W  W33  1  0.24878900  0.62504900  0.41506100  1
  W  W34  1  0.25003250  0.62485050  0.75000000  1
  W  W35  1  0.75121100  0.62504900  0.41506100  1
  W  W36  1  0.24878900  0.37495100  0.58493900  1
  W  W37  1  0.75121100  0.37495100  0.58493900  1
  W  W38  1  0.25003250  0.37514950  0.25000000  1
  W  W39  1  0.74996750  0.62485050  0.75000000  1
  W  W40  1  0.75121100  0.37495100  0.91506100  1
  W  W41  1  0.75121100  0.62504900  0.08493900  1
  W  W42  1  0.24878900  0.37495100  0.91506100  1
  W  W43  1  0.74996750  0.37514950  0.25000000  1
  O  O44  1  0.74969800  0.00000000  0.50000000  1
  O  O45  1  0.75273850  0.00049950  0.33580300  1
  O  O46  1  0.75273850  0.00049950  0.16419700  1
  O  O47  1  0.74969800  0.00000000  0.00000000  1
  O  O48  1  0.74726550  0.25057450  0.66411300  1
  O  O49  1  0.25000000  0.75000000  0.50000000  1
  O  O50  1  0.75273850  0.99950050  0.66419700  1
  O  O51  1  0.25000000  0.75000000  0.00000000  1
  O  O52  1  0.75273850  0.99950050  0.83580300  1
  O  O53  1  0.25273450  0.74942550  0.33588700  1
  O  O54  1  0.25273450  0.74942550  0.16411300  1
  O  O55  1  0.74726550  0.25057450  0.83588700  1
  O  O56  1  0.50000000  0.37497000  0.58350600  1
  O  O57  1  0.50000000  0.37770900  0.25000000  1
  O  O58  1  0.50000000  0.37497000  0.91649400  1
  O  O59  1  0.50000000  0.62503000  0.08350600  1
  O  O60  1  0.50000000  0.87227100  0.25000000  1
  O  O61  1  0.50000000  0.87501200  0.91819900  1
  O  O62  1  0.50000000  0.62503000  0.41649400  1
  O  O63  1  0.50000000  0.87501200  0.58180100  1
  O  O64  1  0.50000000  0.62229100  0.75000000  1
  O  O65  1  0.25000000  0.25000000  0.50000000  1
  O  O66  1  0.24726150  0.00049950  0.16419700  1
  O  O67  1  0.24726150  0.99950050  0.83580300  1
  O  O68  1  0.24726150  0.99950050  0.66419700  1
  O  O69  1  0.25030200  0.00000000  0.50000000  1
  O  O70  1  0.25273450  0.25057450  0.66411300  1
  O  O71  1  0.25030200  0.00000000  0.00000000  1
  O  O72  1  0.74726550  0.74942550  0.16411300  1
  O  O73  1  0.25000000  0.25000000  0.00000000  1
  O  O74  1  0.25273450  0.25057450  0.83588700  1
  O  O75  1  0.24726150  0.00049950  0.33580300  1
  O  O76  1  0.74726550  0.74942550  0.33588700  1
  O  O77  1  0.50000000  0.12498800  0.41819900  1
  O  O78  1  0.50000000  0.12772900  0.75000000  1
  O  O79  1  0.50000000  0.12498800  0.08180100  1
  O  O80  1  0.24969800  0.50000000  0.50000000  1
  O  O81  1  0.25273850  0.50049950  0.33580300  1
  O  O82  1  0.25273850  0.50049950  0.16419700  1
  O  O83  1  0.24969800  0.50000000  0.00000000  1
  O  O84  1  0.24726550  0.75057450  0.66411300  1
  O  O85  1  0.75000000  0.25000000  0.50000000  1
  O  O86  1  0.25273850  0.49950050  0.66419700  1
  O  O87  1  0.75000000  0.25000000  0.00000000  1
  O  O88  1  0.25273850  0.49950050  0.83580300  1
  O  O89  1  0.75273450  0.24942550  0.33588700  1
  O  O90  1  0.75273450  0.24942550  0.16411300  1
  O  O91  1  0.24726550  0.75057450  0.83588700  1
  O  O92  1  0.00000000  0.87497000  0.58350600  1
  O  O93  1  0.00000000  0.87770900  0.25000000  1
  O  O94  1  0.00000000  0.87497000  0.91649400  1
  O  O95  1  0.00000000  0.12503000  0.08350600  1
  O  O96  1  0.00000000  0.37227100  0.25000000  1
  O  O97  1  0.00000000  0.37501200  0.91819900  1
  O  O98  1  0.00000000  0.12503000  0.41649400  1
  O  O99  1  0.00000000  0.37501200  0.58180100  1
  O  O100  1  0.00000000  0.12229100  0.75000000  1
  O  O101  1  0.75000000  0.75000000  0.50000000  1
  O  O102  1  0.74726150  0.50049950  0.16419700  1
  O  O103  1  0.74726150  0.49950050  0.83580300  1
  O  O104  1  0.74726150  0.49950050  0.66419700  1
  O  O105  1  0.75030200  0.50000000  0.50000000  1
  O  O106  1  0.75273450  0.75057450  0.66411300  1
  O  O107  1  0.75030200  0.50000000  0.00000000  1
  O  O108  1  0.24726550  0.24942550  0.16411300  1
  O  O109  1  0.75000000  0.75000000  0.00000000  1
  O  O110  1  0.75273450  0.75057450  0.83588700  1
  O  O111  1  0.74726150  0.50049950  0.33580300  1
  O  O112  1  0.24726550  0.24942550  0.33588700  1
  O  O113  1  0.00000000  0.62498800  0.41819900  1
  O  O114  1  0.00000000  0.62772900  0.75000000  1
  O  O115  1  0.00000000  0.62498800  0.08180100  1
