# generated using pymatgen
data_LiMn3OF5
_symmetry_space_group_name_H-M   'P 1'
_cell_length_a   14.20744000
_cell_length_b   10.17801800
_cell_length_c   10.14066707
_cell_angle_alpha   90.00000000
_cell_angle_beta   134.32306550
_cell_angle_gamma   90.00000000
_symmetry_Int_Tables_number   1
_chemical_formula_structural   LiMn3OF5
_chemical_formula_sum   'Li8 Mn24 O8 F40'
_cell_volume   1049.06282240
_cell_formula_units_Z   8
loop_
 _symmetry_equiv_pos_site_id
 _symmetry_equiv_pos_as_xyz
  1  'x, y, z'
loop_
 _atom_site_type_symbol
 _atom_site_label
 _atom_site_symmetry_multiplicity
 _atom_site_fract_x
 _atom_site_fract_y
 _atom_site_fract_z
 _atom_site_occupancy
  Li  Li0  1  0.25829950  0.76576950  0.52942100  1
  Li  Li1  1  0.27163250  0.25145750  0.54383800  1
  Li  Li2  1  0.75829950  0.73423050  0.02942100  1
  Li  Li3  1  0.27163250  0.74854250  0.04383800  1
  Li  Li4  1  0.75829950  0.26576950  0.52942100  1
  Li  Li5  1  0.77163250  0.75145750  0.54383800  1
  Li  Li6  1  0.25829950  0.23423050  0.02942100  1
  Li  Li7  1  0.77163250  0.24854250  0.04383800  1
  Mn  Mn8  1  0.25097850  0.00620550  0.27722600  1
  Mn  Mn9  1  0.49790850  0.54639350  0.25033600  1
  Mn  Mn10  1  0.48993050  0.96238150  0.74860900  1
  Mn  Mn11  1  0.52367750  0.74546550  0.52027700  1
  Mn  Mn12  1  0.02367750  0.75453450  0.02027700  1
  Mn  Mn13  1  0.25097850  0.99379450  0.77722600  1
  Mn  Mn14  1  0.25745850  0.51063650  0.21664100  1
  Mn  Mn15  1  0.95879000  0.74200200  0.45346000  1
  Mn  Mn16  1  0.45879000  0.75799800  0.95346000  1
  Mn  Mn17  1  0.99790850  0.95360650  0.75033600  1
  Mn  Mn18  1  0.98993050  0.53761850  0.24860900  1
  Mn  Mn19  1  0.25745850  0.48936350  0.71664100  1
  Mn  Mn20  1  0.75097850  0.50620550  0.27722600  1
  Mn  Mn21  1  0.99790850  0.04639350  0.25033600  1
  Mn  Mn22  1  0.98993050  0.46238150  0.74860900  1
  Mn  Mn23  1  0.02367750  0.24546550  0.52027700  1
  Mn  Mn24  1  0.52367750  0.25453450  0.02027700  1
  Mn  Mn25  1  0.75097850  0.49379450  0.77722600  1
  Mn  Mn26  1  0.75745850  0.01063650  0.21664100  1
  Mn  Mn27  1  0.45879000  0.24200200  0.45346000  1
  Mn  Mn28  1  0.95879000  0.25799800  0.95346000  1
  Mn  Mn29  1  0.49790850  0.45360650  0.75033600  1
  Mn  Mn30  1  0.48993050  0.03761850  0.24860900  1
  Mn  Mn31  1  0.75745850  0.98936350  0.71664100  1
  O  O32  1  0.38740650  0.35112050  0.77813500  1
  O  O33  1  0.38740650  0.64887950  0.27813500  1
  O  O34  1  0.85181050  0.61002150  0.24020700  1
  O  O35  1  0.35181050  0.88997850  0.74020700  1
  O  O36  1  0.88740650  0.85112050  0.77813500  1
  O  O37  1  0.88740650  0.14887950  0.27813500  1
  O  O38  1  0.35181050  0.11002150  0.24020700  1
  O  O39  1  0.85181050  0.38997850  0.74020700  1
  F  F40  1  0.66567700  0.38140700  0.04145200  1
  F  F41  1  0.38530500  0.12251500  0.55205200  1
  F  F42  1  0.37232050  0.84990550  0.48155300  1
  F  F43  1  0.13210450  0.34699650  0.02216800  1
  F  F44  1  0.60639100  0.60889800  0.75476300  1
  F  F45  1  0.10639100  0.89110200  0.25476300  1
  F  F46  1  0.60542700  0.11739900  0.94798300  1
  F  F47  1  0.16567700  0.11859300  0.54145200  1
  F  F48  1  0.63694850  0.89231150  0.74928600  1
  F  F49  1  0.13694850  0.60768850  0.24928600  1
  F  F50  1  0.34249250  0.39165750  0.45292900  1
  F  F51  1  0.39707450  0.62333750  0.73193100  1
  F  F52  1  0.89707450  0.87666250  0.23193100  1
  F  F53  1  0.88530500  0.37748500  0.05205200  1
  F  F54  1  0.37232050  0.15009450  0.98155300  1
  F  F55  1  0.13210450  0.65300350  0.52216800  1
  F  F56  1  0.10836750  0.84426650  0.70773400  1
  F  F57  1  0.10836750  0.15573350  0.20773400  1
  F  F58  1  0.10542700  0.38260100  0.44798300  1
  F  F59  1  0.84249250  0.10834250  0.95292900  1
  F  F60  1  0.16567700  0.88140700  0.04145200  1
  F  F61  1  0.88530500  0.62251500  0.55205200  1
  F  F62  1  0.87232050  0.34990550  0.48155300  1
  F  F63  1  0.63210450  0.84699650  0.02216800  1
  F  F64  1  0.10639100  0.10889800  0.75476300  1
  F  F65  1  0.60639100  0.39110200  0.25476300  1
  F  F66  1  0.10542700  0.61739900  0.94798300  1
  F  F67  1  0.66567700  0.61859300  0.54145200  1
  F  F68  1  0.13694850  0.39231150  0.74928600  1
  F  F69  1  0.63694850  0.10768850  0.24928600  1
  F  F70  1  0.84249250  0.89165750  0.45292900  1
  F  F71  1  0.89707450  0.12333750  0.73193100  1
  F  F72  1  0.39707450  0.37666250  0.23193100  1
  F  F73  1  0.38530500  0.87748500  0.05205200  1
  F  F74  1  0.87232050  0.65009450  0.98155300  1
  F  F75  1  0.63210450  0.15300350  0.52216800  1
  F  F76  1  0.60836750  0.34426650  0.70773400  1
  F  F77  1  0.60836750  0.65573350  0.20773400  1
  F  F78  1  0.60542700  0.88260100  0.44798300  1
  F  F79  1  0.34249250  0.60834250  0.95292900  1
