# generated using pymatgen
data_Li2CrCo(PO4)2
_symmetry_space_group_name_H-M   'P 1'
_cell_length_a   4.77221666
_cell_length_b   6.14365600
_cell_length_c   10.30849506
_cell_angle_alpha   90.00000000
_cell_angle_beta   91.62350542
_cell_angle_gamma   90.00000000
_symmetry_Int_Tables_number   1
_chemical_formula_structural   Li2CrCo(PO4)2
_chemical_formula_sum   'Li4 Cr2 Co2 P4 O16'
_cell_volume   302.11197393
_cell_formula_units_Z   2
loop_
 _symmetry_equiv_pos_site_id
 _symmetry_equiv_pos_as_xyz
  1  'x, y, z'
loop_
 _atom_site_type_symbol
 _atom_site_label
 _atom_site_symmetry_multiplicity
 _atom_site_fract_x
 _atom_site_fract_y
 _atom_site_fract_z
 _atom_site_occupancy
  Li  Li0  1  0.50000000  0.00000000  0.00000000  1
  Li  Li1  1  0.50000000  0.50000000  0.00000000  1
  Li  Li2  1  0.00000000  0.00000000  0.50000000  1
  Li  Li3  1  0.00000000  0.50000000  0.50000000  1
  Cr  Cr4  1  0.95856550  0.75000000  0.78163400  1
  Cr  Cr5  1  0.04143450  0.25000000  0.21836600  1
  Co  Co6  1  0.51887550  0.75000000  0.28307500  1
  Co  Co7  1  0.48112450  0.25000000  0.71692500  1
  P  P8  1  0.08172650  0.75000000  0.09311200  1
  P  P9  1  0.91827350  0.25000000  0.90688800  1
  P  P10  1  0.58382950  0.25000000  0.40507700  1
  P  P11  1  0.41617050  0.75000000  0.59492300  1
  O  O12  1  0.80337150  0.25000000  0.04766300  1
  O  O13  1  0.19662850  0.75000000  0.95233700  1
  O  O14  1  0.76018250  0.75000000  0.09655400  1
  O  O15  1  0.23981750  0.25000000  0.90344600  1
  O  O16  1  0.25874850  0.25000000  0.39931200  1
  O  O17  1  0.74125150  0.75000000  0.60068800  1
  O  O18  1  0.29296150  0.75000000  0.45414500  1
  O  O19  1  0.70703850  0.25000000  0.54585500  1
  O  O20  1  0.22518750  0.94829100  0.16337700  1
  O  O21  1  0.22518750  0.55170900  0.16337700  1
  O  O22  1  0.77481250  0.44829100  0.83662300  1
  O  O23  1  0.77481250  0.05170900  0.83662300  1
  O  O24  1  0.70959250  0.45483700  0.33630700  1
  O  O25  1  0.70959250  0.04516300  0.33630700  1
  O  O26  1  0.29040750  0.95483700  0.66369300  1
  O  O27  1  0.29040750  0.54516300  0.66369300  1
