# generated using pymatgen
data_Li3Co2(SiO4)2
_symmetry_space_group_name_H-M   'P 1'
_cell_length_a   5.22181200
_cell_length_b   11.05014200
_cell_length_c   6.12890002
_cell_angle_alpha   90.00000000
_cell_angle_beta   90.76200613
_cell_angle_gamma   90.00000000
_symmetry_Int_Tables_number   1
_chemical_formula_structural   Li3Co2(SiO4)2
_chemical_formula_sum   'Li6 Co4 Si4 O16'
_cell_volume   353.61706762
_cell_formula_units_Z   2
loop_
 _symmetry_equiv_pos_site_id
 _symmetry_equiv_pos_as_xyz
  1  'x, y, z'
loop_
 _atom_site_type_symbol
 _atom_site_label
 _atom_site_symmetry_multiplicity
 _atom_site_fract_x
 _atom_site_fract_y
 _atom_site_fract_z
 _atom_site_occupancy
  Li  Li0  1  0.45051200  0.16977200  0.74349400  1
  Li  Li1  1  0.54948800  0.66977200  0.25650600  1
  Li  Li2  1  0.04609000  0.83051100  0.24116100  1
  Li  Li3  1  0.94472000  0.32921900  0.24360700  1
  Li  Li4  1  0.95391000  0.33051100  0.75883900  1
  Li  Li5  1  0.05528000  0.82921900  0.75639300  1
  Co  Co6  1  0.56004700  0.42355900  0.49948600  1
  Co  Co7  1  0.43995300  0.92355900  0.50051400  1
  Co  Co8  1  0.92218100  0.57802100  0.98578200  1
  Co  Co9  1  0.07781900  0.07802100  0.01421800  1
  Si  Si10  1  0.93691800  0.08317400  0.50479500  1
  Si  Si11  1  0.06308200  0.58317400  0.49520500  1
  Si  Si12  1  0.43568200  0.42008000  0.00435600  1
  Si  Si13  1  0.56431800  0.92008000  0.99564400  1
  O  O14  1  0.04419900  0.15771000  0.72258800  1
  O  O15  1  0.99490000  0.65774200  0.71659300  1
  O  O16  1  0.62038700  0.06989800  0.52776000  1
  O  O17  1  0.93759400  0.44309600  0.50435200  1
  O  O18  1  0.06240600  0.94309600  0.49564800  1
  O  O19  1  0.37961300  0.56989800  0.47224000  1
  O  O20  1  0.00510000  0.15774200  0.28340700  1
  O  O21  1  0.95580100  0.65771000  0.27741200  1
  O  O22  1  0.46376800  0.84368800  0.21794700  1
  O  O23  1  0.54377800  0.34623500  0.22502400  1
  O  O24  1  0.55640000  0.55578300  0.00356200  1
  O  O25  1  0.44360000  0.05578300  0.99643800  1
  O  O26  1  0.11755100  0.42276800  0.00163900  1
  O  O27  1  0.88244900  0.92276800  0.99836100  1
  O  O28  1  0.53623200  0.34368800  0.78205300  1
  O  O29  1  0.45622200  0.84623500  0.77497600  1
