# generated using pymatgen
data_Li3Mn8(OF3)4
_symmetry_space_group_name_H-M   'P 1'
_cell_length_a   11.19625612
_cell_length_b   6.19910516
_cell_length_c   10.60333346
_cell_angle_alpha   90.00000000
_cell_angle_beta   112.71279801
_cell_angle_gamma   90.00000000
_symmetry_Int_Tables_number   1
_chemical_formula_structural   Li3Mn8(OF3)4
_chemical_formula_sum   'Li6 Mn16 O8 F24'
_cell_volume   678.87210276
_cell_formula_units_Z   2
loop_
 _symmetry_equiv_pos_site_id
 _symmetry_equiv_pos_as_xyz
  1  'x, y, z'
loop_
 _atom_site_type_symbol
 _atom_site_label
 _atom_site_symmetry_multiplicity
 _atom_site_fract_x
 _atom_site_fract_y
 _atom_site_fract_z
 _atom_site_occupancy
  Li  Li0  1  0.00000000  0.00000000  0.50000000  1
  Li  Li1  1  0.19149300  0.00000000  0.07861500  1
  Li  Li2  1  0.80850700  0.00000000  0.92138500  1
  Li  Li3  1  0.50000000  0.50000000  0.50000000  1
  Li  Li4  1  0.69149300  0.50000000  0.07861500  1
  Li  Li5  1  0.30850700  0.50000000  0.92138500  1
  Mn  Mn6  1  0.76234500  0.50000000  0.77574400  1
  Mn  Mn7  1  0.75000000  0.25000000  0.50000000  1
  Mn  Mn8  1  0.75000000  0.75000000  0.50000000  1
  Mn  Mn9  1  0.23765500  0.50000000  0.22425600  1
  Mn  Mn10  1  0.00527150  0.74972050  0.25198600  1
  Mn  Mn11  1  0.00527150  0.25027950  0.25198600  1
  Mn  Mn12  1  0.99472850  0.25027950  0.74801400  1
  Mn  Mn13  1  0.99472850  0.74972050  0.74801400  1
  Mn  Mn14  1  0.26234500  0.00000000  0.77574400  1
  Mn  Mn15  1  0.25000000  0.75000000  0.50000000  1
  Mn  Mn16  1  0.25000000  0.25000000  0.50000000  1
  Mn  Mn17  1  0.73765500  0.00000000  0.22425600  1
  Mn  Mn18  1  0.50527150  0.24972050  0.25198600  1
  Mn  Mn19  1  0.50527150  0.75027950  0.25198600  1
  Mn  Mn20  1  0.49472850  0.75027950  0.74801400  1
  Mn  Mn21  1  0.49472850  0.24972050  0.74801400  1
  O  O22  1  0.12335900  0.00000000  0.38738900  1
  O  O23  1  0.87664100  0.00000000  0.61261100  1
  O  O24  1  0.14190650  0.50000000  0.36823900  1
  O  O25  1  0.85809350  0.50000000  0.63176100  1
  O  O26  1  0.62335900  0.50000000  0.38738900  1
  O  O27  1  0.37664100  0.50000000  0.61261100  1
  O  O28  1  0.64190650  0.00000000  0.36823900  1
  O  O29  1  0.35809350  0.00000000  0.63176100  1
  F  F30  1  0.87887750  0.50000000  0.14236600  1
  F  F31  1  0.12112250  0.50000000  0.85763400  1
  F  F32  1  0.87445050  0.00000000  0.12378200  1
  F  F33  1  0.12554950  0.00000000  0.87621800  1
  F  F34  1  0.37871000  0.27979800  0.36557100  1
  F  F35  1  0.37871000  0.72020200  0.36557100  1
  F  F36  1  0.62129000  0.72020200  0.63442900  1
  F  F37  1  0.62129000  0.27979800  0.63442900  1
  F  F38  1  0.11988450  0.75919650  0.12936800  1
  F  F39  1  0.11988450  0.24080350  0.12936800  1
  F  F40  1  0.88011550  0.24080350  0.87063200  1
  F  F41  1  0.88011550  0.75919650  0.87063200  1
  F  F42  1  0.37887750  0.00000000  0.14236600  1
  F  F43  1  0.62112250  0.00000000  0.85763400  1
  F  F44  1  0.37445050  0.50000000  0.12378200  1
  F  F45  1  0.62554950  0.50000000  0.87621800  1
  F  F46  1  0.87871000  0.77979800  0.36557100  1
  F  F47  1  0.87871000  0.22020200  0.36557100  1
  F  F48  1  0.12129000  0.22020200  0.63442900  1
  F  F49  1  0.12129000  0.77979800  0.63442900  1
  F  F50  1  0.61988450  0.25919650  0.12936800  1
  F  F51  1  0.61988450  0.74080350  0.12936800  1
  F  F52  1  0.38011550  0.74080350  0.87063200  1
  F  F53  1  0.38011550  0.25919650  0.87063200  1
