# generated using pymatgen
data_LiVOF2
_symmetry_space_group_name_H-M   'P 1'
_cell_length_a   8.82417800
_cell_length_b   5.27548700
_cell_length_c   12.62204972
_cell_angle_alpha   90.00000000
_cell_angle_beta   130.85618515
_cell_angle_gamma   90.00000000
_symmetry_Int_Tables_number   1
_chemical_formula_structural   LiVOF2
_chemical_formula_sum   'Li8 V8 O8 F16'
_cell_volume   444.41813826
_cell_formula_units_Z   8
loop_
 _symmetry_equiv_pos_site_id
 _symmetry_equiv_pos_as_xyz
  1  'x, y, z'
loop_
 _atom_site_type_symbol
 _atom_site_label
 _atom_site_symmetry_multiplicity
 _atom_site_fract_x
 _atom_site_fract_y
 _atom_site_fract_z
 _atom_site_occupancy
  Li  Li0  1  0.83026800  0.92775500  0.99880100  1
  Li  Li1  1  0.95281700  0.90709100  0.78554900  1
  Li  Li2  1  0.95281700  0.09290900  0.28554900  1
  Li  Li3  1  0.83026800  0.07224500  0.49880100  1
  Li  Li4  1  0.63462300  0.42694700  0.99404000  1
  Li  Li5  1  0.15393800  0.41217100  0.80352000  1
  Li  Li6  1  0.15393800  0.58782900  0.30352000  1
  Li  Li7  1  0.63462300  0.57305300  0.49404000  1
  V  V8  1  0.32196300  0.92251200  0.80904300  1
  V  V9  1  0.43741100  0.95857100  0.57973000  1
  V  V10  1  0.43741100  0.04142900  0.07973000  1
  V  V11  1  0.32196300  0.07748800  0.30904300  1
  V  V12  1  0.79023000  0.39566800  0.80431100  1
  V  V13  1  0.23863100  0.38965600  0.56559200  1
  V  V14  1  0.23863100  0.61034400  0.06559200  1
  V  V15  1  0.79023000  0.60433200  0.30431100  1
  O  O16  1  0.41676600  0.79569300  0.43702100  1
  O  O17  1  0.25947300  0.76213900  0.93194400  1
  O  O18  1  0.33655300  0.92415100  0.17312100  1
  O  O19  1  0.69933600  0.90620000  0.20408400  1
  O  O20  1  0.69933600  0.09380000  0.70408400  1
  O  O21  1  0.33655300  0.07584900  0.67312100  1
  O  O22  1  0.25947300  0.23786100  0.43194400  1
  O  O23  1  0.41676600  0.20430700  0.93702100  1
  F  F24  1  0.59322600  0.75958600  0.92599700  1
  F  F25  1  0.03884400  0.91989200  0.19596600  1
  F  F26  1  0.03884400  0.08010800  0.69596600  1
  F  F27  1  0.59322600  0.24041400  0.42599700  1
  F  F28  1  0.77334800  0.27505300  0.94280800  1
  F  F29  1  0.93941600  0.27750500  0.43313900  1
  F  F30  1  0.09738600  0.28869400  0.93636300  1
  F  F31  1  0.51360400  0.42067200  0.17798700  1
  F  F32  1  0.85283300  0.42872600  0.19703300  1
  F  F33  1  0.20811400  0.42093600  0.19272900  1
  F  F34  1  0.20811400  0.57906400  0.69272900  1
  F  F35  1  0.85283300  0.57127400  0.69703300  1
  F  F36  1  0.51360400  0.57932800  0.67798700  1
  F  F37  1  0.09738600  0.71130600  0.43636300  1
  F  F38  1  0.93941600  0.72249500  0.93313900  1
  F  F39  1  0.77334800  0.72494700  0.44280800  1
