# generated using pymatgen
data_Li4MnV(PO4)3
_symmetry_space_group_name_H-M   'P 1'
_cell_length_a   8.41646338
_cell_length_b   8.43861701
_cell_length_c   9.26162285
_cell_angle_alpha   90.53487621
_cell_angle_beta   116.94188318
_cell_angle_gamma   119.28528925
_symmetry_Int_Tables_number   1
_chemical_formula_structural   Li4MnV(PO4)3
_chemical_formula_sum   'Li8 Mn2 V2 P6 O24'
_cell_volume   488.36792031
_cell_formula_units_Z   2
loop_
 _symmetry_equiv_pos_site_id
 _symmetry_equiv_pos_as_xyz
  1  'x, y, z'
loop_
 _atom_site_type_symbol
 _atom_site_label
 _atom_site_symmetry_multiplicity
 _atom_site_fract_x
 _atom_site_fract_y
 _atom_site_fract_z
 _atom_site_occupancy
  Li  Li0  1  0.19516500  0.26521200  0.86531000  1
  Li  Li1  1  0.63123500  0.93843100  0.90035500  1
  Li  Li2  1  0.92718900  0.65901900  0.85138900  1
  Li  Li3  1  0.32843100  0.79362600  0.58877300  1
  Li  Li4  1  0.67501100  0.20140400  0.41040500  1
  Li  Li5  1  0.06515000  0.33947500  0.14445700  1
  Li  Li6  1  0.37160100  0.06403700  0.09902200  1
  Li  Li7  1  0.80640900  0.72985400  0.13821100  1
  Mn  Mn8  1  0.71301200  0.85084700  0.56328800  1
  Mn  Mn9  1  0.68872700  0.35140300  0.03178200  1
  V  V10  1  0.30702400  0.64801200  0.96274300  1
  V  V11  1  0.29146700  0.15094700  0.43911100  1
  P  P12  1  0.20830500  0.94809900  0.74788600  1
  P  P13  1  0.49244200  0.54640800  0.75044700  1
  P  P14  1  0.80584300  0.25083900  0.75949500  1
  P  P15  1  0.20385300  0.75446500  0.24315900  1
  P  P16  1  0.50293900  0.45709000  0.25158700  1
  P  P17  1  0.78916500  0.04597600  0.25265600  1
  O  O18  1  0.34374200  0.14014000  0.88922500  1
  O  O19  1  0.33723100  0.50004700  0.81657800  1
  O  O20  1  0.31532800  0.83173400  0.80630600  1
  O  O21  1  0.69899700  0.56819800  0.89600100  1
  O  O22  1  0.75348900  0.20201800  0.90082100  1
  O  O23  1  0.55677900  0.74224300  0.71754200  1
  O  O24  1  0.20603200  0.97880200  0.58215800  1
  O  O25  1  0.38052600  0.38581900  0.59096600  1
  O  O26  1  0.98267000  0.46928700  0.81763000  1
  O  O27  1  0.89156800  0.13460100  0.73816600  1
  O  O28  1  0.60755400  0.20756400  0.58933100  1
  O  O29  1  0.98777100  0.83685400  0.72745800  1
  O  O30  1  0.01183000  0.14441500  0.26749600  1
  O  O31  1  0.39995000  0.81253500  0.41464800  1
  O  O32  1  0.12131700  0.88213400  0.25633200  1
  O  O33  1  0.02999800  0.54254100  0.18764600  1
  O  O34  1  0.60014600  0.59759500  0.41320900  1
  O  O35  1  0.80607000  0.02537000  0.41935900  1
  O  O36  1  0.41482600  0.24945700  0.27502300  1
  O  O37  1  0.26068000  0.79696700  0.09935300  1
  O  O38  1  0.30042200  0.44573800  0.09992100  1
  O  O39  1  0.68702400  0.16268300  0.19387100  1
  O  O40  1  0.66080200  0.49968800  0.19386600  1
  O  O41  1  0.64228100  0.84843100  0.10701700  1
