# generated using pymatgen
data_Ti3Mn2Nb(PO4)6
_symmetry_space_group_name_H-M   'P 1'
_cell_length_a   8.76853488
_cell_length_b   8.76853488
_cell_length_c   21.19530019
_cell_angle_alpha   90.00000000
_cell_angle_beta   90.00000000
_cell_angle_gamma   120.00000000
_symmetry_Int_Tables_number   1
_chemical_formula_structural   Ti3Mn2Nb(PO4)6
_chemical_formula_sum   'Ti9 Mn6 Nb3 P18 O72'
_cell_volume   1411.31602131
_cell_formula_units_Z   3
loop_
 _symmetry_equiv_pos_site_id
 _symmetry_equiv_pos_as_xyz
  1  'x, y, z'
loop_
 _atom_site_type_symbol
 _atom_site_label
 _atom_site_symmetry_multiplicity
 _atom_site_fract_x
 _atom_site_fract_y
 _atom_site_fract_z
 _atom_site_occupancy
  Ti  Ti0  1  0.33333333  0.66666667  0.81207667  1
  Ti  Ti1  1  0.33333333  0.66666667  0.02187767  1
  Ti  Ti2  1  0.33333333  0.66666667  0.31181967  1
  Ti  Ti3  1  0.00000000  0.00000000  0.14541000  1
  Ti  Ti4  1  0.00000000  0.00000000  0.35521100  1
  Ti  Ti5  1  0.00000000  0.00000000  0.64515300  1
  Ti  Ti6  1  0.66666667  0.33333333  0.47874333  1
  Ti  Ti7  1  0.66666667  0.33333333  0.68854433  1
  Ti  Ti8  1  0.66666667  0.33333333  0.97848633  1
  Mn  Mn9  1  0.33333333  0.66666667  0.66762667  1
  Mn  Mn10  1  0.33333333  0.66666667  0.16593667  1
  Mn  Mn11  1  0.00000000  0.00000000  0.00096000  1
  Mn  Mn12  1  0.00000000  0.00000000  0.49927000  1
  Mn  Mn13  1  0.66666667  0.33333333  0.33429333  1
  Mn  Mn14  1  0.66666667  0.33333333  0.83260333  1
  Nb  Nb15  1  0.33333333  0.66666667  0.52338967  1
  Nb  Nb16  1  0.00000000  0.00000000  0.85672300  1
  Nb  Nb17  1  0.66666667  0.33333333  0.19005633  1
  P  P18  1  0.96302600  0.63000700  0.08208200  1
  P  P19  1  0.36999300  0.33301900  0.08208200  1
  P  P20  1  0.00531467  0.29335333  0.25035333  1
  P  P21  1  0.28803867  0.99468533  0.25035333  1
  P  P22  1  0.70664667  0.71196133  0.25035333  1
  P  P23  1  0.66698100  0.03697400  0.08208200  1
  P  P24  1  0.62969267  0.96334033  0.41541533  1
  P  P25  1  0.03665967  0.66635233  0.41541533  1
  P  P26  1  0.67198133  0.62668667  0.58368667  1
  P  P27  1  0.95470533  0.32801867  0.58368667  1
  P  P28  1  0.37331333  0.04529467  0.58368667  1
  P  P29  1  0.33364767  0.37030733  0.41541533  1
  P  P30  1  0.29635933  0.29667367  0.74874867  1
  P  P31  1  0.70332633  0.99968567  0.74874867  1
  P  P32  1  0.33864800  0.96002000  0.91702000  1
  P  P33  1  0.62137200  0.66135200  0.91702000  1
  P  P34  1  0.03998000  0.37862800  0.91702000  1
  P  P35  1  0.00031433  0.70364067  0.74874867  1
  O  O36  1  0.13886900  0.47624900  0.97665000  1
  O  O37  1  0.33738000  0.86113100  0.97665000  1
  O  O38  1  0.98210833  0.81583767  0.07812667  1
  O  O39  1  0.52375100  0.66262000  0.97665000  1
  O  O40  1  0.86421933  0.53287367  0.14311167  1
  O  O41  1  0.14835967  0.64868933  0.08787333  1
  O  O42  1  0.18416233  0.16627067  0.07812667  1
  O  O43  1  0.35131067  0.49967033  0.08787333  1
  O  O44  1  0.00011667  0.19334833  0.19007133  1
  O  O45  1  0.50032967  0.85164033  0.08787333  1
  O  O46  1  0.83765000  0.31418200  0.25562500  1
  O  O47  1  0.19323167  0.99988333  0.19007133  1
  O  O48  1  0.46712633  0.33134567  0.14311167  1
  O  O49  1  0.83372933  0.01789167  0.07812667  1
  O  O50  1  0.16912400  0.48104100  0.24508500  1
  O  O51  1  0.66865433  0.13578067  0.14311167  1
  O  O52  1  0.31191700  0.83087600  0.24508500  1
  O  O53  1  0.47653200  0.16235000  0.25562500  1
  O  O54  1  0.51895900  0.68808300  0.24508500  1
  O  O55  1  0.80665167  0.80676833  0.19007133  1
  O  O56  1  0.13940333  0.66769267  0.35677767  1
  O  O57  1  0.68581800  0.52346800  0.25562500  1
  O  O58  1  0.33230733  0.47171067  0.35677767  1
  O  O59  1  0.52828933  0.86059667  0.35677767  1
  O  O60  1  0.80553567  0.80958233  0.30998333  1
  O  O61  1  0.00404667  0.19446433  0.30998333  1
  O  O62  1  0.64877500  0.14917100  0.41146000  1
  O  O63  1  0.19041767  0.99595333  0.30998333  1
  O  O64  1  0.53088600  0.86620700  0.47644500  1
  O  O65  1  0.81502633  0.98202267  0.42120667  1
  O  O66  1  0.85082900  0.49960400  0.41146000  1
  O  O67  1  0.01797733  0.83300367  0.42120667  1
  O  O68  1  0.66678333  0.52668167  0.52340467  1
  O  O69  1  0.16699633  0.18497367  0.42120667  1
  O  O70  1  0.50431667  0.64751533  0.58895833  1
  O  O71  1  0.85989833  0.33321667  0.52340467  1
  O  O72  1  0.13379300  0.66467900  0.47644500  1
  O  O73  1  0.50039600  0.35122500  0.41146000  1
  O  O74  1  0.83579067  0.81437433  0.57841833  1
  O  O75  1  0.33532100  0.46911400  0.47644500  1
  O  O76  1  0.97858367  0.16420933  0.57841833  1
  O  O77  1  0.14319867  0.49568333  0.58895833  1
  O  O78  1  0.18562567  0.02141633  0.57841833  1
  O  O79  1  0.47331833  0.14010167  0.52340467  1
  O  O80  1  0.80607000  0.00102600  0.69011100  1
  O  O81  1  0.35248467  0.85680133  0.58895833  1
  O  O82  1  0.99897400  0.80504400  0.69011100  1
  O  O83  1  0.19495600  0.19393000  0.69011100  1
  O  O84  1  0.47220233  0.14291567  0.64331667  1
  O  O85  1  0.67071333  0.52779767  0.64331667  1
  O  O86  1  0.31544167  0.48250433  0.74479333  1
  O  O87  1  0.85708433  0.32928667  0.64331667  1
  O  O88  1  0.19755267  0.19954033  0.80977833  1
  O  O89  1  0.48169300  0.31535600  0.75454000  1
  O  O90  1  0.51749567  0.83293733  0.74479333  1
  O  O91  1  0.68464400  0.16633700  0.75454000  1
  O  O92  1  0.33345000  0.86001500  0.85673800  1
  O  O93  1  0.83366300  0.51830700  0.75454000  1
  O  O94  1  0.17098333  0.98084867  0.92229167  1
  O  O95  1  0.52656500  0.66655000  0.85673800  1
  O  O96  1  0.80045967  0.99801233  0.80977833  1
  O  O97  1  0.16706267  0.68455833  0.74479333  1
  O  O98  1  0.50245733  0.14770767  0.91175167  1
  O  O99  1  0.00198767  0.80244733  0.80977833  1
  O  O100  1  0.64525033  0.49754267  0.91175167  1
  O  O101  1  0.80986533  0.82901667  0.92229167  1
  O  O102  1  0.85229233  0.35474967  0.91175167  1
  O  O103  1  0.13998500  0.47343500  0.85673800  1
  O  O104  1  0.47273667  0.33435933  0.02344433  1
  O  O105  1  0.01915133  0.19013467  0.92229167  1
  O  O106  1  0.66564067  0.13837733  0.02344433  1
  O  O107  1  0.86162267  0.52726333  0.02344433  1
