# generated using pymatgen
data_Fe5Te(PO4)6
_symmetry_space_group_name_H-M   'P 1'
_cell_length_a   8.74380003
_cell_length_b   8.74380003
_cell_length_c   20.73558588
_cell_angle_alpha   90.00000000
_cell_angle_beta   90.00000000
_cell_angle_gamma   120.00000000
_symmetry_Int_Tables_number   1
_chemical_formula_structural   Fe5Te(PO4)6
_chemical_formula_sum   'Fe15 Te3 P18 O72'
_cell_volume   1372.92677781
_cell_formula_units_Z   3
loop_
 _symmetry_equiv_pos_site_id
 _symmetry_equiv_pos_as_xyz
  1  'x, y, z'
loop_
 _atom_site_type_symbol
 _atom_site_label
 _atom_site_symmetry_multiplicity
 _atom_site_fract_x
 _atom_site_fract_y
 _atom_site_fract_z
 _atom_site_occupancy
  Fe  Fe0  1  0.33333333  0.66666667  0.66922767  1
  Fe  Fe1  1  0.33333333  0.66666667  0.01889667  1
  Fe  Fe2  1  0.33333333  0.66666667  0.16508567  1
  Fe  Fe3  1  0.33333333  0.66666667  0.81062967  1
  Fe  Fe4  1  0.33333333  0.66666667  0.31317067  1
  Fe  Fe5  1  0.00000000  0.00000000  0.00256100  1
  Fe  Fe6  1  0.00000000  0.00000000  0.35223000  1
  Fe  Fe7  1  0.00000000  0.00000000  0.49841900  1
  Fe  Fe8  1  0.00000000  0.00000000  0.14396300  1
  Fe  Fe9  1  0.00000000  0.00000000  0.64650400  1
  Fe  Fe10  1  0.66666667  0.33333333  0.33589433  1
  Fe  Fe11  1  0.66666667  0.33333333  0.68556333  1
  Fe  Fe12  1  0.66666667  0.33333333  0.83175233  1
  Fe  Fe13  1  0.66666667  0.33333333  0.47729633  1
  Fe  Fe14  1  0.66666667  0.33333333  0.97983733  1
  Te  Te15  1  0.33333333  0.66666667  0.52111367  1
  Te  Te16  1  0.00000000  0.00000000  0.85444700  1
  Te  Te17  1  0.66666667  0.33333333  0.18778033  1
  P  P18  1  0.97213500  0.33439700  0.08273100  1
  P  P19  1  0.36226200  0.02786500  0.08273100  1
  P  P20  1  0.66560300  0.63773800  0.08273100  1
  P  P21  1  0.00746500  0.71104500  0.24874600  1
  P  P22  1  0.28895500  0.29642000  0.24874600  1
  P  P23  1  0.70358000  0.99253500  0.24874600  1
  P  P24  1  0.63880167  0.66773033  0.41606433  1
  P  P25  1  0.02892867  0.36119833  0.41606433  1
  P  P26  1  0.33226967  0.97107133  0.41606433  1
  P  P27  1  0.67413167  0.04437833  0.58207933  1
  P  P28  1  0.95562167  0.62975333  0.58207933  1
  P  P29  1  0.37024667  0.32586833  0.58207933  1
  P  P30  1  0.30546833  0.00106367  0.74939767  1
  P  P31  1  0.69559533  0.69453167  0.74939767  1
  P  P32  1  0.99893633  0.30440467  0.74939767  1
  P  P33  1  0.34079833  0.37771167  0.91541267  1
  P  P34  1  0.62228833  0.96308667  0.91541267  1
  P  P35  1  0.03691333  0.65920167  0.91541267  1
  O  O36  1  0.14168800  0.46544000  0.35857400  1
  O  O37  1  0.32375200  0.85831200  0.35857400  1
  O  O38  1  0.53456000  0.67624800  0.35857400  1
  O  O39  1  0.99132633  0.16939367  0.07443967  1
  O  O40  1  0.88074533  0.32896267  0.14688267  1
  O  O41  1  0.16125133  0.50143767  0.09178067  1
  O  O42  1  0.17806733  0.00867367  0.07443967  1
  O  O43  1  0.34018633  0.83874867  0.09178067  1
  O  O44  1  0.99284300  0.80114200  0.18838300  1
  O  O45  1  0.49856233  0.65981367  0.09178067  1
  O  O46  1  0.84105200  0.52263400  0.26075300  1
  O  O47  1  0.19885800  0.19170100  0.18838300  1
  O  O48  1  0.44821733  0.11925467  0.14688267  1
  O  O49  1  0.83060633  0.82193267  0.07443967  1
  O  O50  1  0.17042033  0.68104267  0.23838967  1
  O  O51  1  0.67103733  0.55178267  0.14688267  1
  O  O52  1  0.31895733  0.48937767  0.23838967  1
  O  O53  1  0.47736600  0.31841800  0.26075300  1
  O  O54  1  0.51062233  0.82957967  0.23838967  1
  O  O55  1  0.80829900  0.00715700  0.18838300  1
  O  O56  1  0.68158200  0.15894800  0.26075300  1
  O  O57  1  0.12562133  0.64551567  0.97660867  1
  O  O58  1  0.35448433  0.48010567  0.97660867  1
  O  O59  1  0.51989433  0.87437867  0.97660867  1
  O  O60  1  0.80835467  0.79877333  0.69190733  1
  O  O61  1  0.99041867  0.19164533  0.69190733  1
  O  O62  1  0.20122667  0.00958133  0.69190733  1
  O  O63  1  0.65799300  0.50272700  0.40777300  1
  O  O64  1  0.54741200  0.66229600  0.48021600  1
  O  O65  1  0.82791800  0.83477100  0.42511400  1
  O  O66  1  0.84473400  0.34200700  0.40777300  1
  O  O67  1  0.00685300  0.17208200  0.42511400  1
  O  O68  1  0.65950967  0.13447533  0.52171633  1
  O  O69  1  0.16522900  0.99314700  0.42511400  1
  O  O70  1  0.50771867  0.85596733  0.59408633  1
  O  O71  1  0.86552467  0.52503433  0.52171633  1
  O  O72  1  0.11488400  0.45258800  0.48021600  1
  O  O73  1  0.49727300  0.15526600  0.40777300  1
  O  O74  1  0.83708700  0.01437600  0.57172300  1
  O  O75  1  0.33770400  0.88511600  0.48021600  1
  O  O76  1  0.98562400  0.82271100  0.57172300  1
  O  O77  1  0.14403267  0.65175133  0.59408633  1
  O  O78  1  0.17728900  0.16291300  0.57172300  1
  O  O79  1  0.47496567  0.34049033  0.52171633  1
  O  O80  1  0.34824867  0.49228133  0.59408633  1
  O  O81  1  0.79228800  0.97884900  0.30994200  1
  O  O82  1  0.02115100  0.81343900  0.30994200  1
  O  O83  1  0.18656100  0.20771200  0.30994200  1
  O  O84  1  0.47502133  0.13210667  0.02524067  1
  O  O85  1  0.65708533  0.52497867  0.02524067  1
  O  O86  1  0.86789333  0.34291467  0.02524067  1
  O  O87  1  0.32465967  0.83606033  0.74110633  1
  O  O88  1  0.21407867  0.99562933  0.81354933  1
  O  O89  1  0.49458467  0.16810433  0.75844733  1
  O  O90  1  0.51140067  0.67534033  0.74110633  1
  O  O91  1  0.67351967  0.50541533  0.75844733  1
  O  O92  1  0.32617633  0.46780867  0.85504967  1
  O  O93  1  0.83189567  0.32648033  0.75844733  1
  O  O94  1  0.17438533  0.18930067  0.92741967  1
  O  O95  1  0.53219133  0.85836767  0.85504967  1
  O  O96  1  0.78155067  0.78592133  0.81354933  1
  O  O97  1  0.16393967  0.48859933  0.74110633  1
  O  O98  1  0.50375367  0.34770933  0.90505633  1
  O  O99  1  0.00437067  0.21844933  0.81354933  1
  O  O100  1  0.65229067  0.15604433  0.90505633  1
  O  O101  1  0.81069933  0.98508467  0.92741967  1
  O  O102  1  0.84395567  0.49624633  0.90505633  1
  O  O103  1  0.14163233  0.67382367  0.85504967  1
  O  O104  1  0.01491533  0.82561467  0.92741967  1
  O  O105  1  0.45895467  0.31218233  0.64327533  1
  O  O106  1  0.68781767  0.14677233  0.64327533  1
  O  O107  1  0.85322767  0.54104533  0.64327533  1
