# generated using pymatgen
data_Li4Cu7(PO4)6
_symmetry_space_group_name_H-M   'P 1'
_cell_length_a   10.69242200
_cell_length_b   14.15529400
_cell_length_c   6.30400770
_cell_angle_alpha   90.00000000
_cell_angle_beta   104.51081996
_cell_angle_gamma   90.00000000
_symmetry_Int_Tables_number   1
_chemical_formula_structural   Li4Cu7(PO4)6
_chemical_formula_sum   'Li8 Cu14 P12 O48'
_cell_volume   923.70244354
_cell_formula_units_Z   2
loop_
 _symmetry_equiv_pos_site_id
 _symmetry_equiv_pos_as_xyz
  1  'x, y, z'
loop_
 _atom_site_type_symbol
 _atom_site_label
 _atom_site_symmetry_multiplicity
 _atom_site_fract_x
 _atom_site_fract_y
 _atom_site_fract_z
 _atom_site_occupancy
  Li  Li0  1  0.01152900  0.00000000  0.49678100  1
  Li  Li1  1  0.36569900  0.00000000  0.58790700  1
  Li  Li2  1  0.57170500  0.10951500  0.49489100  1
  Li  Li3  1  0.57170500  0.89048500  0.49489100  1
  Li  Li4  1  0.51152900  0.50000000  0.49678100  1
  Li  Li5  1  0.86569900  0.50000000  0.58790700  1
  Li  Li6  1  0.07170500  0.60951500  0.49489100  1
  Li  Li7  1  0.07170500  0.39048500  0.49489100  1
  Cu  Cu8  1  0.32462300  0.31995200  0.18573700  1
  Cu  Cu9  1  0.32462300  0.68004800  0.18573700  1
  Cu  Cu10  1  0.00396900  0.00000000  0.00073400  1
  Cu  Cu11  1  0.50271000  0.84449500  0.00181500  1
  Cu  Cu12  1  0.50271000  0.15550500  0.00181500  1
  Cu  Cu13  1  0.18114050  0.17930850  0.82044200  1
  Cu  Cu14  1  0.18114050  0.82069150  0.82044200  1
  Cu  Cu15  1  0.82462300  0.81995200  0.18573700  1
  Cu  Cu16  1  0.82462300  0.18004800  0.18573700  1
  Cu  Cu17  1  0.50396900  0.50000000  0.00073400  1
  Cu  Cu18  1  0.00271000  0.34449500  0.00181500  1
  Cu  Cu19  1  0.00271000  0.65550500  0.00181500  1
  Cu  Cu20  1  0.68114050  0.67930850  0.82044200  1
  Cu  Cu21  1  0.68114050  0.32069150  0.82044200  1
  P  P22  1  0.40277050  0.30825650  0.70128000  1
  P  P23  1  0.40277050  0.69174350  0.70128000  1
  P  P24  1  0.32503400  0.00000000  0.08353500  1
  P  P25  1  0.68360800  0.00000000  0.92448600  1
  P  P26  1  0.60600550  0.68761350  0.30331700  1
  P  P27  1  0.60600550  0.31238650  0.30331700  1
  P  P28  1  0.90277050  0.80825650  0.70128000  1
  P  P29  1  0.90277050  0.19174350  0.70128000  1
  P  P30  1  0.82503400  0.50000000  0.08353500  1
  P  P31  1  0.18360800  0.50000000  0.92448600  1
  P  P32  1  0.10600550  0.18761350  0.30331700  1
  P  P33  1  0.10600550  0.81238650  0.30331700  1
  O  O34  1  0.19480450  0.15536350  0.52263200  1
  O  O35  1  0.19480450  0.84463650  0.52263200  1
  O  O36  1  0.32071300  0.70698300  0.87270100  1
  O  O37  1  0.32071300  0.29301700  0.87270100  1
  O  O38  1  0.19221400  0.00000000  0.13388200  1
  O  O39  1  0.33912700  0.08588200  0.93055800  1
  O  O40  1  0.33912700  0.91411800  0.93055800  1
  O  O41  1  0.50729800  0.60965900  0.76201900  1
  O  O42  1  0.50729800  0.39034100  0.76201900  1
  O  O43  1  0.48370850  0.21586250  0.70632200  1
  O  O44  1  0.48370850  0.78413750  0.70632200  1
  O  O45  1  0.43218100  0.00000000  0.29807300  1
  O  O46  1  0.57696600  0.00000000  0.70707500  1
  O  O47  1  0.52978250  0.78165750  0.30261600  1
  O  O48  1  0.52978250  0.21834250  0.30261600  1
  O  O49  1  0.49742150  0.60882350  0.23656700  1
  O  O50  1  0.49742150  0.39117650  0.23656700  1
  O  O51  1  0.81682100  0.00000000  0.87814700  1
  O  O52  1  0.68893250  0.70345750  0.13448100  1
  O  O53  1  0.68893250  0.29654250  0.13448100  1
  O  O54  1  0.66665750  0.08822850  0.06589600  1
  O  O55  1  0.66665750  0.91177150  0.06589600  1
  O  O56  1  0.80805400  0.83526600  0.48381800  1
  O  O57  1  0.80805400  0.16473400  0.48381800  1
  O  O58  1  0.69480450  0.65536350  0.52263200  1
  O  O59  1  0.69480450  0.34463650  0.52263200  1
  O  O60  1  0.82071300  0.20698300  0.87270100  1
  O  O61  1  0.82071300  0.79301700  0.87270100  1
  O  O62  1  0.69221400  0.50000000  0.13388200  1
  O  O63  1  0.83912700  0.58588200  0.93055800  1
  O  O64  1  0.83912700  0.41411800  0.93055800  1
  O  O65  1  0.00729800  0.10965900  0.76201900  1
  O  O66  1  0.00729800  0.89034100  0.76201900  1
  O  O67  1  0.98370850  0.71586250  0.70632200  1
  O  O68  1  0.98370850  0.28413750  0.70632200  1
  O  O69  1  0.93218100  0.50000000  0.29807300  1
  O  O70  1  0.07696600  0.50000000  0.70707500  1
  O  O71  1  0.02978250  0.28165750  0.30261600  1
  O  O72  1  0.02978250  0.71834250  0.30261600  1
  O  O73  1  0.99742150  0.10882350  0.23656700  1
  O  O74  1  0.99742150  0.89117650  0.23656700  1
  O  O75  1  0.31682100  0.50000000  0.87814700  1
  O  O76  1  0.18893250  0.20345750  0.13448100  1
  O  O77  1  0.18893250  0.79654250  0.13448100  1
  O  O78  1  0.16665750  0.58822850  0.06589600  1
  O  O79  1  0.16665750  0.41177150  0.06589600  1
  O  O80  1  0.30805400  0.33526600  0.48381800  1
  O  O81  1  0.30805400  0.66473400  0.48381800  1
