# generated using pymatgen
data_LiFe2(PO4)2
_symmetry_space_group_name_H-M   'P 1'
_cell_length_a   8.77288400
_cell_length_b   5.15716600
_cell_length_c   10.19942394
_cell_angle_alpha   90.00000000
_cell_angle_beta   125.37646677
_cell_angle_gamma   90.00000000
_symmetry_Int_Tables_number   1
_chemical_formula_structural   LiFe2(PO4)2
_chemical_formula_sum   'Li2 Fe4 P4 O16'
_cell_volume   376.25437316
_cell_formula_units_Z   2
loop_
 _symmetry_equiv_pos_site_id
 _symmetry_equiv_pos_as_xyz
  1  'x, y, z'
loop_
 _atom_site_type_symbol
 _atom_site_label
 _atom_site_symmetry_multiplicity
 _atom_site_fract_x
 _atom_site_fract_y
 _atom_site_fract_z
 _atom_site_occupancy
  Li  Li0  1  0.50329900  0.57077400  0.50103900  1
  Li  Li1  1  0.50329900  0.42922600  0.00103900  1
  Fe  Fe2  1  0.49855100  0.95242000  0.75409700  1
  Fe  Fe3  1  0.00000700  0.54096900  0.24411700  1
  Fe  Fe4  1  0.00000700  0.45903100  0.74411700  1
  Fe  Fe5  1  0.49855100  0.04758000  0.25409700  1
  P  P6  1  0.24232700  0.03140200  0.37957200  1
  P  P7  1  0.75305900  0.44459500  0.86731600  1
  P  P8  1  0.75305900  0.55540500  0.36731600  1
  P  P9  1  0.24232700  0.96859800  0.87957200  1
  O  O10  1  0.72907600  0.15509100  0.83224600  1
  O  O11  1  0.22335500  0.32915200  0.33386500  1
  O  O12  1  0.57841100  0.59341300  0.72924800  1
  O  O13  1  0.42031500  0.07394200  0.89773800  1
  O  O14  1  0.06433900  0.88874900  0.24009400  1
  O  O15  1  0.06433900  0.11125100  0.74009400  1
  O  O16  1  0.77197400  0.50566600  0.02856200  1
  O  O17  1  0.26144100  0.99218700  0.53615000  1
  O  O18  1  0.93321000  0.45971900  0.38601300  1
  O  O19  1  0.22335500  0.67084800  0.83386500  1
  O  O20  1  0.57841100  0.40658700  0.22924800  1
  O  O21  1  0.26144100  0.00781300  0.03615000  1
  O  O22  1  0.77197400  0.49433400  0.52856200  1
  O  O23  1  0.72907600  0.84490900  0.33224600  1
  O  O24  1  0.93321000  0.54028100  0.88601300  1
  O  O25  1  0.42031500  0.92605800  0.39773800  1
