# generated using pymatgen
data_Li3Mn4FeO8
_symmetry_space_group_name_H-M   'P 1'
_cell_length_a   10.86158000
_cell_length_b   5.98315000
_cell_length_c   5.98844371
_cell_angle_alpha   90.00000000
_cell_angle_beta   123.41719319
_cell_angle_gamma   90.00000000
_symmetry_Int_Tables_number   1
_chemical_formula_structural   Li3Mn4FeO8
_chemical_formula_sum   'Li6 Mn8 Fe2 O16'
_cell_volume   324.83158287
_cell_formula_units_Z   2
loop_
 _symmetry_equiv_pos_site_id
 _symmetry_equiv_pos_as_xyz
  1  'x, y, z'
loop_
 _atom_site_type_symbol
 _atom_site_label
 _atom_site_symmetry_multiplicity
 _atom_site_fract_x
 _atom_site_fract_y
 _atom_site_fract_z
 _atom_site_occupancy
  Li  Li0  1  0.25000000  0.25000000  0.50000000  1
  Li  Li1  1  0.00000000  0.00000000  0.50000000  1
  Li  Li2  1  0.25000000  0.75000000  0.50000000  1
  Li  Li3  1  0.75000000  0.75000000  0.50000000  1
  Li  Li4  1  0.50000000  0.50000000  0.50000000  1
  Li  Li5  1  0.75000000  0.25000000  0.50000000  1
  Mn  Mn6  1  0.00000000  0.50000000  0.50000000  1
  Mn  Mn7  1  0.00000000  0.00000000  0.00000000  1
  Mn  Mn8  1  0.25000000  0.25000000  0.00000000  1
  Mn  Mn9  1  0.25000000  0.75000000  0.00000000  1
  Mn  Mn10  1  0.50000000  0.00000000  0.50000000  1
  Mn  Mn11  1  0.50000000  0.50000000  0.00000000  1
  Mn  Mn12  1  0.75000000  0.75000000  0.00000000  1
  Mn  Mn13  1  0.75000000  0.25000000  0.00000000  1
  Fe  Fe14  1  0.00000000  0.50000000  0.00000000  1
  Fe  Fe15  1  0.50000000  0.00000000  0.00000000  1
  O  O16  1  0.22867600  0.50000000  0.20918600  1
  O  O17  1  0.00402850  0.25796850  0.24719900  1
  O  O18  1  0.00402850  0.74203150  0.24719900  1
  O  O19  1  0.24793200  0.00000000  0.22909000  1
  O  O20  1  0.25206800  0.50000000  0.77091000  1
  O  O21  1  0.49597150  0.75796850  0.75280100  1
  O  O22  1  0.49597150  0.24203150  0.75280100  1
  O  O23  1  0.27132400  0.00000000  0.79081400  1
  O  O24  1  0.72867600  0.00000000  0.20918600  1
  O  O25  1  0.50402850  0.75796850  0.24719900  1
  O  O26  1  0.50402850  0.24203150  0.24719900  1
  O  O27  1  0.74793200  0.50000000  0.22909000  1
  O  O28  1  0.75206800  0.00000000  0.77091000  1
  O  O29  1  0.99597150  0.25796850  0.75280100  1
  O  O30  1  0.99597150  0.74203150  0.75280100  1
  O  O31  1  0.77132400  0.50000000  0.79081400  1
