# generated using pymatgen
data_Li4(CuO2)3
_symmetry_space_group_name_H-M   'P 1'
_cell_length_a   10.10347800
_cell_length_b   8.30083400
_cell_length_c   7.36004837
_cell_angle_alpha   90.00000000
_cell_angle_beta   116.37402159
_cell_angle_gamma   90.00000000
_symmetry_Int_Tables_number   1
_chemical_formula_structural   Li4(CuO2)3
_chemical_formula_sum   'Li16 Cu12 O24'
_cell_volume   553.01799931
_cell_formula_units_Z   4
loop_
 _symmetry_equiv_pos_site_id
 _symmetry_equiv_pos_as_xyz
  1  'x, y, z'
loop_
 _atom_site_type_symbol
 _atom_site_label
 _atom_site_symmetry_multiplicity
 _atom_site_fract_x
 _atom_site_fract_y
 _atom_site_fract_z
 _atom_site_occupancy
  Li  Li0  1  0.85580550  0.83617650  0.52543200  1
  Li  Li1  1  0.19284600  0.50000000  0.13555900  1
  Li  Li2  1  0.85580550  0.16382350  0.52543200  1
  Li  Li3  1  0.97016150  0.32288850  0.87314200  1
  Li  Li4  1  0.68650300  0.33800500  0.11624800  1
  Li  Li5  1  0.80919500  0.50000000  0.47933900  1
  Li  Li6  1  0.97016150  0.67711150  0.87314200  1
  Li  Li7  1  0.68650300  0.66199500  0.11624800  1
  Li  Li8  1  0.35580550  0.33617650  0.52543200  1
  Li  Li9  1  0.69284600  0.00000000  0.13555900  1
  Li  Li10  1  0.35580550  0.66382350  0.52543200  1
  Li  Li11  1  0.47016150  0.82288850  0.87314200  1
  Li  Li12  1  0.18650300  0.83800500  0.11624800  1
  Li  Li13  1  0.30919500  0.00000000  0.47933900  1
  Li  Li14  1  0.47016150  0.17711150  0.87314200  1
  Li  Li15  1  0.18650300  0.16199500  0.11624800  1
  Cu  Cu16  1  0.99233000  0.16524200  0.27210300  1
  Cu  Cu17  1  0.17854300  0.33668900  0.72963200  1
  Cu  Cu18  1  0.98352100  0.50000000  0.26156000  1
  Cu  Cu19  1  0.17854300  0.66331100  0.72963200  1
  Cu  Cu20  1  0.99233000  0.83475800  0.27210300  1
  Cu  Cu21  1  0.68015700  0.50000000  0.73693800  1
  Cu  Cu22  1  0.49233000  0.66524200  0.27210300  1
  Cu  Cu23  1  0.67854300  0.83668900  0.72963200  1
  Cu  Cu24  1  0.48352100  0.00000000  0.26156000  1
  Cu  Cu25  1  0.67854300  0.16331100  0.72963200  1
  Cu  Cu26  1  0.49233000  0.33475800  0.27210300  1
  Cu  Cu27  1  0.18015700  0.00000000  0.73693800  1
  O  O28  1  0.06642050  0.33219150  0.16830100  1
  O  O29  1  0.39659600  0.50000000  0.34498500  1
  O  O30  1  0.09631400  0.17243600  0.81867300  1
  O  O31  1  0.88772900  0.33049800  0.33032800  1
  O  O32  1  0.09666800  0.50000000  0.82668600  1
  O  O33  1  0.88772900  0.66950200  0.33032800  1
  O  O34  1  0.25012600  0.50000000  0.62435400  1
  O  O35  1  0.06642050  0.66780850  0.16830100  1
  O  O36  1  0.77343650  0.32969750  0.66067900  1
  O  O37  1  0.60421500  0.50000000  0.23151800  1
  O  O38  1  0.77343650  0.67030250  0.66067900  1
  O  O39  1  0.09631400  0.82756400  0.81867300  1
  O  O40  1  0.56642050  0.83219150  0.16830100  1
  O  O41  1  0.89659600  0.00000000  0.34498500  1
  O  O42  1  0.59631400  0.67243600  0.81867300  1
  O  O43  1  0.38772900  0.83049800  0.33032800  1
  O  O44  1  0.59666800  0.00000000  0.82668600  1
  O  O45  1  0.38772900  0.16950200  0.33032800  1
  O  O46  1  0.75012600  0.00000000  0.62435400  1
  O  O47  1  0.56642050  0.16780850  0.16830100  1
  O  O48  1  0.27343650  0.82969750  0.66067900  1
  O  O49  1  0.10421500  0.00000000  0.23151800  1
  O  O50  1  0.27343650  0.17030250  0.66067900  1
  O  O51  1  0.59631400  0.32756400  0.81867300  1
