# generated using pymatgen
data_Mn3CrO8
_symmetry_space_group_name_H-M   'P 1'
_cell_length_a   5.84895610
_cell_length_b   5.84895610
_cell_length_c   14.41118445
_cell_angle_alpha   90.00000000
_cell_angle_beta   90.00000000
_cell_angle_gamma   120.00000000
_symmetry_Int_Tables_number   1
_chemical_formula_structural   Mn3CrO8
_chemical_formula_sum   'Mn9 Cr3 O24'
_cell_volume   426.95984472
_cell_formula_units_Z   3
loop_
 _symmetry_equiv_pos_site_id
 _symmetry_equiv_pos_as_xyz
  1  'x, y, z'
loop_
 _atom_site_type_symbol
 _atom_site_label
 _atom_site_symmetry_multiplicity
 _atom_site_fract_x
 _atom_site_fract_y
 _atom_site_fract_z
 _atom_site_occupancy
  Mn  Mn0  1  0.50000000  0.00000000  0.00000000  1
  Mn  Mn1  1  0.50000000  0.50000000  0.00000000  1
  Mn  Mn2  1  0.00000000  0.50000000  0.00000000  1
  Mn  Mn3  1  0.16666667  0.33333333  0.33333333  1
  Mn  Mn4  1  0.16666667  0.83333333  0.33333333  1
  Mn  Mn5  1  0.66666667  0.83333333  0.33333333  1
  Mn  Mn6  1  0.83333333  0.66666667  0.66666667  1
  Mn  Mn7  1  0.83333333  0.16666667  0.66666667  1
  Mn  Mn8  1  0.33333333  0.16666667  0.66666667  1
  Cr  Cr9  1  0.00000000  0.00000000  0.00000000  1
  Cr  Cr10  1  0.66666667  0.33333333  0.33333333  1
  Cr  Cr11  1  0.33333333  0.66666667  0.66666667  1
  O  O12  1  0.66666667  0.33333333  0.06579433  1
  O  O13  1  0.16770700  0.33541400  0.06573100  1
  O  O14  1  0.16770700  0.83229300  0.06573100  1
  O  O15  1  0.00000000  0.00000000  0.26753900  1
  O  O16  1  0.66458600  0.83229300  0.06573100  1
  O  O17  1  0.49895967  0.99791933  0.26760233  1
  O  O18  1  0.49895967  0.50104033  0.26760233  1
  O  O19  1  0.00208067  0.50104033  0.26760233  1
  O  O20  1  0.33333333  0.66666667  0.39912767  1
  O  O21  1  0.83437367  0.66874733  0.39906433  1
  O  O22  1  0.83437367  0.16562633  0.39906433  1
  O  O23  1  0.66666667  0.33333333  0.60087233  1
  O  O24  1  0.33125267  0.16562633  0.39906433  1
  O  O25  1  0.16562633  0.33125267  0.60093567  1
  O  O26  1  0.16562633  0.83437367  0.60093567  1
  O  O27  1  0.66874733  0.83437367  0.60093567  1
  O  O28  1  0.00000000  0.00000000  0.73246100  1
  O  O29  1  0.50104033  0.00208067  0.73239767  1
  O  O30  1  0.50104033  0.49895967  0.73239767  1
  O  O31  1  0.33333333  0.66666667  0.93420567  1
  O  O32  1  0.99791933  0.49895967  0.73239767  1
  O  O33  1  0.83229300  0.66458600  0.93426900  1
  O  O34  1  0.83229300  0.16770700  0.93426900  1
  O  O35  1  0.33541400  0.16770700  0.93426900  1
