# generated using pymatgen
data_LiNiSbO4
_symmetry_space_group_name_H-M   'P 1'
_cell_length_a   6.05658700
_cell_length_b   6.21168947
_cell_length_c   8.63105911
_cell_angle_alpha   90.00000000
_cell_angle_beta   90.00000000
_cell_angle_gamma   90.00000000
_symmetry_Int_Tables_number   1
_chemical_formula_structural   LiNiSbO4
_chemical_formula_sum   'Li4 Ni4 Sb4 O16'
_cell_volume   324.71457875
_cell_formula_units_Z   4
loop_
 _symmetry_equiv_pos_site_id
 _symmetry_equiv_pos_as_xyz
  1  'x, y, z'
loop_
 _atom_site_type_symbol
 _atom_site_label
 _atom_site_symmetry_multiplicity
 _atom_site_fract_x
 _atom_site_fract_y
 _atom_site_fract_z
 _atom_site_occupancy
  Li  Li0  1  0.50000000  0.25000000  0.35729925  1
  Li  Li1  1  0.00000000  0.25000000  0.14270075  1
  Li  Li2  1  0.00000000  0.75000000  0.85729925  1
  Li  Li3  1  0.50000000  0.75000000  0.64270075  1
  Ni  Ni4  1  0.75000000  0.25000000  0.75000000  1
  Ni  Ni5  1  0.25000000  0.25000000  0.75000000  1
  Ni  Ni6  1  0.25000000  0.75000000  0.25000000  1
  Ni  Ni7  1  0.75000000  0.75000000  0.25000000  1
  Sb  Sb8  1  0.50000000  0.50000000  0.00000000  1
  Sb  Sb9  1  0.50000000  0.00000000  0.00000000  1
  Sb  Sb10  1  0.00000000  0.00000000  0.50000000  1
  Sb  Sb11  1  0.00000000  0.50000000  0.50000000  1
  O  O12  1  0.77381700  0.25000000  0.50221875  1
  O  O13  1  0.22618300  0.25000000  0.50221875  1
  O  O14  1  0.27381700  0.25000000  0.99778125  1
  O  O15  1  0.72618300  0.25000000  0.99778125  1
  O  O16  1  0.00000000  0.02026900  0.72747625  1
  O  O17  1  0.00000000  0.47973100  0.72747625  1
  O  O18  1  0.50000000  0.47973100  0.77252375  1
  O  O19  1  0.50000000  0.02026900  0.77252375  1
  O  O20  1  0.27381700  0.75000000  0.00221875  1
  O  O21  1  0.72618300  0.75000000  0.00221875  1
  O  O22  1  0.77381700  0.75000000  0.49778125  1
  O  O23  1  0.22618300  0.75000000  0.49778125  1
  O  O24  1  0.50000000  0.52026900  0.22747625  1
  O  O25  1  0.50000000  0.97973100  0.22747625  1
  O  O26  1  0.00000000  0.97973100  0.27252375  1
  O  O27  1  0.00000000  0.52026900  0.27252375  1
