# generated using pymatgen
data_LiVF5
_symmetry_space_group_name_H-M   'P 1'
_cell_length_a   8.45377400
_cell_length_b   6.39570800
_cell_length_c   7.61042629
_cell_angle_alpha   90.00000000
_cell_angle_beta   116.96976119
_cell_angle_gamma   90.00000000
_symmetry_Int_Tables_number   1
_chemical_formula_structural   LiVF5
_chemical_formula_sum   'Li4 V4 F20'
_cell_volume   366.72949407
_cell_formula_units_Z   4
loop_
 _symmetry_equiv_pos_site_id
 _symmetry_equiv_pos_as_xyz
  1  'x, y, z'
loop_
 _atom_site_type_symbol
 _atom_site_label
 _atom_site_symmetry_multiplicity
 _atom_site_fract_x
 _atom_site_fract_y
 _atom_site_fract_z
 _atom_site_occupancy
  Li  Li0  1  0.00000000  0.51968000  0.25000000  1
  Li  Li1  1  0.50000000  0.98032000  0.75000000  1
  Li  Li2  1  0.50000000  0.01968000  0.25000000  1
  Li  Li3  1  0.00000000  0.48032000  0.75000000  1
  V  V4  1  0.00000000  0.00000000  0.00000000  1
  V  V5  1  0.00000000  0.00000000  0.50000000  1
  V  V6  1  0.50000000  0.50000000  0.00000000  1
  V  V7  1  0.50000000  0.50000000  0.50000000  1
  F  F8  1  0.98388200  0.71326200  0.04193100  1
  F  F9  1  0.01611800  0.71326200  0.45806900  1
  F  F10  1  0.25821650  0.47003450  0.37443300  1
  F  F11  1  0.50000000  0.57602600  0.25000000  1
  F  F12  1  0.74178350  0.47003450  0.12556700  1
  F  F13  1  0.75821650  0.02996550  0.87443300  1
  F  F14  1  0.00000000  0.92397400  0.75000000  1
  F  F15  1  0.24178350  0.02996550  0.62556700  1
  F  F16  1  0.48388200  0.78673800  0.54193100  1
  F  F17  1  0.51611800  0.78673800  0.95806900  1
  F  F18  1  0.48388200  0.21326200  0.04193100  1
  F  F19  1  0.51611800  0.21326200  0.45806900  1
  F  F20  1  0.75821650  0.97003450  0.37443300  1
  F  F21  1  0.00000000  0.07602600  0.25000000  1
  F  F22  1  0.24178350  0.97003450  0.12556700  1
  F  F23  1  0.25821650  0.52996550  0.87443300  1
  F  F24  1  0.50000000  0.42397400  0.75000000  1
  F  F25  1  0.74178350  0.52996550  0.62556700  1
  F  F26  1  0.98388200  0.28673800  0.54193100  1
  F  F27  1  0.01611800  0.28673800  0.95806900  1
