# generated using pymatgen
data_Li2V6O15
_symmetry_space_group_name_H-M   'P 1'
_cell_length_a   15.76588011
_cell_length_b   3.67162000
_cell_length_c   10.40115196
_cell_angle_alpha   90.00000000
_cell_angle_beta   112.97475497
_cell_angle_gamma   90.00000000
_symmetry_Int_Tables_number   1
_chemical_formula_structural   Li2V6O15
_chemical_formula_sum   'Li4 V12 O30'
_cell_volume   554.32523000
_cell_formula_units_Z   2
loop_
 _symmetry_equiv_pos_site_id
 _symmetry_equiv_pos_as_xyz
  1  'x, y, z'
loop_
 _atom_site_type_symbol
 _atom_site_label
 _atom_site_symmetry_multiplicity
 _atom_site_fract_x
 _atom_site_fract_y
 _atom_site_fract_z
 _atom_site_occupancy
  Li  Li0  1  0.50771250  0.50000000  0.31912600  1
  Li  Li1  1  0.99228750  0.00000000  0.68087400  1
  Li  Li2  1  0.00771250  0.00000000  0.31912600  1
  Li  Li3  1  0.49228750  0.50000000  0.68087400  1
  V  V4  1  0.66241650  0.00000000  0.89648500  1
  V  V5  1  0.83758350  0.50000000  0.10351500  1
  V  V6  1  0.62167650  0.50000000  0.11198500  1
  V  V7  1  0.87832350  0.00000000  0.88801500  1
  V  V8  1  0.78876450  0.50000000  0.41421400  1
  V  V9  1  0.71123550  0.00000000  0.58578600  1
  V  V10  1  0.16241650  0.50000000  0.89648500  1
  V  V11  1  0.33758350  0.00000000  0.10351500  1
  V  V12  1  0.12167650  0.00000000  0.11198500  1
  V  V13  1  0.37832350  0.50000000  0.88801500  1
  V  V14  1  0.28876450  0.00000000  0.41421400  1
  V  V15  1  0.21123550  0.50000000  0.58578600  1
  O  O16  1  0.50000000  0.50000000  0.00000000  1
  O  O17  1  0.68590200  0.50000000  0.96026900  1
  O  O18  1  0.81409800  0.00000000  0.03973100  1
  O  O19  1  0.86655650  0.50000000  0.92687800  1
  O  O20  1  0.63344350  0.00000000  0.07312200  1
  O  O21  1  0.55771700  0.00000000  0.76455400  1
  O  O22  1  0.94228300  0.50000000  0.23544600  1
  O  O23  1  0.74069600  0.50000000  0.56854600  1
  O  O24  1  0.75930400  0.00000000  0.43145400  1
  O  O25  1  0.73362900  0.00000000  0.76982600  1
  O  O26  1  0.76637100  0.50000000  0.23017400  1
  O  O27  1  0.90099950  0.50000000  0.49128300  1
  O  O28  1  0.59900050  0.00000000  0.50871700  1
  O  O29  1  0.88432500  0.00000000  0.73173700  1
  O  O30  1  0.61567500  0.50000000  0.26826300  1
  O  O31  1  0.00000000  0.00000000  0.00000000  1
  O  O32  1  0.18590200  0.00000000  0.96026900  1
  O  O33  1  0.31409800  0.50000000  0.03973100  1
  O  O34  1  0.36655650  0.00000000  0.92687800  1
  O  O35  1  0.13344350  0.50000000  0.07312200  1
  O  O36  1  0.05771700  0.50000000  0.76455400  1
  O  O37  1  0.44228300  0.00000000  0.23544600  1
  O  O38  1  0.24069600  0.00000000  0.56854600  1
  O  O39  1  0.25930400  0.50000000  0.43145400  1
  O  O40  1  0.23362900  0.50000000  0.76982600  1
  O  O41  1  0.26637100  0.00000000  0.23017400  1
  O  O42  1  0.40099950  0.00000000  0.49128300  1
  O  O43  1  0.09900050  0.50000000  0.50871700  1
  O  O44  1  0.38432500  0.50000000  0.73173700  1
  O  O45  1  0.11567500  0.00000000  0.26826300  1
