# generated using pymatgen
data_Co3(OF2)2
_symmetry_space_group_name_H-M   'P 1'
_cell_length_a   8.86549600
_cell_length_b   6.92678600
_cell_length_c   6.98413170
_cell_angle_alpha   90.00000000
_cell_angle_beta   109.94536078
_cell_angle_gamma   90.00000000
_symmetry_Int_Tables_number   1
_chemical_formula_structural   Co3(OF2)2
_chemical_formula_sum   'Co12 O8 F16'
_cell_volume   403.16568762
_cell_formula_units_Z   4
loop_
 _symmetry_equiv_pos_site_id
 _symmetry_equiv_pos_as_xyz
  1  'x, y, z'
loop_
 _atom_site_type_symbol
 _atom_site_label
 _atom_site_symmetry_multiplicity
 _atom_site_fract_x
 _atom_site_fract_y
 _atom_site_fract_z
 _atom_site_occupancy
  Co  Co0  1  0.83177700  0.50000000  0.83994800  1
  Co  Co1  1  0.84831400  0.50000000  0.33466000  1
  Co  Co2  1  0.15168600  0.50000000  0.66534000  1
  Co  Co3  1  0.16822300  0.50000000  0.16005200  1
  Co  Co4  1  0.00000000  0.00000000  0.50000000  1
  Co  Co5  1  0.00000000  0.00000000  0.00000000  1
  Co  Co6  1  0.33177700  0.00000000  0.83994800  1
  Co  Co7  1  0.34831400  0.00000000  0.33466000  1
  Co  Co8  1  0.65168600  0.00000000  0.66534000  1
  Co  Co9  1  0.66822300  0.00000000  0.16005200  1
  Co  Co10  1  0.50000000  0.50000000  0.50000000  1
  Co  Co11  1  0.50000000  0.50000000  0.00000000  1
  O  O12  1  0.93489600  0.50000000  0.62983100  1
  O  O13  1  0.25237200  0.50000000  0.95625500  1
  O  O14  1  0.06510400  0.50000000  0.37016900  1
  O  O15  1  0.74762800  0.50000000  0.04374500  1
  O  O16  1  0.43489600  0.00000000  0.62983100  1
  O  O17  1  0.75237200  0.00000000  0.95625500  1
  O  O18  1  0.56510400  0.00000000  0.37016900  1
  O  O19  1  0.24762800  0.00000000  0.04374500  1
  F  F20  1  0.83274550  0.19261150  0.32975000  1
  F  F21  1  0.16725450  0.19261150  0.67025000  1
  F  F22  1  0.62060600  0.50000000  0.30727400  1
  F  F23  1  0.37939400  0.50000000  0.69272600  1
  F  F24  1  0.83274550  0.80738850  0.32975000  1
  F  F25  1  0.16725450  0.80738850  0.67025000  1
  F  F26  1  0.00000000  0.29939000  0.00000000  1
  F  F27  1  0.00000000  0.70061000  0.00000000  1
  F  F28  1  0.33274550  0.69261150  0.32975000  1
  F  F29  1  0.66725450  0.69261150  0.67025000  1
  F  F30  1  0.12060600  0.00000000  0.30727400  1
  F  F31  1  0.87939400  0.00000000  0.69272600  1
  F  F32  1  0.33274550  0.30738850  0.32975000  1
  F  F33  1  0.66725450  0.30738850  0.67025000  1
  F  F34  1  0.50000000  0.79939000  0.00000000  1
  F  F35  1  0.50000000  0.20061000  0.00000000  1
