# generated using pymatgen
data_Li2Ti(CoO3)2
_symmetry_space_group_name_H-M   'P 1'
_cell_length_a   5.14786800
_cell_length_b   8.85576600
_cell_length_c   10.04562400
_cell_angle_alpha   90.00000000
_cell_angle_beta   90.00000000
_cell_angle_gamma   90.00000000
_symmetry_Int_Tables_number   1
_chemical_formula_structural   Li2Ti(CoO3)2
_chemical_formula_sum   'Li8 Ti4 Co8 O24'
_cell_volume   457.96306533
_cell_formula_units_Z   4
loop_
 _symmetry_equiv_pos_site_id
 _symmetry_equiv_pos_as_xyz
  1  'x, y, z'
loop_
 _atom_site_type_symbol
 _atom_site_label
 _atom_site_symmetry_multiplicity
 _atom_site_fract_x
 _atom_site_fract_y
 _atom_site_fract_z
 _atom_site_occupancy
  Li  Li0  1  0.40834400  0.75000000  0.75000000  1
  Li  Li1  1  0.59165600  0.75000000  0.25000000  1
  Li  Li2  1  0.40834400  0.25000000  0.75000000  1
  Li  Li3  1  0.59165600  0.25000000  0.25000000  1
  Li  Li4  1  0.90834400  0.25000000  0.75000000  1
  Li  Li5  1  0.09165600  0.25000000  0.25000000  1
  Li  Li6  1  0.90834400  0.75000000  0.75000000  1
  Li  Li7  1  0.09165600  0.75000000  0.25000000  1
  Ti  Ti8  1  0.00000000  0.00000000  0.00000000  1
  Ti  Ti9  1  0.50000000  0.00000000  0.50000000  1
  Ti  Ti10  1  0.50000000  0.50000000  0.00000000  1
  Ti  Ti11  1  0.00000000  0.50000000  0.50000000  1
  Co  Co12  1  0.50000000  0.83683700  0.00000000  1
  Co  Co13  1  0.50000000  0.33683700  0.50000000  1
  Co  Co14  1  0.50000000  0.66316300  0.50000000  1
  Co  Co15  1  0.50000000  0.16316300  0.00000000  1
  Co  Co16  1  0.00000000  0.33683700  0.00000000  1
  Co  Co17  1  0.00000000  0.83683700  0.50000000  1
  Co  Co18  1  0.00000000  0.16316300  0.50000000  1
  Co  Co19  1  0.00000000  0.66316300  0.00000000  1
  O  O20  1  0.17771700  0.00000000  0.59890400  1
  O  O21  1  0.32228300  0.00000000  0.09890400  1
  O  O22  1  0.67771700  0.00000000  0.90109600  1
  O  O23  1  0.65865600  0.33125000  0.89219100  1
  O  O24  1  0.82228300  0.00000000  0.40109600  1
  O  O25  1  0.34134400  0.83125000  0.39219100  1
  O  O26  1  0.65865600  0.83125000  0.60780900  1
  O  O27  1  0.34134400  0.33125000  0.10780900  1
  O  O28  1  0.34134400  0.66875000  0.10780900  1
  O  O29  1  0.65865600  0.66875000  0.89219100  1
  O  O30  1  0.34134400  0.16875000  0.39219100  1
  O  O31  1  0.65865600  0.16875000  0.60780900  1
  O  O32  1  0.67771700  0.50000000  0.59890400  1
  O  O33  1  0.82228300  0.50000000  0.09890400  1
  O  O34  1  0.17771700  0.50000000  0.90109600  1
  O  O35  1  0.15865600  0.83125000  0.89219100  1
  O  O36  1  0.32228300  0.50000000  0.40109600  1
  O  O37  1  0.84134400  0.33125000  0.39219100  1
  O  O38  1  0.15865600  0.33125000  0.60780900  1
  O  O39  1  0.84134400  0.83125000  0.10780900  1
  O  O40  1  0.84134400  0.16875000  0.10780900  1
  O  O41  1  0.15865600  0.16875000  0.89219100  1
  O  O42  1  0.84134400  0.66875000  0.39219100  1
  O  O43  1  0.15865600  0.66875000  0.60780900  1
