# generated using pymatgen
data_Li2Cr3O6
_symmetry_space_group_name_H-M   'P 1'
_cell_length_a   5.13804800
_cell_length_b   8.88652200
_cell_length_c   10.10035500
_cell_angle_alpha   90.00000000
_cell_angle_beta   90.00000000
_cell_angle_gamma   90.00000000
_symmetry_Int_Tables_number   1
_chemical_formula_structural   Li2Cr3O6
_chemical_formula_sum   'Li8 Cr12 O24'
_cell_volume   461.17591263
_cell_formula_units_Z   4
loop_
 _symmetry_equiv_pos_site_id
 _symmetry_equiv_pos_as_xyz
  1  'x, y, z'
loop_
 _atom_site_type_symbol
 _atom_site_label
 _atom_site_symmetry_multiplicity
 _atom_site_fract_x
 _atom_site_fract_y
 _atom_site_fract_z
 _atom_site_occupancy
  Li  Li0  1  0.40813500  0.75000000  0.75000000  1
  Li  Li1  1  0.59186500  0.75000000  0.25000000  1
  Li  Li2  1  0.40813500  0.25000000  0.75000000  1
  Li  Li3  1  0.59186500  0.25000000  0.25000000  1
  Li  Li4  1  0.90813500  0.25000000  0.75000000  1
  Li  Li5  1  0.09186500  0.25000000  0.25000000  1
  Li  Li6  1  0.90813500  0.75000000  0.75000000  1
  Li  Li7  1  0.09186500  0.75000000  0.25000000  1
  Cr  Cr8  1  0.00000000  0.00000000  0.00000000  1
  Cr  Cr9  1  0.50000000  0.00000000  0.50000000  1
  Cr  Cr10  1  0.50000000  0.83473400  0.00000000  1
  Cr  Cr11  1  0.50000000  0.33473400  0.50000000  1
  Cr  Cr12  1  0.50000000  0.66526600  0.50000000  1
  Cr  Cr13  1  0.50000000  0.16526600  0.00000000  1
  Cr  Cr14  1  0.50000000  0.50000000  0.00000000  1
  Cr  Cr15  1  0.00000000  0.50000000  0.50000000  1
  Cr  Cr16  1  0.00000000  0.33473400  0.00000000  1
  Cr  Cr17  1  0.00000000  0.83473400  0.50000000  1
  Cr  Cr18  1  0.00000000  0.16526600  0.50000000  1
  Cr  Cr19  1  0.00000000  0.66526600  0.00000000  1
  O  O20  1  0.16950000  0.00000000  0.59423300  1
  O  O21  1  0.33050000  0.00000000  0.09423300  1
  O  O22  1  0.66950000  0.00000000  0.90576700  1
  O  O23  1  0.66481650  0.32848550  0.89332100  1
  O  O24  1  0.83050000  0.00000000  0.40576700  1
  O  O25  1  0.33518350  0.82848550  0.39332100  1
  O  O26  1  0.66481650  0.82848550  0.60667900  1
  O  O27  1  0.33518350  0.32848550  0.10667900  1
  O  O28  1  0.33518350  0.67151450  0.10667900  1
  O  O29  1  0.66481650  0.67151450  0.89332100  1
  O  O30  1  0.33518350  0.17151450  0.39332100  1
  O  O31  1  0.66481650  0.17151450  0.60667900  1
  O  O32  1  0.66950000  0.50000000  0.59423300  1
  O  O33  1  0.83050000  0.50000000  0.09423300  1
  O  O34  1  0.16950000  0.50000000  0.90576700  1
  O  O35  1  0.16481650  0.82848550  0.89332100  1
  O  O36  1  0.33050000  0.50000000  0.40576700  1
  O  O37  1  0.83518350  0.32848550  0.39332100  1
  O  O38  1  0.16481650  0.32848550  0.60667900  1
  O  O39  1  0.83518350  0.82848550  0.10667900  1
  O  O40  1  0.83518350  0.17151450  0.10667900  1
  O  O41  1  0.16481650  0.17151450  0.89332100  1
  O  O42  1  0.83518350  0.67151450  0.39332100  1
  O  O43  1  0.16481650  0.67151450  0.60667900  1
