# generated using pymatgen
data_Li2TiV3O8
_symmetry_space_group_name_H-M   'P 1'
_cell_length_a   12.23056400
_cell_length_b   4.04730200
_cell_length_c   6.58281404
_cell_angle_alpha   90.00000000
_cell_angle_beta   107.67339600
_cell_angle_gamma   90.00000000
_symmetry_Int_Tables_number   1
_chemical_formula_structural   Li2TiV3O8
_chemical_formula_sum   'Li4 Ti2 V6 O16'
_cell_volume   310.47496976
_cell_formula_units_Z   2
loop_
 _symmetry_equiv_pos_site_id
 _symmetry_equiv_pos_as_xyz
  1  'x, y, z'
loop_
 _atom_site_type_symbol
 _atom_site_label
 _atom_site_symmetry_multiplicity
 _atom_site_fract_x
 _atom_site_fract_y
 _atom_site_fract_z
 _atom_site_occupancy
  Li  Li0  1  0.05905400  0.00000000  0.35641900  1
  Li  Li1  1  0.44310100  0.50000000  0.65156400  1
  Li  Li2  1  0.55905400  0.50000000  0.35641900  1
  Li  Li3  1  0.94310100  0.00000000  0.65156400  1
  Ti  Ti4  1  0.20422800  0.50000000  0.28200600  1
  Ti  Ti5  1  0.70422800  0.00000000  0.28200600  1
  V  V6  1  0.38971600  0.00000000  0.30434500  1
  V  V7  1  0.11136000  0.50000000  0.69980100  1
  V  V8  1  0.29167800  0.00000000  0.71713500  1
  V  V9  1  0.88971600  0.50000000  0.30434500  1
  V  V10  1  0.61136000  0.00000000  0.69980100  1
  V  V11  1  0.79167800  0.50000000  0.71713500  1
  O  O12  1  0.12558900  0.00000000  0.67644000  1
  O  O13  1  0.22616200  0.00000000  0.34510400  1
  O  O14  1  0.34986000  0.00000000  0.98887100  1
  O  O15  1  0.43782600  0.00000000  0.62831100  1
  O  O16  1  0.06506700  0.50000000  0.36046900  1
  O  O17  1  0.14715200  0.50000000  0.00666000  1
  O  O18  1  0.27173100  0.50000000  0.66255100  1
  O  O19  1  0.37747400  0.50000000  0.32032500  1
  O  O20  1  0.62558900  0.50000000  0.67644000  1
  O  O21  1  0.72616200  0.50000000  0.34510400  1
  O  O22  1  0.84986000  0.50000000  0.98887100  1
  O  O23  1  0.93782600  0.50000000  0.62831100  1
  O  O24  1  0.56506700  0.00000000  0.36046900  1
  O  O25  1  0.64715200  0.00000000  0.00666000  1
  O  O26  1  0.77173100  0.00000000  0.66255100  1
  O  O27  1  0.87747400  0.00000000  0.32032500  1
