# generated using pymatgen
data_V2P2O7
_symmetry_space_group_name_H-M   'P 1'
_cell_length_a   6.64813327
_cell_length_b   8.63376000
_cell_length_c   4.58338854
_cell_angle_alpha   90.00000000
_cell_angle_beta   101.28831563
_cell_angle_gamma   90.00000000
_symmetry_Int_Tables_number   1
_chemical_formula_structural   V2P2O7
_chemical_formula_sum   'V4 P4 O14'
_cell_volume   257.98973858
_cell_formula_units_Z   2
loop_
 _symmetry_equiv_pos_site_id
 _symmetry_equiv_pos_as_xyz
  1  'x, y, z'
loop_
 _atom_site_type_symbol
 _atom_site_label
 _atom_site_symmetry_multiplicity
 _atom_site_fract_x
 _atom_site_fract_y
 _atom_site_fract_z
 _atom_site_occupancy
  V  V0  1  0.50000000  0.18462150  0.50000000  1
  V  V1  1  0.50000000  0.81537850  0.50000000  1
  V  V2  1  0.00000000  0.68462150  0.50000000  1
  V  V3  1  0.00000000  0.31537850  0.50000000  1
  P  P4  1  0.78244850  0.00000000  0.09129000  1
  P  P5  1  0.21755150  0.00000000  0.90871000  1
  P  P6  1  0.28244850  0.50000000  0.09129000  1
  P  P7  1  0.71755150  0.50000000  0.90871000  1
  O  O8  1  0.00000000  0.00000000  0.00000000  1
  O  O9  1  0.63089425  0.00000000  0.79165000  1
  O  O10  1  0.36910575  0.00000000  0.20835000  1
  O  O11  1  0.77089650  0.85129150  0.27175100  1
  O  O12  1  0.77089650  0.14870850  0.27175100  1
  O  O13  1  0.22910350  0.14870850  0.72824900  1
  O  O14  1  0.22910350  0.85129150  0.72824900  1
  O  O15  1  0.50000000  0.50000000  0.00000000  1
  O  O16  1  0.13089425  0.50000000  0.79165000  1
  O  O17  1  0.86910575  0.50000000  0.20835000  1
  O  O18  1  0.27089650  0.35129150  0.27175100  1
  O  O19  1  0.27089650  0.64870850  0.27175100  1
  O  O20  1  0.72910350  0.64870850  0.72824900  1
  O  O21  1  0.72910350  0.35129150  0.72824900  1
