# generated using pymatgen
data_V3(O2F)2
_symmetry_space_group_name_H-M   'P 1'
_cell_length_a   5.64215146
_cell_length_b   4.71778200
_cell_length_c   7.55760147
_cell_angle_alpha   90.00000000
_cell_angle_beta   94.99434227
_cell_angle_gamma   90.00000000
_symmetry_Int_Tables_number   1
_chemical_formula_structural   V3(O2F)2
_chemical_formula_sum   'V6 O8 F4'
_cell_volume   200.40777774
_cell_formula_units_Z   2
loop_
 _symmetry_equiv_pos_site_id
 _symmetry_equiv_pos_as_xyz
  1  'x, y, z'
loop_
 _atom_site_type_symbol
 _atom_site_label
 _atom_site_symmetry_multiplicity
 _atom_site_fract_x
 _atom_site_fract_y
 _atom_site_fract_z
 _atom_site_occupancy
  V  V0  1  0.34643100  0.53468800  0.84354750  1
  V  V1  1  0.65356900  0.46531200  0.15645250  1
  V  V2  1  0.00000000  0.50000000  0.50000000  1
  V  V3  1  0.84643100  0.96531200  0.84354750  1
  V  V4  1  0.50000000  0.00000000  0.50000000  1
  V  V5  1  0.15356900  0.03468800  0.15645250  1
  O  O6  1  0.80331500  0.81196800  0.60895650  1
  O  O7  1  0.14109100  0.79689100  0.94218650  1
  O  O8  1  0.64109100  0.70310900  0.94218650  1
  O  O9  1  0.30331500  0.68803200  0.60895650  1
  O  O10  1  0.69668500  0.31196800  0.39104350  1
  O  O11  1  0.35890900  0.29689100  0.05781350  1
  O  O12  1  0.19668500  0.18803200  0.39104350  1
  O  O13  1  0.85890900  0.20310900  0.05781350  1
  F  F14  1  0.45714700  0.79586400  0.25792450  1
  F  F15  1  0.95714700  0.70413600  0.25792450  1
  F  F16  1  0.04285300  0.29586400  0.74207550  1
  F  F17  1  0.54285300  0.20413600  0.74207550  1
