# generated using pymatgen
data_Fe2(CO3)3
_symmetry_space_group_name_H-M   'P 1'
_cell_length_a   12.43185137
_cell_length_b   12.43185137
_cell_length_c   7.77841804
_cell_angle_alpha   90.00000000
_cell_angle_beta   90.00000000
_cell_angle_gamma   120.00000000
_symmetry_Int_Tables_number   1
_chemical_formula_structural   Fe2(CO3)3
_chemical_formula_sum   'Fe12 C18 O54'
_cell_volume   1041.10259738
_cell_formula_units_Z   6
loop_
 _symmetry_equiv_pos_site_id
 _symmetry_equiv_pos_as_xyz
  1  'x, y, z'
loop_
 _atom_site_type_symbol
 _atom_site_label
 _atom_site_symmetry_multiplicity
 _atom_site_fract_x
 _atom_site_fract_y
 _atom_site_fract_z
 _atom_site_occupancy
  Fe  Fe0  1  0.79037567  0.70994133  0.25117833  1
  Fe  Fe1  1  0.91956567  0.20962433  0.25117833  1
  Fe  Fe2  1  0.00000000  0.00000000  0.45905200  1
  Fe  Fe3  1  0.29005867  0.08043433  0.25117833  1
  Fe  Fe4  1  0.45704233  0.04327467  0.58451167  1
  Fe  Fe5  1  0.58623233  0.54295767  0.58451167  1
  Fe  Fe6  1  0.66666667  0.33333333  0.79238533  1
  Fe  Fe7  1  0.95672533  0.41376767  0.58451167  1
  Fe  Fe8  1  0.12370900  0.37660800  0.91784500  1
  Fe  Fe9  1  0.25289900  0.87629100  0.91784500  1
  Fe  Fe10  1  0.33333333  0.66666667  0.12571867  1
  Fe  Fe11  1  0.62339200  0.74710100  0.91784500  1
  C  C12  1  0.71594833  0.19915567  0.45903967  1
  C  C13  1  0.80084433  0.51679267  0.45903967  1
  C  C14  1  0.80665600  0.79950800  0.60593200  1
  C  C15  1  0.99285200  0.19334400  0.60593200  1
  C  C16  1  0.20049200  0.00714800  0.60593200  1
  C  C17  1  0.48320733  0.28405167  0.45903967  1
  C  C18  1  0.38261500  0.53248900  0.79237300  1
  C  C19  1  0.46751100  0.85012600  0.79237300  1
  C  C20  1  0.47332267  0.13284133  0.93926533  1
  C  C21  1  0.65951867  0.52667733  0.93926533  1
  C  C22  1  0.86715867  0.34048133  0.93926533  1
  C  C23  1  0.14987400  0.61738500  0.79237300  1
  C  C24  1  0.04928167  0.86582233  0.12570633  1
  C  C25  1  0.13417767  0.18345933  0.12570633  1
  C  C26  1  0.13998933  0.46617467  0.27259867  1
  C  C27  1  0.32618533  0.86001067  0.27259867  1
  C  C28  1  0.53382533  0.67381467  0.27259867  1
  C  C29  1  0.81654067  0.95071833  0.12570633  1
  O  O30  1  0.61066800  0.09842500  0.45679500  1
  O  O31  1  0.76146033  0.54722167  0.32308767  1
  O  O32  1  0.78576133  0.23853967  0.32308767  1
  O  O33  1  0.84722600  0.90670200  0.26055200  1
  O  O34  1  0.71128067  0.71675133  0.69733133  1
  O  O35  1  0.85464233  0.75933267  0.49148167  1
  O  O36  1  0.85174067  0.91492333  0.62601333  1
  O  O37  1  0.90157500  0.51224300  0.45679500  1
  O  O38  1  0.90469033  0.14535767  0.49148167  1
  O  O39  1  0.09329800  0.94052400  0.26055200  1
  O  O40  1  0.05947600  0.15277400  0.26055200  1
  O  O41  1  0.00547067  0.28871933  0.69733133  1
  O  O42  1  0.08507667  0.93681733  0.62601333  1
  O  O43  1  0.06318267  0.14825933  0.62601333  1
  O  O44  1  0.24066733  0.09530967  0.49148167  1
  O  O45  1  0.28324867  0.99452933  0.69733133  1
  O  O46  1  0.48775700  0.38933200  0.45679500  1
  O  O47  1  0.45277833  0.21423867  0.32308767  1
  O  O48  1  0.27733467  0.43175833  0.79012833  1
  O  O49  1  0.42812700  0.88055500  0.65642100  1
  O  O50  1  0.45242800  0.57187300  0.65642100  1
  O  O51  1  0.51389267  0.24003533  0.59388533  1
  O  O52  1  0.37794733  0.05008467  0.03066467  1
  O  O53  1  0.52130900  0.09266600  0.82481500  1
  O  O54  1  0.51840733  0.24825667  0.95934667  1
  O  O55  1  0.56824167  0.84557633  0.79012833  1
  O  O56  1  0.57135700  0.47869100  0.82481500  1
  O  O57  1  0.75996467  0.27385733  0.59388533  1
  O  O58  1  0.72614267  0.48610733  0.59388533  1
  O  O59  1  0.67213733  0.62205267  0.03066467  1
  O  O60  1  0.75174333  0.27015067  0.95934667  1
  O  O61  1  0.72984933  0.48159267  0.95934667  1
  O  O62  1  0.90733400  0.42864300  0.82481500  1
  O  O63  1  0.94991533  0.32786267  0.03066467  1
  O  O64  1  0.15442367  0.72266533  0.79012833  1
  O  O65  1  0.11944500  0.54757200  0.65642100  1
  O  O66  1  0.94400133  0.76509167  0.12346167  1
  O  O67  1  0.09479367  0.21388833  0.98975433  1
  O  O68  1  0.11909467  0.90520633  0.98975433  1
  O  O69  1  0.18055933  0.57336867  0.92721867  1
  O  O70  1  0.04461400  0.38341800  0.36399800  1
  O  O71  1  0.18797567  0.42599933  0.15814833  1
  O  O72  1  0.18507400  0.58159000  0.29268000  1
  O  O73  1  0.23490833  0.17890967  0.12346167  1
  O  O74  1  0.23802367  0.81202433  0.15814833  1
  O  O75  1  0.42663133  0.60719067  0.92721867  1
  O  O76  1  0.39280933  0.81944067  0.92721867  1
  O  O77  1  0.33880400  0.95538600  0.36399800  1
  O  O78  1  0.41841000  0.60348400  0.29268000  1
  O  O79  1  0.39651600  0.81492600  0.29268000  1
  O  O80  1  0.57400067  0.76197633  0.15814833  1
  O  O81  1  0.61658200  0.66119600  0.36399800  1
  O  O82  1  0.82109033  0.05599867  0.12346167  1
  O  O83  1  0.78611167  0.88090533  0.98975433  1
