# generated using pymatgen
data_MnV4CuO12
_symmetry_space_group_name_H-M   'P 1'
_cell_length_a   10.12783200
_cell_length_b   9.16549800
_cell_length_c   6.03684126
_cell_angle_alpha   90.00000000
_cell_angle_beta   108.30217313
_cell_angle_gamma   90.00000000
_symmetry_Int_Tables_number   1
_chemical_formula_structural   MnV4CuO12
_chemical_formula_sum   'Mn2 V8 Cu2 O24'
_cell_volume   532.03198922
_cell_formula_units_Z   2
loop_
 _symmetry_equiv_pos_site_id
 _symmetry_equiv_pos_as_xyz
  1  'x, y, z'
loop_
 _atom_site_type_symbol
 _atom_site_label
 _atom_site_symmetry_multiplicity
 _atom_site_fract_x
 _atom_site_fract_y
 _atom_site_fract_z
 _atom_site_occupancy
  Mn  Mn0  1  0.00000000  0.91562800  0.50000000  1
  Mn  Mn1  1  0.50000000  0.41562800  0.50000000  1
  V  V2  1  0.20131400  0.41034600  0.98461400  1
  V  V3  1  0.19798050  0.58791050  0.47945600  1
  V  V4  1  0.79868600  0.41034600  0.01538600  1
  V  V5  1  0.80201950  0.58791050  0.52054400  1
  V  V6  1  0.70131400  0.91034600  0.98461400  1
  V  V7  1  0.69798050  0.08791050  0.47945600  1
  V  V8  1  0.29868600  0.91034600  0.01538600  1
  V  V9  1  0.30201950  0.08791050  0.52054400  1
  Cu  Cu10  1  0.00000000  0.08799900  0.00000000  1
  Cu  Cu11  1  0.50000000  0.58799900  0.00000000  1
  O  O12  1  0.38096000  0.42319100  0.09474200  1
  O  O13  1  0.14383000  0.23573200  0.96681300  1
  O  O14  1  0.37542650  0.58066950  0.57330700  1
  O  O15  1  0.13855500  0.50224900  0.19503700  1
  O  O16  1  0.85617000  0.23573200  0.03318700  1
  O  O17  1  0.14434450  0.49486850  0.70069000  1
  O  O18  1  0.86144500  0.50224900  0.80496300  1
  O  O19  1  0.14218350  0.76321950  0.46197700  1
  O  O20  1  0.85565550  0.49486850  0.29931000  1
  O  O21  1  0.61904000  0.42319100  0.90525800  1
  O  O22  1  0.85781650  0.76321950  0.53802300  1
  O  O23  1  0.62457350  0.58066950  0.42669300  1
  O  O24  1  0.88096000  0.92319100  0.09474200  1
  O  O25  1  0.64383000  0.73573200  0.96681300  1
  O  O26  1  0.87542650  0.08066950  0.57330700  1
  O  O27  1  0.63855500  0.00224900  0.19503700  1
  O  O28  1  0.35617000  0.73573200  0.03318700  1
  O  O29  1  0.64434450  0.99486850  0.70069000  1
  O  O30  1  0.36144500  0.00224900  0.80496300  1
  O  O31  1  0.64218350  0.26321950  0.46197700  1
  O  O32  1  0.35565550  0.99486850  0.29931000  1
  O  O33  1  0.11904000  0.92319100  0.90525800  1
  O  O34  1  0.35781650  0.26321950  0.53802300  1
  O  O35  1  0.12457350  0.08066950  0.42669300  1
