# generated using pymatgen
data_Li2Mn2(PO4)3
_symmetry_space_group_name_H-M   'P 1'
_cell_length_a   14.84277000
_cell_length_b   8.68766400
_cell_length_c   8.80041237
_cell_angle_alpha   90.00000000
_cell_angle_beta   126.12487892
_cell_angle_gamma   90.00000000
_symmetry_Int_Tables_number   1
_chemical_formula_structural   Li2Mn2(PO4)3
_chemical_formula_sum   'Li8 Mn8 P12 O48'
_cell_volume   916.62002998
_cell_formula_units_Z   4
loop_
 _symmetry_equiv_pos_site_id
 _symmetry_equiv_pos_as_xyz
  1  'x, y, z'
loop_
 _atom_site_type_symbol
 _atom_site_label
 _atom_site_symmetry_multiplicity
 _atom_site_fract_x
 _atom_site_fract_y
 _atom_site_fract_z
 _atom_site_occupancy
  Li  Li0  1  0.24999550  0.42424950  0.55290400  1
  Li  Li1  1  0.25000450  0.92424950  0.94709600  1
  Li  Li2  1  0.24999550  0.57575050  0.05290400  1
  Li  Li3  1  0.25000450  0.07575050  0.44709600  1
  Li  Li4  1  0.74999550  0.92424950  0.55290400  1
  Li  Li5  1  0.75000450  0.42424950  0.94709600  1
  Li  Li6  1  0.74999550  0.07575050  0.05290400  1
  Li  Li7  1  0.75000450  0.57575050  0.44709600  1
  Mn  Mn8  1  0.38947500  0.74908900  0.85547500  1
  Mn  Mn9  1  0.61052500  0.74908900  0.64452500  1
  Mn  Mn10  1  0.88947500  0.75091100  0.35547500  1
  Mn  Mn11  1  0.11052500  0.75091100  0.14452500  1
  Mn  Mn12  1  0.88947500  0.24908900  0.85547500  1
  Mn  Mn13  1  0.11052500  0.24908900  0.64452500  1
  Mn  Mn14  1  0.38947500  0.25091100  0.35547500  1
  Mn  Mn15  1  0.61052500  0.25091100  0.14452500  1
  P  P16  1  0.00000000  0.46724800  0.25000000  1
  P  P17  1  0.50000000  0.03275200  0.75000000  1
  P  P18  1  0.85617150  0.89571050  0.96391200  1
  P  P19  1  0.14382850  0.89571050  0.53608800  1
  P  P20  1  0.35617150  0.60428950  0.46391200  1
  P  P21  1  0.64382850  0.60428950  0.03608800  1
  P  P22  1  0.50000000  0.96724800  0.25000000  1
  P  P23  1  0.00000000  0.53275200  0.75000000  1
  P  P24  1  0.35617150  0.39571050  0.96391200  1
  P  P25  1  0.64382850  0.39571050  0.53608800  1
  P  P26  1  0.85617150  0.10428950  0.46391200  1
  P  P27  1  0.14382850  0.10428950  0.03608800  1
  O  O28  1  0.57523000  0.93650200  0.71881300  1
  O  O29  1  0.46371350  0.66830350  0.50418300  1
  O  O30  1  0.91171950  0.36754350  0.07867600  1
  O  O31  1  0.16234150  0.13026250  0.88314500  1
  O  O32  1  0.07523000  0.56349800  0.21881300  1
  O  O33  1  0.08828050  0.36754350  0.42132400  1
  O  O34  1  0.84414550  0.07383050  0.94290500  1
  O  O35  1  0.76414600  0.82134400  0.76998000  1
  O  O36  1  0.15585450  0.07383050  0.55709500  1
  O  O37  1  0.33765850  0.63026250  0.61685500  1
  O  O38  1  0.26414600  0.67865600  0.26998000  1
  O  O39  1  0.53628650  0.66830350  0.99581700  1
  O  O40  1  0.96371350  0.83169650  0.00418300  1
  O  O41  1  0.23585400  0.82134400  0.73002000  1
  O  O42  1  0.16234150  0.86973750  0.38314500  1
  O  O43  1  0.34414550  0.42616950  0.44290500  1
  O  O44  1  0.73585400  0.67865600  0.23002000  1
  O  O45  1  0.65585450  0.42616950  0.05709500  1
  O  O46  1  0.41171950  0.13245650  0.57867600  1
  O  O47  1  0.42477000  0.93650200  0.78118700  1
  O  O48  1  0.33765850  0.36973750  0.11685500  1
  O  O49  1  0.58828050  0.13245650  0.92132400  1
  O  O50  1  0.03628650  0.83169650  0.49581700  1
  O  O51  1  0.92477000  0.56349800  0.28118700  1
  O  O52  1  0.07523000  0.43650200  0.71881300  1
  O  O53  1  0.96371350  0.16830350  0.50418300  1
  O  O54  1  0.41171950  0.86754350  0.07867600  1
  O  O55  1  0.66234150  0.63026250  0.88314500  1
  O  O56  1  0.57523000  0.06349800  0.21881300  1
  O  O57  1  0.58828050  0.86754350  0.42132400  1
  O  O58  1  0.34414550  0.57383050  0.94290500  1
  O  O59  1  0.26414600  0.32134400  0.76998000  1
  O  O60  1  0.65585450  0.57383050  0.55709500  1
  O  O61  1  0.83765850  0.13026250  0.61685500  1
  O  O62  1  0.76414600  0.17865600  0.26998000  1
  O  O63  1  0.03628650  0.16830350  0.99581700  1
  O  O64  1  0.46371350  0.33169650  0.00418300  1
  O  O65  1  0.73585400  0.32134400  0.73002000  1
  O  O66  1  0.66234150  0.36973750  0.38314500  1
  O  O67  1  0.84414550  0.92616950  0.44290500  1
  O  O68  1  0.23585400  0.17865600  0.23002000  1
  O  O69  1  0.15585450  0.92616950  0.05709500  1
  O  O70  1  0.91171950  0.63245650  0.57867600  1
  O  O71  1  0.92477000  0.43650200  0.78118700  1
  O  O72  1  0.83765850  0.86973750  0.11685500  1
  O  O73  1  0.08828050  0.63245650  0.92132400  1
  O  O74  1  0.53628650  0.33169650  0.49581700  1
  O  O75  1  0.42477000  0.06349800  0.28118700  1
