# generated using pymatgen
data_Fe3Ni2Sb(PO4)6
_symmetry_space_group_name_H-M   'P 1'
_cell_length_a   8.63467622
_cell_length_b   8.63467622
_cell_length_c   20.67358509
_cell_angle_alpha   90.00000000
_cell_angle_beta   90.00000000
_cell_angle_gamma   120.00000000
_symmetry_Int_Tables_number   1
_chemical_formula_structural   Fe3Ni2Sb(PO4)6
_chemical_formula_sum   'Fe9 Ni6 Sb3 P18 O72'
_cell_volume   1334.86867594
_cell_formula_units_Z   3
loop_
 _symmetry_equiv_pos_site_id
 _symmetry_equiv_pos_as_xyz
  1  'x, y, z'
loop_
 _atom_site_type_symbol
 _atom_site_label
 _atom_site_symmetry_multiplicity
 _atom_site_fract_x
 _atom_site_fract_y
 _atom_site_fract_z
 _atom_site_occupancy
  Fe  Fe0  1  0.33333333  0.66666667  0.81199067  1
  Fe  Fe1  1  0.33333333  0.66666667  0.02201667  1
  Fe  Fe2  1  0.33333333  0.66666667  0.30979367  1
  Fe  Fe3  1  0.00000000  0.00000000  0.14532400  1
  Fe  Fe4  1  0.00000000  0.00000000  0.35535000  1
  Fe  Fe5  1  0.00000000  0.00000000  0.64312700  1
  Fe  Fe6  1  0.66666667  0.33333333  0.47865733  1
  Fe  Fe7  1  0.66666667  0.33333333  0.68868333  1
  Fe  Fe8  1  0.66666667  0.33333333  0.97646033  1
  Ni  Ni9  1  0.33333333  0.66666667  0.67297767  1
  Ni  Ni10  1  0.33333333  0.66666667  0.16620067  1
  Ni  Ni11  1  0.00000000  0.00000000  0.00631100  1
  Ni  Ni12  1  0.00000000  0.00000000  0.49953400  1
  Ni  Ni13  1  0.66666667  0.33333333  0.33964433  1
  Ni  Ni14  1  0.66666667  0.33333333  0.83286733  1
  Sb  Sb15  1  0.33333333  0.66666667  0.52387567  1
  Sb  Sb16  1  0.00000000  0.00000000  0.85720900  1
  Sb  Sb17  1  0.66666667  0.33333333  0.19054233  1
  P  P18  1  0.36917800  0.03349300  0.08170000  1
  P  P19  1  0.66431500  0.63082200  0.08170000  1
  P  P20  1  0.96650700  0.33568500  0.08170000  1
  P  P21  1  0.70347933  0.99560767  0.24900067  1
  P  P22  1  0.00439233  0.70787167  0.24900067  1
  P  P23  1  0.29212833  0.29652067  0.24900067  1
  P  P24  1  0.03584467  0.36682633  0.41503333  1
  P  P25  1  0.33098167  0.96415533  0.41503333  1
  P  P26  1  0.63317367  0.66901833  0.41503333  1
  P  P27  1  0.37014600  0.32894100  0.58233400  1
  P  P28  1  0.67105900  0.04120500  0.58233400  1
  P  P29  1  0.95879500  0.62985400  0.58233400  1
  P  P30  1  0.70251133  0.70015967  0.74836667  1
  P  P31  1  0.99764833  0.29748867  0.74836667  1
  P  P32  1  0.29984033  0.00235167  0.74836667  1
  P  P33  1  0.03681267  0.66227433  0.91566733  1
  P  P34  1  0.33772567  0.37453833  0.91566733  1
  P  P35  1  0.62546167  0.96318733  0.91566733  1
  O  O36  1  0.53215600  0.86702300  0.97737000  1
  O  O37  1  0.13297700  0.66513300  0.97737000  1
  O  O38  1  0.18253800  0.01647400  0.07570400  1
  O  O39  1  0.33486700  0.46784400  0.97737000  1
  O  O40  1  0.46555900  0.13420200  0.14598400  1
  O  O41  1  0.34892133  0.84714867  0.09181967  1
  O  O42  1  0.83393600  0.81746200  0.07570400  1
  O  O43  1  0.49822733  0.65107867  0.09181967  1
  O  O44  1  0.80616067  0.00910733  0.18793433  1
  O  O45  1  0.15285133  0.50177267  0.09181967  1
  O  O46  1  0.68246967  0.17049033  0.25745133  1
  O  O47  1  0.99089267  0.79705333  0.18793433  1
  O  O48  1  0.66864300  0.53444100  0.14598400  1
  O  O49  1  0.98352600  0.16606400  0.07570400  1
  O  O50  1  0.51297200  0.83413600  0.24091000  1
  O  O51  1  0.86579800  0.33135700  0.14598400  1
  O  O52  1  0.16586400  0.67883600  0.24091000  1
  O  O53  1  0.82950967  0.51197933  0.25745133  1
  O  O54  1  0.32116400  0.48702800  0.24091000  1
  O  O55  1  0.20294667  0.19383933  0.18793433  1
  O  O56  1  0.32443067  0.85651433  0.35650833  1
  O  O57  1  0.48802067  0.31753033  0.25745133  1
  O  O58  1  0.53208367  0.67556933  0.35650833  1
  O  O59  1  0.14348567  0.46791633  0.35650833  1
  O  O60  1  0.19882267  0.20035633  0.31070333  1
  O  O61  1  0.79964367  0.99846633  0.31070333  1
  O  O62  1  0.84920467  0.34980733  0.40903733  1
  O  O63  1  0.00153367  0.80117733  0.31070333  1
  O  O64  1  0.13222567  0.46753533  0.47931733  1
  O  O65  1  0.01558800  0.18048200  0.42515300  1
  O  O66  1  0.50060267  0.15079533  0.40903733  1
  O  O67  1  0.16489400  0.98441200  0.42515300  1
  O  O68  1  0.47282733  0.34244067  0.52126767  1
  O  O69  1  0.81951800  0.83510600  0.42515300  1
  O  O70  1  0.34913633  0.50382367  0.59078467  1
  O  O71  1  0.65755933  0.13038667  0.52126767  1
  O  O72  1  0.33530967  0.86777433  0.47931733  1
  O  O73  1  0.65019267  0.49939733  0.40903733  1
  O  O74  1  0.17963867  0.16746933  0.57424333  1
  O  O75  1  0.53246467  0.66469033  0.47931733  1
  O  O76  1  0.83253067  0.01216933  0.57424333  1
  O  O77  1  0.49617633  0.84531267  0.59078467  1
  O  O78  1  0.98783067  0.82036133  0.57424333  1
  O  O79  1  0.86961333  0.52717267  0.52126767  1
  O  O80  1  0.99109733  0.18984767  0.68984167  1
  O  O81  1  0.15468733  0.65086367  0.59078467  1
  O  O82  1  0.19875033  0.00890267  0.68984167  1
  O  O83  1  0.81015233  0.80124967  0.68984167  1
  O  O84  1  0.86548933  0.53368967  0.64403667  1
  O  O85  1  0.46631033  0.33179967  0.64403667  1
  O  O86  1  0.51587133  0.68314067  0.74237067  1
  O  O87  1  0.66820033  0.13451067  0.64403667  1
  O  O88  1  0.79889233  0.80086867  0.81265067  1
  O  O89  1  0.68225467  0.51381533  0.75848633  1
  O  O90  1  0.16726933  0.48412867  0.74237067  1
  O  O91  1  0.83156067  0.31774533  0.75848633  1
  O  O92  1  0.13949400  0.67577400  0.85460100  1
  O  O93  1  0.48618467  0.16843933  0.75848633  1
  O  O94  1  0.01580300  0.83715700  0.92411800  1
  O  O95  1  0.32422600  0.46372000  0.85460100  1
  O  O96  1  0.00197633  0.20110767  0.81265067  1
  O  O97  1  0.31685933  0.83273067  0.74237067  1
  O  O98  1  0.84630533  0.50080267  0.90757667  1
  O  O99  1  0.19913133  0.99802367  0.81265067  1
  O  O100  1  0.49919733  0.34550267  0.90757667  1
  O  O101  1  0.16284300  0.17864600  0.92411800  1
  O  O102  1  0.65449733  0.15369467  0.90757667  1
  O  O103  1  0.53628000  0.86050600  0.85460100  1
  O  O104  1  0.65776400  0.52318100  0.02317500  1
  O  O105  1  0.82135400  0.98419700  0.92411800  1
  O  O106  1  0.86541700  0.34223600  0.02317500  1
  O  O107  1  0.47681900  0.13458300  0.02317500  1
