# generated using pymatgen
data_LaTi6O12
_symmetry_space_group_name_H-M   'P 1'
_cell_length_a   13.88859400
_cell_length_b   8.98764800
_cell_length_c   9.78885357
_cell_angle_alpha   90.00000000
_cell_angle_beta   132.92201765
_cell_angle_gamma   90.00000000
_symmetry_Int_Tables_number   1
_chemical_formula_structural   LaTi6O12
_chemical_formula_sum   'La4 Ti24 O48'
_cell_volume   894.77550822
_cell_formula_units_Z   4
loop_
 _symmetry_equiv_pos_site_id
 _symmetry_equiv_pos_as_xyz
  1  'x, y, z'
loop_
 _atom_site_type_symbol
 _atom_site_label
 _atom_site_symmetry_multiplicity
 _atom_site_fract_x
 _atom_site_fract_y
 _atom_site_fract_z
 _atom_site_occupancy
  La  La0  1  0.00000000  0.76864900  0.00000000  1
  La  La1  1  0.00000000  0.23135100  0.00000000  1
  La  La2  1  0.50000000  0.26864900  0.00000000  1
  La  La3  1  0.50000000  0.73135100  0.00000000  1
  Ti  Ti4  1  0.35507000  0.66469200  0.52875600  1
  Ti  Ti5  1  0.17082300  0.00000000  0.82136100  1
  Ti  Ti6  1  0.32917700  0.50000000  0.17863900  1
  Ti  Ti7  1  0.83279100  0.66488000  0.18501500  1
  Ti  Ti8  1  0.14493000  0.83530800  0.47124400  1
  Ti  Ti9  1  0.14526200  0.50000000  0.46578800  1
  Ti  Ti10  1  0.85507000  0.83530800  0.52875600  1
  Ti  Ti11  1  0.35473800  0.00000000  0.53421200  1
  Ti  Ti12  1  0.66720900  0.83512000  0.81498500  1
  Ti  Ti13  1  0.16720900  0.66488000  0.81498500  1
  Ti  Ti14  1  0.33279100  0.83512000  0.18501500  1
  Ti  Ti15  1  0.64493000  0.66469200  0.47124400  1
  Ti  Ti16  1  0.85507000  0.16469200  0.52875600  1
  Ti  Ti17  1  0.67082300  0.50000000  0.82136100  1
  Ti  Ti18  1  0.82917700  0.00000000  0.17863900  1
  Ti  Ti19  1  0.33279100  0.16488000  0.18501500  1
  Ti  Ti20  1  0.64493000  0.33530800  0.47124400  1
  Ti  Ti21  1  0.64526200  0.00000000  0.46578800  1
  Ti  Ti22  1  0.35507000  0.33530800  0.52875600  1
  Ti  Ti23  1  0.85473800  0.50000000  0.53421200  1
  Ti  Ti24  1  0.16720900  0.33512000  0.81498500  1
  Ti  Ti25  1  0.66720900  0.16488000  0.81498500  1
  Ti  Ti26  1  0.83279100  0.33512000  0.18501500  1
  Ti  Ti27  1  0.14493000  0.16469200  0.47124400  1
  O  O28  1  0.34693800  0.50000000  0.66287500  1
  O  O29  1  0.30813250  0.82998750  0.94861900  1
  O  O30  1  0.35024900  0.50000000  0.39268100  1
  O  O31  1  0.14975100  0.00000000  0.60731900  1
  O  O32  1  0.15137200  0.66632100  0.60557300  1
  O  O33  1  0.19186750  0.67001250  0.05138100  1
  O  O34  1  0.19186750  0.32998750  0.05138100  1
  O  O35  1  0.45369350  0.66678450  0.26989400  1
  O  O36  1  0.95369350  0.83321550  0.26989400  1
  O  O37  1  0.95477800  0.50000000  0.27864700  1
  O  O38  1  0.35005650  0.17103250  0.67028300  1
  O  O39  1  0.35005650  0.82896750  0.67028300  1
  O  O40  1  0.15306200  0.00000000  0.33712500  1
  O  O41  1  0.14994350  0.67103250  0.32971700  1
  O  O42  1  0.54630650  0.66678450  0.73010600  1
  O  O43  1  0.04630650  0.83321550  0.73010600  1
  O  O44  1  0.54522200  0.00000000  0.72135300  1
  O  O45  1  0.30813250  0.17001250  0.94861900  1
  O  O46  1  0.80514700  0.00000000  0.94652700  1
  O  O47  1  0.84862800  0.66632100  0.39442700  1
  O  O48  1  0.34862800  0.83367900  0.39442700  1
  O  O49  1  0.65137200  0.83367900  0.60557300  1
  O  O50  1  0.69485300  0.50000000  0.05347300  1
  O  O51  1  0.14994350  0.32896750  0.32971700  1
  O  O52  1  0.84693800  0.00000000  0.66287500  1
  O  O53  1  0.80813250  0.32998750  0.94861900  1
  O  O54  1  0.85024900  0.00000000  0.39268100  1
  O  O55  1  0.64975100  0.50000000  0.60731900  1
  O  O56  1  0.65137200  0.16632100  0.60557300  1
  O  O57  1  0.69186750  0.17001250  0.05138100  1
  O  O58  1  0.69186750  0.82998750  0.05138100  1
  O  O59  1  0.95369350  0.16678450  0.26989400  1
  O  O60  1  0.45369350  0.33321550  0.26989400  1
  O  O61  1  0.45477800  0.00000000  0.27864700  1
  O  O62  1  0.85005650  0.67103250  0.67028300  1
  O  O63  1  0.85005650  0.32896750  0.67028300  1
  O  O64  1  0.65306200  0.50000000  0.33712500  1
  O  O65  1  0.64994350  0.17103250  0.32971700  1
  O  O66  1  0.04630650  0.16678450  0.73010600  1
  O  O67  1  0.54630650  0.33321550  0.73010600  1
  O  O68  1  0.04522200  0.50000000  0.72135300  1
  O  O69  1  0.80813250  0.67001250  0.94861900  1
  O  O70  1  0.30514700  0.50000000  0.94652700  1
  O  O71  1  0.34862800  0.16632100  0.39442700  1
  O  O72  1  0.84862800  0.33367900  0.39442700  1
  O  O73  1  0.15137200  0.33367900  0.60557300  1
  O  O74  1  0.19485300  0.00000000  0.05347300  1
  O  O75  1  0.64994350  0.82896750  0.32971700  1
