# generated using pymatgen
data_Nb3Zn3N
_symmetry_space_group_name_H-M   'P 1'
_cell_length_a   11.73633000
_cell_length_b   11.73633000
_cell_length_c   11.73633000
_cell_angle_alpha   90.00000000
_cell_angle_beta   90.00000000
_cell_angle_gamma   90.00000000
_symmetry_Int_Tables_number   1
_chemical_formula_structural   Nb3Zn3N
_chemical_formula_sum   'Nb48 Zn48 N16'
_cell_volume   1616.57901645
_cell_formula_units_Z   16
loop_
 _symmetry_equiv_pos_site_id
 _symmetry_equiv_pos_as_xyz
  1  'x, y, z'
loop_
 _atom_site_type_symbol
 _atom_site_label
 _atom_site_symmetry_multiplicity
 _atom_site_fract_x
 _atom_site_fract_y
 _atom_site_fract_z
 _atom_site_occupancy
  Nb  Nb0  1  0.25000000  0.75000000  0.43119000  1
  Nb  Nb1  1  0.25000000  0.56881000  0.25000000  1
  Nb  Nb2  1  0.06881000  0.75000000  0.25000000  1
  Nb  Nb3  1  0.25000000  0.75000000  0.06881000  1
  Nb  Nb4  1  0.25000000  0.93119000  0.25000000  1
  Nb  Nb5  1  0.43119000  0.75000000  0.25000000  1
  Nb  Nb6  1  0.00000000  0.00000000  0.31881000  1
  Nb  Nb7  1  0.50000000  0.68119000  0.50000000  1
  Nb  Nb8  1  0.18119000  0.00000000  0.50000000  1
  Nb  Nb9  1  0.50000000  0.00000000  0.18119000  1
  Nb  Nb10  1  0.50000000  0.31881000  0.50000000  1
  Nb  Nb11  1  0.81881000  0.00000000  0.50000000  1
  Nb  Nb12  1  0.25000000  0.25000000  0.93119000  1
  Nb  Nb13  1  0.25000000  0.06881000  0.75000000  1
  Nb  Nb14  1  0.06881000  0.25000000  0.75000000  1
  Nb  Nb15  1  0.25000000  0.25000000  0.56881000  1
  Nb  Nb16  1  0.25000000  0.43119000  0.75000000  1
  Nb  Nb17  1  0.43119000  0.25000000  0.75000000  1
  Nb  Nb18  1  0.00000000  0.50000000  0.81881000  1
  Nb  Nb19  1  0.50000000  0.18119000  0.00000000  1
  Nb  Nb20  1  0.18119000  0.50000000  0.00000000  1
  Nb  Nb21  1  0.50000000  0.50000000  0.68119000  1
  Nb  Nb22  1  0.50000000  0.81881000  0.00000000  1
  Nb  Nb23  1  0.81881000  0.50000000  0.00000000  1
  Nb  Nb24  1  0.75000000  0.75000000  0.93119000  1
  Nb  Nb25  1  0.75000000  0.56881000  0.75000000  1
  Nb  Nb26  1  0.56881000  0.75000000  0.75000000  1
  Nb  Nb27  1  0.75000000  0.75000000  0.56881000  1
  Nb  Nb28  1  0.75000000  0.93119000  0.75000000  1
  Nb  Nb29  1  0.93119000  0.75000000  0.75000000  1
  Nb  Nb30  1  0.50000000  0.00000000  0.81881000  1
  Nb  Nb31  1  0.00000000  0.68119000  0.00000000  1
  Nb  Nb32  1  0.68119000  0.00000000  0.00000000  1
  Nb  Nb33  1  0.00000000  0.00000000  0.68119000  1
  Nb  Nb34  1  0.00000000  0.31881000  0.00000000  1
  Nb  Nb35  1  0.31881000  0.00000000  0.00000000  1
  Nb  Nb36  1  0.75000000  0.25000000  0.43119000  1
  Nb  Nb37  1  0.75000000  0.06881000  0.25000000  1
  Nb  Nb38  1  0.56881000  0.25000000  0.25000000  1
  Nb  Nb39  1  0.75000000  0.25000000  0.06881000  1
  Nb  Nb40  1  0.75000000  0.43119000  0.25000000  1
  Nb  Nb41  1  0.93119000  0.25000000  0.25000000  1
  Nb  Nb42  1  0.50000000  0.50000000  0.31881000  1
  Nb  Nb43  1  0.00000000  0.18119000  0.50000000  1
  Nb  Nb44  1  0.68119000  0.50000000  0.50000000  1
  Nb  Nb45  1  0.00000000  0.50000000  0.18119000  1
  Nb  Nb46  1  0.00000000  0.81881000  0.50000000  1
  Nb  Nb47  1  0.31881000  0.50000000  0.50000000  1
  Zn  Zn48  1  0.16774733  0.16774733  0.33225267  1
  Zn  Zn49  1  0.16774733  0.33225267  0.16774733  1
  Zn  Zn50  1  0.33225267  0.16774733  0.16774733  1
  Zn  Zn51  1  0.33225267  0.33225267  0.33225267  1
  Zn  Zn52  1  0.58225267  0.08225267  0.41774733  1
  Zn  Zn53  1  0.08225267  0.91774733  0.08225267  1
  Zn  Zn54  1  0.91774733  0.08225267  0.08225267  1
  Zn  Zn55  1  0.41774733  0.91774733  0.41774733  1
  Zn  Zn56  1  0.87500000  0.87500000  0.12500000  1
  Zn  Zn57  1  0.37500000  0.12500000  0.37500000  1
  Zn  Zn58  1  0.62500000  0.87500000  0.37500000  1
  Zn  Zn59  1  0.12500000  0.12500000  0.12500000  1
  Zn  Zn60  1  0.16774733  0.66774733  0.83225267  1
  Zn  Zn61  1  0.16774733  0.83225267  0.66774733  1
  Zn  Zn62  1  0.33225267  0.66774733  0.66774733  1
  Zn  Zn63  1  0.33225267  0.83225267  0.83225267  1
  Zn  Zn64  1  0.58225267  0.58225267  0.91774733  1
  Zn  Zn65  1  0.08225267  0.41774733  0.58225267  1
  Zn  Zn66  1  0.91774733  0.58225267  0.58225267  1
  Zn  Zn67  1  0.41774733  0.41774733  0.91774733  1
  Zn  Zn68  1  0.87500000  0.37500000  0.62500000  1
  Zn  Zn69  1  0.37500000  0.62500000  0.87500000  1
  Zn  Zn70  1  0.62500000  0.37500000  0.87500000  1
  Zn  Zn71  1  0.12500000  0.62500000  0.62500000  1
  Zn  Zn72  1  0.66774733  0.16774733  0.83225267  1
  Zn  Zn73  1  0.66774733  0.33225267  0.66774733  1
  Zn  Zn74  1  0.83225267  0.16774733  0.66774733  1
  Zn  Zn75  1  0.83225267  0.33225267  0.83225267  1
  Zn  Zn76  1  0.08225267  0.08225267  0.91774733  1
  Zn  Zn77  1  0.58225267  0.91774733  0.58225267  1
  Zn  Zn78  1  0.41774733  0.08225267  0.58225267  1
  Zn  Zn79  1  0.91774733  0.91774733  0.91774733  1
  Zn  Zn80  1  0.37500000  0.87500000  0.62500000  1
  Zn  Zn81  1  0.87500000  0.12500000  0.87500000  1
  Zn  Zn82  1  0.12500000  0.87500000  0.87500000  1
  Zn  Zn83  1  0.62500000  0.12500000  0.62500000  1
  Zn  Zn84  1  0.66774733  0.66774733  0.33225267  1
  Zn  Zn85  1  0.66774733  0.83225267  0.16774733  1
  Zn  Zn86  1  0.83225267  0.66774733  0.16774733  1
  Zn  Zn87  1  0.83225267  0.83225267  0.33225267  1
  Zn  Zn88  1  0.08225267  0.58225267  0.41774733  1
  Zn  Zn89  1  0.58225267  0.41774733  0.08225267  1
  Zn  Zn90  1  0.41774733  0.58225267  0.08225267  1
  Zn  Zn91  1  0.91774733  0.41774733  0.41774733  1
  Zn  Zn92  1  0.37500000  0.37500000  0.12500000  1
  Zn  Zn93  1  0.87500000  0.62500000  0.37500000  1
  Zn  Zn94  1  0.12500000  0.37500000  0.37500000  1
  Zn  Zn95  1  0.62500000  0.62500000  0.12500000  1
  N  N96  1  0.37500000  0.87500000  0.12500000  1
  N  N97  1  0.37500000  0.62500000  0.37500000  1
  N  N98  1  0.12500000  0.87500000  0.37500000  1
  N  N99  1  0.12500000  0.62500000  0.12500000  1
  N  N100  1  0.37500000  0.37500000  0.62500000  1
  N  N101  1  0.37500000  0.12500000  0.87500000  1
  N  N102  1  0.12500000  0.37500000  0.87500000  1
  N  N103  1  0.12500000  0.12500000  0.62500000  1
  N  N104  1  0.87500000  0.87500000  0.62500000  1
  N  N105  1  0.87500000  0.62500000  0.87500000  1
  N  N106  1  0.62500000  0.87500000  0.87500000  1
  N  N107  1  0.62500000  0.62500000  0.62500000  1
  N  N108  1  0.87500000  0.37500000  0.12500000  1
  N  N109  1  0.87500000  0.12500000  0.37500000  1
  N  N110  1  0.62500000  0.37500000  0.37500000  1
  N  N111  1  0.62500000  0.12500000  0.12500000  1
