# generated using pymatgen
data_Ni6OF11
_symmetry_space_group_name_H-M   'P 1'
_cell_length_a   6.66214800
_cell_length_b   19.90672600
_cell_length_c   3.08490300
_cell_angle_alpha   90.00000000
_cell_angle_beta   90.00000000
_cell_angle_gamma   90.00000000
_symmetry_Int_Tables_number   1
_chemical_formula_structural   Ni6OF11
_chemical_formula_sum   'Ni12 O2 F22'
_cell_volume   409.12463229
_cell_formula_units_Z   2
loop_
 _symmetry_equiv_pos_site_id
 _symmetry_equiv_pos_as_xyz
  1  'x, y, z'
loop_
 _atom_site_type_symbol
 _atom_site_label
 _atom_site_symmetry_multiplicity
 _atom_site_fract_x
 _atom_site_fract_y
 _atom_site_fract_z
 _atom_site_occupancy
  Ni  Ni0  1  0.50000000  0.49938700  0.00000000  1
  Ni  Ni1  1  0.50000000  0.00212600  0.50000000  1
  Ni  Ni2  1  0.50000000  0.33170400  0.50000000  1
  Ni  Ni3  1  0.50000000  0.16269700  0.00000000  1
  Ni  Ni4  1  0.00000000  0.33504800  0.00000000  1
  Ni  Ni5  1  0.00000000  0.16746800  0.50000000  1
  Ni  Ni6  1  0.00000000  0.99938700  0.00000000  1
  Ni  Ni7  1  0.00000000  0.50212600  0.50000000  1
  Ni  Ni8  1  0.00000000  0.83170400  0.50000000  1
  Ni  Ni9  1  0.00000000  0.66269700  0.00000000  1
  Ni  Ni10  1  0.50000000  0.83504800  0.00000000  1
  Ni  Ni11  1  0.50000000  0.66746800  0.50000000  1
  O  O12  1  0.50000000  0.10158500  0.50000000  1
  O  O13  1  0.00000000  0.60158500  0.50000000  1
  F  F14  1  0.50000000  0.43362300  0.50000000  1
  F  F15  1  0.30172200  0.00027300  0.00000000  1
  F  F16  1  0.19561550  0.16674750  0.00000000  1
  F  F17  1  0.69827800  0.00027300  0.00000000  1
  F  F18  1  0.69674050  0.33289350  0.00000000  1
  F  F19  1  0.00000000  0.40060800  0.50000000  1
  F  F20  1  0.50000000  0.23083500  0.50000000  1
  F  F21  1  0.00000000  0.26903700  0.50000000  1
  F  F22  1  0.80438450  0.16674750  0.00000000  1
  F  F23  1  0.30325950  0.33289350  0.00000000  1
  F  F24  1  0.00000000  0.06580000  0.50000000  1
  F  F25  1  0.00000000  0.93362300  0.50000000  1
  F  F26  1  0.80172200  0.50027300  0.00000000  1
  F  F27  1  0.69561550  0.66674750  0.00000000  1
  F  F28  1  0.19827800  0.50027300  0.00000000  1
  F  F29  1  0.19674050  0.83289350  0.00000000  1
  F  F30  1  0.50000000  0.90060800  0.50000000  1
  F  F31  1  0.00000000  0.73083500  0.50000000  1
  F  F32  1  0.50000000  0.76903700  0.50000000  1
  F  F33  1  0.30438450  0.66674750  0.00000000  1
  F  F34  1  0.80325950  0.83289350  0.00000000  1
  F  F35  1  0.50000000  0.56580000  0.50000000  1
