# generated using pymatgen
data_Li5Fe2Cu5O12
_symmetry_space_group_name_H-M   'P 1'
_cell_length_a   5.50298807
_cell_length_b   8.49802699
_cell_length_c   9.71302780
_cell_angle_alpha   90.00000000
_cell_angle_beta   92.11151812
_cell_angle_gamma   90.00000000
_symmetry_Int_Tables_number   1
_chemical_formula_structural   Li5Fe2Cu5O12
_chemical_formula_sum   'Li10 Fe4 Cu10 O24'
_cell_volume   453.91687300
_cell_formula_units_Z   2
loop_
 _symmetry_equiv_pos_site_id
 _symmetry_equiv_pos_as_xyz
  1  'x, y, z'
loop_
 _atom_site_type_symbol
 _atom_site_label
 _atom_site_symmetry_multiplicity
 _atom_site_fract_x
 _atom_site_fract_y
 _atom_site_fract_z
 _atom_site_occupancy
  Li  Li0  1  0.74849800  0.08384800  0.24362900  1
  Li  Li1  1  0.76144200  0.91506400  0.75497600  1
  Li  Li2  1  0.25150200  0.08384800  0.75637100  1
  Li  Li3  1  0.23855800  0.91506400  0.24502400  1
  Li  Li4  1  0.50000000  0.58628100  0.00000000  1
  Li  Li5  1  0.24849800  0.58384800  0.24362900  1
  Li  Li6  1  0.26144200  0.41506400  0.75497600  1
  Li  Li7  1  0.75150200  0.58384800  0.75637100  1
  Li  Li8  1  0.73855800  0.41506400  0.24502400  1
  Li  Li9  1  0.00000000  0.08628100  0.00000000  1
  Fe  Fe10  1  0.50000000  0.25521600  0.00000000  1
  Fe  Fe11  1  0.50000000  0.75067300  0.50000000  1
  Fe  Fe12  1  0.00000000  0.75521600  0.00000000  1
  Fe  Fe13  1  0.00000000  0.25067300  0.50000000  1
  Cu  Cu14  1  0.50000000  0.42212900  0.50000000  1
  Cu  Cu15  1  0.26076450  0.74578950  0.75091300  1
  Cu  Cu16  1  0.73923550  0.74578950  0.24908700  1
  Cu  Cu17  1  0.50000000  0.07977000  0.50000000  1
  Cu  Cu18  1  0.50000000  0.91611600  0.00000000  1
  Cu  Cu19  1  0.00000000  0.92212900  0.50000000  1
  Cu  Cu20  1  0.76076450  0.24578950  0.75091300  1
  Cu  Cu21  1  0.23923550  0.24578950  0.24908700  1
  Cu  Cu22  1  0.00000000  0.57977000  0.50000000  1
  Cu  Cu23  1  0.00000000  0.41611600  0.00000000  1
  O  O24  1  0.11449700  0.90155800  0.86393800  1
  O  O25  1  0.88550300  0.90155800  0.13606200  1
  O  O26  1  0.65085300  0.24912400  0.40111400  1
  O  O27  1  0.34914700  0.24912400  0.59888600  1
  O  O28  1  0.61030100  0.08505600  0.87993700  1
  O  O29  1  0.38969900  0.08505600  0.12006300  1
  O  O30  1  0.60017600  0.91773400  0.37199900  1
  O  O31  1  0.39982400  0.91773400  0.62800100  1
  O  O32  1  0.66591100  0.75944100  0.89797000  1
  O  O33  1  0.33408900  0.75944100  0.10203000  1
  O  O34  1  0.09516050  0.08729350  0.36590700  1
  O  O35  1  0.90483950  0.08729350  0.63409300  1
  O  O36  1  0.61449700  0.40155800  0.86393800  1
  O  O37  1  0.38550300  0.40155800  0.13606200  1
  O  O38  1  0.15085300  0.74912400  0.40111400  1
  O  O39  1  0.84914700  0.74912400  0.59888600  1
  O  O40  1  0.11030100  0.58505600  0.87993700  1
  O  O41  1  0.88969900  0.58505600  0.12006300  1
  O  O42  1  0.10017600  0.41773400  0.37199900  1
  O  O43  1  0.89982400  0.41773400  0.62800100  1
  O  O44  1  0.16591100  0.25944100  0.89797000  1
  O  O45  1  0.83408900  0.25944100  0.10203000  1
  O  O46  1  0.59516050  0.58729350  0.36590700  1
  O  O47  1  0.40483950  0.58729350  0.63409300  1
