# generated using pymatgen
data_LiMnVP2(HO5)2
_symmetry_space_group_name_H-M   'P 1'
_cell_length_a   5.33892570
_cell_length_b   7.34529361
_cell_length_c   10.45463693
_cell_angle_alpha   106.72832238
_cell_angle_beta   95.04106145
_cell_angle_gamma   110.54899915
_symmetry_Int_Tables_number   1
_chemical_formula_structural   LiMnVP2(HO5)2
_chemical_formula_sum   'Li2 Mn2 V2 P4 H4 O20'
_cell_volume   359.40573375
_cell_formula_units_Z   2
loop_
 _symmetry_equiv_pos_site_id
 _symmetry_equiv_pos_as_xyz
  1  'x, y, z'
loop_
 _atom_site_type_symbol
 _atom_site_label
 _atom_site_symmetry_multiplicity
 _atom_site_fract_x
 _atom_site_fract_y
 _atom_site_fract_z
 _atom_site_occupancy
  Li  Li0  1  0.56228872  0.15207737  0.78256267  1
  Li  Li1  1  0.43771128  0.84792263  0.21743733  1
  Mn  Mn2  1  0.99961917  0.99414475  0.74739998  1
  Mn  Mn3  1  0.00038083  0.00585525  0.25260002  1
  V  V4  1  0.50000000  0.50000000  0.50000000  1
  V  V5  1  0.50000000  0.50000000  0.00000000  1
  P  P6  1  0.12935377  0.77526498  0.02567427  1
  P  P7  1  0.12151984  0.76811745  0.52718542  1
  P  P8  1  0.87064623  0.22473502  0.97432573  1
  P  P9  1  0.87848016  0.23188255  0.47281458  1
  H  H10  1  0.71890596  0.65753920  0.24606842  1
  H  H11  1  0.69349386  0.66011367  0.74274094  1
  H  H12  1  0.28109404  0.34246080  0.75393158  1
  H  H13  1  0.30650614  0.33988633  0.25725906  1
  O  O14  1  0.32552447  0.27708335  0.68563826  1
  O  O15  1  0.70062970  0.35761133  0.43571778  1
  O  O16  1  0.80431237  0.61929033  0.58479837  1
  O  O17  1  0.31160330  0.28497503  0.17924632  1
  O  O18  1  0.17903121  0.92580238  0.10971991  1
  O  O19  1  0.17788361  0.93184489  0.59900595  1
  O  O20  1  0.20661834  0.86452695  0.37283260  1
  O  O21  1  0.79338166  0.13547305  0.62716740  1
  O  O22  1  0.68895058  0.34399423  0.93307114  1
  O  O23  1  0.81406318  0.62416418  0.07624474  1
  O  O24  1  0.19568763  0.38070967  0.41520163  1
  O  O25  1  0.29937030  0.64238867  0.56428222  1
  O  O26  1  0.22775144  0.89167666  0.87357424  1
  O  O27  1  0.77224856  0.10832334  0.12642576  1
  O  O28  1  0.82096879  0.07419762  0.89028009  1
  O  O29  1  0.82211639  0.06815511  0.40099405  1
  O  O30  1  0.67447553  0.72291665  0.31436174  1
  O  O31  1  0.18593682  0.37583582  0.92375526  1
  O  O32  1  0.31104942  0.65600577  0.06692886  1
  O  O33  1  0.68839670  0.71502497  0.82075368  1
