# generated using pymatgen
data_Li2Nb2(PO4)3
_symmetry_space_group_name_H-M   'P 1'
_cell_length_a   15.24971800
_cell_length_b   9.18516800
_cell_length_c   8.89733165
_cell_angle_alpha   90.00000000
_cell_angle_beta   125.23023204
_cell_angle_gamma   90.00000000
_symmetry_Int_Tables_number   1
_chemical_formula_structural   Li2Nb2(PO4)3
_chemical_formula_sum   'Li8 Nb8 P12 O48'
_cell_volume   1017.99589869
_cell_formula_units_Z   4
loop_
 _symmetry_equiv_pos_site_id
 _symmetry_equiv_pos_as_xyz
  1  'x, y, z'
loop_
 _atom_site_type_symbol
 _atom_site_label
 _atom_site_symmetry_multiplicity
 _atom_site_fract_x
 _atom_site_fract_y
 _atom_site_fract_z
 _atom_site_occupancy
  Li  Li0  1  0.75376300  0.43113700  0.45194700  1
  Li  Li1  1  0.24623700  0.43113700  0.04805300  1
  Li  Li2  1  0.75376300  0.56886300  0.95194700  1
  Li  Li3  1  0.24623700  0.56886300  0.54805300  1
  Li  Li4  1  0.25376300  0.93113700  0.45194700  1
  Li  Li5  1  0.74623700  0.93113700  0.04805300  1
  Li  Li6  1  0.25376300  0.06886300  0.95194700  1
  Li  Li7  1  0.74623700  0.06886300  0.54805300  1
  Nb  Nb8  1  0.11053850  0.25012350  0.14203100  1
  Nb  Nb9  1  0.88946150  0.25012350  0.35796900  1
  Nb  Nb10  1  0.11053850  0.74987650  0.64203100  1
  Nb  Nb11  1  0.88946150  0.74987650  0.85796900  1
  Nb  Nb12  1  0.61053850  0.75012350  0.14203100  1
  Nb  Nb13  1  0.38946150  0.75012350  0.35796900  1
  Nb  Nb14  1  0.61053850  0.24987650  0.64203100  1
  Nb  Nb15  1  0.38946150  0.24987650  0.85796900  1
  P  P16  1  0.00000000  0.46584400  0.75000000  1
  P  P17  1  0.00000000  0.53415600  0.25000000  1
  P  P18  1  0.64526150  0.40198150  0.03692900  1
  P  P19  1  0.35473850  0.40198150  0.46307100  1
  P  P20  1  0.64526150  0.59801850  0.53692900  1
  P  P21  1  0.35473850  0.59801850  0.96307100  1
  P  P22  1  0.50000000  0.96584400  0.75000000  1
  P  P23  1  0.50000000  0.03415600  0.25000000  1
  P  P24  1  0.14526150  0.90198150  0.03692900  1
  P  P25  1  0.85473850  0.90198150  0.46307100  1
  P  P26  1  0.14526150  0.09801850  0.53692900  1
  P  P27  1  0.85473850  0.09801850  0.96307100  1
  O  O28  1  0.93635400  0.43735800  0.29773000  1
  O  O29  1  0.03731550  0.15115350  0.48861100  1
  O  O30  1  0.08609700  0.37012000  0.91311000  1
  O  O31  1  0.33309000  0.63484900  0.10905000  1
  O  O32  1  0.93635400  0.56264200  0.79773000  1
  O  O33  1  0.91390300  0.37012000  0.58689000  1
  O  O34  1  0.65864850  0.57108050  0.05488200  1
  O  O35  1  0.73334950  0.33693350  0.22908300  1
  O  O36  1  0.34135150  0.57108050  0.44511800  1
  O  O37  1  0.66691000  0.63484900  0.39095000  1
  O  O38  1  0.73334950  0.66306650  0.72908300  1
  O  O39  1  0.96268450  0.15115350  0.01138900  1
  O  O40  1  0.03731550  0.84884650  0.98861100  1
  O  O41  1  0.26665050  0.33693350  0.27091700  1
  O  O42  1  0.33309000  0.36515100  0.60905000  1
  O  O43  1  0.65864850  0.42891950  0.55488200  1
  O  O44  1  0.26665050  0.66306650  0.77091700  1
  O  O45  1  0.34135150  0.42891950  0.94511800  1
  O  O46  1  0.08609700  0.62988000  0.41311000  1
  O  O47  1  0.06364600  0.43735800  0.20227000  1
  O  O48  1  0.66691000  0.36515100  0.89095000  1
  O  O49  1  0.91390300  0.62988000  0.08689000  1
  O  O50  1  0.96268450  0.84884650  0.51138900  1
  O  O51  1  0.06364600  0.56264200  0.70227000  1
  O  O52  1  0.43635400  0.93735800  0.29773000  1
  O  O53  1  0.53731550  0.65115350  0.48861100  1
  O  O54  1  0.58609700  0.87012000  0.91311000  1
  O  O55  1  0.83309000  0.13484900  0.10905000  1
  O  O56  1  0.43635400  0.06264200  0.79773000  1
  O  O57  1  0.41390300  0.87012000  0.58689000  1
  O  O58  1  0.15864850  0.07108050  0.05488200  1
  O  O59  1  0.23334950  0.83693350  0.22908300  1
  O  O60  1  0.84135150  0.07108050  0.44511800  1
  O  O61  1  0.16691000  0.13484900  0.39095000  1
  O  O62  1  0.23334950  0.16306650  0.72908300  1
  O  O63  1  0.46268450  0.65115350  0.01138900  1
  O  O64  1  0.53731550  0.34884650  0.98861100  1
  O  O65  1  0.76665050  0.83693350  0.27091700  1
  O  O66  1  0.83309000  0.86515100  0.60905000  1
  O  O67  1  0.15864850  0.92891950  0.55488200  1
  O  O68  1  0.76665050  0.16306650  0.77091700  1
  O  O69  1  0.84135150  0.92891950  0.94511800  1
  O  O70  1  0.58609700  0.12988000  0.41311000  1
  O  O71  1  0.56364600  0.93735800  0.20227000  1
  O  O72  1  0.16691000  0.86515100  0.89095000  1
  O  O73  1  0.41390300  0.12988000  0.08689000  1
  O  O74  1  0.46268450  0.34884650  0.51138900  1
  O  O75  1  0.56364600  0.06264200  0.70227000  1
