# generated using pymatgen
data_Ti11H7O24
_symmetry_space_group_name_H-M   'P 1'
_cell_length_a   9.81478600
_cell_length_b   3.01129400
_cell_length_c   14.75625232
_cell_angle_alpha   90.00000000
_cell_angle_beta   90.45599470
_cell_angle_gamma   90.00000000
_symmetry_Int_Tables_number   1
_chemical_formula_structural   Ti11H7O24
_chemical_formula_sum   'Ti11 H7 O24'
_cell_volume   436.11026822
_cell_formula_units_Z   1
loop_
 _symmetry_equiv_pos_site_id
 _symmetry_equiv_pos_as_xyz
  1  'x, y, z'
loop_
 _atom_site_type_symbol
 _atom_site_label
 _atom_site_symmetry_multiplicity
 _atom_site_fract_x
 _atom_site_fract_y
 _atom_site_fract_z
 _atom_site_occupancy
  Ti  Ti0  1  0.14365500  0.00000000  0.66044400  1
  Ti  Ti1  1  0.14654400  0.00000000  0.98284700  1
  Ti  Ti2  1  0.34231800  0.50000000  0.16305200  1
  Ti  Ti3  1  0.33677800  0.50000000  0.48520900  1
  Ti  Ti4  1  0.36582000  0.50000000  0.82088500  1
  Ti  Ti5  1  0.65671600  0.00000000  0.17896100  1
  Ti  Ti6  1  0.63483400  0.00000000  0.50393100  1
  Ti  Ti7  1  0.63100600  0.00000000  0.84261600  1
  Ti  Ti8  1  0.85193600  0.50000000  0.67851800  1
  Ti  Ti9  1  0.85896300  0.50000000  0.00342400  1
  Ti  Ti10  1  0.87637900  0.50000000  0.34236100  1
  H  H11  1  0.99239700  0.00000000  0.14048900  1
  H  H12  1  0.06254100  0.00000000  0.41418400  1
  H  H13  1  0.52880600  0.50000000  0.30377800  1
  H  H14  1  0.53588700  0.50000000  0.64236700  1
  H  H15  1  0.47914300  0.00000000  0.03208300  1
  H  H16  1  0.96908600  0.50000000  0.18779500  1
  H  H17  1  0.02726800  0.50000000  0.52634700  1
  O  O18  1  0.03409400  0.50000000  0.93781300  1
  O  O19  1  0.00213500  0.50000000  0.25014900  1
  O  O20  1  0.03133900  0.50000000  0.59291000  1
  O  O21  1  0.22635300  0.50000000  0.05974400  1
  O  O22  1  0.21616500  0.50000000  0.73168500  1
  O  O23  1  0.19609600  0.50000000  0.41913200  1
  O  O24  1  0.28431500  0.00000000  0.22109700  1
  O  O25  1  0.27386600  0.00000000  0.57081600  1
  O  O26  1  0.28288000  0.00000000  0.89516400  1
  O  O27  1  0.45797900  0.00000000  0.43950700  1
  O  O28  1  0.47281300  0.00000000  0.09850800  1
  O  O29  1  0.46427000  0.00000000  0.76260800  1
  O  O30  1  0.53283200  0.50000000  0.23729500  1
  O  O31  1  0.53729700  0.50000000  0.90152900  1
  O  O32  1  0.53645500  0.50000000  0.57596800  1
  O  O33  1  0.73566100  0.50000000  0.11040800  1
  O  O34  1  0.70972400  0.50000000  0.44119300  1
  O  O35  1  0.71937500  0.50000000  0.77108500  1
  O  O36  1  0.76649600  0.00000000  0.28271500  1
  O  O37  1  0.77490300  0.00000000  0.94072800  1
  O  O38  1  0.76868600  0.00000000  0.60525900  1
  O  O39  1  0.95793900  0.00000000  0.72601400  1
  O  O40  1  0.97189700  0.00000000  0.07532500  1
  O  O41  1  0.96062600  0.00000000  0.41492700  1
