# generated using pymatgen
data_Mn2O3F
_symmetry_space_group_name_H-M   'P 1'
_cell_length_a   6.32084400
_cell_length_b   6.64883600
_cell_length_c   15.15738500
_cell_angle_alpha   90.00000000
_cell_angle_beta   90.00000000
_cell_angle_gamma   90.00000000
_symmetry_Int_Tables_number   1
_chemical_formula_structural   Mn2O3F
_chemical_formula_sum   'Mn20 O30 F10'
_cell_volume   637.00812923
_cell_formula_units_Z   10
loop_
 _symmetry_equiv_pos_site_id
 _symmetry_equiv_pos_as_xyz
  1  'x, y, z'
loop_
 _atom_site_type_symbol
 _atom_site_label
 _atom_site_symmetry_multiplicity
 _atom_site_fract_x
 _atom_site_fract_y
 _atom_site_fract_z
 _atom_site_occupancy
  Mn  Mn0  1  0.50000000  0.50145800  0.69957100  1
  Mn  Mn1  1  0.50000000  0.51195600  0.50000000  1
  Mn  Mn2  1  0.50000000  0.50145800  0.30042900  1
  Mn  Mn3  1  0.50000000  0.48389500  0.89947800  1
  Mn  Mn4  1  0.50000000  0.48389500  0.10052200  1
  Mn  Mn5  1  0.50000000  0.01927800  0.79993800  1
  Mn  Mn6  1  0.50000000  0.97992600  0.39997400  1
  Mn  Mn7  1  0.50000000  0.97992600  0.60002600  1
  Mn  Mn8  1  0.50000000  0.01927800  0.20006200  1
  Mn  Mn9  1  0.50000000  0.01468500  0.00000000  1
  Mn  Mn10  1  0.00000000  0.00145800  0.69957100  1
  Mn  Mn11  1  0.00000000  0.01195600  0.50000000  1
  Mn  Mn12  1  0.00000000  0.00145800  0.30042900  1
  Mn  Mn13  1  0.00000000  0.98389500  0.89947800  1
  Mn  Mn14  1  0.00000000  0.98389500  0.10052200  1
  Mn  Mn15  1  0.00000000  0.51927800  0.79993800  1
  Mn  Mn16  1  0.00000000  0.47992600  0.39997400  1
  Mn  Mn17  1  0.00000000  0.47992600  0.60002600  1
  Mn  Mn18  1  0.00000000  0.51927800  0.20006200  1
  Mn  Mn19  1  0.00000000  0.51468500  0.00000000  1
  O  O20  1  0.50000000  0.30956600  0.19993500  1
  O  O21  1  0.50000000  0.30956600  0.80006500  1
  O  O22  1  0.50000000  0.30443300  0.00000000  1
  O  O23  1  0.30855450  0.00070650  0.30019500  1
  O  O24  1  0.30502600  0.98918200  0.50000000  1
  O  O25  1  0.30855450  0.00070650  0.69980500  1
  O  O26  1  0.30560150  0.00611250  0.90009700  1
  O  O27  1  0.30560150  0.00611250  0.09990300  1
  O  O28  1  0.69144550  0.00070650  0.30019500  1
  O  O29  1  0.69497400  0.98918200  0.50000000  1
  O  O30  1  0.69144550  0.00070650  0.69980500  1
  O  O31  1  0.69439850  0.00611250  0.90009700  1
  O  O32  1  0.69439850  0.00611250  0.09990300  1
  O  O33  1  0.50000000  0.69086700  0.39948300  1
  O  O34  1  0.50000000  0.69086700  0.60051700  1
  O  O35  1  0.00000000  0.80956600  0.19993500  1
  O  O36  1  0.00000000  0.80956600  0.80006500  1
  O  O37  1  0.00000000  0.80443300  0.00000000  1
  O  O38  1  0.80855450  0.50070650  0.30019500  1
  O  O39  1  0.80502600  0.48918200  0.50000000  1
  O  O40  1  0.80855450  0.50070650  0.69980500  1
  O  O41  1  0.80560150  0.50611250  0.90009700  1
  O  O42  1  0.80560150  0.50611250  0.09990300  1
  O  O43  1  0.19144550  0.50070650  0.30019500  1
  O  O44  1  0.19497400  0.48918200  0.50000000  1
  O  O45  1  0.19144550  0.50070650  0.69980500  1
  O  O46  1  0.19439850  0.50611250  0.90009700  1
  O  O47  1  0.19439850  0.50611250  0.09990300  1
  O  O48  1  0.00000000  0.19086700  0.39948300  1
  O  O49  1  0.00000000  0.19086700  0.60051700  1
  F  F50  1  0.50000000  0.29091300  0.40511100  1
  F  F51  1  0.50000000  0.29091300  0.59488900  1
  F  F52  1  0.50000000  0.71051400  0.80488100  1
  F  F53  1  0.50000000  0.71051400  0.19511900  1
  F  F54  1  0.50000000  0.69045500  0.00000000  1
  F  F55  1  0.00000000  0.79091300  0.40511100  1
  F  F56  1  0.00000000  0.79091300  0.59488900  1
  F  F57  1  0.00000000  0.21051400  0.80488100  1
  F  F58  1  0.00000000  0.21051400  0.19511900  1
  F  F59  1  0.00000000  0.19045500  0.00000000  1
