# generated using pymatgen
data_LiV(SiO3)2
_symmetry_space_group_name_H-M   'P 1'
_cell_length_a   7.03092346
_cell_length_b   7.37672372
_cell_length_c   7.48084203
_cell_angle_alpha   81.10789234
_cell_angle_beta   62.19192077
_cell_angle_gamma   77.57030657
_symmetry_Int_Tables_number   1
_chemical_formula_structural   LiV(SiO3)2
_chemical_formula_sum   'Li3 V3 Si6 O18'
_cell_volume   334.48416103
_cell_formula_units_Z   3
loop_
 _symmetry_equiv_pos_site_id
 _symmetry_equiv_pos_as_xyz
  1  'x, y, z'
loop_
 _atom_site_type_symbol
 _atom_site_label
 _atom_site_symmetry_multiplicity
 _atom_site_fract_x
 _atom_site_fract_y
 _atom_site_fract_z
 _atom_site_occupancy
  Li  Li0  1  0.58830000  0.79476600  0.74603500  1
  Li  Li1  1  0.50000000  0.50000000  0.50000000  1
  Li  Li2  1  0.41170000  0.20523400  0.25396500  1
  V  V3  1  0.05138400  0.77533000  0.75085500  1
  V  V4  1  0.00000000  0.50000000  0.50000000  1
  V  V5  1  0.94861600  0.22467000  0.24914500  1
  Si  Si6  1  0.75693900  0.83433800  0.28428500  1
  Si  Si7  1  0.31619300  0.83221400  0.25085000  1
  Si  Si8  1  0.79655300  0.39479700  0.97439200  1
  Si  Si9  1  0.20344700  0.60520300  0.02560800  1
  Si  Si10  1  0.68380700  0.16778600  0.74915000  1
  Si  Si11  1  0.24306100  0.16566200  0.71571500  1
  O  O12  1  0.79463400  0.95499600  0.75859000  1
  O  O13  1  0.24515200  0.95467000  0.68457800  1
  O  O14  1  0.55098400  0.83087400  0.24219800  1
  O  O15  1  0.97516100  0.76153800  0.07015200  1
  O  O16  1  0.75521400  0.68755100  0.47221200  1
  O  O17  1  0.85900300  0.56780800  0.80462900  1
  O  O18  1  0.17385100  0.70520400  0.45181000  1
  O  O19  1  0.28597200  0.57609500  0.78932400  1
  O  O20  1  0.36984900  0.71727000  0.05092200  1
  O  O21  1  0.63015100  0.28273000  0.94907800  1
  O  O22  1  0.71402800  0.42390500  0.21067600  1
  O  O23  1  0.82614900  0.29479600  0.54819000  1
  O  O24  1  0.14099700  0.43219200  0.19537100  1
  O  O25  1  0.24478600  0.31244900  0.52778800  1
  O  O26  1  0.02483900  0.23846200  0.92984800  1
  O  O27  1  0.44901600  0.16912600  0.75780200  1
  O  O28  1  0.75484800  0.04533000  0.31542200  1
  O  O29  1  0.20536600  0.04500400  0.24141000  1
