# generated using pymatgen
data_LiTiS2
_symmetry_space_group_name_H-M   'P 1'
_cell_length_a   10.05804000
_cell_length_b   10.05804000
_cell_length_c   10.05804000
_cell_angle_alpha   90.00000000
_cell_angle_beta   90.00000000
_cell_angle_gamma   90.00000000
_symmetry_Int_Tables_number   1
_chemical_formula_structural   LiTiS2
_chemical_formula_sum   'Li16 Ti16 S32'
_cell_volume   1017.51325476
_cell_formula_units_Z   16
loop_
 _symmetry_equiv_pos_site_id
 _symmetry_equiv_pos_as_xyz
  1  'x, y, z'
loop_
 _atom_site_type_symbol
 _atom_site_label
 _atom_site_symmetry_multiplicity
 _atom_site_fract_x
 _atom_site_fract_y
 _atom_site_fract_z
 _atom_site_occupancy
  Li  Li0  1  0.12500000  0.62500000  0.12500000  1
  Li  Li1  1  0.12500000  0.87500000  0.37500000  1
  Li  Li2  1  0.37500000  0.62500000  0.37500000  1
  Li  Li3  1  0.37500000  0.87500000  0.12500000  1
  Li  Li4  1  0.12500000  0.12500000  0.62500000  1
  Li  Li5  1  0.12500000  0.37500000  0.87500000  1
  Li  Li6  1  0.37500000  0.12500000  0.87500000  1
  Li  Li7  1  0.37500000  0.37500000  0.62500000  1
  Li  Li8  1  0.62500000  0.62500000  0.62500000  1
  Li  Li9  1  0.62500000  0.87500000  0.87500000  1
  Li  Li10  1  0.87500000  0.62500000  0.87500000  1
  Li  Li11  1  0.87500000  0.87500000  0.62500000  1
  Li  Li12  1  0.62500000  0.12500000  0.12500000  1
  Li  Li13  1  0.62500000  0.37500000  0.37500000  1
  Li  Li14  1  0.87500000  0.12500000  0.37500000  1
  Li  Li15  1  0.87500000  0.37500000  0.12500000  1
  Ti  Ti16  1  0.87500000  0.87500000  0.12500000  1
  Ti  Ti17  1  0.12500000  0.12500000  0.12500000  1
  Ti  Ti18  1  0.37500000  0.12500000  0.37500000  1
  Ti  Ti19  1  0.62500000  0.87500000  0.37500000  1
  Ti  Ti20  1  0.87500000  0.37500000  0.62500000  1
  Ti  Ti21  1  0.12500000  0.62500000  0.62500000  1
  Ti  Ti22  1  0.37500000  0.62500000  0.87500000  1
  Ti  Ti23  1  0.62500000  0.37500000  0.87500000  1
  Ti  Ti24  1  0.37500000  0.87500000  0.62500000  1
  Ti  Ti25  1  0.62500000  0.12500000  0.62500000  1
  Ti  Ti26  1  0.87500000  0.12500000  0.87500000  1
  Ti  Ti27  1  0.12500000  0.87500000  0.87500000  1
  Ti  Ti28  1  0.37500000  0.37500000  0.12500000  1
  Ti  Ti29  1  0.62500000  0.62500000  0.12500000  1
  Ti  Ti30  1  0.87500000  0.62500000  0.37500000  1
  Ti  Ti31  1  0.12500000  0.37500000  0.37500000  1
  S  S32  1  0.12782267  0.37217733  0.12782267  1
  S  S33  1  0.12782267  0.12782267  0.37217733  1
  S  S34  1  0.37217733  0.37217733  0.37217733  1
  S  S35  1  0.37217733  0.12782267  0.12782267  1
  S  S36  1  0.37782267  0.87782267  0.37782267  1
  S  S37  1  0.87782267  0.12217733  0.12217733  1
  S  S38  1  0.12217733  0.87782267  0.12217733  1
  S  S39  1  0.62217733  0.12217733  0.37782267  1
  S  S40  1  0.12782267  0.87217733  0.62782267  1
  S  S41  1  0.12782267  0.62782267  0.87217733  1
  S  S42  1  0.37217733  0.87217733  0.87217733  1
  S  S43  1  0.37217733  0.62782267  0.62782267  1
  S  S44  1  0.37782267  0.37782267  0.87782267  1
  S  S45  1  0.87782267  0.62217733  0.62217733  1
  S  S46  1  0.12217733  0.37782267  0.62217733  1
  S  S47  1  0.62217733  0.62217733  0.87782267  1
  S  S48  1  0.62782267  0.37217733  0.62782267  1
  S  S49  1  0.62782267  0.12782267  0.87217733  1
  S  S50  1  0.87217733  0.37217733  0.87217733  1
  S  S51  1  0.87217733  0.12782267  0.62782267  1
  S  S52  1  0.87782267  0.87782267  0.87782267  1
  S  S53  1  0.37782267  0.12217733  0.62217733  1
  S  S54  1  0.62217733  0.87782267  0.62217733  1
  S  S55  1  0.12217733  0.12217733  0.87782267  1
  S  S56  1  0.62782267  0.87217733  0.12782267  1
  S  S57  1  0.62782267  0.62782267  0.37217733  1
  S  S58  1  0.87217733  0.87217733  0.37217733  1
  S  S59  1  0.87217733  0.62782267  0.12782267  1
  S  S60  1  0.87782267  0.37782267  0.37782267  1
  S  S61  1  0.37782267  0.62217733  0.12217733  1
  S  S62  1  0.62217733  0.37782267  0.12217733  1
  S  S63  1  0.12217733  0.62217733  0.37782267  1
