# generated using pymatgen
data_Sr5Si3
_symmetry_space_group_name_H-M   'P 1'
_cell_length_a   8.07803400
_cell_length_b   8.07803400
_cell_length_c   15.87348800
_cell_angle_alpha   90.00000000
_cell_angle_beta   90.00000000
_cell_angle_gamma   90.00000000
_symmetry_Int_Tables_number   1
_chemical_formula_structural   Sr5Si3
_chemical_formula_sum   'Sr20 Si12'
_cell_volume   1035.81863871
_cell_formula_units_Z   4
loop_
 _symmetry_equiv_pos_site_id
 _symmetry_equiv_pos_as_xyz
  1  'x, y, z'
loop_
 _atom_site_type_symbol
 _atom_site_label
 _atom_site_symmetry_multiplicity
 _atom_site_fract_x
 _atom_site_fract_y
 _atom_site_fract_z
 _atom_site_occupancy
  Sr  Sr0  1  0.81999800  0.68000200  0.35897300  1
  Sr  Sr1  1  0.68000200  0.18000200  0.35897300  1
  Sr  Sr2  1  0.31999800  0.81999800  0.35897300  1
  Sr  Sr3  1  0.81999800  0.31999800  0.14102700  1
  Sr  Sr4  1  0.18000200  0.31999800  0.35897300  1
  Sr  Sr5  1  0.68000200  0.81999800  0.14102700  1
  Sr  Sr6  1  0.31999800  0.18000200  0.14102700  1
  Sr  Sr7  1  0.18000200  0.68000200  0.14102700  1
  Sr  Sr8  1  0.50000000  0.50000000  0.00000000  1
  Sr  Sr9  1  0.00000000  0.00000000  0.00000000  1
  Sr  Sr10  1  0.31999800  0.18000200  0.85897300  1
  Sr  Sr11  1  0.18000200  0.68000200  0.85897300  1
  Sr  Sr12  1  0.81999800  0.31999800  0.85897300  1
  Sr  Sr13  1  0.31999800  0.81999800  0.64102700  1
  Sr  Sr14  1  0.68000200  0.81999800  0.85897300  1
  Sr  Sr15  1  0.18000200  0.31999800  0.64102700  1
  Sr  Sr16  1  0.81999800  0.68000200  0.64102700  1
  Sr  Sr17  1  0.68000200  0.18000200  0.64102700  1
  Sr  Sr18  1  0.00000000  0.00000000  0.50000000  1
  Sr  Sr19  1  0.50000000  0.50000000  0.50000000  1
  Si  Si20  1  0.60767000  0.10767000  0.00000000  1
  Si  Si21  1  0.89233000  0.60767000  0.00000000  1
  Si  Si22  1  0.10767000  0.39233000  0.00000000  1
  Si  Si23  1  0.39233000  0.89233000  0.00000000  1
  Si  Si24  1  0.50000000  0.50000000  0.25000000  1
  Si  Si25  1  0.00000000  0.00000000  0.25000000  1
  Si  Si26  1  0.10767000  0.60767000  0.50000000  1
  Si  Si27  1  0.39233000  0.10767000  0.50000000  1
  Si  Si28  1  0.60767000  0.89233000  0.50000000  1
  Si  Si29  1  0.89233000  0.39233000  0.50000000  1
  Si  Si30  1  0.00000000  0.00000000  0.75000000  1
  Si  Si31  1  0.50000000  0.50000000  0.75000000  1
