# generated using pymatgen
data_MnP2O7
_symmetry_space_group_name_H-M   'P 1'
_cell_length_a   4.89738508
_cell_length_b   4.89738508
_cell_length_c   12.41947044
_cell_angle_alpha   90.00000000
_cell_angle_beta   90.00000000
_cell_angle_gamma   120.00000000
_symmetry_Int_Tables_number   1
_chemical_formula_structural   MnP2O7
_chemical_formula_sum   'Mn2 P4 O14'
_cell_volume   257.96585046
_cell_formula_units_Z   2
loop_
 _symmetry_equiv_pos_site_id
 _symmetry_equiv_pos_as_xyz
  1  'x, y, z'
loop_
 _atom_site_type_symbol
 _atom_site_label
 _atom_site_symmetry_multiplicity
 _atom_site_fract_x
 _atom_site_fract_y
 _atom_site_fract_z
 _atom_site_occupancy
  Mn  Mn0  1  0.00000000  0.00000000  0.50000000  1
  Mn  Mn1  1  0.00000000  0.00000000  0.00000000  1
  P  P2  1  0.33333333  0.66666667  0.12266650  1
  P  P3  1  0.33333333  0.66666667  0.37733350  1
  P  P4  1  0.66666667  0.33333333  0.62266650  1
  P  P5  1  0.66666667  0.33333333  0.87733350  1
  O  O6  1  0.33333333  0.66666667  0.25000000  1
  O  O7  1  0.66666667  0.33333333  0.75000000  1
  O  O8  1  0.05859800  0.71647300  0.40922650  1
  O  O9  1  0.05859800  0.71647300  0.09077350  1
  O  O10  1  0.28352700  0.34212500  0.09077350  1
  O  O11  1  0.28352700  0.34212500  0.40922650  1
  O  O12  1  0.65787500  0.94140200  0.40922650  1
  O  O13  1  0.34212500  0.05859800  0.59077350  1
  O  O14  1  0.65787500  0.94140200  0.09077350  1
  O  O15  1  0.34212500  0.05859800  0.90922650  1
  O  O16  1  0.71647300  0.65787500  0.90922650  1
  O  O17  1  0.71647300  0.65787500  0.59077350  1
  O  O18  1  0.94140200  0.28352700  0.59077350  1
  O  O19  1  0.94140200  0.28352700  0.90922650  1
