# generated using pymatgen
data_Li2FeCSO7
_symmetry_space_group_name_H-M   'P 1'
_cell_length_a   4.98630560
_cell_length_b   6.44668838
_cell_length_c   9.15723933
_cell_angle_alpha   90.00000000
_cell_angle_beta   97.17693100
_cell_angle_gamma   90.00000000
_symmetry_Int_Tables_number   1
_chemical_formula_structural   Li2FeCSO7
_chemical_formula_sum   'Li4 Fe2 C2 S2 O14'
_cell_volume   292.05461520
_cell_formula_units_Z   2
loop_
 _symmetry_equiv_pos_site_id
 _symmetry_equiv_pos_as_xyz
  1  'x, y, z'
loop_
 _atom_site_type_symbol
 _atom_site_label
 _atom_site_symmetry_multiplicity
 _atom_site_fract_x
 _atom_site_fract_y
 _atom_site_fract_z
 _atom_site_occupancy
  Li  Li0  1  0.78797400  0.48445100  0.17535100  1
  Li  Li1  1  0.78797400  0.01554900  0.17535100  1
  Li  Li2  1  0.21202600  0.51554900  0.82464900  1
  Li  Li3  1  0.21202600  0.98445100  0.82464900  1
  Fe  Fe4  1  0.23251500  0.25000000  0.35459200  1
  Fe  Fe5  1  0.76748500  0.75000000  0.64540800  1
  C  C6  1  0.27047800  0.25000000  0.07291700  1
  C  C7  1  0.72952200  0.75000000  0.92708300  1
  S  S8  1  0.24819000  0.75000000  0.40917600  1
  S  S9  1  0.75181000  0.25000000  0.59082400  1
  O  O10  1  0.70626300  0.75000000  0.06463600  1
  O  O11  1  0.03430100  0.25000000  0.12151900  1
  O  O12  1  0.48331400  0.25000000  0.17411100  1
  O  O13  1  0.14756600  0.93485000  0.32055500  1
  O  O14  1  0.14756600  0.56515000  0.32055500  1
  O  O15  1  0.84950000  0.25000000  0.44510200  1
  O  O16  1  0.55005200  0.75000000  0.43050100  1
  O  O17  1  0.44994800  0.25000000  0.56949900  1
  O  O18  1  0.15050000  0.75000000  0.55489800  1
  O  O19  1  0.85243400  0.43485000  0.67944500  1
  O  O20  1  0.85243400  0.06515000  0.67944500  1
  O  O21  1  0.51668600  0.75000000  0.82588900  1
  O  O22  1  0.96569900  0.75000000  0.87848100  1
  O  O23  1  0.29373700  0.25000000  0.93536400  1
