# generated using pymatgen
data_Li5Mn5(SnO6)2
_symmetry_space_group_name_H-M   'P 1'
_cell_length_a   5.41725400
_cell_length_b   9.32444800
_cell_length_c   10.26167550
_cell_angle_alpha   90.00000000
_cell_angle_beta   99.78227308
_cell_angle_gamma   90.00000000
_symmetry_Int_Tables_number   1
_chemical_formula_structural   Li5Mn5(SnO6)2
_chemical_formula_sum   'Li10 Mn10 Sn4 O24'
_cell_volume   510.81052156
_cell_formula_units_Z   2
loop_
 _symmetry_equiv_pos_site_id
 _symmetry_equiv_pos_as_xyz
  1  'x, y, z'
loop_
 _atom_site_type_symbol
 _atom_site_label
 _atom_site_symmetry_multiplicity
 _atom_site_fract_x
 _atom_site_fract_y
 _atom_site_fract_z
 _atom_site_occupancy
  Li  Li0  1  0.24694850  0.91893650  0.25525300  1
  Li  Li1  1  0.24213600  0.08643100  0.74226800  1
  Li  Li2  1  0.75305150  0.91893650  0.74474700  1
  Li  Li3  1  0.75786400  0.08643100  0.25773200  1
  Li  Li4  1  0.50000000  0.41495800  0.50000000  1
  Li  Li5  1  0.74694850  0.41893650  0.25525300  1
  Li  Li6  1  0.74213600  0.58643100  0.74226800  1
  Li  Li7  1  0.25305150  0.41893650  0.74474700  1
  Li  Li8  1  0.25786400  0.58643100  0.25773200  1
  Li  Li9  1  0.00000000  0.91495800  0.50000000  1
  Mn  Mn10  1  0.50000000  0.58117700  0.00000000  1
  Mn  Mn11  1  0.74168150  0.25395150  0.74329400  1
  Mn  Mn12  1  0.25831850  0.25395150  0.25670600  1
  Mn  Mn13  1  0.50000000  0.91762100  0.00000000  1
  Mn  Mn14  1  0.50000000  0.07818800  0.50000000  1
  Mn  Mn15  1  0.00000000  0.08117700  0.00000000  1
  Mn  Mn16  1  0.24168150  0.75395150  0.74329400  1
  Mn  Mn17  1  0.75831850  0.75395150  0.25670600  1
  Mn  Mn18  1  0.00000000  0.41762100  0.00000000  1
  Mn  Mn19  1  0.00000000  0.57818800  0.50000000  1
  Sn  Sn20  1  0.50000000  0.74696000  0.50000000  1
  Sn  Sn21  1  0.50000000  0.24832200  0.00000000  1
  Sn  Sn22  1  0.00000000  0.24696000  0.50000000  1
  Sn  Sn23  1  0.00000000  0.74832200  0.00000000  1
  O  O24  1  0.87890650  0.09508050  0.62555000  1
  O  O25  1  0.12109350  0.09508050  0.37445000  1
  O  O26  1  0.35919000  0.74989000  0.11810600  1
  O  O27  1  0.64081000  0.74989000  0.88189400  1
  O  O28  1  0.38667350  0.91328750  0.61812000  1
  O  O29  1  0.61332650  0.91328750  0.38188000  1
  O  O30  1  0.37801450  0.09134950  0.12189300  1
  O  O31  1  0.62198550  0.09134950  0.87810700  1
  O  O32  1  0.36629850  0.24034050  0.61448600  1
  O  O33  1  0.63370150  0.24034050  0.38551400  1
  O  O34  1  0.88105250  0.90711950  0.12337200  1
  O  O35  1  0.11894750  0.90711950  0.87662800  1
  O  O36  1  0.37890650  0.59508050  0.62555000  1
  O  O37  1  0.62109350  0.59508050  0.37445000  1
  O  O38  1  0.85919000  0.24989000  0.11810600  1
  O  O39  1  0.14081000  0.24989000  0.88189400  1
  O  O40  1  0.88667350  0.41328750  0.61812000  1
  O  O41  1  0.11332650  0.41328750  0.38188000  1
  O  O42  1  0.87801450  0.59134950  0.12189300  1
  O  O43  1  0.12198550  0.59134950  0.87810700  1
  O  O44  1  0.86629850  0.74034050  0.61448600  1
  O  O45  1  0.13370150  0.74034050  0.38551400  1
  O  O46  1  0.38105250  0.40711950  0.12337200  1
  O  O47  1  0.61894750  0.40711950  0.87662800  1
