# generated using pymatgen
data_Li2MnP2O7
_symmetry_space_group_name_H-M   'P 1'
_cell_length_a   7.34985700
_cell_length_b   8.46208300
_cell_length_c   9.97800289
_cell_angle_alpha   90.00000000
_cell_angle_beta   110.61562533
_cell_angle_gamma   90.00000000
_symmetry_Int_Tables_number   1
_chemical_formula_structural   Li2MnP2O7
_chemical_formula_sum   'Li8 Mn4 P8 O28'
_cell_volume   580.84296181
_cell_formula_units_Z   4
loop_
 _symmetry_equiv_pos_site_id
 _symmetry_equiv_pos_as_xyz
  1  'x, y, z'
loop_
 _atom_site_type_symbol
 _atom_site_label
 _atom_site_symmetry_multiplicity
 _atom_site_fract_x
 _atom_site_fract_y
 _atom_site_fract_z
 _atom_site_occupancy
  Li  Li0  1  0.16904200  0.86214100  0.12463200  1
  Li  Li1  1  0.83095800  0.36214100  0.87536800  1
  Li  Li2  1  0.55349900  0.08027500  0.83523200  1
  Li  Li3  1  0.26514100  0.88454800  0.61574400  1
  Li  Li4  1  0.44650100  0.58027500  0.16476800  1
  Li  Li5  1  0.90839900  0.08618600  0.28200900  1
  Li  Li6  1  0.09160100  0.58618600  0.71799100  1
  Li  Li7  1  0.73485900  0.38454800  0.38425600  1
  Mn  Mn8  1  0.01891000  0.50060800  0.24933600  1
  Mn  Mn9  1  0.48328100  0.51168200  0.73333400  1
  Mn  Mn10  1  0.51671900  0.01168200  0.26666600  1
  Mn  Mn11  1  0.98109000  0.00060800  0.75066400  1
  P  P12  1  0.15483100  0.23707100  0.04188000  1
  P  P13  1  0.84516900  0.73707100  0.95812000  1
  P  P14  1  0.57413600  0.19579700  0.57590400  1
  P  P15  1  0.42586400  0.69579700  0.42409600  1
  P  P16  1  0.57670800  0.30574900  0.07180500  1
  P  P17  1  0.42329200  0.80574900  0.92819500  1
  P  P18  1  0.14396800  0.25175500  0.54401200  1
  P  P19  1  0.85603200  0.75175500  0.45598800  1
  O  O20  1  0.21923900  0.09185600  0.13811800  1
  O  O21  1  0.05207800  0.20720400  0.88200500  1
  O  O22  1  0.97330900  0.85268500  0.91433900  1
  O  O23  1  0.02669100  0.35268500  0.08566100  1
  O  O24  1  0.65328300  0.66087000  0.44433600  1
  O  O25  1  0.94792200  0.70720400  0.11799500  1
  O  O26  1  0.66998900  0.05717400  0.67498400  1
  O  O27  1  0.59005700  0.19840800  0.42671400  1
  O  O28  1  0.78076100  0.59185600  0.86188200  1
  O  O29  1  0.63738000  0.35517700  0.65059800  1
  O  O30  1  0.36262000  0.85517700  0.34940200  1
  O  O31  1  0.64684100  0.83945000  0.93841500  1
  O  O32  1  0.40994300  0.69840800  0.57328600  1
  O  O33  1  0.33001100  0.55717400  0.32501600  1
  O  O34  1  0.67569800  0.44469200  0.17037900  1
  O  O35  1  0.58121600  0.30517000  0.91924500  1
  O  O36  1  0.34671700  0.16087000  0.55566400  1
  O  O37  1  0.64687000  0.14488300  0.14361100  1
  O  O38  1  0.35313000  0.64488300  0.85638900  1
  O  O39  1  0.19777500  0.39883200  0.63870700  1
  O  O40  1  0.41878400  0.80517000  0.08075500  1
  O  O41  1  0.32430200  0.94469200  0.82962100  1
  O  O42  1  0.02924800  0.28590400  0.38416300  1
  O  O43  1  0.35315900  0.33945000  0.06158500  1
  O  O44  1  0.95975600  0.62011600  0.40943600  1
  O  O45  1  0.04024400  0.12011600  0.59056400  1
  O  O46  1  0.97075200  0.78590400  0.61583700  1
  O  O47  1  0.80222500  0.89883200  0.36129300  1
