# generated using pymatgen
data_ZnCoO2
_symmetry_space_group_name_H-M   'P 1'
_cell_length_a   3.05265192
_cell_length_b   3.05265192
_cell_length_c   14.90825100
_cell_angle_alpha   90.00000000
_cell_angle_beta   90.00000000
_cell_angle_gamma   120.00000000
_symmetry_Int_Tables_number   1
_chemical_formula_structural   ZnCoO2
_chemical_formula_sum   'Zn3 Co3 O6'
_cell_volume   120.31281860
_cell_formula_units_Z   3
loop_
 _symmetry_equiv_pos_site_id
 _symmetry_equiv_pos_as_xyz
  1  'x, y, z'
loop_
 _atom_site_type_symbol
 _atom_site_label
 _atom_site_symmetry_multiplicity
 _atom_site_fract_x
 _atom_site_fract_y
 _atom_site_fract_z
 _atom_site_occupancy
  Zn  Zn0  1  0.00000000  0.00000000  0.00000000  1
  Zn  Zn1  1  0.66666667  0.33333333  0.33333333  1
  Zn  Zn2  1  0.33333333  0.66666667  0.66666667  1
  Co  Co3  1  0.66666667  0.33333333  0.83333333  1
  Co  Co4  1  0.33333333  0.66666667  0.16666667  1
  Co  Co5  1  1.00000000  1.00000000  0.50000000  1
  O  O6  1  0.33333333  0.66666667  0.91606133  1
  O  O7  1  0.00000000  0.00000000  0.75060533  1
  O  O8  1  0.00000000  0.00000000  0.24939467  1
  O  O9  1  0.66666667  0.33333333  0.08393867  1
  O  O10  1  0.66666667  0.33333333  0.58272800  1
  O  O11  1  0.33333333  0.66666667  0.41727200  1
