# generated using pymatgen
data_Mn6O5F7
_symmetry_space_group_name_H-M   'P 1'
_cell_length_a   4.73215600
_cell_length_b   9.49334400
_cell_length_c   4.77165261
_cell_angle_alpha   90.00000000
_cell_angle_beta   94.48669620
_cell_angle_gamma   90.00000000
_symmetry_Int_Tables_number   1
_chemical_formula_structural   Mn6O5F7
_chemical_formula_sum   'Mn6 O5 F7'
_cell_volume   213.70474327
_cell_formula_units_Z   1
loop_
 _symmetry_equiv_pos_site_id
 _symmetry_equiv_pos_as_xyz
  1  'x, y, z'
loop_
 _atom_site_type_symbol
 _atom_site_label
 _atom_site_symmetry_multiplicity
 _atom_site_fract_x
 _atom_site_fract_y
 _atom_site_fract_z
 _atom_site_occupancy
  Mn  Mn0  1  0.01839100  0.00000000  0.00606900  1
  Mn  Mn1  1  0.98760100  0.33912700  0.97481300  1
  Mn  Mn2  1  0.98760100  0.66087300  0.97481300  1
  Mn  Mn3  1  0.51809600  0.84175800  0.50820900  1
  Mn  Mn4  1  0.51809600  0.15824200  0.50820900  1
  Mn  Mn5  1  0.48922500  0.50000000  0.54098700  1
  O  O6  1  0.16701000  0.50000000  0.81146500  1
  O  O7  1  0.71875900  0.00000000  0.70447000  1
  O  O8  1  0.68315500  0.32498000  0.69280100  1
  O  O9  1  0.68315500  0.67502000  0.69280100  1
  O  O10  1  0.32107000  0.00000000  0.30688900  1
  F  F11  1  0.20117300  0.16416700  0.80585600  1
  F  F12  1  0.20117300  0.83583300  0.80585600  1
  F  F13  1  0.29269600  0.32625100  0.29526800  1
  F  F14  1  0.29269600  0.67374900  0.29526800  1
  F  F15  1  0.82030700  0.17435600  0.18152600  1
  F  F16  1  0.77949100  0.50000000  0.21317300  1
  F  F17  1  0.82030700  0.82564400  0.18152600  1
