# generated using pymatgen
data_Li2Mn2CoO6
_symmetry_space_group_name_H-M   'P 1'
_cell_length_a   5.06869078
_cell_length_b   8.83131881
_cell_length_c   10.27648025
_cell_angle_alpha   90.00000000
_cell_angle_beta   90.00000000
_cell_angle_gamma   90.00000000
_symmetry_Int_Tables_number   1
_chemical_formula_structural   Li2Mn2CoO6
_chemical_formula_sum   'Li8 Mn8 Co4 O24'
_cell_volume   460.00838928
_cell_formula_units_Z   4
loop_
 _symmetry_equiv_pos_site_id
 _symmetry_equiv_pos_as_xyz
  1  'x, y, z'
loop_
 _atom_site_type_symbol
 _atom_site_label
 _atom_site_symmetry_multiplicity
 _atom_site_fract_x
 _atom_site_fract_y
 _atom_site_fract_z
 _atom_site_occupancy
  Li  Li0  1  0.91977750  0.75000000  0.25000000  1
  Li  Li1  1  0.08022250  0.75000000  0.75000000  1
  Li  Li2  1  0.41977750  0.75000000  0.25000000  1
  Li  Li3  1  0.58022250  0.75000000  0.75000000  1
  Li  Li4  1  0.41977750  0.25000000  0.25000000  1
  Li  Li5  1  0.58022250  0.25000000  0.75000000  1
  Li  Li6  1  0.91977750  0.25000000  0.25000000  1
  Li  Li7  1  0.08022250  0.25000000  0.75000000  1
  Mn  Mn8  1  0.00000000  0.66303400  0.00000000  1
  Mn  Mn9  1  0.00000000  0.83696600  0.50000000  1
  Mn  Mn10  1  0.50000000  0.66303400  0.50000000  1
  Mn  Mn11  1  0.50000000  0.83696600  0.00000000  1
  Mn  Mn12  1  0.50000000  0.16303400  0.00000000  1
  Mn  Mn13  1  0.50000000  0.33696600  0.50000000  1
  Mn  Mn14  1  0.00000000  0.16303400  0.50000000  1
  Mn  Mn15  1  0.00000000  0.33696600  0.00000000  1
  Co  Co16  1  0.00000000  0.00000000  0.00000000  1
  Co  Co17  1  0.50000000  0.00000000  0.50000000  1
  Co  Co18  1  0.50000000  0.50000000  0.00000000  1
  Co  Co19  1  0.00000000  0.50000000  0.50000000  1
  O  O20  1  0.64834150  0.00000000  0.09845500  1
  O  O21  1  0.85165850  0.00000000  0.59845500  1
  O  O22  1  0.64834150  0.50000000  0.40154500  1
  O  O23  1  0.85165850  0.50000000  0.90154500  1
  O  O24  1  0.82094100  0.68254700  0.60518500  1
  O  O25  1  0.67905900  0.81745300  0.39481500  1
  O  O26  1  0.82094100  0.81745300  0.89481500  1
  O  O27  1  0.17905900  0.81745300  0.10518500  1
  O  O28  1  0.17905900  0.68254700  0.39481500  1
  O  O29  1  0.32094100  0.68254700  0.89481500  1
  O  O30  1  0.67905900  0.68254700  0.10518500  1
  O  O31  1  0.32094100  0.81745300  0.60518500  1
  O  O32  1  0.14834150  0.50000000  0.09845500  1
  O  O33  1  0.35165850  0.50000000  0.59845500  1
  O  O34  1  0.14834150  0.00000000  0.40154500  1
  O  O35  1  0.35165850  0.00000000  0.90154500  1
  O  O36  1  0.32094100  0.18254700  0.60518500  1
  O  O37  1  0.17905900  0.31745300  0.39481500  1
  O  O38  1  0.32094100  0.31745300  0.89481500  1
  O  O39  1  0.67905900  0.31745300  0.10518500  1
  O  O40  1  0.67905900  0.18254700  0.39481500  1
  O  O41  1  0.82094100  0.18254700  0.89481500  1
  O  O42  1  0.17905900  0.18254700  0.10518500  1
  O  O43  1  0.82094100  0.31745300  0.60518500  1
