# generated using pymatgen
data_Sc6N2O5
_symmetry_space_group_name_H-M   'P 1'
_cell_length_a   10.01155400
_cell_length_b   4.42237800
_cell_length_c   7.02730306
_cell_angle_alpha   90.00000000
_cell_angle_beta   98.49476909
_cell_angle_gamma   90.00000000
_symmetry_Int_Tables_number   1
_chemical_formula_structural   Sc6N2O5
_chemical_formula_sum   'Sc12 N4 O10'
_cell_volume   307.71964273
_cell_formula_units_Z   2
loop_
 _symmetry_equiv_pos_site_id
 _symmetry_equiv_pos_as_xyz
  1  'x, y, z'
loop_
 _atom_site_type_symbol
 _atom_site_label
 _atom_site_symmetry_multiplicity
 _atom_site_fract_x
 _atom_site_fract_y
 _atom_site_fract_z
 _atom_site_occupancy
  Sc  Sc0  1  0.56472100  0.00000000  0.71610900  1
  Sc  Sc1  1  0.79185100  0.50000000  0.86148500  1
  Sc  Sc2  1  0.64586100  0.50000000  0.42286300  1
  Sc  Sc3  1  0.85413900  0.00000000  0.57713700  1
  Sc  Sc4  1  0.70814900  0.00000000  0.13851500  1
  Sc  Sc5  1  0.93527900  0.50000000  0.28389100  1
  Sc  Sc6  1  0.06472100  0.50000000  0.71610900  1
  Sc  Sc7  1  0.29185100  0.00000000  0.86148500  1
  Sc  Sc8  1  0.14586100  0.00000000  0.42286300  1
  Sc  Sc9  1  0.35413900  0.50000000  0.57713700  1
  Sc  Sc10  1  0.20814900  0.50000000  0.13851500  1
  Sc  Sc11  1  0.43527900  0.00000000  0.28389100  1
  N  N12  1  0.85760200  0.50000000  0.57451700  1
  N  N13  1  0.64239800  0.00000000  0.42548300  1
  N  N14  1  0.35760200  0.00000000  0.57451700  1
  N  N15  1  0.14239800  0.50000000  0.42548300  1
  O  O16  1  0.57768700  0.50000000  0.70354600  1
  O  O17  1  0.00000000  0.50000000  0.00000000  1
  O  O18  1  0.77301800  0.00000000  0.85456500  1
  O  O19  1  0.72698200  0.50000000  0.14543500  1
  O  O20  1  0.92231300  0.00000000  0.29645400  1
  O  O21  1  0.07768700  0.00000000  0.70354600  1
  O  O22  1  0.50000000  0.00000000  0.00000000  1
  O  O23  1  0.27301800  0.50000000  0.85456500  1
  O  O24  1  0.22698200  0.00000000  0.14543500  1
  O  O25  1  0.42231300  0.50000000  0.29645400  1
