# generated using pymatgen
data_Li4V2C4SO16
_symmetry_space_group_name_H-M   'P 1'
_cell_length_a   13.01543600
_cell_length_b   13.31733600
_cell_length_c   14.23897600
_cell_angle_alpha   90.00000000
_cell_angle_beta   90.00000000
_cell_angle_gamma   90.00000000
_symmetry_Int_Tables_number   1
_chemical_formula_structural   Li4V2C4SO16
_chemical_formula_sum   'Li32 V16 C32 S8 O128'
_cell_volume   2468.05501496
_cell_formula_units_Z   8
loop_
 _symmetry_equiv_pos_site_id
 _symmetry_equiv_pos_as_xyz
  1  'x, y, z'
loop_
 _atom_site_type_symbol
 _atom_site_label
 _atom_site_symmetry_multiplicity
 _atom_site_fract_x
 _atom_site_fract_y
 _atom_site_fract_z
 _atom_site_occupancy
  Li  Li0  1  0.75000000  0.04728300  0.25000000  1
  Li  Li1  1  0.54586000  0.25000000  0.25000000  1
  Li  Li2  1  0.50000000  0.79728300  0.00000000  1
  Li  Li3  1  0.29586000  0.00000000  0.00000000  1
  Li  Li4  1  0.95414000  0.25000000  0.25000000  1
  Li  Li5  1  0.75000000  0.45271700  0.25000000  1
  Li  Li6  1  0.70414000  0.00000000  0.00000000  1
  Li  Li7  1  0.50000000  0.20271700  0.00000000  1
  Li  Li8  1  0.75000000  0.54728300  0.75000000  1
  Li  Li9  1  0.54586000  0.75000000  0.75000000  1
  Li  Li10  1  0.50000000  0.29728300  0.50000000  1
  Li  Li11  1  0.29586000  0.50000000  0.50000000  1
  Li  Li12  1  0.95414000  0.75000000  0.75000000  1
  Li  Li13  1  0.75000000  0.95271700  0.75000000  1
  Li  Li14  1  0.70414000  0.50000000  0.50000000  1
  Li  Li15  1  0.50000000  0.70271700  0.50000000  1
  Li  Li16  1  0.25000000  0.04728300  0.75000000  1
  Li  Li17  1  0.04586000  0.25000000  0.75000000  1
  Li  Li18  1  0.00000000  0.79728300  0.50000000  1
  Li  Li19  1  0.79586000  0.00000000  0.50000000  1
  Li  Li20  1  0.45414000  0.25000000  0.75000000  1
  Li  Li21  1  0.25000000  0.45271700  0.75000000  1
  Li  Li22  1  0.20414000  0.00000000  0.50000000  1
  Li  Li23  1  0.00000000  0.20271700  0.50000000  1
  Li  Li24  1  0.25000000  0.54728300  0.25000000  1
  Li  Li25  1  0.04586000  0.75000000  0.25000000  1
  Li  Li26  1  0.00000000  0.29728300  0.00000000  1
  Li  Li27  1  0.79586000  0.50000000  0.00000000  1
  Li  Li28  1  0.45414000  0.75000000  0.25000000  1
  Li  Li29  1  0.25000000  0.95271700  0.25000000  1
  Li  Li30  1  0.20414000  0.50000000  0.00000000  1
  Li  Li31  1  0.00000000  0.70271700  0.00000000  1
  V  V32  1  0.62500000  0.62500000  0.12500000  1
  V  V33  1  0.62500000  0.87500000  0.37500000  1
  V  V34  1  0.87500000  0.62500000  0.37500000  1
  V  V35  1  0.87500000  0.87500000  0.12500000  1
  V  V36  1  0.62500000  0.12500000  0.62500000  1
  V  V37  1  0.62500000  0.37500000  0.87500000  1
  V  V38  1  0.87500000  0.12500000  0.87500000  1
  V  V39  1  0.87500000  0.37500000  0.62500000  1
  V  V40  1  0.12500000  0.62500000  0.62500000  1
  V  V41  1  0.12500000  0.87500000  0.87500000  1
  V  V42  1  0.37500000  0.62500000  0.87500000  1
  V  V43  1  0.37500000  0.87500000  0.62500000  1
  V  V44  1  0.12500000  0.12500000  0.12500000  1
  V  V45  1  0.12500000  0.37500000  0.37500000  1
  V  V46  1  0.37500000  0.12500000  0.37500000  1
  V  V47  1  0.37500000  0.37500000  0.12500000  1
  C  C48  1  0.90004700  0.09554250  0.08389650  1
  C  C49  1  0.59995300  0.40445750  0.08389650  1
  C  C50  1  0.84995300  0.84554250  0.33389650  1
  C  C51  1  0.59995300  0.09554250  0.41610350  1
  C  C52  1  0.15004700  0.15445750  0.33389650  1
  C  C53  1  0.90004700  0.40445750  0.41610350  1
  C  C54  1  0.65004700  0.84554250  0.16610350  1
  C  C55  1  0.34995300  0.15445750  0.16610350  1
  C  C56  1  0.90004700  0.59554250  0.58389650  1
  C  C57  1  0.59995300  0.90445750  0.58389650  1
  C  C58  1  0.84995300  0.34554250  0.83389650  1
  C  C59  1  0.59995300  0.59554250  0.91610350  1
  C  C60  1  0.15004700  0.65445750  0.83389650  1
  C  C61  1  0.90004700  0.90445750  0.91610350  1
  C  C62  1  0.65004700  0.34554250  0.66610350  1
  C  C63  1  0.34995300  0.65445750  0.66610350  1
  C  C64  1  0.40004700  0.09554250  0.58389650  1
  C  C65  1  0.09995300  0.40445750  0.58389650  1
  C  C66  1  0.34995300  0.84554250  0.83389650  1
  C  C67  1  0.09995300  0.09554250  0.91610350  1
  C  C68  1  0.65004700  0.15445750  0.83389650  1
  C  C69  1  0.40004700  0.40445750  0.91610350  1
  C  C70  1  0.15004700  0.84554250  0.66610350  1
  C  C71  1  0.84995300  0.15445750  0.66610350  1
  C  C72  1  0.40004700  0.59554250  0.08389650  1
  C  C73  1  0.09995300  0.90445750  0.08389650  1
  C  C74  1  0.34995300  0.34554250  0.33389650  1
  C  C75  1  0.09995300  0.59554250  0.41610350  1
  C  C76  1  0.65004700  0.65445750  0.33389650  1
  C  C77  1  0.40004700  0.90445750  0.41610350  1
  C  C78  1  0.15004700  0.34554250  0.16610350  1
  C  C79  1  0.84995300  0.65445750  0.16610350  1
  S  S80  1  0.75000000  0.25000000  0.25000000  1
  S  S81  1  0.50000000  0.00000000  0.00000000  1
  S  S82  1  0.75000000  0.75000000  0.75000000  1
  S  S83  1  0.50000000  0.50000000  0.50000000  1
  S  S84  1  0.25000000  0.25000000  0.75000000  1
  S  S85  1  0.00000000  0.00000000  0.50000000  1
  S  S86  1  0.25000000  0.75000000  0.25000000  1
  S  S87  1  0.00000000  0.50000000  0.00000000  1
  O  O88  1  0.52815200  0.33879600  0.09535300  1
  O  O89  1  0.83890700  0.10046850  0.01199950  1
  O  O90  1  0.16109300  0.89953150  0.01199950  1
  O  O91  1  0.61219100  0.02440300  0.35508200  1
  O  O92  1  0.86219100  0.77440300  0.39491800  1
  O  O93  1  0.47184800  0.66120400  0.09535300  1
  O  O94  1  0.77815200  0.91120400  0.34535300  1
  O  O95  1  0.02815200  0.66120400  0.40464700  1
  O  O96  1  0.91109300  0.85046850  0.26199950  1
  O  O97  1  0.66109300  0.10046850  0.48800050  1
  O  O98  1  0.68170800  0.18292200  0.19320500  1
  O  O99  1  0.43170800  0.93292200  0.05679500  1
  O  O100  1  0.88780900  0.02440300  0.14491800  1
  O  O101  1  0.63780900  0.77440300  0.10508200  1
  O  O102  1  0.68170800  0.31707800  0.30679500  1
  O  O103  1  0.81829200  0.18292200  0.30679500  1
  O  O104  1  0.93170800  0.06707800  0.44320500  1
  O  O105  1  0.06829200  0.93292200  0.44320500  1
  O  O106  1  0.11219100  0.97559700  0.14491800  1
  O  O107  1  0.36219100  0.22559700  0.10508200  1
  O  O108  1  0.81829200  0.31707800  0.19320500  1
  O  O109  1  0.56829200  0.06707800  0.05679500  1
  O  O110  1  0.08890700  0.14953150  0.26199950  1
  O  O111  1  0.33890700  0.89953150  0.48800050  1
  O  O112  1  0.22184800  0.08879600  0.34535300  1
  O  O113  1  0.97184800  0.33879600  0.40464700  1
  O  O114  1  0.27815200  0.08879600  0.15464700  1
  O  O115  1  0.38780900  0.97559700  0.35508200  1
  O  O116  1  0.13780900  0.22559700  0.39491800  1
  O  O117  1  0.58890700  0.85046850  0.23800050  1
  O  O118  1  0.41109300  0.14953150  0.23800050  1
  O  O119  1  0.72184800  0.91120400  0.15464700  1
  O  O120  1  0.52815200  0.83879600  0.59535300  1
  O  O121  1  0.83890700  0.60046850  0.51199950  1
  O  O122  1  0.16109300  0.39953150  0.51199950  1
  O  O123  1  0.61219100  0.52440300  0.85508200  1
  O  O124  1  0.86219100  0.27440300  0.89491800  1
  O  O125  1  0.47184800  0.16120400  0.59535300  1
  O  O126  1  0.77815200  0.41120400  0.84535300  1
  O  O127  1  0.02815200  0.16120400  0.90464700  1
  O  O128  1  0.91109300  0.35046850  0.76199950  1
  O  O129  1  0.66109300  0.60046850  0.98800050  1
  O  O130  1  0.68170800  0.68292200  0.69320500  1
  O  O131  1  0.43170800  0.43292200  0.55679500  1
  O  O132  1  0.88780900  0.52440300  0.64491800  1
  O  O133  1  0.63780900  0.27440300  0.60508200  1
  O  O134  1  0.68170800  0.81707800  0.80679500  1
  O  O135  1  0.81829200  0.68292200  0.80679500  1
  O  O136  1  0.93170800  0.56707800  0.94320500  1
  O  O137  1  0.06829200  0.43292200  0.94320500  1
  O  O138  1  0.11219100  0.47559700  0.64491800  1
  O  O139  1  0.36219100  0.72559700  0.60508200  1
  O  O140  1  0.81829200  0.81707800  0.69320500  1
  O  O141  1  0.56829200  0.56707800  0.55679500  1
  O  O142  1  0.08890700  0.64953150  0.76199950  1
  O  O143  1  0.33890700  0.39953150  0.98800050  1
  O  O144  1  0.22184800  0.58879600  0.84535300  1
  O  O145  1  0.97184800  0.83879600  0.90464700  1
  O  O146  1  0.27815200  0.58879600  0.65464700  1
  O  O147  1  0.38780900  0.47559700  0.85508200  1
  O  O148  1  0.13780900  0.72559700  0.89491800  1
  O  O149  1  0.58890700  0.35046850  0.73800050  1
  O  O150  1  0.41109300  0.64953150  0.73800050  1
  O  O151  1  0.72184800  0.41120400  0.65464700  1
  O  O152  1  0.02815200  0.33879600  0.59535300  1
  O  O153  1  0.33890700  0.10046850  0.51199950  1
  O  O154  1  0.66109300  0.89953150  0.51199950  1
  O  O155  1  0.11219100  0.02440300  0.85508200  1
  O  O156  1  0.36219100  0.77440300  0.89491800  1
  O  O157  1  0.97184800  0.66120400  0.59535300  1
  O  O158  1  0.27815200  0.91120400  0.84535300  1
  O  O159  1  0.52815200  0.66120400  0.90464700  1
  O  O160  1  0.41109300  0.85046850  0.76199950  1
  O  O161  1  0.16109300  0.10046850  0.98800050  1
  O  O162  1  0.18170800  0.18292200  0.69320500  1
  O  O163  1  0.93170800  0.93292200  0.55679500  1
  O  O164  1  0.38780900  0.02440300  0.64491800  1
  O  O165  1  0.13780900  0.77440300  0.60508200  1
  O  O166  1  0.18170800  0.31707800  0.80679500  1
  O  O167  1  0.31829200  0.18292200  0.80679500  1
  O  O168  1  0.43170800  0.06707800  0.94320500  1
  O  O169  1  0.56829200  0.93292200  0.94320500  1
  O  O170  1  0.61219100  0.97559700  0.64491800  1
  O  O171  1  0.86219100  0.22559700  0.60508200  1
  O  O172  1  0.31829200  0.31707800  0.69320500  1
  O  O173  1  0.06829200  0.06707800  0.55679500  1
  O  O174  1  0.58890700  0.14953150  0.76199950  1
  O  O175  1  0.83890700  0.89953150  0.98800050  1
  O  O176  1  0.72184800  0.08879600  0.84535300  1
  O  O177  1  0.47184800  0.33879600  0.90464700  1
  O  O178  1  0.77815200  0.08879600  0.65464700  1
  O  O179  1  0.88780900  0.97559700  0.85508200  1
  O  O180  1  0.63780900  0.22559700  0.89491800  1
  O  O181  1  0.08890700  0.85046850  0.73800050  1
  O  O182  1  0.91109300  0.14953150  0.73800050  1
  O  O183  1  0.22184800  0.91120400  0.65464700  1
  O  O184  1  0.02815200  0.83879600  0.09535300  1
  O  O185  1  0.33890700  0.60046850  0.01199950  1
  O  O186  1  0.66109300  0.39953150  0.01199950  1
  O  O187  1  0.11219100  0.52440300  0.35508200  1
  O  O188  1  0.36219100  0.27440300  0.39491800  1
  O  O189  1  0.97184800  0.16120400  0.09535300  1
  O  O190  1  0.27815200  0.41120400  0.34535300  1
  O  O191  1  0.52815200  0.16120400  0.40464700  1
  O  O192  1  0.41109300  0.35046850  0.26199950  1
  O  O193  1  0.16109300  0.60046850  0.48800050  1
  O  O194  1  0.18170800  0.68292200  0.19320500  1
  O  O195  1  0.93170800  0.43292200  0.05679500  1
  O  O196  1  0.38780900  0.52440300  0.14491800  1
  O  O197  1  0.13780900  0.27440300  0.10508200  1
  O  O198  1  0.18170800  0.81707800  0.30679500  1
  O  O199  1  0.31829200  0.68292200  0.30679500  1
  O  O200  1  0.43170800  0.56707800  0.44320500  1
  O  O201  1  0.56829200  0.43292200  0.44320500  1
  O  O202  1  0.61219100  0.47559700  0.14491800  1
  O  O203  1  0.86219100  0.72559700  0.10508200  1
  O  O204  1  0.31829200  0.81707800  0.19320500  1
  O  O205  1  0.06829200  0.56707800  0.05679500  1
  O  O206  1  0.58890700  0.64953150  0.26199950  1
  O  O207  1  0.83890700  0.39953150  0.48800050  1
  O  O208  1  0.72184800  0.58879600  0.34535300  1
  O  O209  1  0.47184800  0.83879600  0.40464700  1
  O  O210  1  0.77815200  0.58879600  0.15464700  1
  O  O211  1  0.88780900  0.47559700  0.35508200  1
  O  O212  1  0.63780900  0.72559700  0.39491800  1
  O  O213  1  0.08890700  0.35046850  0.23800050  1
  O  O214  1  0.91109300  0.64953150  0.23800050  1
  O  O215  1  0.22184800  0.41120400  0.15464700  1
