# generated using pymatgen
data_Li2MnSi3O8
_symmetry_space_group_name_H-M   'P 1'
_cell_length_a   5.14044621
_cell_length_b   9.99546910
_cell_length_c   7.00401155
_cell_angle_alpha   90.00000000
_cell_angle_beta   90.97723396
_cell_angle_gamma   90.00000000
_symmetry_Int_Tables_number   1
_chemical_formula_structural   Li2MnSi3O8
_chemical_formula_sum   'Li4 Mn2 Si6 O16'
_cell_volume   359.82197329
_cell_formula_units_Z   2
loop_
 _symmetry_equiv_pos_site_id
 _symmetry_equiv_pos_as_xyz
  1  'x, y, z'
loop_
 _atom_site_type_symbol
 _atom_site_label
 _atom_site_symmetry_multiplicity
 _atom_site_fract_x
 _atom_site_fract_y
 _atom_site_fract_z
 _atom_site_occupancy
  Li  Li0  1  0.05675700  0.12641700  0.24398975  1
  Li  Li1  1  0.94324300  0.62641700  0.75601025  1
  Li  Li2  1  0.61051700  0.34882300  0.72705825  1
  Li  Li3  1  0.38948300  0.84882300  0.27294175  1
  Mn  Mn4  1  0.09807600  0.17496750  0.73690175  1
  Mn  Mn5  1  0.90192400  0.67496750  0.26309825  1
  Si  Si6  1  0.51933300  0.33084750  0.27381175  1
  Si  Si7  1  0.48066700  0.83084750  0.72618825  1
  Si  Si8  1  0.99174500  0.91251200  0.96872325  1
  Si  Si9  1  0.00825500  0.41251200  0.03127675  1
  Si  Si10  1  0.39937800  0.59406100  0.47369025  1
  Si  Si11  1  0.60062200  0.09406100  0.52630975  1
  O  O12  1  0.04340200  0.85604600  0.18153375  1
  O  O13  1  0.95659800  0.35604600  0.81846625  1
  O  O14  1  0.81475400  0.33783700  0.19188925  1
  O  O15  1  0.18524600  0.83783700  0.80811075  1
  O  O16  1  0.69412400  0.86940050  0.89032325  1
  O  O17  1  0.30587600  0.36940050  0.10967675  1
  O  O18  1  0.96846500  0.57115300  0.02120525  1
  O  O19  1  0.03153500  0.07115300  0.97879475  1
  O  O20  1  0.54488500  0.67313000  0.66381125  1
  O  O21  1  0.45511500  0.17313000  0.33618875  1
  O  O22  1  0.49600700  0.17085550  0.71154325  1
  O  O23  1  0.50399300  0.67085550  0.28845675  1
  O  O24  1  0.49964300  0.93151050  0.53367975  1
  O  O25  1  0.50035700  0.43151050  0.46632025  1
  O  O26  1  0.09106800  0.60244350  0.50607275  1
  O  O27  1  0.90893200  0.10244350  0.49392725  1
