# generated using pymatgen
data_LiVSiCO7
_symmetry_space_group_name_H-M   'P 1'
_cell_length_a   5.33274400
_cell_length_b   6.38173200
_cell_length_c   8.68190912
_cell_angle_alpha   90.00000000
_cell_angle_beta   95.93408650
_cell_angle_gamma   90.00000000
_symmetry_Int_Tables_number   1
_chemical_formula_structural   LiVSiCO7
_chemical_formula_sum   'Li2 V2 Si2 C2 O14'
_cell_volume   293.88072553
_cell_formula_units_Z   2
loop_
 _symmetry_equiv_pos_site_id
 _symmetry_equiv_pos_as_xyz
  1  'x, y, z'
loop_
 _atom_site_type_symbol
 _atom_site_label
 _atom_site_symmetry_multiplicity
 _atom_site_fract_x
 _atom_site_fract_y
 _atom_site_fract_z
 _atom_site_occupancy
  Li  Li0  1  0.77892100  0.53102300  0.18925500  1
  Li  Li1  1  0.22107900  0.03102300  0.81074500  1
  V  V2  1  0.19535900  0.75211500  0.33907600  1
  V  V3  1  0.80464100  0.25211500  0.66092400  1
  Si  Si4  1  0.26315500  0.24881300  0.43514100  1
  Si  Si5  1  0.73684500  0.74881300  0.56485900  1
  C  C6  1  0.27734400  0.74799700  0.06577800  1
  C  C7  1  0.72265600  0.24799700  0.93422200  1
  O  O8  1  0.68487700  0.28242400  0.07000500  1
  O  O9  1  0.05040900  0.74622500  0.11912100  1
  O  O10  1  0.45399700  0.71913300  0.18291800  1
  O  O11  1  0.19952000  0.03613800  0.33307100  1
  O  O12  1  0.17482700  0.45019500  0.33186400  1
  O  O13  1  0.88254400  0.73847600  0.40662200  1
  O  O14  1  0.56715200  0.24530900  0.49669800  1
  O  O15  1  0.43284800  0.74530900  0.50330200  1
  O  O16  1  0.11745600  0.23847600  0.59337800  1
  O  O17  1  0.82517300  0.95019500  0.66813600  1
  O  O18  1  0.80048000  0.53613800  0.66692900  1
  O  O19  1  0.54600300  0.21913300  0.81708200  1
  O  O20  1  0.94959100  0.24622500  0.88087900  1
  O  O21  1  0.31512300  0.78242400  0.92999500  1
