# generated using pymatgen
data_LiCoPO4
_symmetry_space_group_name_H-M   'P 1'
_cell_length_a   5.43457700
_cell_length_b   7.43473901
_cell_length_c   8.22021601
_cell_angle_alpha   90.00000000
_cell_angle_beta   90.00000000
_cell_angle_gamma   90.00000000
_symmetry_Int_Tables_number   1
_chemical_formula_structural   LiCoPO4
_chemical_formula_sum   'Li4 Co4 P4 O16'
_cell_volume   332.13504599
_cell_formula_units_Z   4
loop_
 _symmetry_equiv_pos_site_id
 _symmetry_equiv_pos_as_xyz
  1  'x, y, z'
loop_
 _atom_site_type_symbol
 _atom_site_label
 _atom_site_symmetry_multiplicity
 _atom_site_fract_x
 _atom_site_fract_y
 _atom_site_fract_z
 _atom_site_occupancy
  Li  Li0  1  0.73063200  0.42081000  0.25197500  1
  Li  Li1  1  0.23063200  0.07919000  0.75197500  1
  Li  Li2  1  0.73063200  0.92081000  0.24802500  1
  Li  Li3  1  0.23063200  0.57919000  0.74802500  1
  Co  Co4  1  0.71533900  0.76476500  0.56132300  1
  Co  Co5  1  0.21533900  0.23523500  0.43867700  1
  Co  Co6  1  0.21533900  0.73523500  0.06132300  1
  Co  Co7  1  0.71533900  0.26476500  0.93867700  1
  P  P8  1  0.72175700  0.70052900  0.92367900  1
  P  P9  1  0.22175700  0.79947100  0.42367900  1
  P  P10  1  0.72175700  0.20052900  0.57632100  1
  P  P11  1  0.22175700  0.29947100  0.07632100  1
  O  O12  1  0.69089800  0.51960300  0.01458300  1
  O  O13  1  0.19089800  0.98039700  0.51458300  1
  O  O14  1  0.69089800  0.01960300  0.48541700  1
  O  O15  1  0.19089800  0.48039700  0.98541700  1
  O  O16  1  0.46365000  0.77994800  0.88139000  1
  O  O17  1  0.96365000  0.72005200  0.38139000  1
  O  O18  1  0.46365000  0.27994800  0.61861000  1
  O  O19  1  0.96365000  0.22005200  0.11861000  1
  O  O20  1  0.86894700  0.67482100  0.76154900  1
  O  O21  1  0.36894700  0.82517900  0.26154900  1
  O  O22  1  0.86894700  0.17482100  0.73845100  1
  O  O23  1  0.36894700  0.32517900  0.23845100  1
  O  O24  1  0.86978700  0.83068400  0.03578100  1
  O  O25  1  0.36978700  0.66931600  0.53578100  1
  O  O26  1  0.86978700  0.33068400  0.46421900  1
  O  O27  1  0.36978700  0.16931600  0.96421900  1
