# generated using pymatgen
data_LiCu2F6
_symmetry_space_group_name_H-M   'P 1'
_cell_length_a   5.03135400
_cell_length_b   9.02710600
_cell_length_c   8.92076056
_cell_angle_alpha   90.00000000
_cell_angle_beta   90.78279653
_cell_angle_gamma   90.00000000
_symmetry_Int_Tables_number   1
_chemical_formula_structural   LiCu2F6
_chemical_formula_sum   'Li4 Cu8 F24'
_cell_volume   405.13033753
_cell_formula_units_Z   4
loop_
 _symmetry_equiv_pos_site_id
 _symmetry_equiv_pos_as_xyz
  1  'x, y, z'
loop_
 _atom_site_type_symbol
 _atom_site_label
 _atom_site_symmetry_multiplicity
 _atom_site_fract_x
 _atom_site_fract_y
 _atom_site_fract_z
 _atom_site_occupancy
  Li  Li0  1  0.00000000  0.99381600  0.25000000  1
  Li  Li1  1  0.50000000  0.50618400  0.75000000  1
  Li  Li2  1  0.50000000  0.49381600  0.25000000  1
  Li  Li3  1  0.00000000  0.00618400  0.75000000  1
  Cu  Cu4  1  0.00019650  0.66576650  0.49959400  1
  Cu  Cu5  1  0.99980350  0.66576650  0.00040600  1
  Cu  Cu6  1  0.50019650  0.83423350  0.99959400  1
  Cu  Cu7  1  0.49980350  0.83423350  0.50040600  1
  Cu  Cu8  1  0.50019650  0.16576650  0.49959400  1
  Cu  Cu9  1  0.49980350  0.16576650  0.00040600  1
  Cu  Cu10  1  0.00019650  0.33423350  0.99959400  1
  Cu  Cu11  1  0.99980350  0.33423350  0.50040600  1
  F  F12  1  0.67812200  0.67234400  0.61633400  1
  F  F13  1  0.68162150  0.67473350  0.11912700  1
  F  F14  1  0.84222750  0.50104350  0.88329100  1
  F  F15  1  0.15777250  0.50104350  0.61670900  1
  F  F16  1  0.18162150  0.82526650  0.61912700  1
  F  F17  1  0.17812200  0.82765600  0.11633400  1
  F  F18  1  0.32187800  0.67234400  0.88366600  1
  F  F19  1  0.31837850  0.67473350  0.38087300  1
  F  F20  1  0.34222750  0.99895650  0.38329100  1
  F  F21  1  0.65777250  0.99895650  0.11670900  1
  F  F22  1  0.81837850  0.82526650  0.88087300  1
  F  F23  1  0.82187800  0.82765600  0.38366600  1
  F  F24  1  0.17812200  0.17234400  0.61633400  1
  F  F25  1  0.18162150  0.17473350  0.11912700  1
  F  F26  1  0.34222750  0.00104350  0.88329100  1
  F  F27  1  0.65777250  0.00104350  0.61670900  1
  F  F28  1  0.68162150  0.32526650  0.61912700  1
  F  F29  1  0.67812200  0.32765600  0.11633400  1
  F  F30  1  0.82187800  0.17234400  0.88366600  1
  F  F31  1  0.81837850  0.17473350  0.38087300  1
  F  F32  1  0.84222750  0.49895650  0.38329100  1
  F  F33  1  0.15777250  0.49895650  0.11670900  1
  F  F34  1  0.31837850  0.32526650  0.88087300  1
  F  F35  1  0.32187800  0.32765600  0.38366600  1
