# generated using pymatgen
data_Li2Mn2SbO6
_symmetry_space_group_name_H-M   'P 1'
_cell_length_a   5.57867000
_cell_length_b   9.16347200
_cell_length_c   10.29111800
_cell_angle_alpha   90.00000000
_cell_angle_beta   90.00000000
_cell_angle_gamma   90.00000000
_symmetry_Int_Tables_number   1
_chemical_formula_structural   Li2Mn2SbO6
_chemical_formula_sum   'Li8 Mn8 Sb4 O24'
_cell_volume   526.08181161
_cell_formula_units_Z   4
loop_
 _symmetry_equiv_pos_site_id
 _symmetry_equiv_pos_as_xyz
  1  'x, y, z'
loop_
 _atom_site_type_symbol
 _atom_site_label
 _atom_site_symmetry_multiplicity
 _atom_site_fract_x
 _atom_site_fract_y
 _atom_site_fract_z
 _atom_site_occupancy
  Li  Li0  1  0.35720400  0.25000000  0.75000000  1
  Li  Li1  1  0.64279600  0.25000000  0.25000000  1
  Li  Li2  1  0.35720400  0.75000000  0.75000000  1
  Li  Li3  1  0.64279600  0.75000000  0.25000000  1
  Li  Li4  1  0.85720400  0.75000000  0.75000000  1
  Li  Li5  1  0.14279600  0.75000000  0.25000000  1
  Li  Li6  1  0.85720400  0.25000000  0.75000000  1
  Li  Li7  1  0.14279600  0.25000000  0.25000000  1
  Mn  Mn8  1  0.50000000  0.33426300  0.50000000  1
  Mn  Mn9  1  0.50000000  0.16573700  0.00000000  1
  Mn  Mn10  1  0.50000000  0.83426300  0.00000000  1
  Mn  Mn11  1  0.50000000  0.66573700  0.50000000  1
  Mn  Mn12  1  0.00000000  0.83426300  0.50000000  1
  Mn  Mn13  1  0.00000000  0.66573700  0.00000000  1
  Mn  Mn14  1  0.00000000  0.33426300  0.00000000  1
  Mn  Mn15  1  0.00000000  0.16573700  0.50000000  1
  Sb  Sb16  1  0.00000000  0.00000000  0.00000000  1
  Sb  Sb17  1  0.50000000  0.00000000  0.50000000  1
  Sb  Sb18  1  0.50000000  0.50000000  0.00000000  1
  Sb  Sb19  1  0.00000000  0.50000000  0.50000000  1
  O  O20  1  0.37663200  0.33206100  0.11381500  1
  O  O21  1  0.62336800  0.66793900  0.88618500  1
  O  O22  1  0.37663200  0.16793900  0.38618500  1
  O  O23  1  0.62336800  0.16793900  0.61381500  1
  O  O24  1  0.18177400  0.00000000  0.58871700  1
  O  O25  1  0.31822600  0.00000000  0.08871700  1
  O  O26  1  0.68177400  0.00000000  0.91128300  1
  O  O27  1  0.62336800  0.33206100  0.88618500  1
  O  O28  1  0.81822600  0.00000000  0.41128300  1
  O  O29  1  0.37663200  0.83206100  0.38618500  1
  O  O30  1  0.62336800  0.83206100  0.61381500  1
  O  O31  1  0.37663200  0.66793900  0.11381500  1
  O  O32  1  0.87663200  0.83206100  0.11381500  1
  O  O33  1  0.12336800  0.16793900  0.88618500  1
  O  O34  1  0.87663200  0.66793900  0.38618500  1
  O  O35  1  0.12336800  0.66793900  0.61381500  1
  O  O36  1  0.68177400  0.50000000  0.58871700  1
  O  O37  1  0.81822600  0.50000000  0.08871700  1
  O  O38  1  0.18177400  0.50000000  0.91128300  1
  O  O39  1  0.12336800  0.83206100  0.88618500  1
  O  O40  1  0.31822600  0.50000000  0.41128300  1
  O  O41  1  0.87663200  0.33206100  0.38618500  1
  O  O42  1  0.12336800  0.33206100  0.61381500  1
  O  O43  1  0.87663200  0.16793900  0.11381500  1
