# generated using pymatgen
data_TiCr2Ni3(PO4)6
_symmetry_space_group_name_H-M   'P 1'
_cell_length_a   8.64088346
_cell_length_b   8.64088346
_cell_length_c   20.27555037
_cell_angle_alpha   90.00000000
_cell_angle_beta   90.00000000
_cell_angle_gamma   120.00000000
_symmetry_Int_Tables_number   1
_chemical_formula_structural   TiCr2Ni3(PO4)6
_chemical_formula_sum   'Ti3 Cr6 Ni9 P18 O72'
_cell_volume   1311.05097969
_cell_formula_units_Z   3
loop_
 _symmetry_equiv_pos_site_id
 _symmetry_equiv_pos_as_xyz
  1  'x, y, z'
loop_
 _atom_site_type_symbol
 _atom_site_label
 _atom_site_symmetry_multiplicity
 _atom_site_fract_x
 _atom_site_fract_y
 _atom_site_fract_z
 _atom_site_occupancy
  Ti  Ti0  1  0.33333333  0.66666667  0.51980367  1
  Ti  Ti1  1  0.00000000  0.00000000  0.85313700  1
  Ti  Ti2  1  0.66666667  0.33333333  0.18647033  1
  Cr  Cr3  1  0.33333333  0.66666667  0.66750167  1
  Cr  Cr4  1  0.33333333  0.66666667  0.16855267  1
  Cr  Cr5  1  0.00000000  0.00000000  0.00083500  1
  Cr  Cr6  1  0.00000000  0.00000000  0.50188600  1
  Cr  Cr7  1  0.66666667  0.33333333  0.33416833  1
  Cr  Cr8  1  0.66666667  0.33333333  0.83521933  1
  Ni  Ni9  1  0.33333333  0.66666667  0.81129767  1
  Ni  Ni10  1  0.33333333  0.66666667  0.02537867  1
  Ni  Ni11  1  0.33333333  0.66666667  0.30978067  1
  Ni  Ni12  1  0.00000000  0.00000000  0.14463100  1
  Ni  Ni13  1  0.00000000  0.00000000  0.35871200  1
  Ni  Ni14  1  0.00000000  0.00000000  0.64311400  1
  Ni  Ni15  1  0.66666667  0.33333333  0.47796433  1
  Ni  Ni16  1  0.66666667  0.33333333  0.69204533  1
  Ni  Ni17  1  0.66666667  0.33333333  0.97644733  1
  P  P18  1  0.29889200  0.30086300  0.24963400  1
  P  P19  1  0.69913700  0.99802900  0.24963400  1
  P  P20  1  0.00197100  0.70110800  0.24963400  1
  P  P21  1  0.66531033  0.63328867  0.08223167  1
  P  P22  1  0.96797833  0.33468967  0.08223167  1
  P  P23  1  0.36671133  0.03202167  0.08223167  1
  P  P24  1  0.96555867  0.63419633  0.58296733  1
  P  P25  1  0.36580367  0.33136233  0.58296733  1
  P  P26  1  0.66863767  0.03444133  0.58296733  1
  P  P27  1  0.33197700  0.96662200  0.41556500  1
  P  P28  1  0.63464500  0.66802300  0.41556500  1
  P  P29  1  0.03337800  0.36535500  0.41556500  1
  P  P30  1  0.63222533  0.96752967  0.91630067  1
  P  P31  1  0.03247033  0.66469567  0.91630067  1
  P  P32  1  0.33530433  0.36777467  0.91630067  1
  P  P33  1  0.99864367  0.29995533  0.74889833  1
  P  P34  1  0.30131167  0.00135633  0.74889833  1
  P  P35  1  0.70004467  0.69868833  0.74889833  1
  O  O36  1  0.34493133  0.46698667  0.98009367  1
  O  O37  1  0.53301333  0.87794467  0.98009367  1
  O  O38  1  0.83264233  0.82180467  0.07149467  1
  O  O39  1  0.12205533  0.65506867  0.98009367  1
  O  O40  1  0.35134767  0.86428833  0.47560433  1
  O  O41  1  0.50209333  0.65552267  0.09894267  1
  O  O42  1  0.98916233  0.16735767  0.07149467  1
  O  O43  1  0.15342933  0.49790667  0.09894267  1
  O  O44  1  0.20819067  0.19260033  0.18946333  1
  O  O45  1  0.34447733  0.84657067  0.09894267  1
  O  O46  1  0.49391767  0.32601033  0.26041433  1
  O  O47  1  0.80739967  0.01559033  0.18946333  1
  O  O48  1  0.51294067  0.64865233  0.47560433  1
  O  O49  1  0.17819533  0.01083767  0.07149467  1
  O  O50  1  0.33012233  0.49277867  0.23817867  1
  O  O51  1  0.13571167  0.48705933  0.47560433  1
  O  O52  1  0.50722133  0.83734367  0.23817867  1
  O  O53  1  0.67398967  0.16790733  0.26041433  1
  O  O54  1  0.16265633  0.66987767  0.23817867  1
  O  O55  1  0.98440967  0.79180933  0.18946333  1
  O  O56  1  0.54932833  0.68768967  0.35317167  1
  O  O57  1  0.83209267  0.50608233  0.26041433  1
  O  O58  1  0.13836133  0.45067167  0.35317167  1
  O  O59  1  0.31231033  0.86163867  0.35317167  1
  O  O60  1  0.01159800  0.80032000  0.31342700  1
  O  O61  1  0.19968000  0.21127800  0.31342700  1
  O  O62  1  0.49930900  0.15513800  0.40482800  1
  O  O63  1  0.78872200  0.98840200  0.31342700  1
  O  O64  1  0.01801433  0.19762167  0.80893767  1
  O  O65  1  0.16876000  0.98885600  0.43227600  1
  O  O66  1  0.65582900  0.50069100  0.40482800  1
  O  O67  1  0.82009600  0.83124000  0.43227600  1
  O  O68  1  0.87485733  0.52593367  0.52279667  1
  O  O69  1  0.01114400  0.17990400  0.43227600  1
  O  O70  1  0.16058433  0.65934367  0.59374767  1
  O  O71  1  0.47406633  0.34892367  0.52279667  1
  O  O72  1  0.17960733  0.98198567  0.80893767  1
  O  O73  1  0.84486200  0.34417100  0.40482800  1
  O  O74  1  0.99678900  0.82611200  0.57151200  1
  O  O75  1  0.80237833  0.82039267  0.80893767  1
  O  O76  1  0.17388800  0.17067700  0.57151200  1
  O  O77  1  0.34065633  0.50124067  0.59374767  1
  O  O78  1  0.82932300  0.00321100  0.57151200  1
  O  O79  1  0.65107633  0.12514267  0.52279667  1
  O  O80  1  0.21599500  0.02102300  0.68650500  1
  O  O81  1  0.49875933  0.83941567  0.59374767  1
  O  O82  1  0.80502800  0.78400500  0.68650500  1
  O  O83  1  0.97897700  0.19497200  0.68650500  1
  O  O84  1  0.67826467  0.13365333  0.64676033  1
  O  O85  1  0.86634667  0.54461133  0.64676033  1
  O  O86  1  0.16597567  0.48847133  0.73816133  1
  O  O87  1  0.45538867  0.32173533  0.64676033  1
  O  O88  1  0.68468100  0.53095500  0.14227100  1
  O  O89  1  0.83542667  0.32218933  0.76560933  1
  O  O90  1  0.32249567  0.83402433  0.73816133  1
  O  O91  1  0.48676267  0.16457333  0.76560933  1
  O  O92  1  0.54152400  0.85926700  0.85613000  1
  O  O93  1  0.67781067  0.51323733  0.76560933  1
  O  O94  1  0.82725100  0.99267700  0.92708100  1
  O  O95  1  0.14073300  0.68225700  0.85613000  1
  O  O96  1  0.84627400  0.31531900  0.14227100  1
  O  O97  1  0.51152867  0.67750433  0.73816133  1
  O  O98  1  0.66345567  0.15944533  0.90484533  1
  O  O99  1  0.46904500  0.15372600  0.14227100  1
  O  O100  1  0.84055467  0.50401033  0.90484533  1
  O  O101  1  0.00732300  0.83457400  0.92708100  1
  O  O102  1  0.49598967  0.33654433  0.90484533  1
  O  O103  1  0.31774300  0.45847600  0.85613000  1
  O  O104  1  0.88266167  0.35435633  0.01983833  1
  O  O105  1  0.16542600  0.17274900  0.92708100  1
  O  O106  1  0.47169467  0.11733833  0.01983833  1
  O  O107  1  0.64564367  0.52830533  0.01983833  1
