# generated using pymatgen
data_Na2CoO3
_symmetry_space_group_name_H-M   'P 1'
_cell_length_a   5.30889000
_cell_length_b   9.26778400
_cell_length_c   10.93157643
_cell_angle_alpha   90.00000000
_cell_angle_beta   100.31234816
_cell_angle_gamma   90.00000000
_symmetry_Int_Tables_number   1
_chemical_formula_structural   Na2CoO3
_chemical_formula_sum   'Na16 Co8 O24'
_cell_volume   529.16335616
_cell_formula_units_Z   8
loop_
 _symmetry_equiv_pos_site_id
 _symmetry_equiv_pos_as_xyz
  1  'x, y, z'
loop_
 _atom_site_type_symbol
 _atom_site_label
 _atom_site_symmetry_multiplicity
 _atom_site_fract_x
 _atom_site_fract_y
 _atom_site_fract_z
 _atom_site_occupancy
  Na  Na0  1  0.76280150  0.92100750  0.00033700  1
  Na  Na1  1  0.75000000  0.75000000  0.50000000  1
  Na  Na2  1  0.50000000  0.58596500  0.25000000  1
  Na  Na3  1  0.25000000  0.75000000  0.00000000  1
  Na  Na4  1  0.23719850  0.92100750  0.49966300  1
  Na  Na5  1  0.26280150  0.57899250  0.50033700  1
  Na  Na6  1  0.00000000  0.91403500  0.75000000  1
  Na  Na7  1  0.73719850  0.57899250  0.99966300  1
  Na  Na8  1  0.26280150  0.42100750  0.00033700  1
  Na  Na9  1  0.25000000  0.25000000  0.50000000  1
  Na  Na10  1  0.00000000  0.08596500  0.25000000  1
  Na  Na11  1  0.75000000  0.25000000  0.00000000  1
  Na  Na12  1  0.73719850  0.42100750  0.49966300  1
  Na  Na13  1  0.76280150  0.07899250  0.50033700  1
  Na  Na14  1  0.50000000  0.41403500  0.75000000  1
  Na  Na15  1  0.23719850  0.07899250  0.99966300  1
  Co  Co16  1  0.50000000  0.75248600  0.75000000  1
  Co  Co17  1  0.50000000  0.91627400  0.25000000  1
  Co  Co18  1  0.00000000  0.58372600  0.75000000  1
  Co  Co19  1  0.00000000  0.74751400  0.25000000  1
  Co  Co20  1  0.00000000  0.25248600  0.75000000  1
  Co  Co21  1  0.00000000  0.41627400  0.25000000  1
  Co  Co22  1  0.50000000  0.08372600  0.75000000  1
  Co  Co23  1  0.50000000  0.24751400  0.25000000  1
  O  O24  1  0.83958550  0.89757250  0.35078100  1
  O  O25  1  0.58216100  0.90633700  0.65091100  1
  O  O26  1  0.65828050  0.77880950  0.14952500  1
  O  O27  1  0.41783900  0.90633700  0.84908900  1
  O  O28  1  0.33958550  0.60242750  0.85078100  1
  O  O29  1  0.15828050  0.72119050  0.64952500  1
  O  O30  1  0.34171950  0.77880950  0.35047500  1
  O  O31  1  0.16041450  0.89757250  0.14921900  1
  O  O32  1  0.08216100  0.59366300  0.15091100  1
  O  O33  1  0.84171950  0.72119050  0.85047500  1
  O  O34  1  0.91783900  0.59366300  0.34908900  1
  O  O35  1  0.66041450  0.60242750  0.64921900  1
  O  O36  1  0.33958550  0.39757250  0.35078100  1
  O  O37  1  0.08216100  0.40633700  0.65091100  1
  O  O38  1  0.15828050  0.27880950  0.14952500  1
  O  O39  1  0.91783900  0.40633700  0.84908900  1
  O  O40  1  0.83958550  0.10242750  0.85078100  1
  O  O41  1  0.65828050  0.22119050  0.64952500  1
  O  O42  1  0.84171950  0.27880950  0.35047500  1
  O  O43  1  0.66041450  0.39757250  0.14921900  1
  O  O44  1  0.58216100  0.09366300  0.15091100  1
  O  O45  1  0.34171950  0.22119050  0.85047500  1
  O  O46  1  0.41783900  0.09366300  0.34908900  1
  O  O47  1  0.16041450  0.10242750  0.64921900  1
