# generated using pymatgen
data_LiMnVO4
_symmetry_space_group_name_H-M   'P 1'
_cell_length_a   5.89128600
_cell_length_b   5.93029800
_cell_length_c   8.55988600
_cell_angle_alpha   90.00000000
_cell_angle_beta   90.00000000
_cell_angle_gamma   90.00000000
_symmetry_Int_Tables_number   1
_chemical_formula_structural   LiMnVO4
_chemical_formula_sum   'Li4 Mn4 V4 O16'
_cell_volume   299.05743553
_cell_formula_units_Z   4
loop_
 _symmetry_equiv_pos_site_id
 _symmetry_equiv_pos_as_xyz
  1  'x, y, z'
loop_
 _atom_site_type_symbol
 _atom_site_label
 _atom_site_symmetry_multiplicity
 _atom_site_fract_x
 _atom_site_fract_y
 _atom_site_fract_z
 _atom_site_occupancy
  Li  Li0  1  0.50000000  0.75000000  0.87943600  1
  Li  Li1  1  0.00000000  0.75000000  0.62056400  1
  Li  Li2  1  0.00000000  0.25000000  0.37943600  1
  Li  Li3  1  0.50000000  0.25000000  0.12056400  1
  Mn  Mn4  1  0.25000000  0.25000000  0.75000000  1
  Mn  Mn5  1  0.75000000  0.25000000  0.75000000  1
  Mn  Mn6  1  0.75000000  0.75000000  0.25000000  1
  Mn  Mn7  1  0.25000000  0.75000000  0.25000000  1
  V  V8  1  0.00000000  0.50000000  0.00000000  1
  V  V9  1  0.00000000  0.00000000  0.00000000  1
  V  V10  1  0.50000000  0.00000000  0.50000000  1
  V  V11  1  0.50000000  0.50000000  0.50000000  1
  O  O12  1  0.27264600  0.25000000  0.51978300  1
  O  O13  1  0.50000000  0.02875300  0.74184000  1
  O  O14  1  0.50000000  0.47124700  0.74184000  1
  O  O15  1  0.72735400  0.25000000  0.51978300  1
  O  O16  1  0.77264600  0.25000000  0.98021700  1
  O  O17  1  0.00000000  0.47124700  0.75816000  1
  O  O18  1  0.00000000  0.02875300  0.75816000  1
  O  O19  1  0.22735400  0.25000000  0.98021700  1
  O  O20  1  0.77264600  0.75000000  0.01978300  1
  O  O21  1  0.00000000  0.52875300  0.24184000  1
  O  O22  1  0.00000000  0.97124700  0.24184000  1
  O  O23  1  0.22735400  0.75000000  0.01978300  1
  O  O24  1  0.27264600  0.75000000  0.48021700  1
  O  O25  1  0.50000000  0.97124700  0.25816000  1
  O  O26  1  0.50000000  0.52875300  0.25816000  1
  O  O27  1  0.72735400  0.75000000  0.48021700  1
