# generated using pymatgen
data_Li2Cr2CoO6
_symmetry_space_group_name_H-M   'P 1'
_cell_length_a   6.57012284
_cell_length_b   6.58285801
_cell_length_c   8.28139145
_cell_angle_alpha   70.76918529
_cell_angle_beta   71.02577382
_cell_angle_gamma   82.81721542
_symmetry_Int_Tables_number   1
_chemical_formula_structural   Li2Cr2CoO6
_chemical_formula_sum   'Li6 Cr6 Co3 O18'
_cell_volume   319.74560811
_cell_formula_units_Z   3
loop_
 _symmetry_equiv_pos_site_id
 _symmetry_equiv_pos_as_xyz
  1  'x, y, z'
loop_
 _atom_site_type_symbol
 _atom_site_label
 _atom_site_symmetry_multiplicity
 _atom_site_fract_x
 _atom_site_fract_y
 _atom_site_fract_z
 _atom_site_occupancy
  Li  Li0  1  0.50012900  0.82211800  0.66886200  1
  Li  Li1  1  0.16842200  0.82101700  0.00363700  1
  Li  Li2  1  0.83344800  0.49896700  0.66557600  1
  Li  Li3  1  0.16655200  0.50103300  0.33442400  1
  Li  Li4  1  0.49987100  0.17788200  0.33113800  1
  Li  Li5  1  0.83157800  0.17898300  0.99636300  1
  Cr  Cr6  1  0.16768900  0.83304000  0.50194000  1
  Cr  Cr7  1  0.50624000  0.82847400  0.16914200  1
  Cr  Cr8  1  0.49376000  0.17152600  0.83085800  1
  Cr  Cr9  1  0.83231100  0.16696000  0.49806000  1
  Cr  Cr10  1  0.83585300  0.83088400  0.83674300  1
  Cr  Cr11  1  0.16414700  0.16911600  0.16325700  1
  Co  Co12  1  0.50000000  0.50000000  0.50000000  1
  Co  Co13  1  0.83328100  0.50089400  0.16594700  1
  Co  Co14  1  0.16671900  0.49910600  0.83405300  1
  O  O15  1  0.15096500  0.80733200  0.75525200  1
  O  O16  1  0.48504700  0.80804400  0.42108900  1
  O  O17  1  0.82755900  0.81499600  0.07284900  1
  O  O18  1  0.48195800  0.49274500  0.73461000  1
  O  O19  1  0.81023700  0.48469400  0.41182100  1
  O  O20  1  0.81338400  0.15206100  0.75024200  1
  O  O21  1  0.18976300  0.51530600  0.58817900  1
  O  O22  1  0.51804200  0.50725500  0.26539000  1
  O  O23  1  0.51495300  0.19195600  0.57891100  1
  O  O24  1  0.14116400  0.48645000  0.07951900  1
  O  O25  1  0.15671600  0.15822300  0.40074300  1
  O  O26  1  0.48065200  0.14921300  0.08401200  1
  O  O27  1  0.85883600  0.51355000  0.92048100  1
  O  O28  1  0.84903500  0.19266800  0.24474800  1
  O  O29  1  0.17244100  0.18500400  0.92715100  1
  O  O30  1  0.84328400  0.84177700  0.59925700  1
  O  O31  1  0.18661600  0.84793900  0.24975800  1
  O  O32  1  0.51934800  0.85078700  0.91598800  1
