# generated using pymatgen
data_W3O8
_symmetry_space_group_name_H-M   'P 1'
_cell_length_a   12.51901177
_cell_length_b   7.73880200
_cell_length_c   6.25990485
_cell_angle_alpha   90.00000000
_cell_angle_beta   117.43002494
_cell_angle_gamma   90.00000000
_symmetry_Int_Tables_number   1
_chemical_formula_structural   W3O8
_chemical_formula_sum   'W12 O32'
_cell_volume   538.28978372
_cell_formula_units_Z   4
loop_
 _symmetry_equiv_pos_site_id
 _symmetry_equiv_pos_as_xyz
  1  'x, y, z'
loop_
 _atom_site_type_symbol
 _atom_site_label
 _atom_site_symmetry_multiplicity
 _atom_site_fract_x
 _atom_site_fract_y
 _atom_site_fract_z
 _atom_site_occupancy
  W  W0  1  0.65962900  0.50000000  0.68108900  1
  W  W1  1  0.15870100  0.50000000  0.68196400  1
  W  W2  1  0.84274400  0.50000000  0.31321000  1
  W  W3  1  0.34293200  0.50000000  0.31548800  1
  W  W4  1  0.49962600  0.50000000  0.99969000  1
  W  W5  1  0.00012700  0.50000000  0.00120100  1
  W  W6  1  0.15962900  0.00000000  0.68108900  1
  W  W7  1  0.65870100  0.00000000  0.68196400  1
  W  W8  1  0.34274400  0.00000000  0.31321000  1
  W  W9  1  0.84293200  0.00000000  0.31548800  1
  W  W10  1  0.99962600  0.00000000  0.99969000  1
  W  W11  1  0.50012700  0.00000000  0.00120100  1
  O  O12  1  0.33178900  0.50000000  0.96569600  1
  O  O13  1  0.83387300  0.50000000  0.96915400  1
  O  O14  1  0.16930800  0.50000000  0.03641900  1
  O  O15  1  0.66982900  0.50000000  0.03722200  1
  O  O16  1  0.98131100  0.50000000  0.66071300  1
  O  O17  1  0.48162800  0.50000000  0.66087200  1
  O  O18  1  0.51445300  0.50000000  0.33178400  1
  O  O19  1  0.01818000  0.50000000  0.33697100  1
  O  O20  1  0.74760300  0.50000000  0.50471600  1
  O  O21  1  0.24942000  0.50000000  0.50127400  1
  O  O22  1  0.00040950  0.75011950  0.99925000  1
  O  O23  1  0.00040950  0.24988050  0.99925000  1
  O  O24  1  0.84439250  0.24339850  0.31109200  1
  O  O25  1  0.84439250  0.75660150  0.31109200  1
  O  O26  1  0.15462200  0.74212700  0.69092800  1
  O  O27  1  0.15462200  0.25787300  0.69092800  1
  O  O28  1  0.83178900  0.00000000  0.96569600  1
  O  O29  1  0.33387300  0.00000000  0.96915400  1
  O  O30  1  0.66930800  0.00000000  0.03641900  1
  O  O31  1  0.16982900  0.00000000  0.03722200  1
  O  O32  1  0.48131100  0.00000000  0.66071300  1
  O  O33  1  0.98162800  0.00000000  0.66087200  1
  O  O34  1  0.01445300  0.00000000  0.33178400  1
  O  O35  1  0.51818000  0.00000000  0.33697100  1
  O  O36  1  0.24760300  0.00000000  0.50471600  1
  O  O37  1  0.74942000  0.00000000  0.50127400  1
  O  O38  1  0.50040950  0.25011950  0.99925000  1
  O  O39  1  0.50040950  0.74988050  0.99925000  1
  O  O40  1  0.34439250  0.74339850  0.31109200  1
  O  O41  1  0.34439250  0.25660150  0.31109200  1
  O  O42  1  0.65462200  0.24212700  0.69092800  1
  O  O43  1  0.65462200  0.75787300  0.69092800  1
