# generated using pymatgen
data_Li4Cr3Sn3(SbO8)2
_symmetry_space_group_name_H-M   'P 1'
_cell_length_a   10.70853000
_cell_length_b   6.22664400
_cell_length_c   10.12999182
_cell_angle_alpha   90.00000000
_cell_angle_beta   90.50969636
_cell_angle_gamma   90.00000000
_symmetry_Int_Tables_number   1
_chemical_formula_structural   Li4Cr3Sn3(SbO8)2
_chemical_formula_sum   'Li8 Cr6 Sn6 Sb4 O32'
_cell_volume   675.42293588
_cell_formula_units_Z   2
loop_
 _symmetry_equiv_pos_site_id
 _symmetry_equiv_pos_as_xyz
  1  'x, y, z'
loop_
 _atom_site_type_symbol
 _atom_site_label
 _atom_site_symmetry_multiplicity
 _atom_site_fract_x
 _atom_site_fract_y
 _atom_site_fract_z
 _atom_site_occupancy
  Li  Li0  1  0.66937200  0.00000000  0.10977700  1
  Li  Li1  1  0.99201300  0.00000000  0.00889400  1
  Li  Li2  1  0.99304900  0.00000000  0.50098900  1
  Li  Li3  1  0.33381600  0.00000000  0.60215200  1
  Li  Li4  1  0.16937200  0.50000000  0.10977700  1
  Li  Li5  1  0.49201300  0.50000000  0.00889400  1
  Li  Li6  1  0.49304900  0.50000000  0.50098900  1
  Li  Li7  1  0.83381600  0.50000000  0.60215200  1
  Cr  Cr8  1  0.83064000  0.00000000  0.78465500  1
  Cr  Cr9  1  0.41583350  0.75355550  0.28424500  1
  Cr  Cr10  1  0.41583350  0.24644450  0.28424500  1
  Cr  Cr11  1  0.33064000  0.50000000  0.78465500  1
  Cr  Cr12  1  0.91583350  0.25355550  0.28424500  1
  Cr  Cr13  1  0.91583350  0.74644450  0.28424500  1
  Sn  Sn14  1  0.58396600  0.75235700  0.78426800  1
  Sn  Sn15  1  0.58396600  0.24764300  0.78426800  1
  Sn  Sn16  1  0.16785000  0.00000000  0.28491300  1
  Sn  Sn17  1  0.08396600  0.25235700  0.78426800  1
  Sn  Sn18  1  0.08396600  0.74764300  0.78426800  1
  Sn  Sn19  1  0.66785000  0.50000000  0.28491300  1
  Sb  Sb20  1  0.67354400  0.00000000  0.49772500  1
  Sb  Sb21  1  0.34046600  0.00000000  0.01638900  1
  Sb  Sb22  1  0.17354400  0.50000000  0.49772500  1
  Sb  Sb23  1  0.84046600  0.50000000  0.01638900  1
  O  O24  1  0.57547750  0.73278050  0.39854700  1
  O  O25  1  0.51164600  0.00000000  0.66642300  1
  O  O26  1  0.67014800  0.00000000  0.89484400  1
  O  O27  1  0.99506000  0.00000000  0.68298800  1
  O  O28  1  0.99593500  0.00000000  0.18863900  1
  O  O29  1  0.57547750  0.26721950  0.39854700  1
  O  O30  1  0.74510300  0.77409600  0.66960400  1
  O  O31  1  0.74510300  0.22590400  0.66960400  1
  O  O32  1  0.15401900  0.00000000  0.90342800  1
  O  O33  1  0.84451100  0.00000000  0.39131700  1
  O  O34  1  0.26131950  0.77343150  0.16417300  1
  O  O35  1  0.26131950  0.22656850  0.16417300  1
  O  O36  1  0.33672600  0.00000000  0.38946100  1
  O  O37  1  0.42189850  0.72767650  0.89825800  1
  O  O38  1  0.48417500  0.00000000  0.17132800  1
  O  O39  1  0.42189850  0.27232350  0.89825800  1
  O  O40  1  0.07547750  0.23278050  0.39854700  1
  O  O41  1  0.01164600  0.50000000  0.66642300  1
  O  O42  1  0.17014800  0.50000000  0.89484400  1
  O  O43  1  0.49506000  0.50000000  0.68298800  1
  O  O44  1  0.49593500  0.50000000  0.18863900  1
  O  O45  1  0.07547750  0.76721950  0.39854700  1
  O  O46  1  0.24510300  0.27409600  0.66960400  1
  O  O47  1  0.24510300  0.72590400  0.66960400  1
  O  O48  1  0.65401900  0.50000000  0.90342800  1
  O  O49  1  0.34451100  0.50000000  0.39131700  1
  O  O50  1  0.76131950  0.27343150  0.16417300  1
  O  O51  1  0.76131950  0.72656850  0.16417300  1
  O  O52  1  0.83672600  0.50000000  0.38946100  1
  O  O53  1  0.92189850  0.22767650  0.89825800  1
  O  O54  1  0.98417500  0.50000000  0.17132800  1
  O  O55  1  0.92189850  0.77232350  0.89825800  1
