# generated using pymatgen
data_SbP6(WO8)3
_symmetry_space_group_name_H-M   'P 1'
_cell_length_a   8.85826217
_cell_length_b   8.85826217
_cell_length_c   22.39200884
_cell_angle_alpha   90.00000000
_cell_angle_beta   90.00000000
_cell_angle_gamma   120.00000000
_symmetry_Int_Tables_number   1
_chemical_formula_structural   SbP6(WO8)3
_chemical_formula_sum   'Sb3 P18 W9 O72'
_cell_volume   1521.67094254
_cell_formula_units_Z   3
loop_
 _symmetry_equiv_pos_site_id
 _symmetry_equiv_pos_as_xyz
  1  'x, y, z'
loop_
 _atom_site_type_symbol
 _atom_site_label
 _atom_site_symmetry_multiplicity
 _atom_site_fract_x
 _atom_site_fract_y
 _atom_site_fract_z
 _atom_site_occupancy
  Sb  Sb0  1  0.66666667  0.33333333  0.19202233  1
  Sb  Sb1  1  0.33333333  0.66666667  0.52535567  1
  Sb  Sb2  1  0.00000000  0.00000000  0.85868900  1
  P  P3  1  0.67054367  0.62557033  0.08370433  1
  P  P4  1  0.95502667  0.32945633  0.08370433  1
  P  P5  1  0.37442967  0.04497333  0.08370433  1
  P  P6  1  0.28025933  0.29154867  0.24967267  1
  P  P7  1  0.70845133  0.98871067  0.24967267  1
  P  P8  1  0.01128933  0.71974067  0.24967267  1
  P  P9  1  0.33721033  0.95890367  0.41703767  1
  P  P10  1  0.62169333  0.66278967  0.41703767  1
  P  P11  1  0.04109633  0.37830667  0.41703767  1
  P  P12  1  0.94692600  0.62488200  0.58300600  1
  P  P13  1  0.37511800  0.32204400  0.58300600  1
  P  P14  1  0.67795600  0.05307400  0.58300600  1
  P  P15  1  0.00387700  0.29223700  0.75037100  1
  P  P16  1  0.28836000  0.99612300  0.75037100  1
  P  P17  1  0.70776300  0.71164000  0.75037100  1
  P  P18  1  0.61359267  0.95821533  0.91633933  1
  P  P19  1  0.04178467  0.65537733  0.91633933  1
  P  P20  1  0.34462267  0.38640733  0.91633933  1
  W  W21  1  0.00000000  0.00000000  0.14383700  1
  W  W22  1  0.33333333  0.66666667  0.02369867  1
  W  W23  1  0.33333333  0.66666667  0.31119867  1
  W  W24  1  0.66666667  0.33333333  0.47717033  1
  W  W25  1  0.00000000  0.00000000  0.35703200  1
  W  W26  1  0.00000000  0.00000000  0.64453200  1
  W  W27  1  0.33333333  0.66666667  0.81050367  1
  W  W28  1  0.66666667  0.33333333  0.69036533  1
  W  W29  1  0.66666667  0.33333333  0.97786533  1
  O  O30  1  0.00411133  0.81929267  0.30357167  1
  O  O31  1  0.18070733  0.18481867  0.30357167  1
  O  O32  1  0.84266667  0.80204133  0.09183333  1
  O  O33  1  0.81518133  0.99588867  0.30357167  1
  O  O34  1  0.52723133  0.66954867  0.07276467  1
  O  O35  1  0.62416500  0.51146700  0.13973200  1
  O  O36  1  0.95937467  0.15733333  0.09183333  1
  O  O37  1  0.14231733  0.47276867  0.07276467  1
  O  O38  1  0.33045133  0.85768267  0.07276467  1
  O  O39  1  0.17373033  0.20734267  0.19151467  1
  O  O40  1  0.46000567  0.30629133  0.24783033  1
  O  O41  1  0.79265733  0.96638767  0.19151467  1
  O  O42  1  0.88730200  0.37583500  0.13973200  1
  O  O43  1  0.19795867  0.04062533  0.09183333  1
  O  O44  1  0.48853300  0.11269800  0.13973200  1
  O  O45  1  0.29929667  0.47492033  0.25654233  1
  O  O46  1  0.52507967  0.82437633  0.25654233  1
  O  O47  1  0.69370867  0.15371433  0.24783033  1
  O  O48  1  0.03361233  0.82626967  0.19151467  1
  O  O49  1  0.17562367  0.70070333  0.25654233  1
  O  O50  1  0.83679300  0.30103100  0.02813700  1
  O  O51  1  0.84628567  0.53999433  0.24783033  1
  O  O52  1  0.46423800  0.16320700  0.02813700  1
  O  O53  1  0.69896900  0.53576200  0.02813700  1
  O  O54  1  0.67077800  0.15262600  0.63690500  1
  O  O55  1  0.84737400  0.51815200  0.63690500  1
  O  O56  1  0.50933333  0.13537467  0.42516667  1
  O  O57  1  0.48184800  0.32922200  0.63690500  1
  O  O58  1  0.19389800  0.00288200  0.40609800  1
  O  O59  1  0.29083167  0.84480033  0.47306533  1
  O  O60  1  0.62604133  0.49066667  0.42516667  1
  O  O61  1  0.80898400  0.80610200  0.40609800  1
  O  O62  1  0.99711800  0.19101600  0.40609800  1
  O  O63  1  0.84039700  0.54067600  0.52484800  1
  O  O64  1  0.12667233  0.63962467  0.58116367  1
  O  O65  1  0.45932400  0.29972100  0.52484800  1
  O  O66  1  0.55396867  0.70916833  0.47306533  1
  O  O67  1  0.86462533  0.37395867  0.42516667  1
  O  O68  1  0.15519967  0.44603133  0.47306533  1
  O  O69  1  0.96596333  0.80825367  0.58987567  1
  O  O70  1  0.19174633  0.15770967  0.58987567  1
  O  O71  1  0.36037533  0.48704767  0.58116367  1
  O  O72  1  0.70027900  0.15960300  0.52484800  1
  O  O73  1  0.84229033  0.03403667  0.58987567  1
  O  O74  1  0.50345967  0.63436433  0.36147033  1
  O  O75  1  0.51295233  0.87332767  0.58116367  1
  O  O76  1  0.13090467  0.49654033  0.36147033  1
  O  O77  1  0.36563567  0.86909533  0.36147033  1
  O  O78  1  0.33744467  0.48595933  0.97023833  1
  O  O79  1  0.51404067  0.85148533  0.97023833  1
  O  O80  1  0.17600000  0.46870800  0.75850000  1
  O  O81  1  0.14851467  0.66255533  0.97023833  1
  O  O82  1  0.86056467  0.33621533  0.73943133  1
  O  O83  1  0.95749833  0.17813367  0.80639867  1
  O  O84  1  0.29270800  0.82400000  0.75850000  1
  O  O85  1  0.47565067  0.13943533  0.73943133  1
  O  O86  1  0.66378467  0.52434933  0.73943133  1
  O  O87  1  0.50706367  0.87400933  0.85818133  1
  O  O88  1  0.79333900  0.97295800  0.91449700  1
  O  O89  1  0.12599067  0.63305433  0.85818133  1
  O  O90  1  0.22063533  0.04250167  0.80639867  1
  O  O91  1  0.53129200  0.70729200  0.75850000  1
  O  O92  1  0.82186633  0.77936467  0.80639867  1
  O  O93  1  0.63263000  0.14158700  0.92320900  1
  O  O94  1  0.85841300  0.49104300  0.92320900  1
  O  O95  1  0.02704200  0.82038100  0.91449700  1
  O  O96  1  0.36694567  0.49293633  0.85818133  1
  O  O97  1  0.50895700  0.36737000  0.92320900  1
  O  O98  1  0.17012633  0.96769767  0.69480367  1
  O  O99  1  0.17961900  0.20666100  0.91449700  1
  O  O100  1  0.79757133  0.82987367  0.69480367  1
  O  O101  1  0.03230233  0.20242867  0.69480367  1
