# generated using pymatgen
data_LiMn3CrO8
_symmetry_space_group_name_H-M   'P 1'
_cell_length_a   10.14985200
_cell_length_b   5.84104400
_cell_length_c   6.12208218
_cell_angle_alpha   90.00000000
_cell_angle_beta   123.65918408
_cell_angle_gamma   90.00000000
_symmetry_Int_Tables_number   1
_chemical_formula_structural   LiMn3CrO8
_chemical_formula_sum   'Li2 Mn6 Cr2 O16'
_cell_volume   302.10289805
_cell_formula_units_Z   2
loop_
 _symmetry_equiv_pos_site_id
 _symmetry_equiv_pos_as_xyz
  1  'x, y, z'
loop_
 _atom_site_type_symbol
 _atom_site_label
 _atom_site_symmetry_multiplicity
 _atom_site_fract_x
 _atom_site_fract_y
 _atom_site_fract_z
 _atom_site_occupancy
  Li  Li0  1  0.00000000  0.00000000  0.50000000  1
  Li  Li1  1  0.50000000  0.50000000  0.50000000  1
  Mn  Mn2  1  0.00000000  0.50000000  0.00000000  1
  Mn  Mn3  1  0.75000000  0.75000000  0.00000000  1
  Mn  Mn4  1  0.75000000  0.25000000  0.00000000  1
  Mn  Mn5  1  0.50000000  0.00000000  0.00000000  1
  Mn  Mn6  1  0.25000000  0.25000000  0.00000000  1
  Mn  Mn7  1  0.25000000  0.75000000  0.00000000  1
  Cr  Cr8  1  0.00000000  0.00000000  0.00000000  1
  Cr  Cr9  1  0.50000000  0.50000000  0.00000000  1
  O  O10  1  0.02131950  0.25362050  0.80515000  1
  O  O11  1  0.02131950  0.74637950  0.80515000  1
  O  O12  1  0.73552900  0.00000000  0.19879400  1
  O  O13  1  0.73451200  0.50000000  0.18945100  1
  O  O14  1  0.26548800  0.50000000  0.81054900  1
  O  O15  1  0.26447100  0.00000000  0.80120600  1
  O  O16  1  0.97868050  0.25362050  0.19485000  1
  O  O17  1  0.97868050  0.74637950  0.19485000  1
  O  O18  1  0.52131950  0.75362050  0.80515000  1
  O  O19  1  0.52131950  0.24637950  0.80515000  1
  O  O20  1  0.23552900  0.50000000  0.19879400  1
  O  O21  1  0.23451200  0.00000000  0.18945100  1
  O  O22  1  0.76548800  0.00000000  0.81054900  1
  O  O23  1  0.76447100  0.50000000  0.80120600  1
  O  O24  1  0.47868050  0.75362050  0.19485000  1
  O  O25  1  0.47868050  0.24637950  0.19485000  1
