# generated using pymatgen
data_Li5Ni5(SbO6)2
_symmetry_space_group_name_H-M   'P 1'
_cell_length_a   5.21577000
_cell_length_b   9.14194200
_cell_length_c   10.02270372
_cell_angle_alpha   90.00000000
_cell_angle_beta   100.96189852
_cell_angle_gamma   90.00000000
_symmetry_Int_Tables_number   1
_chemical_formula_structural   Li5Ni5(SbO6)2
_chemical_formula_sum   'Li10 Ni10 Sb4 O24'
_cell_volume   469.18530421
_cell_formula_units_Z   2
loop_
 _symmetry_equiv_pos_site_id
 _symmetry_equiv_pos_as_xyz
  1  'x, y, z'
loop_
 _atom_site_type_symbol
 _atom_site_label
 _atom_site_symmetry_multiplicity
 _atom_site_fract_x
 _atom_site_fract_y
 _atom_site_fract_z
 _atom_site_occupancy
  Li  Li0  1  0.75109000  0.92426400  0.74499700  1
  Li  Li1  1  0.25165500  0.57738400  0.25684400  1
  Li  Li2  1  0.24891000  0.92426400  0.25500300  1
  Li  Li3  1  0.74834500  0.57738400  0.74315600  1
  Li  Li4  1  0.00000000  0.91605700  0.50000000  1
  Li  Li5  1  0.25109000  0.42426400  0.74499700  1
  Li  Li6  1  0.75165500  0.07738400  0.25684400  1
  Li  Li7  1  0.74891000  0.42426400  0.25500300  1
  Li  Li8  1  0.24834500  0.07738400  0.74315600  1
  Li  Li9  1  0.50000000  0.41605700  0.50000000  1
  Ni  Ni10  1  0.50000000  0.58129700  0.00000000  1
  Ni  Ni11  1  0.75119500  0.75224700  0.25273900  1
  Ni  Ni12  1  0.24880500  0.75224700  0.74726100  1
  Ni  Ni13  1  0.50000000  0.91423400  0.00000000  1
  Ni  Ni14  1  0.00000000  0.58553900  0.50000000  1
  Ni  Ni15  1  0.00000000  0.08129700  0.00000000  1
  Ni  Ni16  1  0.25119500  0.25224700  0.25273900  1
  Ni  Ni17  1  0.74880500  0.25224700  0.74726100  1
  Ni  Ni18  1  0.00000000  0.41423400  0.00000000  1
  Ni  Ni19  1  0.50000000  0.08553900  0.50000000  1
  Sb  Sb20  1  0.50000000  0.75207400  0.50000000  1
  Sb  Sb21  1  0.00000000  0.74749800  0.00000000  1
  Sb  Sb22  1  0.00000000  0.25207400  0.50000000  1
  Sb  Sb23  1  0.50000000  0.24749800  0.00000000  1
  O  O24  1  0.62756550  0.59964850  0.38155600  1
  O  O25  1  0.37243450  0.59964850  0.61844400  1
  O  O26  1  0.61795000  0.74797800  0.88037300  1
  O  O27  1  0.38205000  0.74797800  0.11962700  1
  O  O28  1  0.61542600  0.90766700  0.38226300  1
  O  O29  1  0.38457400  0.90766700  0.61773700  1
  O  O30  1  0.12949050  0.58487150  0.87656000  1
  O  O31  1  0.87050950  0.58487150  0.12344000  1
  O  O32  1  0.14026350  0.74600750  0.38209100  1
  O  O33  1  0.85973650  0.74600750  0.61790900  1
  O  O34  1  0.12868400  0.91158300  0.87637200  1
  O  O35  1  0.87131600  0.91158300  0.12362800  1
  O  O36  1  0.12756550  0.09964850  0.38155600  1
  O  O37  1  0.87243450  0.09964850  0.61844400  1
  O  O38  1  0.11795000  0.24797800  0.88037300  1
  O  O39  1  0.88205000  0.24797800  0.11962700  1
  O  O40  1  0.11542600  0.40766700  0.38226300  1
  O  O41  1  0.88457400  0.40766700  0.61773700  1
  O  O42  1  0.62949050  0.08487150  0.87656000  1
  O  O43  1  0.37050950  0.08487150  0.12344000  1
  O  O44  1  0.64026350  0.24600750  0.38209100  1
  O  O45  1  0.35973650  0.24600750  0.61790900  1
  O  O46  1  0.62868400  0.41158300  0.87637200  1
  O  O47  1  0.37131600  0.41158300  0.12362800  1
