# generated using pymatgen
data_Mn(PO4)2
_symmetry_space_group_name_H-M   'P 1'
_cell_length_a   9.01247800
_cell_length_b   4.91482600
_cell_length_c   13.54672018
_cell_angle_alpha   90.00000000
_cell_angle_beta   105.88570398
_cell_angle_gamma   90.00000000
_symmetry_Int_Tables_number   1
_chemical_formula_structural   Mn(PO4)2
_chemical_formula_sum   'Mn4 P8 O32'
_cell_volume   577.13265554
_cell_formula_units_Z   4
loop_
 _symmetry_equiv_pos_site_id
 _symmetry_equiv_pos_as_xyz
  1  'x, y, z'
loop_
 _atom_site_type_symbol
 _atom_site_label
 _atom_site_symmetry_multiplicity
 _atom_site_fract_x
 _atom_site_fract_y
 _atom_site_fract_z
 _atom_site_occupancy
  Mn  Mn0  1  0.50000000  0.50000000  0.50000000  1
  Mn  Mn1  1  0.00000000  0.00000000  0.00000000  1
  Mn  Mn2  1  0.00000000  0.00000000  0.50000000  1
  Mn  Mn3  1  0.50000000  0.50000000  0.00000000  1
  P  P4  1  0.36952950  0.96839650  0.11004600  1
  P  P5  1  0.36952950  0.03160350  0.61004600  1
  P  P6  1  0.63047050  0.96839650  0.38995400  1
  P  P7  1  0.63047050  0.03160350  0.88995400  1
  P  P8  1  0.86952950  0.46839650  0.11004600  1
  P  P9  1  0.86952950  0.53160350  0.61004600  1
  P  P10  1  0.13047050  0.46839650  0.38995400  1
  P  P11  1  0.13047050  0.53160350  0.88995400  1
  O  O12  1  0.45690950  0.69969050  0.11060300  1
  O  O13  1  0.41391550  0.93169450  0.73029600  1
  O  O14  1  0.40760950  0.81706150  0.54078300  1
  O  O15  1  0.19710200  0.91095900  0.09331200  1
  O  O16  1  0.69710200  0.58904100  0.59331200  1
  O  O17  1  0.40760950  0.18293850  0.04078300  1
  O  O18  1  0.41391550  0.06830550  0.23029600  1
  O  O19  1  0.45690950  0.30030950  0.61060300  1
  O  O20  1  0.54309050  0.69969050  0.38939700  1
  O  O21  1  0.58608450  0.93169450  0.76970400  1
  O  O22  1  0.59239050  0.81706150  0.95921700  1
  O  O23  1  0.30289800  0.41095900  0.40668800  1
  O  O24  1  0.80289800  0.08904100  0.90668800  1
  O  O25  1  0.59239050  0.18293850  0.45921700  1
  O  O26  1  0.58608450  0.06830550  0.26970400  1
  O  O27  1  0.54309050  0.30030950  0.88939700  1
  O  O28  1  0.95690950  0.19969050  0.11060300  1
  O  O29  1  0.91391550  0.43169450  0.73029600  1
  O  O30  1  0.90760950  0.31706150  0.54078300  1
  O  O31  1  0.69710200  0.41095900  0.09331200  1
  O  O32  1  0.19710200  0.08904100  0.59331200  1
  O  O33  1  0.90760950  0.68293850  0.04078300  1
  O  O34  1  0.91391550  0.56830550  0.23029600  1
  O  O35  1  0.95690950  0.80030950  0.61060300  1
  O  O36  1  0.04309050  0.19969050  0.38939700  1
  O  O37  1  0.08608450  0.43169450  0.76970400  1
  O  O38  1  0.09239050  0.31706150  0.95921700  1
  O  O39  1  0.80289800  0.91095900  0.40668800  1
  O  O40  1  0.30289800  0.58904100  0.90668800  1
  O  O41  1  0.09239050  0.68293850  0.45921700  1
  O  O42  1  0.08608450  0.56830550  0.26970400  1
  O  O43  1  0.04309050  0.80030950  0.88939700  1
