# generated using pymatgen
data_Mn21O40
_symmetry_space_group_name_H-M   'P 1'
_cell_length_a   13.10688800
_cell_length_b   13.10688800
_cell_length_c   8.35299600
_cell_angle_alpha   90.00000000
_cell_angle_beta   90.00000000
_cell_angle_gamma   90.00000000
_symmetry_Int_Tables_number   1
_chemical_formula_structural   Mn21O40
_chemical_formula_sum   'Mn42 O80'
_cell_volume   1434.96546830
_cell_formula_units_Z   2
loop_
 _symmetry_equiv_pos_site_id
 _symmetry_equiv_pos_as_xyz
  1  'x, y, z'
loop_
 _atom_site_type_symbol
 _atom_site_label
 _atom_site_symmetry_multiplicity
 _atom_site_fract_x
 _atom_site_fract_y
 _atom_site_fract_z
 _atom_site_occupancy
  Mn  Mn0  1  0.34811700  0.70318200  0.87447900  1
  Mn  Mn1  1  0.70047800  0.14917400  0.12565900  1
  Mn  Mn2  1  0.89909750  0.05047250  0.12115050  1
  Mn  Mn3  1  0.10090250  0.94952750  0.12115050  1
  Mn  Mn4  1  0.00000000  0.00000000  0.50000000  1
  Mn  Mn5  1  0.44952750  0.39909750  0.37884950  1
  Mn  Mn6  1  0.65188300  0.29681800  0.87447900  1
  Mn  Mn7  1  0.74642250  0.99945550  0.37463150  1
  Mn  Mn8  1  0.50054450  0.24642250  0.12536850  1
  Mn  Mn9  1  0.79681800  0.84811700  0.62552100  1
  Mn  Mn10  1  0.59910750  0.94963050  0.62536750  1
  Mn  Mn11  1  0.44963050  0.90089250  0.87463250  1
  Mn  Mn12  1  0.55036950  0.09910750  0.87463250  1
  Mn  Mn13  1  0.35082600  0.20047800  0.37434100  1
  Mn  Mn14  1  0.64917400  0.79952200  0.37434100  1
  Mn  Mn15  1  0.20318200  0.15188300  0.62552100  1
  Mn  Mn16  1  0.49945550  0.75357750  0.12536850  1
  Mn  Mn17  1  0.40089250  0.05036950  0.62536750  1
  Mn  Mn18  1  0.25357750  0.00054450  0.37463150  1
  Mn  Mn19  1  0.55047250  0.60090250  0.37884950  1
  Mn  Mn20  1  0.29952200  0.85082600  0.12565900  1
  Mn  Mn21  1  0.84811700  0.20318200  0.37447900  1
  Mn  Mn22  1  0.20047800  0.64917400  0.62565900  1
  Mn  Mn23  1  0.39909750  0.55047250  0.62115050  1
  Mn  Mn24  1  0.60090250  0.44952750  0.62115050  1
  Mn  Mn25  1  0.50000000  0.50000000  0.00000000  1
  Mn  Mn26  1  0.94952750  0.89909750  0.87884950  1
  Mn  Mn27  1  0.15188300  0.79681800  0.37447900  1
  Mn  Mn28  1  0.24642250  0.49945550  0.87463150  1
  Mn  Mn29  1  0.00054450  0.74642250  0.62536850  1
  Mn  Mn30  1  0.29681800  0.34811700  0.12552100  1
  Mn  Mn31  1  0.09910750  0.44963050  0.12536750  1
  Mn  Mn32  1  0.94963050  0.40089250  0.37463250  1
  Mn  Mn33  1  0.05036950  0.59910750  0.37463250  1
  Mn  Mn34  1  0.85082600  0.70047800  0.87434100  1
  Mn  Mn35  1  0.14917400  0.29952200  0.87434100  1
  Mn  Mn36  1  0.70318200  0.65188300  0.12552100  1
  Mn  Mn37  1  0.99945550  0.25357750  0.62536850  1
  Mn  Mn38  1  0.90089250  0.55036950  0.12536750  1
  Mn  Mn39  1  0.75357750  0.50054450  0.87463150  1
  Mn  Mn40  1  0.05047250  0.10090250  0.87884950  1
  Mn  Mn41  1  0.79952200  0.35082600  0.62565900  1
  O  O42  1  0.35633900  0.71272200  0.10842100  1
  O  O43  1  0.34334850  0.68851350  0.64104350  1
  O  O44  1  0.54394500  0.58787000  0.61150700  1
  O  O45  1  0.91213000  0.04394500  0.88849300  1
  O  O46  1  0.08787000  0.95605500  0.88849300  1
  O  O47  1  0.71120700  0.14436000  0.35852800  1
  O  O48  1  0.28879300  0.85564000  0.35852800  1
  O  O49  1  0.11293350  0.94341750  0.35993750  1
  O  O50  1  0.88706650  0.05658250  0.35993750  1
  O  O51  1  0.68891400  0.15434700  0.89101800  1
  O  O52  1  0.75536650  0.01193950  0.14097550  1
  O  O53  1  0.65665150  0.31148650  0.64104350  1
  O  O54  1  0.45605500  0.41213000  0.61150700  1
  O  O55  1  0.64366100  0.28727800  0.10842100  1
  O  O56  1  0.54435750  0.08783350  0.64131050  1
  O  O57  1  0.44341750  0.38706650  0.14006250  1
  O  O58  1  0.74344750  0.98714150  0.60876650  1
  O  O59  1  0.58783350  0.95564250  0.85868950  1
  O  O60  1  0.51285850  0.24344750  0.89123350  1
  O  O61  1  0.78727800  0.85633900  0.39157900  1
  O  O62  1  0.61016200  0.94375900  0.39109400  1
  O  O63  1  0.81148650  0.84334850  0.85895650  1
  O  O64  1  0.48806050  0.25536650  0.35902450  1
  O  O65  1  0.45564250  0.91216650  0.64131050  1
  O  O66  1  0.55624100  0.11016200  0.10890600  1
  O  O67  1  0.35564000  0.21120700  0.14147200  1
  O  O68  1  0.65434700  0.81108600  0.60898200  1
  O  O69  1  0.64436000  0.78879300  0.14147200  1
  O  O70  1  0.44375900  0.88983800  0.10890600  1
  O  O71  1  0.34565300  0.18891400  0.60898200  1
  O  O72  1  0.41216650  0.04435750  0.85868950  1
  O  O73  1  0.51193950  0.74463350  0.35902450  1
  O  O74  1  0.38983800  0.05624100  0.39109400  1
  O  O75  1  0.21272200  0.14366100  0.39157900  1
  O  O76  1  0.18851350  0.15665150  0.85895650  1
  O  O77  1  0.48714150  0.75655250  0.89123350  1
  O  O78  1  0.31108600  0.84565300  0.89101800  1
  O  O79  1  0.55658250  0.61293350  0.14006250  1
  O  O80  1  0.25655250  0.01285850  0.60876650  1
  O  O81  1  0.24463350  0.98806050  0.14097550  1
  O  O82  1  0.85633900  0.21272200  0.60842100  1
  O  O83  1  0.84334850  0.18851350  0.14104350  1
  O  O84  1  0.04394500  0.08787000  0.11150700  1
  O  O85  1  0.41213000  0.54394500  0.38849300  1
  O  O86  1  0.58787000  0.45605500  0.38849300  1
  O  O87  1  0.21120700  0.64436000  0.85852800  1
  O  O88  1  0.78879300  0.35564000  0.85852800  1
  O  O89  1  0.61293350  0.44341750  0.85993750  1
  O  O90  1  0.38706650  0.55658250  0.85993750  1
  O  O91  1  0.18891400  0.65434700  0.39101800  1
  O  O92  1  0.25536650  0.51193950  0.64097550  1
  O  O93  1  0.15665150  0.81148650  0.14104350  1
  O  O94  1  0.95605500  0.91213000  0.11150700  1
  O  O95  1  0.14366100  0.78727800  0.60842100  1
  O  O96  1  0.04435750  0.58783350  0.14131050  1
  O  O97  1  0.94341750  0.88706650  0.64006250  1
  O  O98  1  0.24344750  0.48714150  0.10876650  1
  O  O99  1  0.08783350  0.45564250  0.35868950  1
  O  O100  1  0.01285850  0.74344750  0.39123350  1
  O  O101  1  0.28727800  0.35633900  0.89157900  1
  O  O102  1  0.11016200  0.44375900  0.89109400  1
  O  O103  1  0.31148650  0.34334850  0.35895650  1
  O  O104  1  0.98806050  0.75536650  0.85902450  1
  O  O105  1  0.95564250  0.41216650  0.14131050  1
  O  O106  1  0.05624100  0.61016200  0.60890600  1
  O  O107  1  0.85564000  0.71120700  0.64147200  1
  O  O108  1  0.15434700  0.31108600  0.10898200  1
  O  O109  1  0.14436000  0.28879300  0.64147200  1
  O  O110  1  0.94375900  0.38983800  0.60890600  1
  O  O111  1  0.84565300  0.68891400  0.10898200  1
  O  O112  1  0.91216650  0.54435750  0.35868950  1
  O  O113  1  0.01193950  0.24463350  0.85902450  1
  O  O114  1  0.88983800  0.55624100  0.89109400  1
  O  O115  1  0.71272200  0.64366100  0.89157900  1
  O  O116  1  0.68851350  0.65665150  0.35895650  1
  O  O117  1  0.98714150  0.25655250  0.39123350  1
  O  O118  1  0.81108600  0.34565300  0.39101800  1
  O  O119  1  0.05658250  0.11293350  0.64006250  1
  O  O120  1  0.75655250  0.51285850  0.10876650  1
  O  O121  1  0.74463350  0.48806050  0.64097550  1
