# generated using pymatgen
data_Li4Co3(NiO4)3
_symmetry_space_group_name_H-M   'P 1'
_cell_length_a   5.66809916
_cell_length_b   5.85347221
_cell_length_c   6.55807494
_cell_angle_alpha   103.61199891
_cell_angle_beta   102.73300545
_cell_angle_gamma   91.52282518
_symmetry_Int_Tables_number   1
_chemical_formula_structural   Li4Co3(NiO4)3
_chemical_formula_sum   'Li4 Co3 Ni3 O12'
_cell_volume   205.56462305
_cell_formula_units_Z   1
loop_
 _symmetry_equiv_pos_site_id
 _symmetry_equiv_pos_as_xyz
  1  'x, y, z'
loop_
 _atom_site_type_symbol
 _atom_site_label
 _atom_site_symmetry_multiplicity
 _atom_site_fract_x
 _atom_site_fract_y
 _atom_site_fract_z
 _atom_site_occupancy
  Li  Li0  1  0.31526350  0.34442550  0.84205150  1
  Li  Li1  1  0.68473650  0.65557450  0.15794850  1
  Li  Li2  1  0.00000000  0.00000000  0.50000000  1
  Li  Li3  1  0.50000000  0.00000000  0.50000000  1
  Co  Co4  1  0.33239050  0.83199350  0.83493550  1
  Co  Co5  1  0.00000000  0.50000000  0.50000000  1
  Co  Co6  1  0.66760950  0.16800650  0.16506450  1
  Ni  Ni7  1  0.83386550  0.83144750  0.83437550  1
  Ni  Ni8  1  0.16613450  0.16855250  0.16562450  1
  Ni  Ni9  1  0.50000000  0.50000000  0.50000000  1
  O  O10  1  0.91679850  0.39702550  0.19562750  1
  O  O11  1  0.25321950  0.74307450  0.53019750  1
  O  O12  1  0.09325550  0.04815550  0.83850250  1
  O  O13  1  0.42946450  0.38417450  0.17135750  1
  O  O14  1  0.75076050  0.71968050  0.50154950  1
  O  O15  1  0.08320150  0.60297450  0.80437250  1
  O  O16  1  0.57764650  0.06142250  0.85224350  1
  O  O17  1  0.90674450  0.95184450  0.16149750  1
  O  O18  1  0.24923950  0.28031950  0.49845050  1
  O  O19  1  0.57053550  0.61582550  0.82864250  1
  O  O20  1  0.42235350  0.93857750  0.14775650  1
  O  O21  1  0.74678050  0.25692550  0.46980250  1
