# generated using pymatgen
data_LiCo3NiO8
_symmetry_space_group_name_H-M   'P 1'
_cell_length_a   5.67832830
_cell_length_b   5.67832830
_cell_length_c   15.02211900
_cell_angle_alpha   90.00000000
_cell_angle_beta   90.00000000
_cell_angle_gamma   120.00000000
_symmetry_Int_Tables_number   1
_chemical_formula_structural   LiCo3NiO8
_chemical_formula_sum   'Li3 Co9 Ni3 O24'
_cell_volume   419.47185506
_cell_formula_units_Z   3
loop_
 _symmetry_equiv_pos_site_id
 _symmetry_equiv_pos_as_xyz
  1  'x, y, z'
loop_
 _atom_site_type_symbol
 _atom_site_label
 _atom_site_symmetry_multiplicity
 _atom_site_fract_x
 _atom_site_fract_y
 _atom_site_fract_z
 _atom_site_occupancy
  Li  Li0  1  0.33333333  0.66666667  0.16666667  1
  Li  Li1  1  1.00000000  1.00000000  0.50000000  1
  Li  Li2  1  0.66666667  0.33333333  0.83333333  1
  Co  Co3  1  0.50000000  0.50000000  0.00000000  1
  Co  Co4  1  0.00000000  0.50000000  0.00000000  1
  Co  Co5  1  0.50000000  0.00000000  0.00000000  1
  Co  Co6  1  0.16666667  0.83333333  0.33333333  1
  Co  Co7  1  0.66666667  0.83333333  0.33333333  1
  Co  Co8  1  0.16666667  0.33333333  0.33333333  1
  Co  Co9  1  0.83333333  0.16666667  0.66666667  1
  Co  Co10  1  0.33333333  0.16666667  0.66666667  1
  Co  Co11  1  0.83333333  0.66666667  0.66666667  1
  Ni  Ni12  1  0.00000000  0.00000000  0.00000000  1
  Ni  Ni13  1  0.66666667  0.33333333  0.33333333  1
  Ni  Ni14  1  0.33333333  0.66666667  0.66666667  1
  O  O15  1  0.17456567  0.82543433  0.06509633  1
  O  O16  1  0.66666667  0.33333333  0.06254067  1
  O  O17  1  0.17456567  0.34913133  0.06509633  1
  O  O18  1  0.65086867  0.82543433  0.06509633  1
  O  O19  1  0.01579800  0.50789900  0.26823700  1
  O  O20  1  0.49210100  0.98420200  0.26823700  1
  O  O21  1  0.00000000  0.00000000  0.27079267  1
  O  O22  1  0.49210100  0.50789900  0.26823700  1
  O  O23  1  0.84123233  0.15876767  0.39842967  1
  O  O24  1  0.33333333  0.66666667  0.39587400  1
  O  O25  1  0.84123233  0.68246467  0.39842967  1
  O  O26  1  0.31753533  0.15876767  0.39842967  1
  O  O27  1  0.68246467  0.84123233  0.60157033  1
  O  O28  1  0.15876767  0.31753533  0.60157033  1
  O  O29  1  0.66666667  0.33333333  0.60412600  1
  O  O30  1  0.15876767  0.84123233  0.60157033  1
  O  O31  1  0.50789900  0.49210100  0.73176300  1
  O  O32  1  0.00000000  0.00000000  0.72920733  1
  O  O33  1  0.50789900  0.01579800  0.73176300  1
  O  O34  1  0.98420200  0.49210100  0.73176300  1
  O  O35  1  0.34913133  0.17456567  0.93490367  1
  O  O36  1  0.82543433  0.65086867  0.93490367  1
  O  O37  1  0.33333333  0.66666667  0.93745933  1
  O  O38  1  0.82543433  0.17456567  0.93490367  1
