# generated using pymatgen
data_Li2Mn2Co(PO4)3
_symmetry_space_group_name_H-M   'P 1'
_cell_length_a   14.63059800
_cell_length_b   8.94373200
_cell_length_c   8.26812773
_cell_angle_alpha   90.00000000
_cell_angle_beta   120.17666115
_cell_angle_gamma   90.00000000
_symmetry_Int_Tables_number   1
_chemical_formula_structural   Li2Mn2Co(PO4)3
_chemical_formula_sum   'Li8 Mn8 Co4 P12 O48'
_cell_volume   935.28247342
_cell_formula_units_Z   4
loop_
 _symmetry_equiv_pos_site_id
 _symmetry_equiv_pos_as_xyz
  1  'x, y, z'
loop_
 _atom_site_type_symbol
 _atom_site_label
 _atom_site_symmetry_multiplicity
 _atom_site_fract_x
 _atom_site_fract_y
 _atom_site_fract_z
 _atom_site_occupancy
  Li  Li0  1  0.50000000  0.13785800  0.50000000  1
  Li  Li1  1  0.50000000  0.84502100  0.00000000  1
  Li  Li2  1  0.20144850  0.94999350  0.39832100  1
  Li  Li3  1  0.79855150  0.94999350  0.60167900  1
  Li  Li4  1  0.00000000  0.63785800  0.50000000  1
  Li  Li5  1  0.00000000  0.34502100  0.00000000  1
  Li  Li6  1  0.70144850  0.44999350  0.39832100  1
  Li  Li7  1  0.29855150  0.44999350  0.60167900  1
  Mn  Mn8  1  0.39568800  0.25107700  0.10454700  1
  Mn  Mn9  1  0.40370300  0.74940100  0.59411500  1
  Mn  Mn10  1  0.60431200  0.25107700  0.89545300  1
  Mn  Mn11  1  0.59629700  0.74940100  0.40588500  1
  Mn  Mn12  1  0.89568800  0.75107700  0.10454700  1
  Mn  Mn13  1  0.90370300  0.24940100  0.59411500  1
  Mn  Mn14  1  0.10431200  0.75107700  0.89545300  1
  Mn  Mn15  1  0.09629700  0.24940100  0.40588500  1
  Co  Co16  1  0.25374700  0.75177900  0.75720900  1
  Co  Co17  1  0.74625300  0.75177900  0.24279100  1
  Co  Co18  1  0.75374700  0.25177900  0.75720900  1
  Co  Co19  1  0.24625300  0.25177900  0.24279100  1
  P  P20  1  0.65421800  0.90772100  0.81912700  1
  P  P21  1  0.34578200  0.90772100  0.18087300  1
  P  P22  1  0.50000000  0.43687600  0.50000000  1
  P  P23  1  0.50000000  0.54237400  0.00000000  1
  P  P24  1  0.64839550  0.10111650  0.30650000  1
  P  P25  1  0.35160450  0.10111650  0.69350000  1
  P  P26  1  0.15421800  0.40772100  0.81912700  1
  P  P27  1  0.84578200  0.40772100  0.18087300  1
  P  P28  1  0.00000000  0.93687600  0.50000000  1
  P  P29  1  0.00000000  0.04237400  0.00000000  1
  P  P30  1  0.14839550  0.60111650  0.30650000  1
  P  P31  1  0.85160450  0.60111650  0.69350000  1
  O  O32  1  0.45485650  0.85956450  0.21604500  1
  O  O33  1  0.06452900  0.02750700  0.43677200  1
  O  O34  1  0.67517700  0.86244900  0.66114000  1
  O  O35  1  0.66557700  0.08455300  0.81916800  1
  O  O36  1  0.54514350  0.85956450  0.78395500  1
  O  O37  1  0.73739700  0.84552600  0.01351900  1
  O  O38  1  0.26260300  0.84552600  0.98648100  1
  O  O39  1  0.33442300  0.08455300  0.18083200  1
  O  O40  1  0.05691550  0.94374450  0.92688100  1
  O  O41  1  0.41548350  0.32638950  0.34915300  1
  O  O42  1  0.41320800  0.64966500  0.85148500  1
  O  O43  1  0.65484150  0.16549150  0.14116400  1
  O  O44  1  0.32482300  0.86244900  0.33886000  1
  O  O45  1  0.58451650  0.32638950  0.65084700  1
  O  O46  1  0.58679200  0.64966500  0.14851500  1
  O  O47  1  0.93547100  0.02750700  0.56322800  1
  O  O48  1  0.67234150  0.92855550  0.31582100  1
  O  O49  1  0.73698850  0.16500250  0.50180700  1
  O  O50  1  0.26301150  0.16500250  0.49819300  1
  O  O51  1  0.45721950  0.13790050  0.70803600  1
  O  O52  1  0.32765850  0.92855550  0.68417900  1
  O  O53  1  0.34515850  0.16549150  0.85883600  1
  O  O54  1  0.94308450  0.94374450  0.07311900  1
  O  O55  1  0.54278050  0.13790050  0.29196400  1
  O  O56  1  0.95485650  0.35956450  0.21604500  1
  O  O57  1  0.56452900  0.52750700  0.43677200  1
  O  O58  1  0.17517700  0.36244900  0.66114000  1
  O  O59  1  0.16557700  0.58455300  0.81916800  1
  O  O60  1  0.04514350  0.35956450  0.78395500  1
  O  O61  1  0.23739700  0.34552600  0.01351900  1
  O  O62  1  0.76260300  0.34552600  0.98648100  1
  O  O63  1  0.83442300  0.58455300  0.18083200  1
  O  O64  1  0.55691550  0.44374450  0.92688100  1
  O  O65  1  0.91548350  0.82638950  0.34915300  1
  O  O66  1  0.91320800  0.14966500  0.85148500  1
  O  O67  1  0.15484150  0.66549150  0.14116400  1
  O  O68  1  0.82482300  0.36244900  0.33886000  1
  O  O69  1  0.08451650  0.82638950  0.65084700  1
  O  O70  1  0.08679200  0.14966500  0.14851500  1
  O  O71  1  0.43547100  0.52750700  0.56322800  1
  O  O72  1  0.17234150  0.42855550  0.31582100  1
  O  O73  1  0.23698850  0.66500250  0.50180700  1
  O  O74  1  0.76301150  0.66500250  0.49819300  1
  O  O75  1  0.95721950  0.63790050  0.70803600  1
  O  O76  1  0.82765850  0.42855550  0.68417900  1
  O  O77  1  0.84515850  0.66549150  0.85883600  1
  O  O78  1  0.44308450  0.44374450  0.07311900  1
  O  O79  1  0.04278050  0.63790050  0.29196400  1
