# generated using pymatgen
data_Li4Fe3CuO8
_symmetry_space_group_name_H-M   'P 1'
_cell_length_a   5.93262221
_cell_length_b   5.93262221
_cell_length_c   14.67620874
_cell_angle_alpha   90.00000000
_cell_angle_beta   90.00000000
_cell_angle_gamma   120.00000000
_symmetry_Int_Tables_number   1
_chemical_formula_structural   Li4Fe3CuO8
_chemical_formula_sum   'Li12 Fe9 Cu3 O24'
_cell_volume   447.34016980
_cell_formula_units_Z   3
loop_
 _symmetry_equiv_pos_site_id
 _symmetry_equiv_pos_as_xyz
  1  'x, y, z'
loop_
 _atom_site_type_symbol
 _atom_site_label
 _atom_site_symmetry_multiplicity
 _atom_site_fract_x
 _atom_site_fract_y
 _atom_site_fract_z
 _atom_site_occupancy
  Li  Li0  1  0.83333333  0.16666667  0.16666667  1
  Li  Li1  1  0.33333333  0.16666667  0.16666667  1
  Li  Li2  1  0.33333333  0.66666667  0.16666667  1
  Li  Li3  1  0.83333333  0.66666667  0.16666667  1
  Li  Li4  1  0.50000000  0.50000000  0.50000000  1
  Li  Li5  1  0.00000000  0.50000000  0.50000000  1
  Li  Li6  1  1.00000000  1.00000000  0.50000000  1
  Li  Li7  1  0.50000000  0.00000000  0.50000000  1
  Li  Li8  1  0.16666667  0.83333333  0.83333333  1
  Li  Li9  1  0.66666667  0.83333333  0.83333333  1
  Li  Li10  1  0.66666667  0.33333333  0.83333333  1
  Li  Li11  1  0.16666667  0.33333333  0.83333333  1
  Fe  Fe12  1  0.00000000  0.50000000  0.00000000  1
  Fe  Fe13  1  0.50000000  0.50000000  0.00000000  1
  Fe  Fe14  1  0.50000000  0.00000000  0.00000000  1
  Fe  Fe15  1  0.66666667  0.83333333  0.33333333  1
  Fe  Fe16  1  0.16666667  0.83333333  0.33333333  1
  Fe  Fe17  1  0.16666667  0.33333333  0.33333333  1
  Fe  Fe18  1  0.33333333  0.16666667  0.66666667  1
  Fe  Fe19  1  0.83333333  0.16666667  0.66666667  1
  Fe  Fe20  1  0.83333333  0.66666667  0.66666667  1
  Cu  Cu21  1  0.00000000  0.00000000  0.00000000  1
  Cu  Cu22  1  0.66666667  0.33333333  0.33333333  1
  Cu  Cu23  1  0.33333333  0.66666667  0.66666667  1
  O  O24  1  0.66666667  0.33333333  0.07681333  1
  O  O25  1  0.49945867  0.99891733  0.25655733  1
  O  O26  1  0.16720800  0.83279200  0.07677600  1
  O  O27  1  0.66558400  0.83279200  0.07677600  1
  O  O28  1  0.00108267  0.50054133  0.25655733  1
  O  O29  1  0.49945867  0.50054133  0.25655733  1
  O  O30  1  0.16720800  0.33441600  0.07677600  1
  O  O31  1  0.00000000  0.00000000  0.25652000  1
  O  O32  1  0.33333333  0.66666667  0.41014667  1
  O  O33  1  0.16612533  0.33225067  0.58989067  1
  O  O34  1  0.83387467  0.16612533  0.41010933  1
  O  O35  1  0.33225067  0.16612533  0.41010933  1
  O  O36  1  0.66774933  0.83387467  0.58989067  1
  O  O37  1  0.16612533  0.83387467  0.58989067  1
  O  O38  1  0.83387467  0.66774933  0.41010933  1
  O  O39  1  0.66666667  0.33333333  0.58985333  1
  O  O40  1  0.00000000  0.00000000  0.74348000  1
  O  O41  1  0.83279200  0.66558400  0.92322400  1
  O  O42  1  0.50054133  0.49945867  0.74344267  1
  O  O43  1  0.99891733  0.49945867  0.74344267  1
  O  O44  1  0.33441600  0.16720800  0.92322400  1
  O  O45  1  0.83279200  0.16720800  0.92322400  1
  O  O46  1  0.50054133  0.00108267  0.74344267  1
  O  O47  1  0.33333333  0.66666667  0.92318667  1
