# generated using pymatgen
data_Mn3Fe(PO4)4
_symmetry_space_group_name_H-M   'P 1'
_cell_length_a   4.92070600
_cell_length_b   6.01260700
_cell_length_c   9.85369837
_cell_angle_alpha   90.00000000
_cell_angle_beta   90.27362671
_cell_angle_gamma   90.00000000
_symmetry_Int_Tables_number   1
_chemical_formula_structural   Mn3Fe(PO4)4
_chemical_formula_sum   'Mn3 Fe1 P4 O16'
_cell_volume   291.53086907
_cell_formula_units_Z   1
loop_
 _symmetry_equiv_pos_site_id
 _symmetry_equiv_pos_as_xyz
  1  'x, y, z'
loop_
 _atom_site_type_symbol
 _atom_site_label
 _atom_site_symmetry_multiplicity
 _atom_site_fract_x
 _atom_site_fract_y
 _atom_site_fract_z
 _atom_site_occupancy
  Mn  Mn0  1  0.92902100  0.50000000  0.71467800  1
  Mn  Mn1  1  0.56680900  0.50000000  0.21771000  1
  Mn  Mn2  1  0.43110500  0.00000000  0.78513500  1
  Fe  Fe3  1  0.04347500  0.00000000  0.27701800  1
  P  P4  1  0.91266400  0.00000000  0.60034900  1
  P  P5  1  0.58700800  0.00000000  0.09679300  1
  P  P6  1  0.41701500  0.50000000  0.90062600  1
  P  P7  1  0.08629200  0.50000000  0.40022400  1
  O  O8  1  0.85264200  0.00000000  0.44779600  1
  O  O9  1  0.77089200  0.79941200  0.67200400  1
  O  O10  1  0.77089200  0.20058800  0.67200400  1
  O  O11  1  0.77373900  0.50000000  0.38089300  1
  O  O12  1  0.72696000  0.50000000  0.88017600  1
  O  O13  1  0.73687000  0.80196000  0.17082300  1
  O  O14  1  0.73687000  0.19804000  0.17082300  1
  O  O15  1  0.65397100  0.00000000  0.94496000  1
  O  O16  1  0.35907700  0.50000000  0.05439000  1
  O  O17  1  0.27261000  0.29945300  0.83040200  1
  O  O18  1  0.27261000  0.70054700  0.83040200  1
  O  O19  1  0.28152300  0.00000000  0.11954800  1
  O  O20  1  0.22341100  0.00000000  0.62138200  1
  O  O21  1  0.22470400  0.29719700  0.32903300  1
  O  O22  1  0.22470400  0.70280300  0.32903300  1
  O  O23  1  0.14513400  0.50000000  0.55380100  1
