# generated using pymatgen
data_Li3MnPCO7
_symmetry_space_group_name_H-M   'P 1'
_cell_length_a   4.91102900
_cell_length_b   6.51824200
_cell_length_c   8.61467130
_cell_angle_alpha   90.00000000
_cell_angle_beta   94.35299893
_cell_angle_gamma   90.00000000
_symmetry_Int_Tables_number   1
_chemical_formula_structural   Li3MnPCO7
_chemical_formula_sum   'Li6 Mn2 P2 C2 O14'
_cell_volume   274.97112645
_cell_formula_units_Z   2
loop_
 _symmetry_equiv_pos_site_id
 _symmetry_equiv_pos_as_xyz
  1  'x, y, z'
loop_
 _atom_site_type_symbol
 _atom_site_label
 _atom_site_symmetry_multiplicity
 _atom_site_fract_x
 _atom_site_fract_y
 _atom_site_fract_z
 _atom_site_occupancy
  Li  Li0  1  0.77533600  0.73527500  0.89440400  1
  Li  Li1  1  0.23516400  0.51402500  0.71107900  1
  Li  Li2  1  0.77655000  0.26279400  0.64380100  1
  Li  Li3  1  0.22345000  0.76279400  0.35619900  1
  Li  Li4  1  0.76483600  0.01402500  0.28892100  1
  Li  Li5  1  0.22466400  0.23527500  0.10559600  1
  Mn  Mn6  1  0.25633400  0.00113600  0.73486100  1
  Mn  Mn7  1  0.74366600  0.50113600  0.26513900  1
  P  P8  1  0.72048400  0.75159500  0.59321100  1
  P  P9  1  0.27951600  0.25159500  0.40678900  1
  C  C10  1  0.70581100  0.24038600  0.95712400  1
  C  C11  1  0.29418900  0.74038600  0.04287600  1
  O  O12  1  0.95830400  0.23721200  0.93154100  1
  O  O13  1  0.36877300  0.75230000  0.89846600  1
  O  O14  1  0.51512700  0.23542400  0.84394600  1
  O  O15  1  0.82605600  0.94284700  0.68912600  1
  O  O16  1  0.82518700  0.56427900  0.69007700  1
  O  O17  1  0.18218800  0.25378500  0.57395800  1
  O  O18  1  0.40071700  0.75894200  0.58038200  1
  O  O19  1  0.59928300  0.25894200  0.41961800  1
  O  O20  1  0.81781200  0.75378500  0.42604200  1
  O  O21  1  0.17481300  0.06427900  0.30992300  1
  O  O22  1  0.17394400  0.44284700  0.31087400  1
  O  O23  1  0.48487300  0.73542400  0.15605400  1
  O  O24  1  0.63122700  0.25230000  0.10153400  1
  O  O25  1  0.04169600  0.73721200  0.06845900  1
