# generated using pymatgen
data_Ti3CuSn2(PO4)6
_symmetry_space_group_name_H-M   'P 1'
_cell_length_a   8.65447362
_cell_length_b   8.65447362
_cell_length_c   22.49849280
_cell_angle_alpha   90.00000000
_cell_angle_beta   90.00000000
_cell_angle_gamma   120.00000000
_symmetry_Int_Tables_number   1
_chemical_formula_structural   Ti3CuSn2(PO4)6
_chemical_formula_sum   'Ti9 Cu3 Sn6 P18 O72'
_cell_volume   1459.36986351
_cell_formula_units_Z   3
loop_
 _symmetry_equiv_pos_site_id
 _symmetry_equiv_pos_as_xyz
  1  'x, y, z'
loop_
 _atom_site_type_symbol
 _atom_site_label
 _atom_site_symmetry_multiplicity
 _atom_site_fract_x
 _atom_site_fract_y
 _atom_site_fract_z
 _atom_site_occupancy
  Ti  Ti0  1  0.00000000  0.00000000  0.14441800  1
  Ti  Ti1  1  0.33333333  0.66666667  0.01901367  1
  Ti  Ti2  1  0.33333333  0.66666667  0.31713167  1
  Ti  Ti3  1  0.66666667  0.33333333  0.47775133  1
  Ti  Ti4  1  0.00000000  0.00000000  0.35234700  1
  Ti  Ti5  1  0.00000000  0.00000000  0.65046500  1
  Ti  Ti6  1  0.33333333  0.66666667  0.81108467  1
  Ti  Ti7  1  0.66666667  0.33333333  0.68568033  1
  Ti  Ti8  1  0.66666667  0.33333333  0.98379833  1
  Cu  Cu9  1  0.66666667  0.33333333  0.18167833  1
  Cu  Cu10  1  0.33333333  0.66666667  0.51501167  1
  Cu  Cu11  1  0.00000000  0.00000000  0.84834500  1
  Sn  Sn12  1  0.66666667  0.33333333  0.32126333  1
  Sn  Sn13  1  0.33333333  0.66666667  0.16819967  1
  Sn  Sn14  1  0.33333333  0.66666667  0.65459667  1
  Sn  Sn15  1  0.00000000  0.00000000  0.50153300  1
  Sn  Sn16  1  0.00000000  0.00000000  0.98793000  1
  Sn  Sn17  1  0.66666667  0.33333333  0.83486633  1
  P  P18  1  0.37737100  0.04389400  0.08512000  1
  P  P19  1  0.66652300  0.62262900  0.08512000  1
  P  P20  1  0.71228600  0.99752900  0.25003200  1
  P  P21  1  0.00247100  0.71475700  0.25003200  1
  P  P22  1  0.28524300  0.28771400  0.25003200  1
  P  P23  1  0.95610600  0.33347700  0.08512000  1
  P  P24  1  0.04403767  0.37722733  0.41845333  1
  P  P25  1  0.33318967  0.95596233  0.41845333  1
  P  P26  1  0.37895267  0.33086233  0.58336533  1
  P  P27  1  0.66913767  0.04809033  0.58336533  1
  P  P28  1  0.95190967  0.62104733  0.58336533  1
  P  P29  1  0.62277267  0.66681033  0.41845333  1
  P  P30  1  0.71070433  0.71056067  0.75178667  1
  P  P31  1  0.99985633  0.28929567  0.75178667  1
  P  P32  1  0.04561933  0.66419567  0.91669867  1
  P  P33  1  0.33580433  0.38142367  0.91669867  1
  P  P34  1  0.61857633  0.95438067  0.91669867  1
  P  P35  1  0.28943933  0.00014367  0.75178667  1
  O  O36  1  0.18696333  0.18270167  0.30653367  1
  O  O37  1  0.81729833  0.00426167  0.30653367  1
  O  O38  1  0.18828733  0.02368067  0.08799367  1
  O  O39  1  0.99573833  0.81303667  0.30653367  1
  O  O40  1  0.47848567  0.11952233  0.14170533  1
  O  O41  1  0.35124967  0.85325533  0.07610233  1
  O  O42  1  0.83539333  0.81171267  0.08799367  1
  O  O43  1  0.50200567  0.64875033  0.07610233  1
  O  O44  1  0.80392933  0.98297867  0.19307167  1
  O  O45  1  0.14674467  0.49799433  0.07610233  1
  O  O46  1  0.69521733  0.16551467  0.24941667  1
  O  O47  1  0.01702133  0.82095067  0.19307167  1
  O  O48  1  0.64103667  0.52151433  0.14170533  1
  O  O49  1  0.97631933  0.16460667  0.08799367  1
  O  O50  1  0.52363000  0.82651400  0.25399700  1
  O  O51  1  0.88047767  0.35896333  0.14170533  1
  O  O52  1  0.17348600  0.69711600  0.25399700  1
  O  O53  1  0.83448533  0.52970267  0.24941667  1
  O  O54  1  0.30288400  0.47637000  0.25399700  1
  O  O55  1  0.17904933  0.19607067  0.19307167  1
  O  O56  1  0.68560200  0.52938700  0.02768200  1
  O  O57  1  0.47029733  0.30478267  0.24941667  1
  O  O58  1  0.84378500  0.31439800  0.02768200  1
  O  O59  1  0.47061300  0.15621500  0.02768200  1
  O  O60  1  0.85363000  0.51603500  0.63986700  1
  O  O61  1  0.48396500  0.33759500  0.63986700  1
  O  O62  1  0.85495400  0.35701400  0.42132700  1
  O  O63  1  0.66240500  0.14637000  0.63986700  1
  O  O64  1  0.14515233  0.45285567  0.47503867  1
  O  O65  1  0.01791633  0.18658867  0.40943567  1
  O  O66  1  0.50206000  0.14504600  0.42132700  1
  O  O67  1  0.16867233  0.98208367  0.40943567  1
  O  O68  1  0.47059600  0.31631200  0.52640500  1
  O  O69  1  0.81341133  0.83132767  0.40943567  1
  O  O70  1  0.36188400  0.49884800  0.58275000  1
  O  O71  1  0.68368800  0.15428400  0.52640500  1
  O  O72  1  0.30770333  0.85484767  0.47503867  1
  O  O73  1  0.64298600  0.49794000  0.42132700  1
  O  O74  1  0.19029667  0.15984733  0.58733033  1
  O  O75  1  0.54714433  0.69229667  0.47503867  1
  O  O76  1  0.84015267  0.03044933  0.58733033  1
  O  O77  1  0.50115200  0.86303600  0.58275000  1
  O  O78  1  0.96955067  0.80970333  0.58733033  1
  O  O79  1  0.84571600  0.52940400  0.52640500  1
  O  O80  1  0.35226867  0.86272033  0.36101533  1
  O  O81  1  0.13696400  0.63811600  0.58275000  1
  O  O82  1  0.51045167  0.64773133  0.36101533  1
  O  O83  1  0.13727967  0.48954833  0.36101533  1
  O  O84  1  0.52029667  0.84936833  0.97320033  1
  O  O85  1  0.15063167  0.67092833  0.97320033  1
  O  O86  1  0.52162067  0.69034733  0.75466033  1
  O  O87  1  0.32907167  0.47970333  0.97320033  1
  O  O88  1  0.81181900  0.78618900  0.80837200  1
  O  O89  1  0.68458300  0.51992200  0.74276900  1
  O  O90  1  0.16872667  0.47837933  0.75466033  1
  O  O91  1  0.83533900  0.31541700  0.74276900  1
  O  O92  1  0.13726267  0.64964533  0.85973833  1
  O  O93  1  0.48007800  0.16466100  0.74276900  1
  O  O94  1  0.02855067  0.83218133  0.91608333  1
  O  O95  1  0.35035467  0.48761733  0.85973833  1
  O  O96  1  0.97437000  0.18818100  0.80837200  1
  O  O97  1  0.30965267  0.83127333  0.75466033  1
  O  O98  1  0.85696333  0.49318067  0.92066367  1
  O  O99  1  0.21381100  0.02563000  0.80837200  1
  O  O100  1  0.50681933  0.36378267  0.92066367  1
  O  O101  1  0.16781867  0.19636933  0.91608333  1
  O  O102  1  0.63621733  0.14303667  0.92066367  1
  O  O103  1  0.51238267  0.86273733  0.85973833  1
  O  O104  1  0.01893533  0.19605367  0.69434867  1
  O  O105  1  0.80363067  0.97144933  0.91608333  1
  O  O106  1  0.17711833  0.98106467  0.69434867  1
  O  O107  1  0.80394633  0.82288167  0.69434867  1
