# generated using pymatgen
data_Li3MnFe2(BO3)3
_symmetry_space_group_name_H-M   'P 1'
_cell_length_a   8.26642800
_cell_length_b   3.14831400
_cell_length_c   14.29595747
_cell_angle_alpha   90.00000000
_cell_angle_beta   90.01468469
_cell_angle_gamma   90.00000000
_symmetry_Int_Tables_number   1
_chemical_formula_structural   Li3MnFe2(BO3)3
_chemical_formula_sum   'Li6 Mn2 Fe4 B6 O18'
_cell_volume   372.05672700
_cell_formula_units_Z   2
loop_
 _symmetry_equiv_pos_site_id
 _symmetry_equiv_pos_as_xyz
  1  'x, y, z'
loop_
 _atom_site_type_symbol
 _atom_site_label
 _atom_site_symmetry_multiplicity
 _atom_site_fract_x
 _atom_site_fract_y
 _atom_site_fract_z
 _atom_site_occupancy
  Li  Li0  1  0.29297400  0.50000000  0.01032900  1
  Li  Li1  1  0.34037800  0.50000000  0.64147800  1
  Li  Li2  1  0.36510000  0.50000000  0.34870500  1
  Li  Li3  1  0.79349800  0.50000000  0.50662200  1
  Li  Li4  1  0.84086200  0.50000000  0.14311000  1
  Li  Li5  1  0.86534900  0.50000000  0.84993400  1
  Mn  Mn6  1  0.19173000  0.00000000  0.81998500  1
  Mn  Mn7  1  0.67435500  0.00000000  0.68599000  1
  Fe  Fe8  1  0.13734400  0.00000000  0.49553600  1
  Fe  Fe9  1  0.17577500  0.00000000  0.18390900  1
  Fe  Fe10  1  0.63729700  0.00000000  0.99684300  1
  Fe  Fe11  1  0.68731500  0.00000000  0.31990500  1
  B  B12  1  0.99990000  0.50000000  0.33305300  1
  B  B13  1  0.99827800  0.00000000  0.00053700  1
  B  B14  1  0.00115000  0.50000000  0.66554500  1
  B  B15  1  0.50002700  0.50000000  0.83510300  1
  B  B16  1  0.50051800  0.00000000  0.49885500  1
  B  B17  1  0.50000100  0.50000000  0.16649800  1
  O  O18  1  0.01116500  0.50000000  0.56826200  1
  O  O19  1  0.01903400  0.50000000  0.23611700  1
  O  O20  1  0.13580700  0.50000000  0.39095900  1
  O  O21  1  0.14125800  0.50000000  0.71901100  1
  O  O22  1  0.15089300  0.00000000  0.04233100  1
  O  O23  1  0.34725200  0.50000000  0.87598400  1
  O  O24  1  0.34814700  0.50000000  0.20871800  1
  O  O25  1  0.36184500  0.00000000  0.55436400  1
  O  O26  1  0.48611700  0.00000000  0.40171900  1
  O  O27  1  0.51243500  0.50000000  0.06941500  1
  O  O28  1  0.51393000  0.50000000  0.73779800  1
  O  O29  1  0.63776600  0.50000000  0.89112900  1
  O  O30  1  0.63932400  0.50000000  0.22123700  1
  O  O31  1  0.65311400  0.00000000  0.53994400  1
  O  O32  1  0.84523300  0.50000000  0.37179800  1
  O  O33  1  0.85119200  0.50000000  0.70947000  1
  O  O34  1  0.86013900  0.00000000  0.05621000  1
  O  O35  1  0.98349500  0.00000000  0.90359400  1
