# generated using pymatgen
data_Tm2(WO4)3
_symmetry_space_group_name_H-M   'P 1'
_cell_length_a   7.67586200
_cell_length_b   11.40430400
_cell_length_c   11.31645890
_cell_angle_alpha   90.00000000
_cell_angle_beta   109.47416369
_cell_angle_gamma   90.00000000
_symmetry_Int_Tables_number   1
_chemical_formula_structural   Tm2(WO4)3
_chemical_formula_sum   'Tm8 W12 O48'
_cell_volume   933.94724542
_cell_formula_units_Z   4
loop_
 _symmetry_equiv_pos_site_id
 _symmetry_equiv_pos_as_xyz
  1  'x, y, z'
loop_
 _atom_site_type_symbol
 _atom_site_label
 _atom_site_symmetry_multiplicity
 _atom_site_fract_x
 _atom_site_fract_y
 _atom_site_fract_z
 _atom_site_occupancy
  Tm  Tm0  1  0.16510300  0.12237200  0.59163500  1
  Tm  Tm1  1  0.16510300  0.87762800  0.09163500  1
  Tm  Tm2  1  0.83489700  0.12237200  0.90836500  1
  Tm  Tm3  1  0.83489700  0.87762800  0.40836500  1
  Tm  Tm4  1  0.66510300  0.62237200  0.59163500  1
  Tm  Tm5  1  0.66510300  0.37762800  0.09163500  1
  Tm  Tm6  1  0.33489700  0.62237200  0.90836500  1
  Tm  Tm7  1  0.33489700  0.37762800  0.40836500  1
  W  W8  1  0.35257800  0.10803000  0.94934600  1
  W  W9  1  0.35257800  0.89197000  0.44934600  1
  W  W10  1  0.50000000  0.36806300  0.75000000  1
  W  W11  1  0.50000000  0.63193700  0.25000000  1
  W  W12  1  0.64742200  0.10803000  0.55065400  1
  W  W13  1  0.64742200  0.89197000  0.05065400  1
  W  W14  1  0.85257800  0.60803000  0.94934600  1
  W  W15  1  0.85257800  0.39197000  0.44934600  1
  W  W16  1  0.00000000  0.86806300  0.75000000  1
  W  W17  1  0.00000000  0.13193700  0.25000000  1
  W  W18  1  0.14742200  0.60803000  0.55065400  1
  W  W19  1  0.14742200  0.39197000  0.05065400  1
  O  O20  1  0.27366750  0.17954950  0.79560300  1
  O  O21  1  0.17035350  0.96030850  0.71945300  1
  O  O22  1  0.63215400  0.29056000  0.89603200  1
  O  O23  1  0.45051400  0.77976000  0.56169800  1
  O  O24  1  0.12950000  0.04992600  0.96154600  1
  O  O25  1  0.43266400  0.03876500  0.57546100  1
  O  O26  1  0.27366750  0.82045050  0.29560300  1
  O  O27  1  0.56733600  0.03876500  0.92453900  1
  O  O28  1  0.87050000  0.04992600  0.53845400  1
  O  O29  1  0.54948600  0.77976000  0.93830200  1
  O  O30  1  0.36784600  0.29056000  0.60396800  1
  O  O31  1  0.17035350  0.03969150  0.21945300  1
  O  O32  1  0.82964650  0.96030850  0.78054700  1
  O  O33  1  0.63215400  0.70944000  0.39603200  1
  O  O34  1  0.45051400  0.22024000  0.06169800  1
  O  O35  1  0.12950000  0.95007400  0.46154600  1
  O  O36  1  0.43266400  0.96123500  0.07546100  1
  O  O37  1  0.72633250  0.17954950  0.70439700  1
  O  O38  1  0.56733600  0.96123500  0.42453900  1
  O  O39  1  0.87050000  0.95007400  0.03845400  1
  O  O40  1  0.54948600  0.22024000  0.43830200  1
  O  O41  1  0.36784600  0.70944000  0.10396800  1
  O  O42  1  0.82964650  0.03969150  0.28054700  1
  O  O43  1  0.72633250  0.82045050  0.20439700  1
  O  O44  1  0.77366750  0.67954950  0.79560300  1
  O  O45  1  0.67035350  0.46030850  0.71945300  1
  O  O46  1  0.13215400  0.79056000  0.89603200  1
  O  O47  1  0.95051400  0.27976000  0.56169800  1
  O  O48  1  0.62950000  0.54992600  0.96154600  1
  O  O49  1  0.93266400  0.53876500  0.57546100  1
  O  O50  1  0.77366750  0.32045050  0.29560300  1
  O  O51  1  0.06733600  0.53876500  0.92453900  1
  O  O52  1  0.37050000  0.54992600  0.53845400  1
  O  O53  1  0.04948600  0.27976000  0.93830200  1
  O  O54  1  0.86784600  0.79056000  0.60396800  1
  O  O55  1  0.67035350  0.53969150  0.21945300  1
  O  O56  1  0.32964650  0.46030850  0.78054700  1
  O  O57  1  0.13215400  0.20944000  0.39603200  1
  O  O58  1  0.95051400  0.72024000  0.06169800  1
  O  O59  1  0.62950000  0.45007400  0.46154600  1
  O  O60  1  0.93266400  0.46123500  0.07546100  1
  O  O61  1  0.22633250  0.67954950  0.70439700  1
  O  O62  1  0.06733600  0.46123500  0.42453900  1
  O  O63  1  0.37050000  0.45007400  0.03845400  1
  O  O64  1  0.04948600  0.72024000  0.43830200  1
  O  O65  1  0.86784600  0.20944000  0.10396800  1
  O  O66  1  0.32964650  0.53969150  0.28054700  1
  O  O67  1  0.22633250  0.32045050  0.20439700  1
