# generated using pymatgen
data_Fe2OF3
_symmetry_space_group_name_H-M   'P 1'
_cell_length_a   6.69779087
_cell_length_b   6.91400667
_cell_length_c   3.13277799
_cell_angle_alpha   90.00000000
_cell_angle_beta   90.00000000
_cell_angle_gamma   90.00000000
_symmetry_Int_Tables_number   1
_chemical_formula_structural   Fe2OF3
_chemical_formula_sum   'Fe4 O2 F6'
_cell_volume   145.07447101
_cell_formula_units_Z   2
loop_
 _symmetry_equiv_pos_site_id
 _symmetry_equiv_pos_as_xyz
  1  'x, y, z'
loop_
 _atom_site_type_symbol
 _atom_site_label
 _atom_site_symmetry_multiplicity
 _atom_site_fract_x
 _atom_site_fract_y
 _atom_site_fract_z
 _atom_site_occupancy
  Fe  Fe0  1  0.47203525  0.50000000  0.00000000  1
  Fe  Fe1  1  0.01214075  0.50000000  0.50000000  1
  Fe  Fe2  1  0.97203525  0.00000000  0.00000000  1
  Fe  Fe3  1  0.51214075  0.00000000  0.50000000  1
  O  O4  1  0.31135250  0.50000000  0.50000000  1
  O  O5  1  0.81135250  0.00000000  0.50000000  1
  F  F6  1  0.70004425  0.50000000  0.50000000  1
  F  F7  1  0.00219750  0.28950800  0.00000000  1
  F  F8  1  0.00219750  0.71049200  0.00000000  1
  F  F9  1  0.20004425  0.00000000  0.50000000  1
  F  F10  1  0.50219750  0.78950800  0.00000000  1
  F  F11  1  0.50219750  0.21049200  0.00000000  1
