# generated using pymatgen
data_Li2BiS2
_symmetry_space_group_name_H-M   'P 1'
_cell_length_a   4.01526000
_cell_length_b   4.07485200
_cell_length_c   13.40247600
_cell_angle_alpha   90.00000000
_cell_angle_beta   90.00000000
_cell_angle_gamma   90.00000000
_symmetry_Int_Tables_number   1
_chemical_formula_structural   Li2BiS2
_chemical_formula_sum   'Li4 Bi2 S4'
_cell_volume   219.28582053
_cell_formula_units_Z   2
loop_
 _symmetry_equiv_pos_site_id
 _symmetry_equiv_pos_as_xyz
  1  'x, y, z'
loop_
 _atom_site_type_symbol
 _atom_site_label
 _atom_site_symmetry_multiplicity
 _atom_site_fract_x
 _atom_site_fract_y
 _atom_site_fract_z
 _atom_site_occupancy
  Li  Li0  1  0.49670900  0.50000000  0.23951400  1
  Li  Li1  1  0.99670900  0.00000000  0.26048600  1
  Li  Li2  1  0.99670900  0.00000000  0.73951400  1
  Li  Li3  1  0.49670900  0.50000000  0.76048600  1
  Bi  Bi4  1  0.98369100  0.00000000  0.00000000  1
  Bi  Bi5  1  0.48369100  0.50000000  0.50000000  1
  S  S6  1  0.48714900  0.00000000  0.14814700  1
  S  S7  1  0.98714900  0.50000000  0.35185300  1
  S  S8  1  0.98714900  0.50000000  0.64814700  1
  S  S9  1  0.48714900  0.00000000  0.85185300  1
