# generated using pymatgen
data_Li3Mn2CrO6
_symmetry_space_group_name_H-M   'P 1'
_cell_length_a   12.68395940
_cell_length_b   3.04295965
_cell_length_c   6.04450008
_cell_angle_alpha   90.00000000
_cell_angle_beta   104.57069849
_cell_angle_gamma   90.00000000
_symmetry_Int_Tables_number   1
_chemical_formula_structural   Li3Mn2CrO6
_chemical_formula_sum   'Li6 Mn4 Cr2 O12'
_cell_volume   225.79487149
_cell_formula_units_Z   2
loop_
 _symmetry_equiv_pos_site_id
 _symmetry_equiv_pos_as_xyz
  1  'x, y, z'
loop_
 _atom_site_type_symbol
 _atom_site_label
 _atom_site_symmetry_multiplicity
 _atom_site_fract_x
 _atom_site_fract_y
 _atom_site_fract_z
 _atom_site_occupancy
  Li  Li0  1  0.00000000  0.50000000  0.50000000  1
  Li  Li1  1  0.67037000  0.50000000  0.83947500  1
  Li  Li2  1  0.82963000  0.00000000  0.16052500  1
  Li  Li3  1  0.50000000  0.00000000  0.50000000  1
  Li  Li4  1  0.17037000  0.00000000  0.83947500  1
  Li  Li5  1  0.32963000  0.50000000  0.16052500  1
  Mn  Mn6  1  0.66945775  0.50000000  0.32820000  1
  Mn  Mn7  1  0.83054225  0.00000000  0.67180000  1
  Mn  Mn8  1  0.16945775  0.00000000  0.32820000  1
  Mn  Mn9  1  0.33054225  0.50000000  0.67180000  1
  Cr  Cr10  1  0.00000000  0.50000000  0.00000000  1
  Cr  Cr11  1  0.50000000  0.00000000  0.00000000  1
  O  O12  1  0.16225350  0.50000000  0.08647300  1
  O  O13  1  0.83774650  0.50000000  0.91352700  1
  O  O14  1  0.82605400  0.50000000  0.42154700  1
  O  O15  1  0.67394600  0.00000000  0.57845300  1
  O  O16  1  0.98983975  0.00000000  0.76516800  1
  O  O17  1  0.01016025  0.00000000  0.23483200  1
  O  O18  1  0.66225350  0.00000000  0.08647300  1
  O  O19  1  0.33774650  0.00000000  0.91352700  1
  O  O20  1  0.32605400  0.00000000  0.42154700  1
  O  O21  1  0.17394600  0.50000000  0.57845300  1
  O  O22  1  0.48983975  0.50000000  0.76516800  1
  O  O23  1  0.51016025  0.50000000  0.23483200  1
