# generated using pymatgen
data_Li10V(SiO5)2
_symmetry_space_group_name_H-M   'P 1'
_cell_length_a   30.00650000
_cell_length_b   6.13588000
_cell_length_c   5.14641444
_cell_angle_alpha   90.00000000
_cell_angle_beta   99.02860262
_cell_angle_gamma   90.00000000
_symmetry_Int_Tables_number   1
_chemical_formula_structural   Li10V(SiO5)2
_chemical_formula_sum   'Li40 V4 Si8 O40'
_cell_volume   935.79881102
_cell_formula_units_Z   4
loop_
 _symmetry_equiv_pos_site_id
 _symmetry_equiv_pos_as_xyz
  1  'x, y, z'
loop_
 _atom_site_type_symbol
 _atom_site_label
 _atom_site_symmetry_multiplicity
 _atom_site_fract_x
 _atom_site_fract_y
 _atom_site_fract_z
 _atom_site_occupancy
  Li  Li0  1  0.00962500  0.50000000  0.25999300  1
  Li  Li1  1  0.06603800  0.71705100  0.88837700  1
  Li  Li2  1  0.06603800  0.28294900  0.88837700  1
  Li  Li3  1  0.13154000  0.00000000  0.77862100  1
  Li  Li4  1  0.13202550  0.78083050  0.23362300  1
  Li  Li5  1  0.13202550  0.21916950  0.23362300  1
  Li  Li6  1  0.17571100  0.50000000  0.93235100  1
  Li  Li7  1  0.19550250  0.75763550  0.60072900  1
  Li  Li8  1  0.19550250  0.24236450  0.60072900  1
  Li  Li9  1  0.23126600  0.50000000  0.32549400  1
  Li  Li10  1  0.26873400  0.00000000  0.67450600  1
  Li  Li11  1  0.30449750  0.25763550  0.39927100  1
  Li  Li12  1  0.30449750  0.74236450  0.39927100  1
  Li  Li13  1  0.32428900  0.00000000  0.06764900  1
  Li  Li14  1  0.36797450  0.28083050  0.76637700  1
  Li  Li15  1  0.36797450  0.71916950  0.76637700  1
  Li  Li16  1  0.36846000  0.50000000  0.22137900  1
  Li  Li17  1  0.43396200  0.78294900  0.11162300  1
  Li  Li18  1  0.43396200  0.21705100  0.11162300  1
  Li  Li19  1  0.49037500  0.00000000  0.74000700  1
  Li  Li20  1  0.50962500  0.00000000  0.25999300  1
  Li  Li21  1  0.56603800  0.21705100  0.88837700  1
  Li  Li22  1  0.56603800  0.78294900  0.88837700  1
  Li  Li23  1  0.63154000  0.50000000  0.77862100  1
  Li  Li24  1  0.63202550  0.28083050  0.23362300  1
  Li  Li25  1  0.63202550  0.71916950  0.23362300  1
  Li  Li26  1  0.67571100  0.00000000  0.93235100  1
  Li  Li27  1  0.69550250  0.25763550  0.60072900  1
  Li  Li28  1  0.69550250  0.74236450  0.60072900  1
  Li  Li29  1  0.73126600  0.00000000  0.32549400  1
  Li  Li30  1  0.76873400  0.50000000  0.67450600  1
  Li  Li31  1  0.80449750  0.75763550  0.39927100  1
  Li  Li32  1  0.80449750  0.24236450  0.39927100  1
  Li  Li33  1  0.82428900  0.50000000  0.06764900  1
  Li  Li34  1  0.86797450  0.78083050  0.76637700  1
  Li  Li35  1  0.86797450  0.21916950  0.76637700  1
  Li  Li36  1  0.86846000  0.00000000  0.22137900  1
  Li  Li37  1  0.93396200  0.28294900  0.11162300  1
  Li  Li38  1  0.93396200  0.71705100  0.11162300  1
  Li  Li39  1  0.99037500  0.50000000  0.74000700  1
  V  V40  1  0.03644500  0.00000000  0.21650600  1
  V  V41  1  0.46355500  0.50000000  0.78349400  1
  V  V42  1  0.53644500  0.50000000  0.21650600  1
  V  V43  1  0.96355500  0.00000000  0.78349400  1
  Si  Si44  1  0.10079500  0.50000000  0.50699900  1
  Si  Si45  1  0.21995700  0.00000000  0.12881200  1
  Si  Si46  1  0.28004300  0.50000000  0.87118800  1
  Si  Si47  1  0.39920500  0.00000000  0.49300100  1
  Si  Si48  1  0.60079500  0.00000000  0.50699900  1
  Si  Si49  1  0.71995700  0.50000000  0.12881200  1
  Si  Si50  1  0.78004300  0.00000000  0.87118800  1
  Si  Si51  1  0.89920500  0.50000000  0.49300100  1
  O  O52  1  0.05082300  0.50000000  0.60059400  1
  O  O53  1  0.09195600  0.00000000  0.06225100  1
  O  O54  1  0.09619600  0.50000000  0.18139300  1
  O  O55  1  0.12945800  0.71864000  0.62194800  1
  O  O56  1  0.12945800  0.28136000  0.62194800  1
  O  O57  1  0.19436750  0.22416650  0.21718800  1
  O  O58  1  0.19436750  0.77583350  0.21718800  1
  O  O59  1  0.21462300  0.00000000  0.80573200  1
  O  O60  1  0.22940500  0.50000000  0.72113000  1
  O  O61  1  0.27059500  0.00000000  0.27887000  1
  O  O62  1  0.28537700  0.50000000  0.19426800  1
  O  O63  1  0.30563250  0.27583350  0.78281200  1
  O  O64  1  0.30563250  0.72416650  0.78281200  1
  O  O65  1  0.37054200  0.21864000  0.37805200  1
  O  O66  1  0.37054200  0.78136000  0.37805200  1
  O  O67  1  0.40380400  0.00000000  0.81860700  1
  O  O68  1  0.40804400  0.50000000  0.93774900  1
  O  O69  1  0.44917700  0.00000000  0.39940600  1
  O  O70  1  0.00000000  0.75961400  0.00000000  1
  O  O71  1  0.00000000  0.24038600  0.00000000  1
  O  O72  1  0.55082300  0.00000000  0.60059400  1
  O  O73  1  0.59195600  0.50000000  0.06225100  1
  O  O74  1  0.59619600  0.00000000  0.18139300  1
  O  O75  1  0.62945800  0.21864000  0.62194800  1
  O  O76  1  0.62945800  0.78136000  0.62194800  1
  O  O77  1  0.69436750  0.72416650  0.21718800  1
  O  O78  1  0.69436750  0.27583350  0.21718800  1
  O  O79  1  0.71462300  0.50000000  0.80573200  1
  O  O80  1  0.72940500  0.00000000  0.72113000  1
  O  O81  1  0.77059500  0.50000000  0.27887000  1
  O  O82  1  0.78537700  0.00000000  0.19426800  1
  O  O83  1  0.80563250  0.77583350  0.78281200  1
  O  O84  1  0.80563250  0.22416650  0.78281200  1
  O  O85  1  0.87054200  0.71864000  0.37805200  1
  O  O86  1  0.87054200  0.28136000  0.37805200  1
  O  O87  1  0.90380400  0.50000000  0.81860700  1
  O  O88  1  0.90804400  0.00000000  0.93774900  1
  O  O89  1  0.94917700  0.50000000  0.39940600  1
  O  O90  1  0.50000000  0.25961400  0.00000000  1
  O  O91  1  0.50000000  0.74038600  0.00000000  1
