# generated using pymatgen
data_Li5TiV3O8
_symmetry_space_group_name_H-M   'P 1'
_cell_length_a   12.49559400
_cell_length_b   4.19968200
_cell_length_c   6.74913687
_cell_angle_alpha   90.00000000
_cell_angle_beta   108.11597218
_cell_angle_gamma   90.00000000
_symmetry_Int_Tables_number   1
_chemical_formula_structural   Li5TiV3O8
_chemical_formula_sum   'Li10 Ti2 V6 O16'
_cell_volume   336.62104804
_cell_formula_units_Z   2
loop_
 _symmetry_equiv_pos_site_id
 _symmetry_equiv_pos_as_xyz
  1  'x, y, z'
loop_
 _atom_site_type_symbol
 _atom_site_label
 _atom_site_symmetry_multiplicity
 _atom_site_fract_x
 _atom_site_fract_y
 _atom_site_fract_z
 _atom_site_occupancy
  Li  Li0  1  0.06152300  0.00000000  0.36620000  1
  Li  Li1  1  0.19133200  0.00000000  0.99388400  1
  Li  Li2  1  0.32714600  0.50000000  0.99827400  1
  Li  Li3  1  0.00193500  0.50000000  0.98974200  1
  Li  Li4  1  0.44731200  0.50000000  0.63097000  1
  Li  Li5  1  0.56152300  0.50000000  0.36620000  1
  Li  Li6  1  0.69133200  0.50000000  0.99388400  1
  Li  Li7  1  0.82714600  0.00000000  0.99827400  1
  Li  Li8  1  0.50193500  0.00000000  0.98974200  1
  Li  Li9  1  0.94731200  0.00000000  0.63097000  1
  Ti  Ti10  1  0.22076400  0.50000000  0.31098700  1
  Ti  Ti11  1  0.72076400  0.00000000  0.31098700  1
  V  V12  1  0.11653700  0.50000000  0.67922400  1
  V  V13  1  0.28740100  0.00000000  0.67300500  1
  V  V14  1  0.39584200  0.00000000  0.31804900  1
  V  V15  1  0.61653700  0.00000000  0.67922400  1
  V  V16  1  0.78740100  0.50000000  0.67300500  1
  V  V17  1  0.89584200  0.50000000  0.31804900  1
  O  O18  1  0.11727900  0.00000000  0.67980500  1
  O  O19  1  0.06933200  0.50000000  0.34095700  1
  O  O20  1  0.22337500  0.00000000  0.32492200  1
  O  O21  1  0.16516500  0.50000000  0.01412000  1
  O  O22  1  0.27842700  0.50000000  0.64742500  1
  O  O23  1  0.45362700  0.00000000  0.65982800  1
  O  O24  1  0.35047800  0.00000000  0.99275000  1
  O  O25  1  0.38235300  0.50000000  0.31941500  1
  O  O26  1  0.61727900  0.50000000  0.67980500  1
  O  O27  1  0.56933200  0.00000000  0.34095700  1
  O  O28  1  0.72337500  0.50000000  0.32492200  1
  O  O29  1  0.66516500  0.00000000  0.01412000  1
  O  O30  1  0.77842700  0.00000000  0.64742500  1
  O  O31  1  0.95362700  0.50000000  0.65982800  1
  O  O32  1  0.85047800  0.50000000  0.99275000  1
  O  O33  1  0.88235300  0.00000000  0.31941500  1
