# generated using pymatgen
data_Li3V3(BO5)2
_symmetry_space_group_name_H-M   'P 1'
_cell_length_a   9.43392800
_cell_length_b   2.99295900
_cell_length_c   12.06467414
_cell_angle_alpha   90.00000000
_cell_angle_beta   90.84567562
_cell_angle_gamma   90.00000000
_symmetry_Int_Tables_number   1
_chemical_formula_structural   Li3V3(BO5)2
_chemical_formula_sum   'Li6 V6 B4 O20'
_cell_volume   340.61330895
_cell_formula_units_Z   2
loop_
 _symmetry_equiv_pos_site_id
 _symmetry_equiv_pos_as_xyz
  1  'x, y, z'
loop_
 _atom_site_type_symbol
 _atom_site_label
 _atom_site_symmetry_multiplicity
 _atom_site_fract_x
 _atom_site_fract_y
 _atom_site_fract_z
 _atom_site_occupancy
  Li  Li0  1  0.00798400  0.50000000  0.99688400  1
  Li  Li1  1  0.99844100  0.50000000  0.72415500  1
  Li  Li2  1  0.49980200  0.50000000  0.50350700  1
  Li  Li3  1  0.50565400  0.00000000  0.98737300  1
  Li  Li4  1  0.50484600  0.50000000  0.78922100  1
  Li  Li5  1  0.00013900  0.50000000  0.27819000  1
  V  V6  1  0.99562900  0.00000000  0.50100700  1
  V  V7  1  0.24386900  0.00000000  0.88618800  1
  V  V8  1  0.26245100  0.00000000  0.38803600  1
  V  V9  1  0.50436800  0.50000000  0.21322800  1
  V  V10  1  0.73553300  0.00000000  0.61996200  1
  V  V11  1  0.77073100  0.00000000  0.10217200  1
  B  B12  1  0.23131500  0.00000000  0.14126900  1
  B  B13  1  0.26361200  0.00000000  0.63825600  1
  B  B14  1  0.72873500  0.00000000  0.36736800  1
  B  B15  1  0.76261600  0.00000000  0.85814200  1
  O  O16  1  0.12223400  0.50000000  0.85451300  1
  O  O17  1  0.12036600  0.50000000  0.42977500  1
  O  O18  1  0.11729200  0.00000000  0.63455800  1
  O  O19  1  0.16177700  0.00000000  0.24208700  1
  O  O20  1  0.15875600  0.00000000  0.04295700  1
  O  O21  1  0.34106100  0.00000000  0.53872700  1
  O  O22  1  0.33525500  0.00000000  0.73819900  1
  O  O23  1  0.38267100  0.00000000  0.14589900  1
  O  O24  1  0.36761600  0.50000000  0.92686100  1
  O  O25  1  0.38546700  0.50000000  0.34846900  1
  O  O26  1  0.62459600  0.50000000  0.64657800  1
  O  O27  1  0.62544900  0.50000000  0.08000600  1
  O  O28  1  0.62091700  0.00000000  0.85799000  1
  O  O29  1  0.65101800  0.00000000  0.26381700  1
  O  O30  1  0.65092800  0.00000000  0.46208800  1
  O  O31  1  0.84683500  0.00000000  0.95747000  1
  O  O32  1  0.84080600  0.00000000  0.75959500  1
  O  O33  1  0.87383400  0.00000000  0.36277300  1
  O  O34  1  0.87744200  0.50000000  0.56931400  1
  O  O35  1  0.87995700  0.50000000  0.14336400  1
