# generated using pymatgen
data_Cr2P2O7
_symmetry_space_group_name_H-M   'P 1'
_cell_length_a   20.49712600
_cell_length_b   8.53805400
_cell_length_c   9.42802701
_cell_angle_alpha   90.00000000
_cell_angle_beta   96.46222010
_cell_angle_gamma   90.00000000
_symmetry_Int_Tables_number   1
_chemical_formula_structural   Cr2P2O7
_chemical_formula_sum   'Cr24 P24 O84'
_cell_volume   1639.47386764
_cell_formula_units_Z   12
loop_
 _symmetry_equiv_pos_site_id
 _symmetry_equiv_pos_as_xyz
  1  'x, y, z'
loop_
 _atom_site_type_symbol
 _atom_site_label
 _atom_site_symmetry_multiplicity
 _atom_site_fract_x
 _atom_site_fract_y
 _atom_site_fract_z
 _atom_site_occupancy
  Cr  Cr0  1  0.82140650  0.81077450  0.81042600  1
  Cr  Cr1  1  0.98955750  0.31146750  0.97685400  1
  Cr  Cr2  1  0.66395300  0.31487200  0.16091400  1
  Cr  Cr3  1  0.82140650  0.18922550  0.31042600  1
  Cr  Cr4  1  0.67859350  0.31077450  0.68957400  1
  Cr  Cr5  1  0.51044250  0.18853250  0.02314600  1
  Cr  Cr6  1  0.98955750  0.68853250  0.47685400  1
  Cr  Cr7  1  0.66395300  0.68512800  0.66091400  1
  Cr  Cr8  1  0.67859350  0.68922550  0.18957400  1
  Cr  Cr9  1  0.83604700  0.18512800  0.83908600  1
  Cr  Cr10  1  0.51044250  0.81146750  0.52314600  1
  Cr  Cr11  1  0.83604700  0.81487200  0.33908600  1
  Cr  Cr12  1  0.32140650  0.31077450  0.81042600  1
  Cr  Cr13  1  0.48955750  0.81146750  0.97685400  1
  Cr  Cr14  1  0.16395300  0.81487200  0.16091400  1
  Cr  Cr15  1  0.32140650  0.68922550  0.31042600  1
  Cr  Cr16  1  0.17859350  0.81077450  0.68957400  1
  Cr  Cr17  1  0.01044250  0.68853250  0.02314600  1
  Cr  Cr18  1  0.48955750  0.18853250  0.47685400  1
  Cr  Cr19  1  0.16395300  0.18512800  0.66091400  1
  Cr  Cr20  1  0.17859350  0.18922550  0.18957400  1
  Cr  Cr21  1  0.33604700  0.68512800  0.83908600  1
  Cr  Cr22  1  0.01044250  0.31146750  0.52314600  1
  Cr  Cr23  1  0.33604700  0.31487200  0.33908600  1
  P  P24  1  0.60581900  0.01313800  0.32310400  1
  P  P25  1  0.89418100  0.48686200  0.67689600  1
  P  P26  1  0.73288450  0.01639650  0.53056100  1
  P  P27  1  0.60581900  0.98686200  0.82310400  1
  P  P28  1  0.73288450  0.98360350  0.03056100  1
  P  P29  1  0.76711550  0.48360350  0.46943900  1
  P  P30  1  0.56278150  0.48195150  0.85262600  1
  P  P31  1  0.93721850  0.01804850  0.14737400  1
  P  P32  1  0.76711550  0.51639650  0.96943900  1
  P  P33  1  0.56278150  0.51804850  0.35262600  1
  P  P34  1  0.89418100  0.51313800  0.17689600  1
  P  P35  1  0.93721850  0.98195150  0.64737400  1
  P  P36  1  0.10581900  0.51313800  0.32310400  1
  P  P37  1  0.39418100  0.98686200  0.67689600  1
  P  P38  1  0.23288450  0.51639650  0.53056100  1
  P  P39  1  0.10581900  0.48686200  0.82310400  1
  P  P40  1  0.23288450  0.48360350  0.03056100  1
  P  P41  1  0.26711550  0.98360350  0.46943900  1
  P  P42  1  0.06278150  0.98195150  0.85262600  1
  P  P43  1  0.43721850  0.51804850  0.14737400  1
  P  P44  1  0.26711550  0.01639650  0.96943900  1
  P  P45  1  0.06278150  0.01804850  0.35262600  1
  P  P46  1  0.39418100  0.01313800  0.17689600  1
  P  P47  1  0.43721850  0.48195150  0.64737400  1
  O  O48  1  0.00000000  0.91598600  0.75000000  1
  O  O49  1  0.78423000  0.00509000  0.42182800  1
  O  O50  1  0.83530700  0.43420800  0.55732700  1
  O  O51  1  0.83530700  0.56579200  0.05732700  1
  O  O52  1  0.54841800  0.64083500  0.91146500  1
  O  O53  1  0.71577000  0.50509000  0.07817200  1
  O  O54  1  0.95158200  0.85916500  0.08853500  1
  O  O55  1  0.72707300  0.85973200  0.60508000  1
  O  O56  1  0.75239650  0.34659550  0.36616200  1
  O  O57  1  0.66469300  0.93420800  0.94267300  1
  O  O58  1  0.57597950  0.35288450  0.96510100  1
  O  O59  1  0.95517350  0.50239650  0.09320600  1
  O  O60  1  0.90160000  0.35395600  0.78549500  1
  O  O61  1  0.71577000  0.49491000  0.57817200  1
  O  O62  1  0.77292700  0.64026800  0.39492000  1
  O  O63  1  0.54841800  0.35916500  0.41146500  1
  O  O64  1  0.59840000  0.85395600  0.71450500  1
  O  O65  1  0.54482650  0.00239650  0.40679400  1
  O  O66  1  0.62042200  0.50898400  0.25858900  1
  O  O67  1  0.57597950  0.64711550  0.46510100  1
  O  O68  1  0.87890550  0.35758250  0.24033100  1
  O  O69  1  0.62109450  0.85758250  0.25966900  1
  O  O70  1  0.90160000  0.64604400  0.28549500  1
  O  O71  1  0.87890550  0.64241750  0.74033100  1
  O  O72  1  0.66469300  0.06579200  0.44267300  1
  O  O73  1  0.75239650  0.65340450  0.86616200  1
  O  O74  1  0.62109450  0.14241750  0.75966900  1
  O  O75  1  0.62042200  0.49101600  0.75858900  1
  O  O76  1  0.92402050  0.85288450  0.53489900  1
  O  O77  1  0.87957800  0.00898400  0.24141100  1
  O  O78  1  0.77292700  0.35973200  0.89492000  1
  O  O79  1  0.74760350  0.15340450  0.63383800  1
  O  O80  1  0.95517350  0.49760350  0.59320600  1
  O  O81  1  0.78423000  0.99491000  0.92182800  1
  O  O82  1  0.92402050  0.14711550  0.03489900  1
  O  O83  1  0.74760350  0.84659550  0.13383800  1
  O  O84  1  0.00000000  0.08401400  0.25000000  1
  O  O85  1  0.54482650  0.99760350  0.90679400  1
  O  O86  1  0.87957800  0.99101600  0.74141100  1
  O  O87  1  0.72707300  0.14026800  0.10508000  1
  O  O88  1  0.59840000  0.14604400  0.21450500  1
  O  O89  1  0.95158200  0.14083500  0.58853500  1
  O  O90  1  0.50000000  0.41598600  0.75000000  1
  O  O91  1  0.28423000  0.50509000  0.42182800  1
  O  O92  1  0.33530700  0.93420800  0.55732700  1
  O  O93  1  0.33530700  0.06579200  0.05732700  1
  O  O94  1  0.04841800  0.14083500  0.91146500  1
  O  O95  1  0.21577000  0.00509000  0.07817200  1
  O  O96  1  0.45158200  0.35916500  0.08853500  1
  O  O97  1  0.22707300  0.35973200  0.60508000  1
  O  O98  1  0.25239650  0.84659550  0.36616200  1
  O  O99  1  0.16469300  0.43420800  0.94267300  1
  O  O100  1  0.07597950  0.85288450  0.96510100  1
  O  O101  1  0.45517350  0.00239650  0.09320600  1
  O  O102  1  0.40160000  0.85395600  0.78549500  1
  O  O103  1  0.21577000  0.99491000  0.57817200  1
  O  O104  1  0.27292700  0.14026800  0.39492000  1
  O  O105  1  0.04841800  0.85916500  0.41146500  1
  O  O106  1  0.09840000  0.35395600  0.71450500  1
  O  O107  1  0.04482650  0.50239650  0.40679400  1
  O  O108  1  0.12042200  0.00898400  0.25858900  1
  O  O109  1  0.07597950  0.14711550  0.46510100  1
  O  O110  1  0.37890550  0.85758250  0.24033100  1
  O  O111  1  0.12109450  0.35758250  0.25966900  1
  O  O112  1  0.40160000  0.14604400  0.28549500  1
  O  O113  1  0.37890550  0.14241750  0.74033100  1
  O  O114  1  0.16469300  0.56579200  0.44267300  1
  O  O115  1  0.25239650  0.15340450  0.86616200  1
  O  O116  1  0.12109450  0.64241750  0.75966900  1
  O  O117  1  0.12042200  0.99101600  0.75858900  1
  O  O118  1  0.42402050  0.35288450  0.53489900  1
  O  O119  1  0.37957800  0.50898400  0.24141100  1
  O  O120  1  0.27292700  0.85973200  0.89492000  1
  O  O121  1  0.24760350  0.65340450  0.63383800  1
  O  O122  1  0.45517350  0.99760350  0.59320600  1
  O  O123  1  0.28423000  0.49491000  0.92182800  1
  O  O124  1  0.42402050  0.64711550  0.03489900  1
  O  O125  1  0.24760350  0.34659550  0.13383800  1
  O  O126  1  0.50000000  0.58401400  0.25000000  1
  O  O127  1  0.04482650  0.49760350  0.90679400  1
  O  O128  1  0.37957800  0.49101600  0.74141100  1
  O  O129  1  0.22707300  0.64026800  0.10508000  1
  O  O130  1  0.09840000  0.64604400  0.21450500  1
  O  O131  1  0.45158200  0.64083500  0.58853500  1
