# generated using pymatgen
data_Fe5Sb(PO4)6
_symmetry_space_group_name_H-M   'P 1'
_cell_length_a   8.69034007
_cell_length_b   8.69034007
_cell_length_c   20.85357899
_cell_angle_alpha   90.00000000
_cell_angle_beta   90.00000000
_cell_angle_gamma   120.00000000
_symmetry_Int_Tables_number   1
_chemical_formula_structural   Fe5Sb(PO4)6
_chemical_formula_sum   'Fe15 Sb3 P18 O72'
_cell_volume   1363.90705730
_cell_formula_units_Z   3
loop_
 _symmetry_equiv_pos_site_id
 _symmetry_equiv_pos_as_xyz
  1  'x, y, z'
loop_
 _atom_site_type_symbol
 _atom_site_label
 _atom_site_symmetry_multiplicity
 _atom_site_fract_x
 _atom_site_fract_y
 _atom_site_fract_z
 _atom_site_occupancy
  Fe  Fe0  1  0.33333333  0.66666667  0.67233167  1
  Fe  Fe1  1  0.33333333  0.66666667  0.02260067  1
  Fe  Fe2  1  0.33333333  0.66666667  0.16613267  1
  Fe  Fe3  1  0.33333333  0.66666667  0.81099867  1
  Fe  Fe4  1  0.33333333  0.66666667  0.30866767  1
  Fe  Fe5  1  0.00000000  0.00000000  0.00566500  1
  Fe  Fe6  1  0.00000000  0.00000000  0.35593400  1
  Fe  Fe7  1  0.00000000  0.00000000  0.49946600  1
  Fe  Fe8  1  0.00000000  0.00000000  0.14433200  1
  Fe  Fe9  1  0.00000000  0.00000000  0.64200100  1
  Fe  Fe10  1  0.66666667  0.33333333  0.33899833  1
  Fe  Fe11  1  0.66666667  0.33333333  0.68926733  1
  Fe  Fe12  1  0.66666667  0.33333333  0.83279933  1
  Fe  Fe13  1  0.66666667  0.33333333  0.47766533  1
  Fe  Fe14  1  0.66666667  0.33333333  0.97533433  1
  Sb  Sb15  1  0.33333333  0.66666667  0.52420567  1
  Sb  Sb16  1  0.00000000  0.00000000  0.85753900  1
  Sb  Sb17  1  0.66666667  0.33333333  0.19087233  1
  P  P18  1  0.66313833  0.62667167  0.08179467  1
  P  P19  1  0.96353333  0.33686167  0.08179467  1
  P  P20  1  0.37332833  0.03646667  0.08179467  1
  P  P21  1  0.29045400  0.29361600  0.24903200  1
  P  P22  1  0.70638400  0.99683800  0.24903200  1
  P  P23  1  0.00316200  0.70954600  0.24903200  1
  P  P24  1  0.32980500  0.96000500  0.41512800  1
  P  P25  1  0.63020000  0.67019500  0.41512800  1
  P  P26  1  0.03999500  0.36980000  0.41512800  1
  P  P27  1  0.95712067  0.62694933  0.58236533  1
  P  P28  1  0.37305067  0.33017133  0.58236533  1
  P  P29  1  0.66982867  0.04287933  0.58236533  1
  P  P30  1  0.99647167  0.29333833  0.74846133  1
  P  P31  1  0.29686667  0.00352833  0.74846133  1
  P  P32  1  0.70666167  0.70313333  0.74846133  1
  P  P33  1  0.62378733  0.96028267  0.91569867  1
  P  P34  1  0.03971733  0.66350467  0.91569867  1
  P  P35  1  0.33649533  0.37621267  0.91569867  1
  O  O36  1  0.53124300  0.67827000  0.35678800  1
  O  O37  1  0.14702700  0.46875700  0.35678800  1
  O  O38  1  0.32173000  0.85297300  0.35678800  1
  O  O39  1  0.83220100  0.81291200  0.07697300  1
  O  O40  1  0.66716400  0.53141400  0.14577000  1
  O  O41  1  0.49825300  0.64818400  0.09086800  1
  O  O42  1  0.98071100  0.16779900  0.07697300  1
  O  O43  1  0.14993100  0.50174700  0.09086800  1
  O  O44  1  0.20254767  0.19235133  0.18815033  1
  O  O45  1  0.35181600  0.85006900  0.09086800  1
  O  O46  1  0.48699000  0.31691200  0.25684400  1
  O  O47  1  0.80764867  0.01019633  0.18815033  1
  O  O48  1  0.86425000  0.33283600  0.14577000  1
  O  O49  1  0.18708800  0.01928900  0.07697300  1
  O  O50  1  0.32114000  0.48452300  0.24180300  1
  O  O51  1  0.46858600  0.13575000  0.14577000  1
  O  O52  1  0.51547700  0.83661700  0.24180300  1
  O  O53  1  0.68308800  0.17007800  0.25684400  1
  O  O54  1  0.16338300  0.67886000  0.24180300  1
  O  O55  1  0.98980367  0.79745233  0.18815033  1
  O  O56  1  0.82992200  0.51301000  0.25684400  1
  O  O57  1  0.33338133  0.46849167  0.97699367  1
  O  O58  1  0.53150833  0.86488967  0.97699367  1
  O  O59  1  0.13511033  0.66661867  0.97699367  1
  O  O60  1  0.19790967  0.01160333  0.69012133  1
  O  O61  1  0.81369367  0.80209033  0.69012133  1
  O  O62  1  0.98839667  0.18630633  0.69012133  1
  O  O63  1  0.49886767  0.14624533  0.41030633  1
  O  O64  1  0.33383067  0.86474733  0.47910333  1
  O  O65  1  0.16491967  0.98151733  0.42420133  1
  O  O66  1  0.64737767  0.50113233  0.41030633  1
  O  O67  1  0.81659767  0.83508033  0.42420133  1
  O  O68  1  0.86921433  0.52568467  0.52148367  1
  O  O69  1  0.01848267  0.18340233  0.42420133  1
  O  O70  1  0.15365667  0.65024533  0.59017733  1
  O  O71  1  0.47431533  0.34352967  0.52148367  1
  O  O72  1  0.53091667  0.66616933  0.47910333  1
  O  O73  1  0.85375467  0.35262233  0.41030633  1
  O  O74  1  0.98780667  0.81785633  0.57513633  1
  O  O75  1  0.13525267  0.46908333  0.47910333  1
  O  O76  1  0.18214367  0.16995033  0.57513633  1
  O  O77  1  0.34975467  0.50341133  0.59017733  1
  O  O78  1  0.83004967  0.01219333  0.57513633  1
  O  O79  1  0.65647033  0.13078567  0.52148367  1
  O  O80  1  0.49658867  0.84634333  0.59017733  1
  O  O81  1  0.00004800  0.80182500  0.31032700  1
  O  O82  1  0.19817500  0.19822300  0.31032700  1
  O  O83  1  0.80177700  0.99995200  0.31032700  1
  O  O84  1  0.86457633  0.34493667  0.02345467  1
  O  O85  1  0.48036033  0.13542367  0.02345467  1
  O  O86  1  0.65506333  0.51963967  0.02345467  1
  O  O87  1  0.16553433  0.47957867  0.74363967  1
  O  O88  1  0.00049733  0.19808067  0.81243667  1
  O  O89  1  0.83158633  0.31485067  0.75753467  1
  O  O90  1  0.31404433  0.83446567  0.74363967  1
  O  O91  1  0.48326433  0.16841367  0.75753467  1
  O  O92  1  0.53588100  0.85901800  0.85481700  1
  O  O93  1  0.68514933  0.51673567  0.75753467  1
  O  O94  1  0.82032333  0.98357867  0.92351067  1
  O  O95  1  0.14098200  0.67686300  0.85481700  1
  O  O96  1  0.19758333  0.99950267  0.81243667  1
  O  O97  1  0.52042133  0.68595567  0.74363967  1
  O  O98  1  0.65447333  0.15118967  0.90846967  1
  O  O99  1  0.80191933  0.80241667  0.81243667  1
  O  O100  1  0.84881033  0.50328367  0.90846967  1
  O  O101  1  0.01642133  0.83674467  0.92351067  1
  O  O102  1  0.49671633  0.34552667  0.90846967  1
  O  O103  1  0.32313700  0.46411900  0.85481700  1
  O  O104  1  0.16325533  0.17967667  0.92351067  1
  O  O105  1  0.66671467  0.13515833  0.64366033  1
  O  O106  1  0.86484167  0.53155633  0.64366033  1
  O  O107  1  0.46844367  0.33328533  0.64366033  1
