# generated using pymatgen
data_Li4VTe(WO6)2
_symmetry_space_group_name_H-M   'P 1'
_cell_length_a   5.16248875
_cell_length_b   5.56118100
_cell_length_c   7.78341186
_cell_angle_alpha   96.13327065
_cell_angle_beta   90.49991557
_cell_angle_gamma   90.12424411
_symmetry_Int_Tables_number   1
_chemical_formula_structural   Li4VTe(WO6)2
_chemical_formula_sum   'Li4 V1 Te1 W2 O12'
_cell_volume   222.16953397
_cell_formula_units_Z   1
loop_
 _symmetry_equiv_pos_site_id
 _symmetry_equiv_pos_as_xyz
  1  'x, y, z'
loop_
 _atom_site_type_symbol
 _atom_site_label
 _atom_site_symmetry_multiplicity
 _atom_site_fract_x
 _atom_site_fract_y
 _atom_site_fract_z
 _atom_site_occupancy
  Li  Li0  1  0.00586400  0.58016900  0.72753950  1
  Li  Li1  1  0.50938250  0.06227050  0.18819000  1
  Li  Li2  1  0.99634050  0.57566850  0.18978550  1
  Li  Li3  1  0.48675450  0.08652650  0.72700450  1
  V  V4  1  0.98661700  0.00504100  0.97840800  1
  Te  Te5  1  0.49956550  0.52646050  0.48414700  1
  W  W6  1  0.00295700  0.00719100  0.47934000  1
  W  W7  1  0.50593000  0.50129500  0.99677450  1
  O  O8  1  0.30574100  0.81777300  0.57768250  1
  O  O9  1  0.13279100  0.99887800  0.26113200  1
  O  O10  1  0.30280300  0.19495900  0.95843150  1
  O  O11  1  0.14977900  0.28615300  0.58871000  1
  O  O12  1  0.78700850  0.28935050  0.07815400  1
  O  O13  1  0.36816050  0.51462450  0.24804800  1
  O  O14  1  0.64035150  0.46272950  0.77689750  1
  O  O15  1  0.20649950  0.69016550  0.95203200  1
  O  O16  1  0.84798350  0.66726850  0.44651200  1
  O  O17  1  0.71198150  0.78456250  0.07060300  1
  O  O18  1  0.87514500  0.96979400  0.76428700  1
  O  O19  1  0.67834400  0.12152000  0.43512050  1
