# generated using pymatgen
data_Na2Ti3Fe(PO4)6
_symmetry_space_group_name_H-M   'P 1'
_cell_length_a   8.51968972
_cell_length_b   8.51968972
_cell_length_c   22.36339714
_cell_angle_alpha   90.00000000
_cell_angle_beta   90.00000000
_cell_angle_gamma   120.00000000
_symmetry_Int_Tables_number   1
_chemical_formula_structural   Na2Ti3Fe(PO4)6
_chemical_formula_sum   'Na6 Ti9 Fe3 P18 O72'
_cell_volume   1405.77548244
_cell_formula_units_Z   3
loop_
 _symmetry_equiv_pos_site_id
 _symmetry_equiv_pos_as_xyz
  1  'x, y, z'
loop_
 _atom_site_type_symbol
 _atom_site_label
 _atom_site_symmetry_multiplicity
 _atom_site_fract_x
 _atom_site_fract_y
 _atom_site_fract_z
 _atom_site_occupancy
  Na  Na0  1  0.66666667  0.33333333  0.33316633  1
  Na  Na1  1  0.33333333  0.66666667  0.16944767  1
  Na  Na2  1  0.33333333  0.66666667  0.66649967  1
  Na  Na3  1  0.00000000  0.00000000  0.50278100  1
  Na  Na4  1  0.00000000  0.00000000  0.99983300  1
  Na  Na5  1  0.66666667  0.33333333  0.83611433  1
  Ti  Ti6  1  0.66666667  0.33333333  0.18828433  1
  Ti  Ti7  1  0.33333333  0.66666667  0.01981767  1
  Ti  Ti8  1  0.00000000  0.00000000  0.14554200  1
  Ti  Ti9  1  0.33333333  0.66666667  0.52161767  1
  Ti  Ti10  1  0.00000000  0.00000000  0.35315100  1
  Ti  Ti11  1  0.66666667  0.33333333  0.47887533  1
  Ti  Ti12  1  0.00000000  0.00000000  0.85495100  1
  Ti  Ti13  1  0.66666667  0.33333333  0.68648433  1
  Ti  Ti14  1  0.33333333  0.66666667  0.81220867  1
  Fe  Fe15  1  0.33333333  0.66666667  0.31372467  1
  Fe  Fe16  1  0.00000000  0.00000000  0.64705800  1
  Fe  Fe17  1  0.66666667  0.33333333  0.98039133  1
  P  P18  1  0.71327767  0.71377133  0.25008233  1
  P  P19  1  0.37925133  0.32975867  0.08288967  1
  P  P20  1  0.67024133  0.04949267  0.08288967  1
  P  P21  1  0.00049367  0.28672233  0.25008233  1
  P  P22  1  0.28622867  0.99950633  0.25008233  1
  P  P23  1  0.95050733  0.62074867  0.08288967  1
  P  P24  1  0.37994433  0.04710467  0.58341567  1
  P  P25  1  0.04591800  0.66309200  0.41622300  1
  P  P26  1  0.33690800  0.38282600  0.41622300  1
  P  P27  1  0.66716033  0.62005567  0.58341567  1
  P  P28  1  0.95289533  0.33283967  0.58341567  1
  P  P29  1  0.61717400  0.95408200  0.41622300  1
  P  P30  1  0.04661100  0.38043800  0.91674900  1
  P  P31  1  0.71258467  0.99642533  0.74955633  1
  P  P32  1  0.00357467  0.71615933  0.74955633  1
  P  P33  1  0.33382700  0.95338900  0.91674900  1
  P  P34  1  0.61956200  0.66617300  0.91674900  1
  P  P35  1  0.28384067  0.28741533  0.74955633  1
  O  O36  1  0.81263433  0.81587567  0.19257967  1
  O  O37  1  0.66148933  0.51315467  0.24414767  1
  O  O38  1  0.81442033  0.99025767  0.09080767  1
  O  O39  1  0.48312167  0.34076033  0.14095033  1
  O  O40  1  0.20555900  0.04866000  0.30431700  1
  O  O41  1  0.54524933  0.73484967  0.25642267  1
  O  O42  1  0.39105367  0.51566033  0.07381233  1
  O  O43  1  0.73046367  0.17870133  0.02955233  1
  O  O44  1  0.65923967  0.14236133  0.14095033  1
  O  O45  1  0.17583733  0.18557967  0.09080767  1
  O  O46  1  0.82129867  0.55176233  0.02955233  1
  O  O47  1  0.48433967  0.87539333  0.07381233  1
  O  O48  1  0.18960033  0.45475067  0.25642267  1
  O  O49  1  0.84310100  0.79444100  0.30431700  1
  O  O50  1  0.48684533  0.14833467  0.24414767  1
  O  O51  1  0.00324133  0.18736567  0.19257967  1
  O  O52  1  0.95134000  0.15689900  0.30431700  1
  O  O53  1  0.26515033  0.81039967  0.25642267  1
  O  O54  1  0.12460667  0.60894633  0.07381233  1
  O  O55  1  0.44823767  0.26953633  0.02955233  1
  O  O56  1  0.18412433  0.99675867  0.19257967  1
  O  O57  1  0.85166533  0.33851067  0.24414767  1
  O  O58  1  0.00974233  0.82416267  0.09080767  1
  O  O59  1  0.85763867  0.51687833  0.14095033  1
  O  O60  1  0.47930100  0.14920900  0.52591300  1
  O  O61  1  0.32815600  0.84648800  0.57748100  1
  O  O62  1  0.48108700  0.32359100  0.42414100  1
  O  O63  1  0.14978833  0.67409367  0.47428367  1
  O  O64  1  0.87222567  0.38199333  0.63765033  1
  O  O65  1  0.21191600  0.06818300  0.58975600  1
  O  O66  1  0.05772033  0.84899367  0.40714567  1
  O  O67  1  0.39713033  0.51203467  0.36288567  1
  O  O68  1  0.32590633  0.47569467  0.47428367  1
  O  O69  1  0.84250400  0.51891300  0.42414100  1
  O  O70  1  0.48796533  0.88509567  0.36288567  1
  O  O71  1  0.15100633  0.20872667  0.40714567  1
  O  O72  1  0.85626700  0.78808400  0.58975600  1
  O  O73  1  0.50976767  0.12777433  0.63765033  1
  O  O74  1  0.15351200  0.48166800  0.57748100  1
  O  O75  1  0.66990800  0.52069900  0.52591300  1
  O  O76  1  0.61800667  0.49023233  0.63765033  1
  O  O77  1  0.93181700  0.14373300  0.58975600  1
  O  O78  1  0.79127333  0.94227967  0.40714567  1
  O  O79  1  0.11490433  0.60286967  0.36288567  1
  O  O80  1  0.85079100  0.33009200  0.52591300  1
  O  O81  1  0.51833200  0.67184400  0.57748100  1
  O  O82  1  0.67640900  0.15749600  0.42414100  1
  O  O83  1  0.52430533  0.85021167  0.47428367  1
  O  O84  1  0.14596767  0.48254233  0.85924633  1
  O  O85  1  0.99482267  0.17982133  0.91081433  1
  O  O86  1  0.14775367  0.65692433  0.75747433  1
  O  O87  1  0.81645500  0.00742700  0.80761700  1
  O  O88  1  0.53889233  0.71532667  0.97098367  1
  O  O89  1  0.87858267  0.40151633  0.92308933  1
  O  O90  1  0.72438700  0.18232700  0.74047900  1
  O  O91  1  0.06379700  0.84536800  0.69621900  1
  O  O92  1  0.99257300  0.80902800  0.80761700  1
  O  O93  1  0.50917067  0.85224633  0.75747433  1
  O  O94  1  0.15463200  0.21842900  0.69621900  1
  O  O95  1  0.81767300  0.54206000  0.74047900  1
  O  O96  1  0.52293367  0.12141733  0.92308933  1
  O  O97  1  0.17643433  0.46110767  0.97098367  1
  O  O98  1  0.82017867  0.81500133  0.91081433  1
  O  O99  1  0.33657467  0.85403233  0.85924633  1
  O  O100  1  0.28467333  0.82356567  0.97098367  1
  O  O101  1  0.59848367  0.47706633  0.92308933  1
  O  O102  1  0.45794000  0.27561300  0.74047900  1
  O  O103  1  0.78157100  0.93620300  0.69621900  1
  O  O104  1  0.51745767  0.66342533  0.85924633  1
  O  O105  1  0.18499867  0.00517733  0.91081433  1
  O  O106  1  0.34307567  0.49082933  0.75747433  1
  O  O107  1  0.19097200  0.18354500  0.80761700  1
