# generated using pymatgen
data_Li6CrNiP2(CO7)2
_symmetry_space_group_name_H-M   'P 1'
_cell_length_a   4.99610700
_cell_length_b   6.44399200
_cell_length_c   8.51508717
_cell_angle_alpha   90.00000000
_cell_angle_beta   94.60369366
_cell_angle_gamma   90.00000000
_symmetry_Int_Tables_number   1
_chemical_formula_structural   Li6CrNiP2(CO7)2
_chemical_formula_sum   'Li6 Cr1 Ni1 P2 C2 O14'
_cell_volume   273.25769157
_cell_formula_units_Z   1
loop_
 _symmetry_equiv_pos_site_id
 _symmetry_equiv_pos_as_xyz
  1  'x, y, z'
loop_
 _atom_site_type_symbol
 _atom_site_label
 _atom_site_symmetry_multiplicity
 _atom_site_fract_x
 _atom_site_fract_y
 _atom_site_fract_z
 _atom_site_occupancy
  Li  Li0  1  0.76602400  0.50000000  0.90228900  1
  Li  Li1  1  0.25274600  0.72881800  0.72512800  1
  Li  Li2  1  0.25274600  0.27118200  0.72512800  1
  Li  Li3  1  0.75026200  0.22919500  0.27404900  1
  Li  Li4  1  0.75026200  0.77080500  0.27404900  1
  Li  Li5  1  0.23441000  0.00000000  0.10214900  1
  Cr  Cr6  1  0.78819500  0.00000000  0.66455400  1
  Ni  Ni7  1  0.20699700  0.50000000  0.33245100  1
  P  P8  1  0.71959900  0.50000000  0.58365800  1
  P  P9  1  0.27890600  0.00000000  0.41008500  1
  C  C10  1  0.70482900  0.00000000  0.96773100  1
  C  C11  1  0.29763200  0.50000000  0.03854200  1
  O  O12  1  0.95342600  0.00000000  0.93784800  1
  O  O13  1  0.36126600  0.50000000  0.89312100  1
  O  O14  1  0.51953700  0.00000000  0.84974600  1
  O  O15  1  0.82469300  0.68602900  0.68868600  1
  O  O16  1  0.82469300  0.31397100  0.68868600  1
  O  O17  1  0.18322700  0.00000000  0.57915000  1
  O  O18  1  0.40630800  0.50000000  0.56329500  1
  O  O19  1  0.59075900  0.00000000  0.42103800  1
  O  O20  1  0.82581000  0.50000000  0.41883100  1
  O  O21  1  0.16910600  0.81139800  0.31074800  1
  O  O22  1  0.16910600  0.18860200  0.31074800  1
  O  O23  1  0.48523900  0.50000000  0.15423800  1
  O  O24  1  0.63400100  0.00000000  0.11064400  1
  O  O25  1  0.05022200  0.50000000  0.07340800  1
