# generated using pymatgen
data_Mn3CrNi2(PO4)6
_symmetry_space_group_name_H-M   'P 1'
_cell_length_a   8.52760194
_cell_length_b   8.52760194
_cell_length_c   20.54257257
_cell_angle_alpha   90.00000000
_cell_angle_beta   90.00000000
_cell_angle_gamma   120.00000000
_symmetry_Int_Tables_number   1
_chemical_formula_structural   Mn3CrNi2(PO4)6
_chemical_formula_sum   'Mn9 Cr3 Ni6 P18 O72'
_cell_volume   1293.71704888
_cell_formula_units_Z   3
loop_
 _symmetry_equiv_pos_site_id
 _symmetry_equiv_pos_as_xyz
  1  'x, y, z'
loop_
 _atom_site_type_symbol
 _atom_site_label
 _atom_site_symmetry_multiplicity
 _atom_site_fract_x
 _atom_site_fract_y
 _atom_site_fract_z
 _atom_site_occupancy
  Mn  Mn0  1  0.33333333  0.66666667  0.80840567  1
  Mn  Mn1  1  0.33333333  0.66666667  0.02511067  1
  Mn  Mn2  1  0.33333333  0.66666667  0.30869367  1
  Mn  Mn3  1  0.00000000  0.00000000  0.14173900  1
  Mn  Mn4  1  0.00000000  0.00000000  0.35844400  1
  Mn  Mn5  1  0.00000000  0.00000000  0.64202700  1
  Mn  Mn6  1  0.66666667  0.33333333  0.47507233  1
  Mn  Mn7  1  0.66666667  0.33333333  0.69177733  1
  Mn  Mn8  1  0.66666667  0.33333333  0.97536033  1
  Cr  Cr9  1  0.33333333  0.66666667  0.52626867  1
  Cr  Cr10  1  0.00000000  0.00000000  0.85960200  1
  Cr  Cr11  1  0.66666667  0.33333333  0.19293533  1
  Ni  Ni12  1  0.33333333  0.66666667  0.66652567  1
  Ni  Ni13  1  0.33333333  0.66666667  0.16725167  1
  Ni  Ni14  1  0.00000000  0.00000000  0.99985900  1
  Ni  Ni15  1  0.00000000  0.00000000  0.50058500  1
  Ni  Ni16  1  0.66666667  0.33333333  0.33319233  1
  Ni  Ni17  1  0.66666667  0.33333333  0.83391833  1
  P  P18  1  0.37407333  0.04079567  0.08292667  1
  P  P19  1  0.66672233  0.62592667  0.08292667  1
  P  P20  1  0.95920433  0.33327767  0.08292667  1
  P  P21  1  0.70959267  0.00035833  0.25057233  1
  P  P22  1  0.99964167  0.70923433  0.25057233  1
  P  P23  1  0.29076567  0.29040733  0.25057233  1
  P  P24  1  0.04074000  0.37412900  0.41626000  1
  P  P25  1  0.33338900  0.95926000  0.41626000  1
  P  P26  1  0.62587100  0.66661100  0.41626000  1
  P  P27  1  0.37625933  0.33369167  0.58390567  1
  P  P28  1  0.66630833  0.04256767  0.58390567  1
  P  P29  1  0.95743233  0.62374067  0.58390567  1
  P  P30  1  0.70740667  0.70746233  0.74959333  1
  P  P31  1  0.00005567  0.29259333  0.74959333  1
  P  P32  1  0.29253767  0.99994433  0.74959333  1
  P  P33  1  0.04292600  0.66702500  0.91723900  1
  P  P34  1  0.33297500  0.37590100  0.91723900  1
  P  P35  1  0.62409900  0.95707400  0.91723900  1
  O  O36  1  0.52465500  0.85960700  0.97956500  1
  O  O37  1  0.14039300  0.66504800  0.97956500  1
  O  O38  1  0.18020533  0.01485767  0.07522867  1
  O  O39  1  0.33495200  0.47534500  0.97956500  1
  O  O40  1  0.46893633  0.13559767  0.14497167  1
  O  O41  1  0.35402267  0.84711233  0.09001933  1
  O  O42  1  0.83465233  0.81979467  0.07522867  1
  O  O43  1  0.49308967  0.64597733  0.09001933  1
  O  O44  1  0.80326867  0.99846233  0.18771833  1
  O  O45  1  0.15288767  0.50691033  0.09001933  1
  O  O46  1  0.68692400  0.16915300  0.25869100  1
  O  O47  1  0.00153767  0.80480633  0.18771833  1
  O  O48  1  0.66666133  0.53106367  0.14497167  1
  O  O49  1  0.98514233  0.16534767  0.07522867  1
  O  O50  1  0.51725767  0.82899033  0.24277233  1
  O  O51  1  0.86440233  0.33333867  0.14497167  1
  O  O52  1  0.17100967  0.68826733  0.24277233  1
  O  O53  1  0.83084700  0.51777100  0.25869100  1
  O  O54  1  0.31173267  0.48274233  0.24277233  1
  O  O55  1  0.19519367  0.19673133  0.18771833  1
  O  O56  1  0.33581733  0.86569467  0.35345067  1
  O  O57  1  0.48222900  0.31307600  0.25869100  1
  O  O58  1  0.52987733  0.66418267  0.35345067  1
  O  O59  1  0.13430533  0.47012267  0.35345067  1
  O  O60  1  0.19132167  0.19294033  0.31289833  1
  O  O61  1  0.80705967  0.99838133  0.31289833  1
  O  O62  1  0.84687200  0.34819100  0.40856200  1
  O  O63  1  0.00161867  0.80867833  0.31289833  1
  O  O64  1  0.13560300  0.46893100  0.47830500  1
  O  O65  1  0.02068933  0.18044567  0.42335267  1
  O  O66  1  0.50131900  0.15312800  0.40856200  1
  O  O67  1  0.15975633  0.97931067  0.42335267  1
  O  O68  1  0.46993533  0.33179567  0.52105167  1
  O  O69  1  0.81955433  0.84024367  0.42335267  1
  O  O70  1  0.35359067  0.50248633  0.59202433  1
  O  O71  1  0.66820433  0.13813967  0.52105167  1
  O  O72  1  0.33332800  0.86439700  0.47830500  1
  O  O73  1  0.65180900  0.49868100  0.40856200  1
  O  O74  1  0.18392433  0.16232367  0.57610567  1
  O  O75  1  0.53106900  0.66667200  0.47830500  1
  O  O76  1  0.83767633  0.02160067  0.57610567  1
  O  O77  1  0.49751367  0.85110433  0.59202433  1
  O  O78  1  0.97839933  0.81607567  0.57610567  1
  O  O79  1  0.86186033  0.53006467  0.52105167  1
  O  O80  1  0.00248400  0.19902800  0.68678400  1
  O  O81  1  0.14889567  0.64640933  0.59202433  1
  O  O82  1  0.19654400  0.99751600  0.68678400  1
  O  O83  1  0.80097200  0.80345600  0.68678400  1
  O  O84  1  0.85798833  0.52627367  0.64623167  1
  O  O85  1  0.47372633  0.33171467  0.64623167  1
  O  O86  1  0.51353867  0.68152433  0.74189533  1
  O  O87  1  0.66828533  0.14201167  0.64623167  1
  O  O88  1  0.80226967  0.80226433  0.81163833  1
  O  O89  1  0.68735600  0.51377900  0.75668600  1
  O  O90  1  0.16798567  0.48646133  0.74189533  1
  O  O91  1  0.82642300  0.31264400  0.75668600  1
  O  O92  1  0.13660200  0.66512900  0.85438500  1
  O  O93  1  0.48622100  0.17357700  0.75668600  1
  O  O94  1  0.02025733  0.83581967  0.92535767  1
  O  O95  1  0.33487100  0.47147300  0.85438500  1
  O  O96  1  0.99999467  0.19773033  0.81163833  1
  O  O97  1  0.31847567  0.83201433  0.74189533  1
  O  O98  1  0.85059100  0.49565700  0.90943900  1
  O  O99  1  0.19773567  0.00000533  0.81163833  1
  O  O100  1  0.50434300  0.35493400  0.90943900  1
  O  O101  1  0.16418033  0.18443767  0.92535767  1
  O  O102  1  0.64506600  0.14940900  0.90943900  1
  O  O103  1  0.52852700  0.86339800  0.85438500  1
  O  O104  1  0.66915067  0.53236133  0.02011733  1
  O  O105  1  0.81556233  0.97974267  0.92535767  1
  O  O106  1  0.86321067  0.33084933  0.02011733  1
  O  O107  1  0.46763867  0.13678933  0.02011733  1
