# generated using pymatgen
data_Li4FeCu3O8
_symmetry_space_group_name_H-M   'P 1'
_cell_length_a   5.87595044
_cell_length_b   5.87595044
_cell_length_c   14.49022724
_cell_angle_alpha   90.00000000
_cell_angle_beta   90.00000000
_cell_angle_gamma   120.00000000
_symmetry_Int_Tables_number   1
_chemical_formula_structural   Li4FeCu3O8
_chemical_formula_sum   'Li12 Fe3 Cu9 O24'
_cell_volume   433.27344880
_cell_formula_units_Z   3
loop_
 _symmetry_equiv_pos_site_id
 _symmetry_equiv_pos_as_xyz
  1  'x, y, z'
loop_
 _atom_site_type_symbol
 _atom_site_label
 _atom_site_symmetry_multiplicity
 _atom_site_fract_x
 _atom_site_fract_y
 _atom_site_fract_z
 _atom_site_occupancy
  Li  Li0  1  0.33333333  0.66666667  0.16666667  1
  Li  Li1  1  0.83333333  0.66666667  0.16666667  1
  Li  Li2  1  0.33333333  0.16666667  0.16666667  1
  Li  Li3  1  0.83333333  0.16666667  0.16666667  1
  Li  Li4  1  1.00000000  1.00000000  0.50000000  1
  Li  Li5  1  0.50000000  0.00000000  0.50000000  1
  Li  Li6  1  0.00000000  0.50000000  0.50000000  1
  Li  Li7  1  0.50000000  0.50000000  0.50000000  1
  Li  Li8  1  0.66666667  0.33333333  0.83333333  1
  Li  Li9  1  0.16666667  0.33333333  0.83333333  1
  Li  Li10  1  0.66666667  0.83333333  0.83333333  1
  Li  Li11  1  0.16666667  0.83333333  0.83333333  1
  Fe  Fe12  1  0.00000000  0.00000000  0.00000000  1
  Fe  Fe13  1  0.66666667  0.33333333  0.33333333  1
  Fe  Fe14  1  0.33333333  0.66666667  0.66666667  1
  Cu  Cu15  1  0.50000000  0.00000000  0.00000000  1
  Cu  Cu16  1  0.00000000  0.50000000  0.00000000  1
  Cu  Cu17  1  0.50000000  0.50000000  0.00000000  1
  Cu  Cu18  1  0.16666667  0.33333333  0.33333333  1
  Cu  Cu19  1  0.66666667  0.83333333  0.33333333  1
  Cu  Cu20  1  0.16666667  0.83333333  0.33333333  1
  Cu  Cu21  1  0.83333333  0.66666667  0.66666667  1
  Cu  Cu22  1  0.33333333  0.16666667  0.66666667  1
  Cu  Cu23  1  0.83333333  0.16666667  0.66666667  1
  O  O24  1  0.00000000  0.00000000  0.25746700  1
  O  O25  1  0.50005033  0.00010067  0.25584467  1
  O  O26  1  0.99989933  0.49994967  0.25584467  1
  O  O27  1  0.66666667  0.33333333  0.07586633  1
  O  O28  1  0.50005033  0.49994967  0.25584467  1
  O  O29  1  0.16661633  0.33323267  0.07748867  1
  O  O30  1  0.66676733  0.83338367  0.07748867  1
  O  O31  1  0.16661633  0.83338367  0.07748867  1
  O  O32  1  0.66666667  0.33333333  0.59080033  1
  O  O33  1  0.16671700  0.33343400  0.58917800  1
  O  O34  1  0.66656600  0.83328300  0.58917800  1
  O  O35  1  0.33333333  0.66666667  0.40919967  1
  O  O36  1  0.16671700  0.83328300  0.58917800  1
  O  O37  1  0.83328300  0.66656600  0.41082200  1
  O  O38  1  0.33343400  0.16671700  0.41082200  1
  O  O39  1  0.83328300  0.16671700  0.41082200  1
  O  O40  1  0.33333333  0.66666667  0.92413367  1
  O  O41  1  0.83338367  0.66676733  0.92251133  1
  O  O42  1  0.33323267  0.16661633  0.92251133  1
  O  O43  1  0.00000000  0.00000000  0.74253300  1
  O  O44  1  0.83338367  0.16661633  0.92251133  1
  O  O45  1  0.49994967  0.99989933  0.74415533  1
  O  O46  1  0.00010067  0.50005033  0.74415533  1
  O  O47  1  0.49994967  0.50005033  0.74415533  1
