# generated using pymatgen
data_MnV3Sb2(PO4)6
_symmetry_space_group_name_H-M   'P 1'
_cell_length_a   8.73675759
_cell_length_b   8.73675759
_cell_length_c   21.93358345
_cell_angle_alpha   90.00000000
_cell_angle_beta   90.00000000
_cell_angle_gamma   120.00000000
_symmetry_Int_Tables_number   1
_chemical_formula_structural   MnV3Sb2(PO4)6
_chemical_formula_sum   'Mn3 V9 Sb6 P18 O72'
_cell_volume   1449.90916491
_cell_formula_units_Z   3
loop_
 _symmetry_equiv_pos_site_id
 _symmetry_equiv_pos_as_xyz
  1  'x, y, z'
loop_
 _atom_site_type_symbol
 _atom_site_label
 _atom_site_symmetry_multiplicity
 _atom_site_fract_x
 _atom_site_fract_y
 _atom_site_fract_z
 _atom_site_occupancy
  Mn  Mn0  1  0.66666667  0.33333333  0.18335833  1
  Mn  Mn1  1  0.33333333  0.66666667  0.51669167  1
  Mn  Mn2  1  0.00000000  0.00000000  0.85002500  1
  V  V3  1  0.33333333  0.66666667  0.01847867  1
  V  V4  1  0.00000000  0.00000000  0.14551500  1
  V  V5  1  0.33333333  0.66666667  0.31394767  1
  V  V6  1  0.00000000  0.00000000  0.35181200  1
  V  V7  1  0.66666667  0.33333333  0.47884833  1
  V  V8  1  0.00000000  0.00000000  0.64728100  1
  V  V9  1  0.66666667  0.33333333  0.68514533  1
  V  V10  1  0.33333333  0.66666667  0.81218167  1
  V  V11  1  0.66666667  0.33333333  0.98061433  1
  Sb  Sb12  1  0.66666667  0.33333333  0.32872033  1
  Sb  Sb13  1  0.33333333  0.66666667  0.16405367  1
  Sb  Sb14  1  0.33333333  0.66666667  0.66205367  1
  Sb  Sb15  1  0.00000000  0.00000000  0.49738700  1
  Sb  Sb16  1  0.00000000  0.00000000  0.99538700  1
  Sb  Sb17  1  0.66666667  0.33333333  0.83072033  1
  P  P18  1  0.37281700  0.04003800  0.08308900  1
  P  P19  1  0.66722100  0.62718300  0.08308900  1
  P  P20  1  0.95996200  0.33277900  0.08308900  1
  P  P21  1  0.71023933  0.99683067  0.25081567  1
  P  P22  1  0.00316933  0.71340867  0.25081567  1
  P  P23  1  0.28659133  0.28976067  0.25081567  1
  P  P24  1  0.03948367  0.37337133  0.41642233  1
  P  P25  1  0.33388767  0.96051633  0.41642233  1
  P  P26  1  0.62662867  0.66611233  0.41642233  1
  P  P27  1  0.37690600  0.33016400  0.58414900  1
  P  P28  1  0.66983600  0.04674200  0.58414900  1
  P  P29  1  0.95325800  0.62309400  0.58414900  1
  P  P30  1  0.70615033  0.70670467  0.74975567  1
  P  P31  1  0.00055433  0.29384967  0.74975567  1
  P  P32  1  0.29329533  0.99944567  0.74975567  1
  P  P33  1  0.04357267  0.66349733  0.91748233  1
  P  P34  1  0.33650267  0.38007533  0.91748233  1
  P  P35  1  0.61992467  0.95642733  0.91748233  1
  O  O36  1  0.67343167  0.53268633  0.02483833  1
  O  O37  1  0.85925467  0.32656833  0.02483833  1
  O  O38  1  0.46731367  0.14074533  0.02483833  1
  O  O39  1  0.18224800  0.01513200  0.08056500  1
  O  O40  1  0.46348567  0.11821333  0.14254333  1
  O  O41  1  0.34805067  0.84599533  0.08191933  1
  O  O42  1  0.83288400  0.81775200  0.08056500  1
  O  O43  1  0.49794467  0.65194933  0.08191933  1
  O  O44  1  0.80180667  0.99283833  0.19251033  1
  O  O45  1  0.15400467  0.50205533  0.08191933  1
  O  O46  1  0.69068567  0.16446033  0.25624733  1
  O  O47  1  0.00716167  0.80896833  0.19251033  1
  O  O48  1  0.65472767  0.53651433  0.14254333  1
  O  O49  1  0.98486800  0.16711600  0.08056500  1
  O  O50  1  0.51959233  0.82953967  0.24914867  1
  O  O51  1  0.88178667  0.34527233  0.14254333  1
  O  O52  1  0.17046033  0.69005267  0.24914867  1
  O  O53  1  0.83553967  0.52622533  0.25624733  1
  O  O54  1  0.30994733  0.48040767  0.24914867  1
  O  O55  1  0.19103167  0.19819333  0.19251033  1
  O  O56  1  0.47377467  0.30931433  0.25624733  1
  O  O57  1  0.18715067  0.19235133  0.30919433  1
  O  O58  1  0.80764867  0.99479933  0.30919433  1
  O  O59  1  0.00520067  0.81284933  0.30919433  1
  O  O60  1  0.34009833  0.86601967  0.35817167  1
  O  O61  1  0.52592133  0.65990167  0.35817167  1
  O  O62  1  0.13398033  0.47407867  0.35817167  1
  O  O63  1  0.84891467  0.34846533  0.41389833  1
  O  O64  1  0.13015233  0.45154667  0.47587667  1
  O  O65  1  0.01471733  0.17932867  0.41525267  1
  O  O66  1  0.49955067  0.15108533  0.41389833  1
  O  O67  1  0.16461133  0.98528267  0.41525267  1
  O  O68  1  0.46847333  0.32617167  0.52584367  1
  O  O69  1  0.82067133  0.83538867  0.41525267  1
  O  O70  1  0.35735233  0.49779367  0.58958067  1
  O  O71  1  0.67382833  0.14230167  0.52584367  1
  O  O72  1  0.32139433  0.86984767  0.47587667  1
  O  O73  1  0.65153467  0.50044933  0.41389833  1
  O  O74  1  0.18625900  0.16287300  0.58248200  1
  O  O75  1  0.54845333  0.67860567  0.47587667  1
  O  O76  1  0.83712700  0.02338600  0.58248200  1
  O  O77  1  0.50220633  0.85955867  0.58958067  1
  O  O78  1  0.97661400  0.81374100  0.58248200  1
  O  O79  1  0.85769833  0.53152667  0.52584367  1
  O  O80  1  0.14044133  0.64264767  0.58958067  1
  O  O81  1  0.85381733  0.52568467  0.64252767  1
  O  O82  1  0.47431533  0.32813267  0.64252767  1
  O  O83  1  0.67186733  0.14618267  0.64252767  1
  O  O84  1  0.00676500  0.19935300  0.69150500  1
  O  O85  1  0.19258800  0.99323500  0.69150500  1
  O  O86  1  0.80064700  0.80741200  0.69150500  1
  O  O87  1  0.51558133  0.68179867  0.74723167  1
  O  O88  1  0.79681900  0.78488000  0.80921000  1
  O  O89  1  0.68138400  0.51266200  0.74858600  1
  O  O90  1  0.16621733  0.48441867  0.74723167  1
  O  O91  1  0.83127800  0.31861600  0.74858600  1
  O  O92  1  0.13514000  0.65950500  0.85917700  1
  O  O93  1  0.48733800  0.16872200  0.74858600  1
  O  O94  1  0.02401900  0.83112700  0.92291400  1
  O  O95  1  0.34049500  0.47563500  0.85917700  1
  O  O96  1  0.98806100  0.20318100  0.80921000  1
  O  O97  1  0.31820133  0.83378267  0.74723167  1
  O  O98  1  0.85292567  0.49620633  0.91581533  1
  O  O99  1  0.21512000  0.01193900  0.80921000  1
  O  O100  1  0.50379367  0.35671933  0.91581533  1
  O  O101  1  0.16887300  0.19289200  0.92291400  1
  O  O102  1  0.64328067  0.14707433  0.91581533  1
  O  O103  1  0.52436500  0.86486000  0.85917700  1
  O  O104  1  0.80710800  0.97598100  0.92291400  1
  O  O105  1  0.52048400  0.85901800  0.97586100  1
  O  O106  1  0.14098200  0.66146600  0.97586100  1
  O  O107  1  0.33853400  0.47951600  0.97586100  1
