# generated using pymatgen
data_Na3Li3Fe2P2(CO7)2
_symmetry_space_group_name_H-M   'P 1'
_cell_length_a   6.63714691
_cell_length_b   8.76839052
_cell_length_c   10.31073407
_cell_angle_alpha   92.38243585
_cell_angle_beta   90.46953597
_cell_angle_gamma   93.29758399
_symmetry_Int_Tables_number   1
_chemical_formula_structural   Na3Li3Fe2P2(CO7)2
_chemical_formula_sum   'Na6 Li6 Fe4 P4 C4 O28'
_cell_volume   598.50971131
_cell_formula_units_Z   2
loop_
 _symmetry_equiv_pos_site_id
 _symmetry_equiv_pos_as_xyz
  1  'x, y, z'
loop_
 _atom_site_type_symbol
 _atom_site_label
 _atom_site_symmetry_multiplicity
 _atom_site_fract_x
 _atom_site_fract_y
 _atom_site_fract_z
 _atom_site_occupancy
  Na  Na0  1  0.22392700  0.91648900  0.37787300  1
  Na  Na1  1  0.22249000  0.91460200  0.88020600  1
  Na  Na2  1  0.51060700  0.74789600  0.12188300  1
  Na  Na3  1  0.50699100  0.74306800  0.63153800  1
  Na  Na4  1  0.49569800  0.25758600  0.37384700  1
  Na  Na5  1  0.49799500  0.25256000  0.87488300  1
  Li  Li6  1  0.04459100  0.70724600  0.11089600  1
  Li  Li7  1  0.04484700  0.70571900  0.61431100  1
  Li  Li8  1  0.95962200  0.28735700  0.38126900  1
  Li  Li9  1  0.96956900  0.27876300  0.87917700  1
  Li  Li10  1  0.79922600  0.09495000  0.12640600  1
  Li  Li11  1  0.80301500  0.09069300  0.62147100  1
  Fe  Fe12  1  0.76080700  0.64462100  0.88829700  1
  Fe  Fe13  1  0.23610300  0.34617500  0.10775600  1
  Fe  Fe14  1  0.75628300  0.65580900  0.39430200  1
  Fe  Fe15  1  0.23535400  0.34350600  0.60788100  1
  P  P16  1  0.24219700  0.58094200  0.35732000  1
  P  P17  1  0.24478600  0.57855600  0.85595200  1
  P  P18  1  0.75097200  0.41738500  0.14434500  1
  P  P19  1  0.75166200  0.41283100  0.64527000  1
  C  C20  1  0.76336500  0.96126200  0.35886800  1
  C  C21  1  0.76351800  0.96062800  0.86221700  1
  C  C22  1  0.23464600  0.04794500  0.13883900  1
  C  C23  1  0.23395300  0.04612100  0.64028000  1
  O  O24  1  0.23408800  0.90050800  0.14652100  1
  O  O25  1  0.23459100  0.89899000  0.64935000  1
  O  O26  1  0.75835500  0.92851900  0.48088400  1
  O  O27  1  0.75149100  0.93844600  0.98516900  1
  O  O28  1  0.76437100  0.85018300  0.27063100  1
  O  O29  1  0.77030800  0.84292700  0.78001600  1
  O  O30  1  0.07080800  0.67918500  0.41320700  1
  O  O31  1  0.07592400  0.67648300  0.91358100  1
  O  O32  1  0.44368000  0.66977000  0.39972600  1
  O  O33  1  0.44610100  0.66821800  0.89448400  1
  O  O34  1  0.22749700  0.56880600  0.20586500  1
  O  O35  1  0.22537100  0.56463500  0.70431900  1
  O  O36  1  0.77385200  0.57729300  0.08492600  1
  O  O37  1  0.77428100  0.57606100  0.59253900  1
  O  O38  1  0.22493600  0.41839900  0.41047000  1
  O  O39  1  0.22964200  0.41602800  0.90972900  1
  O  O40  1  0.76977800  0.43608400  0.29526900  1
  O  O41  1  0.77475600  0.42503700  0.79635700  1
  O  O42  1  0.54708100  0.33223600  0.10606300  1
  O  O43  1  0.54627300  0.33072400  0.60648200  1
  O  O44  1  0.91697000  0.31058600  0.09169600  1
  O  O45  1  0.91551800  0.30740300  0.58777500  1
  O  O46  1  0.23250800  0.13703200  0.24291100  1
  O  O47  1  0.22871400  0.13645400  0.74361300  1
  O  O48  1  0.23522500  0.11077900  0.02666100  1
  O  O49  1  0.23628600  0.10792100  0.52772800  1
  O  O50  1  0.76887000  0.10168800  0.32241900  1
  O  O51  1  0.77049800  0.09689600  0.81651800  1
