# generated using pymatgen
data_V3Fe2Co(PO4)6
_symmetry_space_group_name_H-M   'P 1'
_cell_length_a   8.58738818
_cell_length_b   8.58738818
_cell_length_c   20.64960581
_cell_angle_alpha   90.00000000
_cell_angle_beta   90.00000000
_cell_angle_gamma   120.00000000
_symmetry_Int_Tables_number   1
_chemical_formula_structural   V3Fe2Co(PO4)6
_chemical_formula_sum   'V9 Fe6 Co3 P18 O72'
_cell_volume   1318.75642136
_cell_formula_units_Z   3
loop_
 _symmetry_equiv_pos_site_id
 _symmetry_equiv_pos_as_xyz
  1  'x, y, z'
loop_
 _atom_site_type_symbol
 _atom_site_label
 _atom_site_symmetry_multiplicity
 _atom_site_fract_x
 _atom_site_fract_y
 _atom_site_fract_z
 _atom_site_occupancy
  V  V0  1  0.33333333  0.66666667  0.02442667  1
  V  V1  1  0.33333333  0.66666667  0.80812867  1
  V  V2  1  0.33333333  0.66666667  0.30953867  1
  V  V3  1  0.00000000  0.00000000  0.35776000  1
  V  V4  1  0.00000000  0.00000000  0.14146200  1
  V  V5  1  0.00000000  0.00000000  0.64287200  1
  V  V6  1  0.66666667  0.33333333  0.69109333  1
  V  V7  1  0.66666667  0.33333333  0.47479533  1
  V  V8  1  0.66666667  0.33333333  0.97620533  1
  Fe  Fe9  1  0.33333333  0.66666667  0.66507367  1
  Fe  Fe10  1  0.33333333  0.66666667  0.16531467  1
  Fe  Fe11  1  0.00000000  0.00000000  0.99840700  1
  Fe  Fe12  1  0.00000000  0.00000000  0.49864800  1
  Fe  Fe13  1  0.66666667  0.33333333  0.33174033  1
  Fe  Fe14  1  0.66666667  0.33333333  0.83198133  1
  Co  Co15  1  0.33333333  0.66666667  0.52595567  1
  Co  Co16  1  0.00000000  0.00000000  0.85928900  1
  Co  Co17  1  0.66666667  0.33333333  0.19262233  1
  P  P18  1  0.95360567  0.33264833  0.08604733  1
  P  P19  1  0.37904267  0.04639433  0.08604733  1
  P  P20  1  0.66735167  0.62095733  0.08604733  1
  P  P21  1  0.99970133  0.70640467  0.24895967  1
  P  P22  1  0.29359533  0.29329667  0.24895967  1
  P  P23  1  0.70670333  0.00029867  0.24895967  1
  P  P24  1  0.62027233  0.66598167  0.41938067  1
  P  P25  1  0.04570933  0.37972767  0.41938067  1
  P  P26  1  0.33401833  0.95429067  0.41938067  1
  P  P27  1  0.66636800  0.03973800  0.58229300  1
  P  P28  1  0.96026200  0.62663000  0.58229300  1
  P  P29  1  0.37337000  0.33363200  0.58229300  1
  P  P30  1  0.28693900  0.99931500  0.75271400  1
  P  P31  1  0.71237600  0.71306100  0.75271400  1
  P  P32  1  0.00068500  0.28762400  0.75271400  1
  P  P33  1  0.33303467  0.37307133  0.91562633  1
  P  P34  1  0.62692867  0.95996333  0.91562633  1
  P  P35  1  0.04003667  0.66696533  0.91562633  1
  O  O36  1  0.14335367  0.47711633  0.35589733  1
  O  O37  1  0.33376267  0.85664633  0.35589733  1
  O  O38  1  0.52288367  0.66623733  0.35589733  1
  O  O39  1  0.97423200  0.16099900  0.07758100  1
  O  O40  1  0.85783733  0.33331067  0.14739967  1
  O  O41  1  0.14756000  0.49589700  0.09054900  1
  O  O42  1  0.18676700  0.02576800  0.07758100  1
  O  O43  1  0.34833700  0.85244000  0.09054900  1
  O  O44  1  0.99905133  0.80651267  0.18664967  1
  O  O45  1  0.50410300  0.65166300  0.09054900  1
  O  O46  1  0.82875467  0.51555433  0.25545333  1
  O  O47  1  0.19348733  0.19253867  0.18664967  1
  O  O48  1  0.47547333  0.14216267  0.14739967  1
  O  O49  1  0.83900100  0.81323300  0.07758100  1
  O  O50  1  0.16952167  0.68385633  0.24225933  1
  O  O51  1  0.66668933  0.52452667  0.14739967  1
  O  O52  1  0.31614367  0.48566533  0.24225933  1
  O  O53  1  0.48444567  0.31320033  0.25545333  1
  O  O54  1  0.51433467  0.83047833  0.24225933  1
  O  O55  1  0.80746133  0.00094867  0.18664967  1
  O  O56  1  0.68679967  0.17124533  0.25545333  1
  O  O57  1  0.13253667  0.65681933  0.97639433  1
  O  O58  1  0.34318067  0.47571733  0.97639433  1
  O  O59  1  0.52428267  0.86746333  0.97639433  1
  O  O60  1  0.81002033  0.81044967  0.68923067  1
  O  O61  1  0.00042933  0.18997967  0.68923067  1
  O  O62  1  0.18955033  0.99957067  0.68923067  1
  O  O63  1  0.64089867  0.49433233  0.41091433  1
  O  O64  1  0.52450400  0.66664400  0.48073300  1
  O  O65  1  0.81422667  0.82923033  0.42388233  1
  O  O66  1  0.85343367  0.35910133  0.41091433  1
  O  O67  1  0.01500367  0.18577333  0.42388233  1
  O  O68  1  0.66571800  0.13984600  0.51998300  1
  O  O69  1  0.17076967  0.98499633  0.42388233  1
  O  O70  1  0.49542133  0.84888767  0.58878667  1
  O  O71  1  0.86015400  0.52587200  0.51998300  1
  O  O72  1  0.14214000  0.47549600  0.48073300  1
  O  O73  1  0.50566767  0.14656633  0.41091433  1
  O  O74  1  0.83618833  0.01718967  0.57559267  1
  O  O75  1  0.33335600  0.85786000  0.48073300  1
  O  O76  1  0.98281033  0.81899867  0.57559267  1
  O  O77  1  0.15111233  0.64653367  0.58878667  1
  O  O78  1  0.18100133  0.16381167  0.57559267  1
  O  O79  1  0.47412800  0.33428200  0.51998300  1
  O  O80  1  0.35346633  0.50457867  0.58878667  1
  O  O81  1  0.79920333  0.99015267  0.30972767  1
  O  O82  1  0.00984733  0.80905067  0.30972767  1
  O  O83  1  0.19094933  0.20079667  0.30972767  1
  O  O84  1  0.47668700  0.14378300  0.02256400  1
  O  O85  1  0.66709600  0.52331300  0.02256400  1
  O  O86  1  0.85621700  0.33290400  0.02256400  1
  O  O87  1  0.30756533  0.82766567  0.74424767  1
  O  O88  1  0.19117067  0.99997733  0.81406633  1
  O  O89  1  0.48089333  0.16256367  0.75721567  1
  O  O90  1  0.52010033  0.69243467  0.74424767  1
  O  O91  1  0.68167033  0.51910667  0.75721567  1
  O  O92  1  0.33238467  0.47317933  0.85331633  1
  O  O93  1  0.83743633  0.31832967  0.75721567  1
  O  O94  1  0.16208800  0.18222100  0.92212000  1
  O  O95  1  0.52682067  0.85920533  0.85331633  1
  O  O96  1  0.80880667  0.80882933  0.81406633  1
  O  O97  1  0.17233433  0.47989967  0.74424767  1
  O  O98  1  0.50285500  0.35052300  0.90892600  1
  O  O99  1  0.00002267  0.19119333  0.81406633  1
  O  O100  1  0.64947700  0.15233200  0.90892600  1
  O  O101  1  0.81777900  0.97986700  0.92212000  1
  O  O102  1  0.84766800  0.49714500  0.90892600  1
  O  O103  1  0.14079467  0.66761533  0.85331633  1
  O  O104  1  0.02013300  0.83791200  0.92212000  1
  O  O105  1  0.46587000  0.32348600  0.64306100  1
  O  O106  1  0.67651400  0.14238400  0.64306100  1
  O  O107  1  0.85761600  0.53413000  0.64306100  1
