# generated using pymatgen
data_Na4WO4
_symmetry_space_group_name_H-M   'P 1'
_cell_length_a   7.28208000
_cell_length_b   7.28208000
_cell_length_c   4.90361800
_cell_angle_alpha   90.00000000
_cell_angle_beta   90.00000000
_cell_angle_gamma   90.00000000
_symmetry_Int_Tables_number   1
_chemical_formula_structural   Na4WO4
_chemical_formula_sum   'Na8 W2 O8'
_cell_volume   260.03243452
_cell_formula_units_Z   2
loop_
 _symmetry_equiv_pos_site_id
 _symmetry_equiv_pos_as_xyz
  1  'x, y, z'
loop_
 _atom_site_type_symbol
 _atom_site_label
 _atom_site_symmetry_multiplicity
 _atom_site_fract_x
 _atom_site_fract_y
 _atom_site_fract_z
 _atom_site_occupancy
  Na  Na0  1  0.69763400  0.90695200  0.50000000  1
  Na  Na1  1  0.59304800  0.19763400  0.00000000  1
  Na  Na2  1  0.40695200  0.80236600  0.00000000  1
  Na  Na3  1  0.30236600  0.09304800  0.50000000  1
  Na  Na4  1  0.19763400  0.40695200  0.00000000  1
  Na  Na5  1  0.09304800  0.69763400  0.50000000  1
  Na  Na6  1  0.90695200  0.30236600  0.50000000  1
  Na  Na7  1  0.80236600  0.59304800  0.00000000  1
  W  W8  1  0.00000000  0.00000000  0.00000000  1
  W  W9  1  0.50000000  0.50000000  0.50000000  1
  O  O10  1  0.74766000  0.91886400  0.00000000  1
  O  O11  1  0.58113600  0.24766000  0.50000000  1
  O  O12  1  0.41886400  0.75234000  0.50000000  1
  O  O13  1  0.25234000  0.08113600  0.00000000  1
  O  O14  1  0.24766000  0.41886400  0.50000000  1
  O  O15  1  0.08113600  0.74766000  0.00000000  1
  O  O16  1  0.91886400  0.25234000  0.00000000  1
  O  O17  1  0.75234000  0.58113600  0.50000000  1
