# generated using pymatgen
data_Co2OF3
_symmetry_space_group_name_H-M   'P 1'
_cell_length_a   9.32587600
_cell_length_b   6.25475800
_cell_length_c   10.15479898
_cell_angle_alpha   90.00000000
_cell_angle_beta   113.76582667
_cell_angle_gamma   90.00000000
_symmetry_Int_Tables_number   1
_chemical_formula_structural   Co2OF3
_chemical_formula_sum   'Co16 O8 F24'
_cell_volume   542.11020439
_cell_formula_units_Z   8
loop_
 _symmetry_equiv_pos_site_id
 _symmetry_equiv_pos_as_xyz
  1  'x, y, z'
loop_
 _atom_site_type_symbol
 _atom_site_label
 _atom_site_symmetry_multiplicity
 _atom_site_fract_x
 _atom_site_fract_y
 _atom_site_fract_z
 _atom_site_occupancy
  Co  Co0  1  0.62504200  0.75779500  0.25356200  1
  Co  Co1  1  0.87495800  0.74220500  0.74643800  1
  Co  Co2  1  0.23994300  0.00000000  0.01818600  1
  Co  Co3  1  0.50000000  0.00000000  0.50000000  1
  Co  Co4  1  0.00000000  0.00000000  0.50000000  1
  Co  Co5  1  0.62504200  0.24220500  0.25356200  1
  Co  Co6  1  0.87495800  0.25779500  0.74643800  1
  Co  Co7  1  0.26005700  0.50000000  0.98181400  1
  Co  Co8  1  0.12504200  0.25779500  0.25356200  1
  Co  Co9  1  0.37495800  0.24220500  0.74643800  1
  Co  Co10  1  0.73994300  0.50000000  0.01818600  1
  Co  Co11  1  0.00000000  0.50000000  0.50000000  1
  Co  Co12  1  0.50000000  0.50000000  0.50000000  1
  Co  Co13  1  0.12504200  0.74220500  0.25356200  1
  Co  Co14  1  0.37495800  0.75779500  0.74643800  1
  Co  Co15  1  0.76005700  0.00000000  0.98181400  1
  O  O16  1  0.57352400  0.00000000  0.35153800  1
  O  O17  1  0.92647600  0.50000000  0.64846200  1
  O  O18  1  0.16892300  0.00000000  0.15523600  1
  O  O19  1  0.33107700  0.50000000  0.84476400  1
  O  O20  1  0.07352400  0.50000000  0.35153800  1
  O  O21  1  0.42647600  0.00000000  0.64846200  1
  O  O22  1  0.66892300  0.50000000  0.15523600  1
  O  O23  1  0.83107700  0.00000000  0.84476400  1
  F  F24  1  0.85296900  0.74940100  0.40025600  1
  F  F25  1  0.68085500  0.00000000  0.14169600  1
  F  F26  1  0.57413200  0.50000000  0.34764100  1
  F  F27  1  0.81914500  0.50000000  0.85830400  1
  F  F28  1  0.39508750  0.24670450  0.09681200  1
  F  F29  1  0.64703100  0.75059900  0.59974400  1
  F  F30  1  0.39508750  0.75329550  0.09681200  1
  F  F31  1  0.10491250  0.74670450  0.90318800  1
  F  F32  1  0.35296900  0.75059900  0.40025600  1
  F  F33  1  0.10491250  0.25329550  0.90318800  1
  F  F34  1  0.92586800  0.00000000  0.65235900  1
  F  F35  1  0.14703100  0.74940100  0.59974400  1
  F  F36  1  0.35296900  0.24940100  0.40025600  1
  F  F37  1  0.18085500  0.50000000  0.14169600  1
  F  F38  1  0.07413200  0.00000000  0.34764100  1
  F  F39  1  0.31914500  0.00000000  0.85830400  1
  F  F40  1  0.89508750  0.74670450  0.09681200  1
  F  F41  1  0.14703100  0.25059900  0.59974400  1
  F  F42  1  0.89508750  0.25329550  0.09681200  1
  F  F43  1  0.60491250  0.24670450  0.90318800  1
  F  F44  1  0.85296900  0.25059900  0.40025600  1
  F  F45  1  0.60491250  0.75329550  0.90318800  1
  F  F46  1  0.42586800  0.50000000  0.65235900  1
  F  F47  1  0.64703100  0.24940100  0.59974400  1
