# generated using pymatgen
data_Li4Mn2V3Cr3O16
_symmetry_space_group_name_H-M   'P 1'
_cell_length_a   10.15764000
_cell_length_b   5.93721600
_cell_length_c   9.64238509
_cell_angle_alpha   90.00000000
_cell_angle_beta   92.85091839
_cell_angle_gamma   90.00000000
_symmetry_Int_Tables_number   1
_chemical_formula_structural   Li4Mn2V3Cr3O16
_chemical_formula_sum   'Li8 Mn4 V6 Cr6 O32'
_cell_volume   580.79422825
_cell_formula_units_Z   2
loop_
 _symmetry_equiv_pos_site_id
 _symmetry_equiv_pos_as_xyz
  1  'x, y, z'
loop_
 _atom_site_type_symbol
 _atom_site_label
 _atom_site_symmetry_multiplicity
 _atom_site_fract_x
 _atom_site_fract_y
 _atom_site_fract_z
 _atom_site_occupancy
  Li  Li0  1  0.33687700  0.00000000  0.89501400  1
  Li  Li1  1  0.99068300  0.00000000  0.99460700  1
  Li  Li2  1  0.99557000  0.00000000  0.49474800  1
  Li  Li3  1  0.66704800  0.00000000  0.39564200  1
  Li  Li4  1  0.83687700  0.50000000  0.89501400  1
  Li  Li5  1  0.49068300  0.50000000  0.99460700  1
  Li  Li6  1  0.49557000  0.50000000  0.49474800  1
  Li  Li7  1  0.16704800  0.50000000  0.39564200  1
  Mn  Mn8  1  0.33700500  0.00000000  0.48657700  1
  Mn  Mn9  1  0.66886200  0.00000000  0.98886000  1
  Mn  Mn10  1  0.83700500  0.50000000  0.48657700  1
  Mn  Mn11  1  0.16886200  0.50000000  0.98886000  1
  V  V12  1  0.58899600  0.75069200  0.71454800  1
  V  V13  1  0.16799600  0.00000000  0.20916000  1
  V  V14  1  0.58899600  0.24930800  0.71454800  1
  V  V15  1  0.08899600  0.25069200  0.71454800  1
  V  V16  1  0.66799600  0.50000000  0.20916000  1
  V  V17  1  0.08899600  0.74930800  0.71454800  1
  Cr  Cr18  1  0.41422400  0.75418800  0.21566100  1
  Cr  Cr19  1  0.41422400  0.24581200  0.21566100  1
  Cr  Cr20  1  0.83139400  0.00000000  0.71191500  1
  Cr  Cr21  1  0.91422400  0.25418800  0.21566100  1
  Cr  Cr22  1  0.91422400  0.74581200  0.21566100  1
  Cr  Cr23  1  0.33139400  0.50000000  0.71191500  1
  O  O24  1  0.42176200  0.74908100  0.60267400  1
  O  O25  1  0.48643100  0.00000000  0.33255700  1
  O  O26  1  0.31982400  0.00000000  0.10493500  1
  O  O27  1  0.00916900  0.00000000  0.31030900  1
  O  O28  1  0.00661200  0.00000000  0.81077700  1
  O  O29  1  0.42176200  0.25091900  0.60267400  1
  O  O30  1  0.25743850  0.78521650  0.33694600  1
  O  O31  1  0.25743850  0.21478350  0.33694600  1
  O  O32  1  0.83409100  0.00000000  0.09803500  1
  O  O33  1  0.15758500  0.00000000  0.60589200  1
  O  O34  1  0.74087600  0.77438900  0.83338900  1
  O  O35  1  0.74087600  0.22561100  0.83338900  1
  O  O36  1  0.65990900  0.00000000  0.60307800  1
  O  O37  1  0.58445550  0.73254050  0.10657800  1
  O  O38  1  0.52421300  0.00000000  0.84341900  1
  O  O39  1  0.58445550  0.26745950  0.10657800  1
  O  O40  1  0.92176200  0.24908100  0.60267400  1
  O  O41  1  0.98643100  0.50000000  0.33255700  1
  O  O42  1  0.81982400  0.50000000  0.10493500  1
  O  O43  1  0.50916900  0.50000000  0.31030900  1
  O  O44  1  0.50661200  0.50000000  0.81077700  1
  O  O45  1  0.92176200  0.75091900  0.60267400  1
  O  O46  1  0.75743850  0.28521650  0.33694600  1
  O  O47  1  0.75743850  0.71478350  0.33694600  1
  O  O48  1  0.33409100  0.50000000  0.09803500  1
  O  O49  1  0.65758500  0.50000000  0.60589200  1
  O  O50  1  0.24087600  0.27438900  0.83338900  1
  O  O51  1  0.24087600  0.72561100  0.83338900  1
  O  O52  1  0.15990900  0.50000000  0.60307800  1
  O  O53  1  0.08445550  0.23254050  0.10657800  1
  O  O54  1  0.02421300  0.50000000  0.84341900  1
  O  O55  1  0.08445550  0.76745950  0.10657800  1
