# generated using pymatgen
data_Li4MnSb(WO6)2
_symmetry_space_group_name_H-M   'P 1'
_cell_length_a   5.13566173
_cell_length_b   5.41922370
_cell_length_c   7.62258492
_cell_angle_alpha   85.87251899
_cell_angle_beta   89.31187827
_cell_angle_gamma   89.77074033
_symmetry_Int_Tables_number   1
_chemical_formula_structural   Li4MnSb(WO6)2
_chemical_formula_sum   'Li4 Mn1 Sb1 W2 O12'
_cell_volume   211.57991136
_cell_formula_units_Z   1
loop_
 _symmetry_equiv_pos_site_id
 _symmetry_equiv_pos_as_xyz
  1  'x, y, z'
loop_
 _atom_site_type_symbol
 _atom_site_label
 _atom_site_symmetry_multiplicity
 _atom_site_fract_x
 _atom_site_fract_y
 _atom_site_fract_z
 _atom_site_occupancy
  Li  Li0  1  0.00252700  0.56581200  0.29922700  1
  Li  Li1  1  0.49562400  0.08868550  0.76859550  1
  Li  Li2  1  0.00278600  0.52270950  0.75058150  1
  Li  Li3  1  0.49935850  0.08073100  0.29796500  1
  Mn  Mn4  1  0.49870200  0.50587750  0.50008050  1
  Sb  Sb5  1  0.00285200  0.00157300  0.00350200  1
  W  W6  1  0.99619350  0.00064750  0.50222550  1
  W  W7  1  0.50540250  0.50401200  0.00093400  1
  O  O8  1  0.69839350  0.80713050  0.43904150  1
  O  O9  1  0.87721150  0.98570550  0.74986150  1
  O  O10  1  0.68104850  0.17914750  0.06726450  1
  O  O11  1  0.80244350  0.29742000  0.43937600  1
  O  O12  1  0.19913050  0.30197850  0.92054850  1
  O  O13  1  0.62749550  0.47394650  0.76696150  1
  O  O14  1  0.36535700  0.48159100  0.22857800  1
  O  O15  1  0.81689100  0.67973100  0.06449300  1
  O  O16  1  0.18271350  0.68825300  0.54706700  1
  O  O17  1  0.31588200  0.80644300  0.92698200  1
  O  O18  1  0.12602550  0.98628900  0.25106900  1
  O  O19  1  0.30396550  0.18472250  0.54684750  1
