# generated using pymatgen
data_Na6Fe2P(CO4)4
_symmetry_space_group_name_H-M   'P 1'
_cell_length_a   14.42773000
_cell_length_b   14.42773000
_cell_length_c   14.42773000
_cell_angle_alpha   90.00000000
_cell_angle_beta   90.00000000
_cell_angle_gamma   90.00000000
_symmetry_Int_Tables_number   1
_chemical_formula_structural   Na6Fe2P(CO4)4
_chemical_formula_sum   'Na48 Fe16 P8 C32 O128'
_cell_volume   3003.26751849
_cell_formula_units_Z   8
loop_
 _symmetry_equiv_pos_site_id
 _symmetry_equiv_pos_as_xyz
  1  'x, y, z'
loop_
 _atom_site_type_symbol
 _atom_site_label
 _atom_site_symmetry_multiplicity
 _atom_site_fract_x
 _atom_site_fract_y
 _atom_site_fract_z
 _atom_site_occupancy
  Na  Na0  1  0.00000000  0.79158000  0.00000000  1
  Na  Na1  1  0.04158000  0.75000000  0.75000000  1
  Na  Na2  1  0.00000000  0.00000000  0.20842000  1
  Na  Na3  1  0.00000000  0.00000000  0.79158000  1
  Na  Na4  1  0.75000000  0.04158000  0.75000000  1
  Na  Na5  1  0.45842000  0.75000000  0.75000000  1
  Na  Na6  1  0.79158000  0.00000000  0.00000000  1
  Na  Na7  1  0.00000000  0.20842000  0.00000000  1
  Na  Na8  1  0.25000000  0.75000000  0.54158000  1
  Na  Na9  1  0.25000000  0.75000000  0.95842000  1
  Na  Na10  1  0.20842000  0.00000000  0.00000000  1
  Na  Na11  1  0.25000000  0.95842000  0.75000000  1
  Na  Na12  1  0.00000000  0.29158000  0.50000000  1
  Na  Na13  1  0.04158000  0.25000000  0.25000000  1
  Na  Na14  1  0.00000000  0.50000000  0.70842000  1
  Na  Na15  1  0.00000000  0.50000000  0.29158000  1
  Na  Na16  1  0.75000000  0.54158000  0.25000000  1
  Na  Na17  1  0.45842000  0.25000000  0.25000000  1
  Na  Na18  1  0.79158000  0.50000000  0.50000000  1
  Na  Na19  1  0.00000000  0.70842000  0.50000000  1
  Na  Na20  1  0.25000000  0.25000000  0.04158000  1
  Na  Na21  1  0.25000000  0.25000000  0.45842000  1
  Na  Na22  1  0.20842000  0.50000000  0.50000000  1
  Na  Na23  1  0.25000000  0.45842000  0.25000000  1
  Na  Na24  1  0.50000000  0.79158000  0.50000000  1
  Na  Na25  1  0.54158000  0.75000000  0.25000000  1
  Na  Na26  1  0.50000000  0.00000000  0.70842000  1
  Na  Na27  1  0.50000000  0.00000000  0.29158000  1
  Na  Na28  1  0.25000000  0.04158000  0.25000000  1
  Na  Na29  1  0.95842000  0.75000000  0.25000000  1
  Na  Na30  1  0.29158000  0.00000000  0.50000000  1
  Na  Na31  1  0.50000000  0.20842000  0.50000000  1
  Na  Na32  1  0.75000000  0.75000000  0.04158000  1
  Na  Na33  1  0.75000000  0.75000000  0.45842000  1
  Na  Na34  1  0.70842000  0.00000000  0.50000000  1
  Na  Na35  1  0.75000000  0.95842000  0.25000000  1
  Na  Na36  1  0.50000000  0.29158000  0.00000000  1
  Na  Na37  1  0.54158000  0.25000000  0.75000000  1
  Na  Na38  1  0.50000000  0.50000000  0.20842000  1
  Na  Na39  1  0.50000000  0.50000000  0.79158000  1
  Na  Na40  1  0.25000000  0.54158000  0.75000000  1
  Na  Na41  1  0.95842000  0.25000000  0.75000000  1
  Na  Na42  1  0.29158000  0.50000000  0.00000000  1
  Na  Na43  1  0.50000000  0.70842000  0.00000000  1
  Na  Na44  1  0.75000000  0.25000000  0.54158000  1
  Na  Na45  1  0.75000000  0.25000000  0.95842000  1
  Na  Na46  1  0.70842000  0.50000000  0.00000000  1
  Na  Na47  1  0.75000000  0.45842000  0.75000000  1
  Fe  Fe48  1  0.12500000  0.87500000  0.37500000  1
  Fe  Fe49  1  0.12500000  0.12500000  0.62500000  1
  Fe  Fe50  1  0.87500000  0.12500000  0.37500000  1
  Fe  Fe51  1  0.87500000  0.87500000  0.62500000  1
  Fe  Fe52  1  0.12500000  0.37500000  0.87500000  1
  Fe  Fe53  1  0.12500000  0.62500000  0.12500000  1
  Fe  Fe54  1  0.87500000  0.62500000  0.87500000  1
  Fe  Fe55  1  0.87500000  0.37500000  0.12500000  1
  Fe  Fe56  1  0.62500000  0.87500000  0.87500000  1
  Fe  Fe57  1  0.62500000  0.12500000  0.12500000  1
  Fe  Fe58  1  0.37500000  0.12500000  0.87500000  1
  Fe  Fe59  1  0.37500000  0.87500000  0.12500000  1
  Fe  Fe60  1  0.62500000  0.37500000  0.37500000  1
  Fe  Fe61  1  0.62500000  0.62500000  0.62500000  1
  Fe  Fe62  1  0.37500000  0.62500000  0.37500000  1
  Fe  Fe63  1  0.37500000  0.37500000  0.62500000  1
  P  P64  1  0.00000000  0.00000000  0.00000000  1
  P  P65  1  0.25000000  0.75000000  0.75000000  1
  P  P66  1  0.00000000  0.50000000  0.50000000  1
  P  P67  1  0.25000000  0.25000000  0.25000000  1
  P  P68  1  0.50000000  0.00000000  0.50000000  1
  P  P69  1  0.75000000  0.75000000  0.25000000  1
  P  P70  1  0.50000000  0.50000000  0.00000000  1
  P  P71  1  0.75000000  0.25000000  0.75000000  1
  C  C72  1  0.90894667  0.09105333  0.59105333  1
  C  C73  1  0.40894667  0.90894667  0.90894667  1
  C  C74  1  0.59105333  0.09105333  0.90894667  1
  C  C75  1  0.09105333  0.90894667  0.59105333  1
  C  C76  1  0.15894667  0.84105333  0.15894667  1
  C  C77  1  0.15894667  0.15894667  0.84105333  1
  C  C78  1  0.84105333  0.84105333  0.84105333  1
  C  C79  1  0.84105333  0.15894667  0.15894667  1
  C  C80  1  0.90894667  0.59105333  0.09105333  1
  C  C81  1  0.40894667  0.40894667  0.40894667  1
  C  C82  1  0.59105333  0.59105333  0.40894667  1
  C  C83  1  0.09105333  0.40894667  0.09105333  1
  C  C84  1  0.15894667  0.34105333  0.65894667  1
  C  C85  1  0.15894667  0.65894667  0.34105333  1
  C  C86  1  0.84105333  0.34105333  0.34105333  1
  C  C87  1  0.84105333  0.65894667  0.65894667  1
  C  C88  1  0.40894667  0.09105333  0.09105333  1
  C  C89  1  0.90894667  0.90894667  0.40894667  1
  C  C90  1  0.09105333  0.09105333  0.40894667  1
  C  C91  1  0.59105333  0.90894667  0.09105333  1
  C  C92  1  0.65894667  0.84105333  0.65894667  1
  C  C93  1  0.65894667  0.15894667  0.34105333  1
  C  C94  1  0.34105333  0.84105333  0.34105333  1
  C  C95  1  0.34105333  0.15894667  0.65894667  1
  C  C96  1  0.40894667  0.59105333  0.59105333  1
  C  C97  1  0.90894667  0.40894667  0.90894667  1
  C  C98  1  0.09105333  0.59105333  0.90894667  1
  C  C99  1  0.59105333  0.40894667  0.59105333  1
  C  C100  1  0.65894667  0.34105333  0.15894667  1
  C  C101  1  0.65894667  0.65894667  0.84105333  1
  C  C102  1  0.34105333  0.34105333  0.84105333  1
  C  C103  1  0.34105333  0.65894667  0.15894667  1
  O  O104  1  0.89882600  0.77270750  0.85401550  1
  O  O105  1  0.39882600  0.22729250  0.64598450  1
  O  O106  1  0.89598450  0.14882600  0.52270750  1
  O  O107  1  0.97729250  0.10401550  0.64882600  1
  O  O108  1  0.93736900  0.06263100  0.93736900  1
  O  O109  1  0.52270750  0.10401550  0.85117400  1
  O  O110  1  0.60401550  0.14882600  0.97729250  1
  O  O111  1  0.93736900  0.93736900  0.06263100  1
  O  O112  1  0.06263100  0.06263100  0.06263100  1
  O  O113  1  0.39598450  0.85117400  0.97729250  1
  O  O114  1  0.47729250  0.89598450  0.85117400  1
  O  O115  1  0.06263100  0.93736900  0.93736900  1
  O  O116  1  0.02270750  0.89598450  0.64882600  1
  O  O117  1  0.64882600  0.02270750  0.89598450  1
  O  O118  1  0.14882600  0.97729250  0.60401550  1
  O  O119  1  0.64598450  0.89882600  0.72729250  1
  O  O120  1  0.10401550  0.85117400  0.52270750  1
  O  O121  1  0.60117400  0.77270750  0.64598450  1
  O  O122  1  0.10117400  0.22729250  0.85401550  1
  O  O123  1  0.22729250  0.85401550  0.10117400  1
  O  O124  1  0.18736900  0.81263100  0.81263100  1
  O  O125  1  0.27270750  0.85401550  0.39882600  1
  O  O126  1  0.85401550  0.89882600  0.77270750  1
  O  O127  1  0.68736900  0.18736900  0.68736900  1
  O  O128  1  0.31263100  0.81263100  0.68736900  1
  O  O129  1  0.14598450  0.10117400  0.77270750  1
  O  O130  1  0.72729250  0.14598450  0.39882600  1
  O  O131  1  0.81263100  0.18736900  0.81263100  1
  O  O132  1  0.77270750  0.14598450  0.10117400  1
  O  O133  1  0.35401550  0.10117400  0.72729250  1
  O  O134  1  0.85117400  0.02270750  0.60401550  1
  O  O135  1  0.35117400  0.97729250  0.89598450  1
  O  O136  1  0.89882600  0.27270750  0.35401550  1
  O  O137  1  0.39882600  0.72729250  0.14598450  1
  O  O138  1  0.89598450  0.64882600  0.02270750  1
  O  O139  1  0.97729250  0.60401550  0.14882600  1
  O  O140  1  0.93736900  0.56263100  0.43736900  1
  O  O141  1  0.52270750  0.60401550  0.35117400  1
  O  O142  1  0.60401550  0.64882600  0.47729250  1
  O  O143  1  0.93736900  0.43736900  0.56263100  1
  O  O144  1  0.06263100  0.56263100  0.56263100  1
  O  O145  1  0.39598450  0.35117400  0.47729250  1
  O  O146  1  0.47729250  0.39598450  0.35117400  1
  O  O147  1  0.06263100  0.43736900  0.43736900  1
  O  O148  1  0.02270750  0.39598450  0.14882600  1
  O  O149  1  0.64882600  0.52270750  0.39598450  1
  O  O150  1  0.14882600  0.47729250  0.10401550  1
  O  O151  1  0.64598450  0.39882600  0.22729250  1
  O  O152  1  0.10401550  0.35117400  0.02270750  1
  O  O153  1  0.60117400  0.27270750  0.14598450  1
  O  O154  1  0.10117400  0.72729250  0.35401550  1
  O  O155  1  0.22729250  0.35401550  0.60117400  1
  O  O156  1  0.18736900  0.31263100  0.31263100  1
  O  O157  1  0.27270750  0.35401550  0.89882600  1
  O  O158  1  0.85401550  0.39882600  0.27270750  1
  O  O159  1  0.68736900  0.68736900  0.18736900  1
  O  O160  1  0.31263100  0.31263100  0.18736900  1
  O  O161  1  0.14598450  0.60117400  0.27270750  1
  O  O162  1  0.72729250  0.64598450  0.89882600  1
  O  O163  1  0.81263100  0.68736900  0.31263100  1
  O  O164  1  0.77270750  0.64598450  0.60117400  1
  O  O165  1  0.35401550  0.60117400  0.22729250  1
  O  O166  1  0.85117400  0.52270750  0.10401550  1
  O  O167  1  0.35117400  0.47729250  0.39598450  1
  O  O168  1  0.39882600  0.77270750  0.35401550  1
  O  O169  1  0.89882600  0.22729250  0.14598450  1
  O  O170  1  0.39598450  0.14882600  0.02270750  1
  O  O171  1  0.47729250  0.10401550  0.14882600  1
  O  O172  1  0.43736900  0.06263100  0.43736900  1
  O  O173  1  0.02270750  0.10401550  0.35117400  1
  O  O174  1  0.10401550  0.14882600  0.47729250  1
  O  O175  1  0.43736900  0.93736900  0.56263100  1
  O  O176  1  0.56263100  0.06263100  0.56263100  1
  O  O177  1  0.89598450  0.85117400  0.47729250  1
  O  O178  1  0.97729250  0.89598450  0.35117400  1
  O  O179  1  0.56263100  0.93736900  0.43736900  1
  O  O180  1  0.52270750  0.89598450  0.14882600  1
  O  O181  1  0.14882600  0.02270750  0.39598450  1
  O  O182  1  0.64882600  0.97729250  0.10401550  1
  O  O183  1  0.14598450  0.89882600  0.22729250  1
  O  O184  1  0.60401550  0.85117400  0.02270750  1
  O  O185  1  0.10117400  0.77270750  0.14598450  1
  O  O186  1  0.60117400  0.22729250  0.35401550  1
  O  O187  1  0.72729250  0.85401550  0.60117400  1
  O  O188  1  0.68736900  0.81263100  0.31263100  1
  O  O189  1  0.77270750  0.85401550  0.89882600  1
  O  O190  1  0.35401550  0.89882600  0.27270750  1
  O  O191  1  0.18736900  0.18736900  0.18736900  1
  O  O192  1  0.81263100  0.81263100  0.18736900  1
  O  O193  1  0.64598450  0.10117400  0.27270750  1
  O  O194  1  0.22729250  0.14598450  0.89882600  1
  O  O195  1  0.31263100  0.18736900  0.31263100  1
  O  O196  1  0.27270750  0.14598450  0.60117400  1
  O  O197  1  0.85401550  0.10117400  0.22729250  1
  O  O198  1  0.35117400  0.02270750  0.10401550  1
  O  O199  1  0.85117400  0.97729250  0.39598450  1
  O  O200  1  0.39882600  0.27270750  0.85401550  1
  O  O201  1  0.89882600  0.72729250  0.64598450  1
  O  O202  1  0.39598450  0.64882600  0.52270750  1
  O  O203  1  0.47729250  0.60401550  0.64882600  1
  O  O204  1  0.43736900  0.56263100  0.93736900  1
  O  O205  1  0.02270750  0.60401550  0.85117400  1
  O  O206  1  0.10401550  0.64882600  0.97729250  1
  O  O207  1  0.43736900  0.43736900  0.06263100  1
  O  O208  1  0.56263100  0.56263100  0.06263100  1
  O  O209  1  0.89598450  0.35117400  0.97729250  1
  O  O210  1  0.97729250  0.39598450  0.85117400  1
  O  O211  1  0.56263100  0.43736900  0.93736900  1
  O  O212  1  0.52270750  0.39598450  0.64882600  1
  O  O213  1  0.14882600  0.52270750  0.89598450  1
  O  O214  1  0.64882600  0.47729250  0.60401550  1
  O  O215  1  0.14598450  0.39882600  0.72729250  1
  O  O216  1  0.60401550  0.35117400  0.52270750  1
  O  O217  1  0.10117400  0.27270750  0.64598450  1
  O  O218  1  0.60117400  0.72729250  0.85401550  1
  O  O219  1  0.72729250  0.35401550  0.10117400  1
  O  O220  1  0.68736900  0.31263100  0.81263100  1
  O  O221  1  0.77270750  0.35401550  0.39882600  1
  O  O222  1  0.35401550  0.39882600  0.77270750  1
  O  O223  1  0.18736900  0.68736900  0.68736900  1
  O  O224  1  0.81263100  0.31263100  0.68736900  1
  O  O225  1  0.64598450  0.60117400  0.77270750  1
  O  O226  1  0.22729250  0.64598450  0.39882600  1
  O  O227  1  0.31263100  0.68736900  0.81263100  1
  O  O228  1  0.27270750  0.64598450  0.10117400  1
  O  O229  1  0.85401550  0.60117400  0.72729250  1
  O  O230  1  0.35117400  0.52270750  0.60401550  1
  O  O231  1  0.85117400  0.47729250  0.89598450  1
