# generated using pymatgen
data_Lu2(WO4)3
_symmetry_space_group_name_H-M   'P 1'
_cell_length_a   7.64026400
_cell_length_b   11.35992400
_cell_length_c   11.26501294
_cell_angle_alpha   90.00000000
_cell_angle_beta   109.50633144
_cell_angle_gamma   90.00000000
_symmetry_Int_Tables_number   1
_chemical_formula_structural   Lu2(WO4)3
_chemical_formula_sum   'Lu8 W12 O48'
_cell_volume   921.60546270
_cell_formula_units_Z   4
loop_
 _symmetry_equiv_pos_site_id
 _symmetry_equiv_pos_as_xyz
  1  'x, y, z'
loop_
 _atom_site_type_symbol
 _atom_site_label
 _atom_site_symmetry_multiplicity
 _atom_site_fract_x
 _atom_site_fract_y
 _atom_site_fract_z
 _atom_site_occupancy
  Lu  Lu0  1  0.16506100  0.12210100  0.59212200  1
  Lu  Lu1  1  0.16506100  0.87789900  0.09212200  1
  Lu  Lu2  1  0.83493900  0.12210100  0.90787800  1
  Lu  Lu3  1  0.83493900  0.87789900  0.40787800  1
  Lu  Lu4  1  0.66506100  0.62210100  0.59212200  1
  Lu  Lu5  1  0.66506100  0.37789900  0.09212200  1
  Lu  Lu6  1  0.33493900  0.62210100  0.90787800  1
  Lu  Lu7  1  0.33493900  0.37789900  0.40787800  1
  W  W8  1  0.35238300  0.10804000  0.94967600  1
  W  W9  1  0.35238300  0.89196000  0.44967600  1
  W  W10  1  0.50000000  0.36818600  0.75000000  1
  W  W11  1  0.50000000  0.63181400  0.25000000  1
  W  W12  1  0.64761700  0.10804000  0.55032400  1
  W  W13  1  0.64761700  0.89196000  0.05032400  1
  W  W14  1  0.85238300  0.60804000  0.94967600  1
  W  W15  1  0.85238300  0.39196000  0.44967600  1
  W  W16  1  0.00000000  0.86818600  0.75000000  1
  W  W17  1  0.00000000  0.13181400  0.25000000  1
  W  W18  1  0.14761700  0.60804000  0.55032400  1
  W  W19  1  0.14761700  0.39196000  0.05032400  1
  O  O20  1  0.27231950  0.17929650  0.79492500  1
  O  O21  1  0.17108350  0.96097850  0.71928300  1
  O  O22  1  0.63268600  0.29003200  0.89634500  1
  O  O23  1  0.45210450  0.77940850  0.56254900  1
  O  O24  1  0.12811950  0.04966150  0.96173600  1
  O  O25  1  0.43226300  0.03864900  0.57604500  1
  O  O26  1  0.27231950  0.82070350  0.29492500  1
  O  O27  1  0.56773700  0.03864900  0.92395500  1
  O  O28  1  0.87188050  0.04966150  0.53826400  1
  O  O29  1  0.54789550  0.77940850  0.93745100  1
  O  O30  1  0.36731400  0.29003200  0.60365500  1
  O  O31  1  0.17108350  0.03902150  0.21928300  1
  O  O32  1  0.82891650  0.96097850  0.78071700  1
  O  O33  1  0.63268600  0.70996800  0.39634500  1
  O  O34  1  0.45210450  0.22059150  0.06254900  1
  O  O35  1  0.12811950  0.95033850  0.46173600  1
  O  O36  1  0.43226300  0.96135100  0.07604500  1
  O  O37  1  0.72768050  0.17929650  0.70507500  1
  O  O38  1  0.56773700  0.96135100  0.42395500  1
  O  O39  1  0.87188050  0.95033850  0.03826400  1
  O  O40  1  0.54789550  0.22059150  0.43745100  1
  O  O41  1  0.36731400  0.70996800  0.10365500  1
  O  O42  1  0.82891650  0.03902150  0.28071700  1
  O  O43  1  0.72768050  0.82070350  0.20507500  1
  O  O44  1  0.77231950  0.67929650  0.79492500  1
  O  O45  1  0.67108350  0.46097850  0.71928300  1
  O  O46  1  0.13268600  0.79003200  0.89634500  1
  O  O47  1  0.95210450  0.27940850  0.56254900  1
  O  O48  1  0.62811950  0.54966150  0.96173600  1
  O  O49  1  0.93226300  0.53864900  0.57604500  1
  O  O50  1  0.77231950  0.32070350  0.29492500  1
  O  O51  1  0.06773700  0.53864900  0.92395500  1
  O  O52  1  0.37188050  0.54966150  0.53826400  1
  O  O53  1  0.04789550  0.27940850  0.93745100  1
  O  O54  1  0.86731400  0.79003200  0.60365500  1
  O  O55  1  0.67108350  0.53902150  0.21928300  1
  O  O56  1  0.32891650  0.46097850  0.78071700  1
  O  O57  1  0.13268600  0.20996800  0.39634500  1
  O  O58  1  0.95210450  0.72059150  0.06254900  1
  O  O59  1  0.62811950  0.45033850  0.46173600  1
  O  O60  1  0.93226300  0.46135100  0.07604500  1
  O  O61  1  0.22768050  0.67929650  0.70507500  1
  O  O62  1  0.06773700  0.46135100  0.42395500  1
  O  O63  1  0.37188050  0.45033850  0.03826400  1
  O  O64  1  0.04789550  0.72059150  0.43745100  1
  O  O65  1  0.86731400  0.20996800  0.10365500  1
  O  O66  1  0.32891650  0.53902150  0.28071700  1
  O  O67  1  0.22768050  0.32070350  0.20507500  1
