# generated using pymatgen
data_LiCo2(PO4)3
_symmetry_space_group_name_H-M   'P 1'
_cell_length_a   8.67038900
_cell_length_b   8.78361900
_cell_length_c   14.78769356
_cell_angle_alpha   90.00000000
_cell_angle_beta   125.41898478
_cell_angle_gamma   90.00000000
_symmetry_Int_Tables_number   1
_chemical_formula_structural   LiCo2(PO4)3
_chemical_formula_sum   'Li4 Co8 P12 O48'
_cell_volume   917.77434907
_cell_formula_units_Z   4
loop_
 _symmetry_equiv_pos_site_id
 _symmetry_equiv_pos_as_xyz
  1  'x, y, z'
loop_
 _atom_site_type_symbol
 _atom_site_label
 _atom_site_symmetry_multiplicity
 _atom_site_fract_x
 _atom_site_fract_y
 _atom_site_fract_z
 _atom_site_occupancy
  Li  Li0  1  0.97617200  0.52511400  0.18253500  1
  Li  Li1  1  0.40537200  0.97502700  0.68284200  1
  Li  Li2  1  0.97617200  0.47488600  0.68253500  1
  Li  Li3  1  0.40537200  0.02497300  0.18284200  1
  Co  Co4  1  0.36983000  0.29811400  0.62029500  1
  Co  Co5  1  0.63246800  0.78199200  0.88261500  1
  Co  Co6  1  0.86617300  0.20269800  0.11784000  1
  Co  Co7  1  0.13319100  0.71885900  0.38656900  1
  Co  Co8  1  0.86617300  0.79730200  0.61784000  1
  Co  Co9  1  0.13319100  0.28114100  0.88656900  1
  Co  Co10  1  0.36983000  0.70188600  0.12029500  1
  Co  Co11  1  0.63246800  0.21800800  0.38261500  1
  P  P12  1  0.45780800  0.00129400  0.49623400  1
  P  P13  1  0.74594900  0.14087600  0.85591700  1
  P  P14  1  0.04189200  0.85569300  0.14758000  1
  P  P15  1  0.25045900  0.64333000  0.64581100  1
  P  P16  1  0.96253600  0.35470000  0.35300300  1
  P  P17  1  0.53917400  0.49447100  0.00021900  1
  P  P18  1  0.45780800  0.99870600  0.99623400  1
  P  P19  1  0.04189200  0.14430700  0.64758000  1
  P  P20  1  0.74594900  0.85912400  0.35591700  1
  P  P21  1  0.96253600  0.64530000  0.85300300  1
  P  P22  1  0.25045900  0.35667000  0.14581100  1
  P  P23  1  0.53917400  0.50552900  0.50021900  1
  O  O24  1  0.37506200  0.61770200  0.43458900  1
  O  O25  1  0.52145700  0.40941900  0.58211800  1
  O  O26  1  0.78919700  0.65157400  0.85912900  1
  O  O27  1  0.09340000  0.34357600  0.16422800  1
  O  O28  1  0.44871800  0.09893000  0.58077300  1
  O  O29  1  0.82497300  0.17471800  0.97718600  1
  O  O30  1  0.66996300  0.97662200  0.82210300  1
  O  O31  1  0.07475700  0.73500500  0.23473000  1
  O  O32  1  0.26784200  0.91397400  0.42776200  1
  O  O33  1  0.01724600  0.01620900  0.17832600  1
  O  O34  1  0.86363100  0.80378000  0.03605300  1
  O  O35  1  0.58594200  0.25520000  0.77718400  1
  O  O36  1  0.40926300  0.76005400  0.71903600  1
  O  O37  1  0.14223000  0.30801300  0.46572300  1
  O  O38  1  0.98511600  0.51557900  0.32008800  1
  O  O39  1  0.73529600  0.41623500  0.07062300  1
  O  O40  1  0.32070200  0.47533300  0.67318900  1
  O  O41  1  0.17128900  0.67750300  0.52327800  1
  O  O42  1  0.92342100  0.23859400  0.26294200  1
  O  O43  1  0.53423800  0.60502300  0.91725000  1
  O  O44  1  0.21908900  0.14133900  0.64524000  1
  O  O45  1  0.48076200  0.90476300  0.91684600  1
  O  O46  1  0.89731700  0.83208300  0.33299300  1
  O  O47  1  0.62273000  0.11121600  0.06729200  1
  O  O48  1  0.37506200  0.38229800  0.93458900  1
  O  O49  1  0.09340000  0.65642400  0.66422800  1
  O  O50  1  0.52145700  0.59058100  0.08211800  1
  O  O51  1  0.78919700  0.34842600  0.35912900  1
  O  O52  1  0.44871800  0.90107000  0.08077300  1
  O  O53  1  0.07475700  0.26499500  0.73473000  1
  O  O54  1  0.82497300  0.82528200  0.47718600  1
  O  O55  1  0.66996300  0.02337800  0.32210300  1
  O  O56  1  0.26784200  0.08602600  0.92776200  1
  O  O57  1  0.01724600  0.98379100  0.67832600  1
  O  O58  1  0.86363100  0.19622000  0.53605300  1
  O  O59  1  0.58594200  0.74480000  0.27718400  1
  O  O60  1  0.40926300  0.23994600  0.21903600  1
  O  O61  1  0.14223000  0.69198700  0.96572300  1
  O  O62  1  0.98511600  0.48442100  0.82008800  1
  O  O63  1  0.73529600  0.58376500  0.57062300  1
  O  O64  1  0.92342100  0.76140600  0.76294200  1
  O  O65  1  0.32070200  0.52466700  0.17318900  1
  O  O66  1  0.17128900  0.32249700  0.02327800  1
  O  O67  1  0.53423800  0.39497700  0.41725000  1
  O  O68  1  0.89731700  0.16791700  0.83299300  1
  O  O69  1  0.21908900  0.85866100  0.14524000  1
  O  O70  1  0.48076200  0.09523700  0.41684600  1
  O  O71  1  0.62273000  0.88878400  0.56729200  1
