# generated using pymatgen
data_Fe3Cu(PO4)4
_symmetry_space_group_name_H-M   'P 1'
_cell_length_a   4.85071316
_cell_length_b   5.91077300
_cell_length_c   9.91898016
_cell_angle_alpha   90.00000000
_cell_angle_beta   90.02526409
_cell_angle_gamma   90.00000000
_symmetry_Int_Tables_number   1
_chemical_formula_structural   Fe3Cu(PO4)4
_chemical_formula_sum   'Fe3 Cu1 P4 O16'
_cell_volume   284.39165898
_cell_formula_units_Z   1
loop_
 _symmetry_equiv_pos_site_id
 _symmetry_equiv_pos_as_xyz
  1  'x, y, z'
loop_
 _atom_site_type_symbol
 _atom_site_label
 _atom_site_symmetry_multiplicity
 _atom_site_fract_x
 _atom_site_fract_y
 _atom_site_fract_z
 _atom_site_occupancy
  Fe  Fe0  1  0.47109200  0.50000000  0.77303900  1
  Fe  Fe1  1  0.53080300  0.00000000  0.22790400  1
  Fe  Fe2  1  0.96762800  0.00000000  0.72637400  1
  Cu  Cu3  1  0.04466300  0.50000000  0.27623200  1
  P  P4  1  0.08286300  0.00000000  0.40317300  1
  P  P5  1  0.41872800  0.00000000  0.90458000  1
  P  P6  1  0.57673600  0.50000000  0.09847000  1
  P  P7  1  0.91943900  0.50000000  0.59252800  1
  O  O8  1  0.15364000  0.00000000  0.55355300  1
  O  O9  1  0.23357800  0.20065100  0.32817900  1
  O  O10  1  0.23357800  0.79934900  0.32817900  1
  O  O11  1  0.23142100  0.50000000  0.61588700  1
  O  O12  1  0.26216600  0.50000000  0.11185700  1
  O  O13  1  0.27397600  0.20271200  0.82909900  1
  O  O14  1  0.27397600  0.79728800  0.82909900  1
  O  O15  1  0.34536400  0.00000000  0.05435000  1
  O  O16  1  0.65262800  0.50000000  0.94818200  1
  O  O17  1  0.71851600  0.70391600  0.17315200  1
  O  O18  1  0.71851600  0.29608400  0.17315200  1
  O  O19  1  0.73060900  0.00000000  0.88385000  1
  O  O20  1  0.77106100  0.00000000  0.38356100  1
  O  O21  1  0.77499200  0.70230500  0.67062200  1
  O  O22  1  0.77499200  0.29769500  0.67062200  1
  O  O23  1  0.83903400  0.50000000  0.44435800  1
