# generated using pymatgen
data_V2F7
_symmetry_space_group_name_H-M   'P 1'
_cell_length_a   6.95031600
_cell_length_b   7.46210000
_cell_length_c   10.85646400
_cell_angle_alpha   90.00000000
_cell_angle_beta   90.00000000
_cell_angle_gamma   90.00000000
_symmetry_Int_Tables_number   1
_chemical_formula_structural   V2F7
_chemical_formula_sum   'V8 F28'
_cell_volume   563.05913890
_cell_formula_units_Z   4
loop_
 _symmetry_equiv_pos_site_id
 _symmetry_equiv_pos_as_xyz
  1  'x, y, z'
loop_
 _atom_site_type_symbol
 _atom_site_label
 _atom_site_symmetry_multiplicity
 _atom_site_fract_x
 _atom_site_fract_y
 _atom_site_fract_z
 _atom_site_occupancy
  V  V0  1  0.75000000  0.25000000  0.25000000  1
  V  V1  1  0.25000000  0.25000000  0.75000000  1
  V  V2  1  0.50000000  0.00000000  0.00000000  1
  V  V3  1  0.00000000  0.50000000  0.00000000  1
  V  V4  1  0.25000000  0.75000000  0.75000000  1
  V  V5  1  0.75000000  0.75000000  0.25000000  1
  V  V6  1  0.00000000  0.50000000  0.50000000  1
  V  V7  1  0.50000000  0.00000000  0.50000000  1
  F  F8  1  0.24250300  0.50000000  0.44847600  1
  F  F9  1  0.93907800  0.31416200  0.12144000  1
  F  F10  1  0.93907800  0.68583800  0.12144000  1
  F  F11  1  0.75749700  0.50000000  0.94847600  1
  F  F12  1  0.65841300  0.50000000  0.25000000  1
  F  F13  1  0.56092200  0.81416200  0.12144000  1
  F  F14  1  0.56092200  0.18583800  0.12144000  1
  F  F15  1  0.43907800  0.81416200  0.87856000  1
  F  F16  1  0.43907800  0.18583800  0.87856000  1
  F  F17  1  0.34158700  0.50000000  0.75000000  1
  F  F18  1  0.24250300  0.50000000  0.05152400  1
  F  F19  1  0.06092200  0.31416200  0.87856000  1
  F  F20  1  0.06092200  0.68583800  0.87856000  1
  F  F21  1  0.75749700  0.50000000  0.55152400  1
  F  F22  1  0.74250300  0.00000000  0.94847600  1
  F  F23  1  0.43907800  0.81416200  0.62144000  1
  F  F24  1  0.43907800  0.18583800  0.62144000  1
  F  F25  1  0.25749700  0.00000000  0.44847600  1
  F  F26  1  0.15841300  0.00000000  0.75000000  1
  F  F27  1  0.06092200  0.31416200  0.62144000  1
  F  F28  1  0.06092200  0.68583800  0.62144000  1
  F  F29  1  0.93907800  0.31416200  0.37856000  1
  F  F30  1  0.93907800  0.68583800  0.37856000  1
  F  F31  1  0.84158700  0.00000000  0.25000000  1
  F  F32  1  0.74250300  0.00000000  0.55152400  1
  F  F33  1  0.56092200  0.81416200  0.37856000  1
  F  F34  1  0.56092200  0.18583800  0.37856000  1
  F  F35  1  0.25749700  0.00000000  0.05152400  1
