# generated using pymatgen
data_LiNiPO4
_symmetry_space_group_name_H-M   'P 1'
_cell_length_a   5.16552716
_cell_length_b   7.58408542
_cell_length_c   8.05516851
_cell_angle_alpha   92.35448045
_cell_angle_beta   89.72811056
_cell_angle_gamma   101.91435681
_symmetry_Int_Tables_number   1
_chemical_formula_structural   LiNiPO4
_chemical_formula_sum   'Li4 Ni4 P4 O16'
_cell_volume   308.50655887
_cell_formula_units_Z   4
loop_
 _symmetry_equiv_pos_site_id
 _symmetry_equiv_pos_as_xyz
  1  'x, y, z'
loop_
 _atom_site_type_symbol
 _atom_site_label
 _atom_site_symmetry_multiplicity
 _atom_site_fract_x
 _atom_site_fract_y
 _atom_site_fract_z
 _atom_site_occupancy
  Li  Li0  1  0.30535000  0.81519800  0.09807700  1
  Li  Li1  1  0.31421800  0.33275900  0.42207900  1
  Li  Li2  1  0.68578200  0.66724100  0.57792100  1
  Li  Li3  1  0.69465000  0.18480200  0.90192300  1
  Ni  Ni4  1  0.13540600  0.05557400  0.68642900  1
  Ni  Ni5  1  0.19925600  0.52342100  0.78882100  1
  Ni  Ni6  1  0.80074400  0.47657900  0.21117900  1
  Ni  Ni7  1  0.86459400  0.94442600  0.31357100  1
  P  P8  1  0.24895100  0.72065800  0.43771400  1
  P  P9  1  0.21324200  0.22370100  0.08345900  1
  P  P10  1  0.78675800  0.77629900  0.91654100  1
  P  P11  1  0.75104900  0.27934200  0.56228600  1
  O  O12  1  0.05687700  0.83630900  0.51797500  1
  O  O13  1  0.05877300  0.71571200  0.91315700  1
  O  O14  1  0.13162300  0.65665600  0.26374600  1
  O  O15  1  0.26241400  0.55829600  0.54655400  1
  O  O16  1  0.18180800  0.04056400  0.16986500  1
  O  O17  1  0.41938300  0.36687600  0.18050000  1
  O  O18  1  0.30913100  0.20533700  0.90062500  1
  O  O19  1  0.53350600  0.82768700  0.42660500  1
  O  O20  1  0.46649400  0.17231300  0.57339500  1
  O  O21  1  0.69086900  0.79466300  0.09937500  1
  O  O22  1  0.58061700  0.63312400  0.81950000  1
  O  O23  1  0.81819200  0.95943600  0.83013500  1
  O  O24  1  0.73758600  0.44170400  0.45344600  1
  O  O25  1  0.86837700  0.34334400  0.73625400  1
  O  O26  1  0.94122700  0.28428800  0.08684300  1
  O  O27  1  0.94312300  0.16369100  0.48202500  1
