# generated using pymatgen
data_Li5Ti2Cu5O12
_symmetry_space_group_name_H-M   'P 1'
_cell_length_a   5.55344600
_cell_length_b   8.48081600
_cell_length_c   9.71972142
_cell_angle_alpha   90.00000000
_cell_angle_beta   90.89106977
_cell_angle_gamma   90.00000000
_symmetry_Int_Tables_number   1
_chemical_formula_structural   Li5Ti2Cu5O12
_chemical_formula_sum   'Li10 Ti4 Cu10 O24'
_cell_volume   457.72168575
_cell_formula_units_Z   2
loop_
 _symmetry_equiv_pos_site_id
 _symmetry_equiv_pos_as_xyz
  1  'x, y, z'
loop_
 _atom_site_type_symbol
 _atom_site_label
 _atom_site_symmetry_multiplicity
 _atom_site_fract_x
 _atom_site_fract_y
 _atom_site_fract_z
 _atom_site_occupancy
  Li  Li0  1  0.24052750  0.91843750  0.25341500  1
  Li  Li1  1  0.23410750  0.08533350  0.74194200  1
  Li  Li2  1  0.75947250  0.91843750  0.74658500  1
  Li  Li3  1  0.76589250  0.08533350  0.25805800  1
  Li  Li4  1  0.50000000  0.41267700  0.50000000  1
  Li  Li5  1  0.74052750  0.41843750  0.25341500  1
  Li  Li6  1  0.73410750  0.58533350  0.74194200  1
  Li  Li7  1  0.25947250  0.41843750  0.74658500  1
  Li  Li8  1  0.26589250  0.58533350  0.25805800  1
  Li  Li9  1  0.00000000  0.91267700  0.50000000  1
  Ti  Ti10  1  0.50000000  0.74458800  0.50000000  1
  Ti  Ti11  1  0.50000000  0.24561100  0.00000000  1
  Ti  Ti12  1  0.00000000  0.24458800  0.50000000  1
  Ti  Ti13  1  0.00000000  0.74561100  0.00000000  1
  Cu  Cu14  1  0.50000000  0.57843700  0.00000000  1
  Cu  Cu15  1  0.74339300  0.25547800  0.74790200  1
  Cu  Cu16  1  0.25660700  0.25547800  0.25209800  1
  Cu  Cu17  1  0.50000000  0.91669200  0.00000000  1
  Cu  Cu18  1  0.50000000  0.08492000  0.50000000  1
  Cu  Cu19  1  0.00000000  0.07843700  0.00000000  1
  Cu  Cu20  1  0.24339300  0.75547800  0.74790200  1
  Cu  Cu21  1  0.75660700  0.75547800  0.25209800  1
  Cu  Cu22  1  0.00000000  0.41669200  0.00000000  1
  Cu  Cu23  1  0.00000000  0.58492000  0.50000000  1
  O  O24  1  0.89206800  0.09697900  0.63440900  1
  O  O25  1  0.10793200  0.09697900  0.36559100  1
  O  O26  1  0.33084200  0.74824000  0.09797300  1
  O  O27  1  0.66915800  0.74824000  0.90202700  1
  O  O28  1  0.39056300  0.91819500  0.62125100  1
  O  O29  1  0.60943700  0.91819500  0.37874900  1
  O  O30  1  0.39310350  0.08467850  0.12675700  1
  O  O31  1  0.60689650  0.08467850  0.87324300  1
  O  O32  1  0.32911800  0.24349900  0.59873800  1
  O  O33  1  0.67088200  0.24349900  0.40126200  1
  O  O34  1  0.90173650  0.90769650  0.13108400  1
  O  O35  1  0.09826350  0.90769650  0.86891600  1
  O  O36  1  0.39206800  0.59697900  0.63440900  1
  O  O37  1  0.60793200  0.59697900  0.36559100  1
  O  O38  1  0.83084200  0.24824000  0.09797300  1
  O  O39  1  0.16915800  0.24824000  0.90202700  1
  O  O40  1  0.89056300  0.41819500  0.62125100  1
  O  O41  1  0.10943700  0.41819500  0.37874900  1
  O  O42  1  0.89310350  0.58467850  0.12675700  1
  O  O43  1  0.10689650  0.58467850  0.87324300  1
  O  O44  1  0.82911800  0.74349900  0.59873800  1
  O  O45  1  0.17088200  0.74349900  0.40126200  1
  O  O46  1  0.40173650  0.40769650  0.13108400  1
  O  O47  1  0.59826350  0.40769650  0.86891600  1
