# generated using pymatgen
data_Fe3O5F
_symmetry_space_group_name_H-M   'P 1'
_cell_length_a   8.99363600
_cell_length_b   6.41348000
_cell_length_c   7.36576835
_cell_angle_alpha   90.00000000
_cell_angle_beta   113.80129079
_cell_angle_gamma   90.00000000
_symmetry_Int_Tables_number   1
_chemical_formula_structural   Fe3O5F
_chemical_formula_sum   'Fe12 O20 F4'
_cell_volume   388.72703227
_cell_formula_units_Z   4
loop_
 _symmetry_equiv_pos_site_id
 _symmetry_equiv_pos_as_xyz
  1  'x, y, z'
loop_
 _atom_site_type_symbol
 _atom_site_label
 _atom_site_symmetry_multiplicity
 _atom_site_fract_x
 _atom_site_fract_y
 _atom_site_fract_z
 _atom_site_occupancy
  Fe  Fe0  1  0.00000000  0.50000000  0.00000000  1
  Fe  Fe1  1  0.33224500  0.50000000  0.84395700  1
  Fe  Fe2  1  0.00000000  0.50000000  0.50000000  1
  Fe  Fe3  1  0.34243400  0.50000000  0.31918400  1
  Fe  Fe4  1  0.65756600  0.50000000  0.68081600  1
  Fe  Fe5  1  0.66775500  0.50000000  0.15604300  1
  Fe  Fe6  1  0.50000000  0.00000000  0.00000000  1
  Fe  Fe7  1  0.83224500  0.00000000  0.84395700  1
  Fe  Fe8  1  0.50000000  0.00000000  0.50000000  1
  Fe  Fe9  1  0.84243400  0.00000000  0.31918400  1
  Fe  Fe10  1  0.15756600  0.00000000  0.68081600  1
  Fe  Fe11  1  0.16775500  0.00000000  0.15604300  1
  O  O12  1  0.83096950  0.69292650  0.83308600  1
  O  O13  1  0.00000000  0.19535700  0.50000000  1
  O  O14  1  0.44436600  0.50000000  0.13321600  1
  O  O15  1  0.10308900  0.50000000  0.78844600  1
  O  O16  1  0.89691100  0.50000000  0.21155400  1
  O  O17  1  0.55563400  0.50000000  0.86678400  1
  O  O18  1  0.00000000  0.80464300  0.50000000  1
  O  O19  1  0.83096950  0.30707350  0.83308600  1
  O  O20  1  0.16903050  0.30707350  0.16691400  1
  O  O21  1  0.16903050  0.69292650  0.16691400  1
  O  O22  1  0.33096950  0.19292650  0.83308600  1
  O  O23  1  0.50000000  0.69535700  0.50000000  1
  O  O24  1  0.94436600  0.00000000  0.13321600  1
  O  O25  1  0.60308900  0.00000000  0.78844600  1
  O  O26  1  0.39691100  0.00000000  0.21155400  1
  O  O27  1  0.05563400  0.00000000  0.86678400  1
  O  O28  1  0.50000000  0.30464300  0.50000000  1
  O  O29  1  0.33096950  0.80707350  0.83308600  1
  O  O30  1  0.66903050  0.80707350  0.16691400  1
  O  O31  1  0.66903050  0.19292650  0.16691400  1
  F  F32  1  0.76288800  0.50000000  0.46674700  1
  F  F33  1  0.23711200  0.50000000  0.53325300  1
  F  F34  1  0.26288800  0.00000000  0.46674700  1
  F  F35  1  0.73711200  0.00000000  0.53325300  1
