# generated using pymatgen
data_LiMn3(PO4)3
_symmetry_space_group_name_H-M   'P 1'
_cell_length_a   12.31878000
_cell_length_b   12.15929000
_cell_length_c   6.72827344
_cell_angle_alpha   90.00000000
_cell_angle_beta   117.37002045
_cell_angle_gamma   90.00000000
_symmetry_Int_Tables_number   1
_chemical_formula_structural   LiMn3(PO4)3
_chemical_formula_sum   'Li4 Mn12 P12 O48'
_cell_volume   894.99360250
_cell_formula_units_Z   4
loop_
 _symmetry_equiv_pos_site_id
 _symmetry_equiv_pos_as_xyz
  1  'x, y, z'
loop_
 _atom_site_type_symbol
 _atom_site_label
 _atom_site_symmetry_multiplicity
 _atom_site_fract_x
 _atom_site_fract_y
 _atom_site_fract_z
 _atom_site_occupancy
  Li  Li0  1  0.00000000  0.50000000  0.50000000  1
  Li  Li1  1  0.00000000  0.50000000  0.00000000  1
  Li  Li2  1  0.50000000  0.00000000  0.50000000  1
  Li  Li3  1  0.50000000  0.00000000  0.00000000  1
  Mn  Mn4  1  0.72618550  0.34105850  0.64779500  1
  Mn  Mn5  1  0.00000000  0.25909500  0.25000000  1
  Mn  Mn6  1  0.72618550  0.65894150  0.14779500  1
  Mn  Mn7  1  0.27381450  0.34105850  0.85220500  1
  Mn  Mn8  1  0.00000000  0.74090500  0.75000000  1
  Mn  Mn9  1  0.27381450  0.65894150  0.35220500  1
  Mn  Mn10  1  0.22618550  0.84105850  0.64779500  1
  Mn  Mn11  1  0.50000000  0.75909500  0.25000000  1
  Mn  Mn12  1  0.22618550  0.15894150  0.14779500  1
  Mn  Mn13  1  0.77381450  0.84105850  0.85220500  1
  Mn  Mn14  1  0.50000000  0.24090500  0.75000000  1
  Mn  Mn15  1  0.77381450  0.15894150  0.35220500  1
  P  P16  1  0.74262350  0.60806950  0.63294200  1
  P  P17  1  0.00000000  0.71244300  0.25000000  1
  P  P18  1  0.74262350  0.39193050  0.13294200  1
  P  P19  1  0.25737650  0.60806950  0.86705800  1
  P  P20  1  0.00000000  0.28755700  0.75000000  1
  P  P21  1  0.25737650  0.39193050  0.36705800  1
  P  P22  1  0.24262350  0.10806950  0.63294200  1
  P  P23  1  0.50000000  0.21244300  0.25000000  1
  P  P24  1  0.24262350  0.89193050  0.13294200  1
  P  P25  1  0.75737650  0.10806950  0.86705800  1
  P  P26  1  0.50000000  0.78755700  0.75000000  1
  P  P27  1  0.75737650  0.89193050  0.36705800  1
  O  O28  1  0.68681850  0.49461750  0.63004700  1
  O  O29  1  0.94995250  0.78395850  0.03533900  1
  O  O30  1  0.72703700  0.68257000  0.81197900  1
  O  O31  1  0.09498700  0.63152300  0.23530200  1
  O  O32  1  0.12068850  0.39999150  0.30352900  1
  O  O33  1  0.66669400  0.66397900  0.40281900  1
  O  O34  1  0.33330600  0.66397900  0.09718100  1
  O  O35  1  0.87931150  0.39999150  0.19647100  1
  O  O36  1  0.90501300  0.63152300  0.26469800  1
  O  O37  1  0.27296300  0.68257000  0.68802100  1
  O  O38  1  0.05004750  0.78395850  0.46466100  1
  O  O39  1  0.68681850  0.50538250  0.13004700  1
  O  O40  1  0.31318150  0.49461750  0.86995300  1
  O  O41  1  0.94995250  0.21604150  0.53533900  1
  O  O42  1  0.72703700  0.31743000  0.31197900  1
  O  O43  1  0.09498700  0.36847700  0.73530200  1
  O  O44  1  0.12068850  0.60000850  0.80352900  1
  O  O45  1  0.66669400  0.33602100  0.90281900  1
  O  O46  1  0.33330600  0.33602100  0.59718100  1
  O  O47  1  0.87931150  0.60000850  0.69647100  1
  O  O48  1  0.90501300  0.36847700  0.76469800  1
  O  O49  1  0.27296300  0.31743000  0.18802100  1
  O  O50  1  0.05004750  0.21604150  0.96466100  1
  O  O51  1  0.31318150  0.50538250  0.36995300  1
  O  O52  1  0.18681850  0.99461750  0.63004700  1
  O  O53  1  0.44995250  0.28395850  0.03533900  1
  O  O54  1  0.22703700  0.18257000  0.81197900  1
  O  O55  1  0.59498700  0.13152300  0.23530200  1
  O  O56  1  0.62068850  0.89999150  0.30352900  1
  O  O57  1  0.16669400  0.16397900  0.40281900  1
  O  O58  1  0.83330600  0.16397900  0.09718100  1
  O  O59  1  0.37931150  0.89999150  0.19647100  1
  O  O60  1  0.40501300  0.13152300  0.26469800  1
  O  O61  1  0.77296300  0.18257000  0.68802100  1
  O  O62  1  0.55004750  0.28395850  0.46466100  1
  O  O63  1  0.18681850  0.00538250  0.13004700  1
  O  O64  1  0.81318150  0.99461750  0.86995300  1
  O  O65  1  0.44995250  0.71604150  0.53533900  1
  O  O66  1  0.22703700  0.81743000  0.31197900  1
  O  O67  1  0.59498700  0.86847700  0.73530200  1
  O  O68  1  0.62068850  0.10000850  0.80352900  1
  O  O69  1  0.16669400  0.83602100  0.90281900  1
  O  O70  1  0.83330600  0.83602100  0.59718100  1
  O  O71  1  0.37931150  0.10000850  0.69647100  1
  O  O72  1  0.40501300  0.86847700  0.76469800  1
  O  O73  1  0.77296300  0.81743000  0.18802100  1
  O  O74  1  0.55004750  0.71604150  0.96466100  1
  O  O75  1  0.81318150  0.00538250  0.36995300  1
