# generated using pymatgen
data_Na2CoO3
_symmetry_space_group_name_H-M   'P 1'
_cell_length_a   9.96739673
_cell_length_b   5.92684452
_cell_length_c   6.22288960
_cell_angle_alpha   90.00000000
_cell_angle_beta   109.22050811
_cell_angle_gamma   90.00000000
_symmetry_Int_Tables_number   1
_chemical_formula_structural   Na2CoO3
_chemical_formula_sum   'Na8 Co4 O12'
_cell_volume   347.12694228
_cell_formula_units_Z   4
loop_
 _symmetry_equiv_pos_site_id
 _symmetry_equiv_pos_as_xyz
  1  'x, y, z'
loop_
 _atom_site_type_symbol
 _atom_site_label
 _atom_site_symmetry_multiplicity
 _atom_site_fract_x
 _atom_site_fract_y
 _atom_site_fract_z
 _atom_site_occupancy
  Na  Na0  1  0.00000000  0.00000000  0.00000000  1
  Na  Na1  1  0.00000000  0.00000000  0.50000000  1
  Na  Na2  1  0.14830900  0.50000000  0.22561575  1
  Na  Na3  1  0.85169100  0.50000000  0.77438425  1
  Na  Na4  1  0.50000000  0.50000000  0.00000000  1
  Na  Na5  1  0.50000000  0.50000000  0.50000000  1
  Na  Na6  1  0.64830900  0.00000000  0.22561575  1
  Na  Na7  1  0.35169100  0.00000000  0.77438425  1
  Co  Co8  1  0.16276475  0.50000000  0.73943475  1
  Co  Co9  1  0.83723525  0.50000000  0.26056525  1
  Co  Co10  1  0.66276475  0.00000000  0.73943475  1
  Co  Co11  1  0.33723525  0.00000000  0.26056525  1
  O  O12  1  0.29442975  0.50000000  0.62412125  1
  O  O13  1  0.70557025  0.50000000  0.37587875  1
  O  O14  1  0.08354750  0.27629150  0.81229425  1
  O  O15  1  0.08354750  0.72370850  0.81229425  1
  O  O16  1  0.91645250  0.27629150  0.18770575  1
  O  O17  1  0.91645250  0.72370850  0.18770575  1
  O  O18  1  0.79442975  0.00000000  0.62412125  1
  O  O19  1  0.20557025  0.00000000  0.37587875  1
  O  O20  1  0.58354750  0.77629150  0.81229425  1
  O  O21  1  0.58354750  0.22370850  0.81229425  1
  O  O22  1  0.41645250  0.77629150  0.18770575  1
  O  O23  1  0.41645250  0.22370850  0.18770575  1
