# generated using pymatgen
data_Tl2(PbO3)3
_symmetry_space_group_name_H-M   'P 1'
_cell_length_a   3.83861000
_cell_length_b   3.83861000
_cell_length_c   27.84762800
_cell_angle_alpha   90.00000000
_cell_angle_beta   90.00000000
_cell_angle_gamma   90.00000000
_symmetry_Int_Tables_number   1
_chemical_formula_structural   Tl2(PbO3)3
_chemical_formula_sum   'Tl4 Pb6 O18'
_cell_volume   410.33275824
_cell_formula_units_Z   2
loop_
 _symmetry_equiv_pos_site_id
 _symmetry_equiv_pos_as_xyz
  1  'x, y, z'
loop_
 _atom_site_type_symbol
 _atom_site_label
 _atom_site_symmetry_multiplicity
 _atom_site_fract_x
 _atom_site_fract_y
 _atom_site_fract_z
 _atom_site_occupancy
  Tl  Tl0  1  0.50000000  0.50000000  0.19657100  1
  Tl  Tl1  1  0.00000000  0.00000000  0.30342900  1
  Tl  Tl2  1  0.00000000  0.00000000  0.69657100  1
  Tl  Tl3  1  0.50000000  0.50000000  0.80342900  1
  Pb  Pb4  1  0.50000000  0.50000000  0.40022000  1
  Pb  Pb5  1  0.50000000  0.50000000  0.00000000  1
  Pb  Pb6  1  0.00000000  0.00000000  0.09978000  1
  Pb  Pb7  1  0.00000000  0.00000000  0.90022000  1
  Pb  Pb8  1  0.00000000  0.00000000  0.50000000  1
  Pb  Pb9  1  0.50000000  0.50000000  0.59978000  1
  O  O10  1  0.00000000  0.50000000  0.25000000  1
  O  O11  1  0.00000000  0.50000000  0.36074800  1
  O  O12  1  0.50000000  0.00000000  0.33871400  1
  O  O13  1  0.00000000  0.50000000  0.46062600  1
  O  O14  1  0.50000000  0.00000000  0.43957600  1
  O  O15  1  0.50000000  0.00000000  0.06042400  1
  O  O16  1  0.00000000  0.50000000  0.03937400  1
  O  O17  1  0.50000000  0.00000000  0.16128600  1
  O  O18  1  0.00000000  0.50000000  0.13925200  1
  O  O19  1  0.50000000  0.00000000  0.75000000  1
  O  O20  1  0.50000000  0.00000000  0.86074800  1
  O  O21  1  0.00000000  0.50000000  0.83871400  1
  O  O22  1  0.50000000  0.00000000  0.96062600  1
  O  O23  1  0.00000000  0.50000000  0.93957600  1
  O  O24  1  0.00000000  0.50000000  0.56042400  1
  O  O25  1  0.50000000  0.00000000  0.53937400  1
  O  O26  1  0.00000000  0.50000000  0.66128600  1
  O  O27  1  0.50000000  0.00000000  0.63925200  1
