# generated using pymatgen
data_Li4Ti3NbO8
_symmetry_space_group_name_H-M   'P 1'
_cell_length_a   5.84538918
_cell_length_b   5.84538918
_cell_length_c   15.27632865
_cell_angle_alpha   90.00000000
_cell_angle_beta   90.00000000
_cell_angle_gamma   120.00000000
_symmetry_Int_Tables_number   1
_chemical_formula_structural   Li4Ti3NbO8
_chemical_formula_sum   'Li12 Ti9 Nb3 O24'
_cell_volume   452.03960498
_cell_formula_units_Z   3
loop_
 _symmetry_equiv_pos_site_id
 _symmetry_equiv_pos_as_xyz
  1  'x, y, z'
loop_
 _atom_site_type_symbol
 _atom_site_label
 _atom_site_symmetry_multiplicity
 _atom_site_fract_x
 _atom_site_fract_y
 _atom_site_fract_z
 _atom_site_occupancy
  Li  Li0  1  0.33333333  0.66666667  0.16666667  1
  Li  Li1  1  0.83333333  0.66666667  0.16666667  1
  Li  Li2  1  0.33333333  0.16666667  0.16666667  1
  Li  Li3  1  0.83333333  0.16666667  0.16666667  1
  Li  Li4  1  1.00000000  1.00000000  0.50000000  1
  Li  Li5  1  0.50000000  0.00000000  0.50000000  1
  Li  Li6  1  0.00000000  0.50000000  0.50000000  1
  Li  Li7  1  0.50000000  0.50000000  0.50000000  1
  Li  Li8  1  0.66666667  0.33333333  0.83333333  1
  Li  Li9  1  0.16666667  0.33333333  0.83333333  1
  Li  Li10  1  0.66666667  0.83333333  0.83333333  1
  Li  Li11  1  0.16666667  0.83333333  0.83333333  1
  Ti  Ti12  1  0.50000000  0.00000000  0.00000000  1
  Ti  Ti13  1  0.00000000  0.50000000  0.00000000  1
  Ti  Ti14  1  0.50000000  0.50000000  0.00000000  1
  Ti  Ti15  1  0.16666667  0.33333333  0.33333333  1
  Ti  Ti16  1  0.66666667  0.83333333  0.33333333  1
  Ti  Ti17  1  0.16666667  0.83333333  0.33333333  1
  Ti  Ti18  1  0.83333333  0.66666667  0.66666667  1
  Ti  Ti19  1  0.33333333  0.16666667  0.66666667  1
  Ti  Ti20  1  0.83333333  0.16666667  0.66666667  1
  Nb  Nb21  1  0.00000000  0.00000000  0.00000000  1
  Nb  Nb22  1  0.66666667  0.33333333  0.33333333  1
  Nb  Nb23  1  0.33333333  0.66666667  0.66666667  1
  O  O24  1  0.00000000  0.00000000  0.25688200  1
  O  O25  1  0.49549300  0.99098600  0.25072600  1
  O  O26  1  0.00901400  0.50450700  0.25072600  1
  O  O27  1  0.66666667  0.33333333  0.07645133  1
  O  O28  1  0.49549300  0.50450700  0.25072600  1
  O  O29  1  0.17117367  0.34234733  0.08260733  1
  O  O30  1  0.65765267  0.82882633  0.08260733  1
  O  O31  1  0.17117367  0.82882633  0.08260733  1
  O  O32  1  0.66666667  0.33333333  0.59021533  1
  O  O33  1  0.16215967  0.32431933  0.58405933  1
  O  O34  1  0.67568067  0.83784033  0.58405933  1
  O  O35  1  0.33333333  0.66666667  0.40978467  1
  O  O36  1  0.16215967  0.83784033  0.58405933  1
  O  O37  1  0.83784033  0.67568067  0.41594067  1
  O  O38  1  0.32431933  0.16215967  0.41594067  1
  O  O39  1  0.83784033  0.16215967  0.41594067  1
  O  O40  1  0.33333333  0.66666667  0.92354867  1
  O  O41  1  0.82882633  0.65765267  0.91739267  1
  O  O42  1  0.34234733  0.17117367  0.91739267  1
  O  O43  1  0.00000000  0.00000000  0.74311800  1
  O  O44  1  0.82882633  0.17117367  0.91739267  1
  O  O45  1  0.50450700  0.00901400  0.74927400  1
  O  O46  1  0.99098600  0.49549300  0.74927400  1
  O  O47  1  0.50450700  0.49549300  0.74927400  1
