# generated using pymatgen
data_Li4Mn5O9F
_symmetry_space_group_name_H-M   'P 1'
_cell_length_a   9.85131000
_cell_length_b   2.89744200
_cell_length_c   13.98417403
_cell_angle_alpha   90.00000000
_cell_angle_beta   102.27268534
_cell_angle_gamma   90.00000000
_symmetry_Int_Tables_number   1
_chemical_formula_structural   Li4Mn5O9F
_chemical_formula_sum   'Li8 Mn10 O18 F2'
_cell_volume   390.03669640
_cell_formula_units_Z   2
loop_
 _symmetry_equiv_pos_site_id
 _symmetry_equiv_pos_as_xyz
  1  'x, y, z'
loop_
 _atom_site_type_symbol
 _atom_site_label
 _atom_site_symmetry_multiplicity
 _atom_site_fract_x
 _atom_site_fract_y
 _atom_site_fract_z
 _atom_site_occupancy
  Li  Li0  1  0.80328400  0.00000000  0.60581500  1
  Li  Li1  1  0.60774600  0.00000000  0.20354100  1
  Li  Li2  1  0.38360700  0.00000000  0.81393400  1
  Li  Li3  1  0.70972300  0.50000000  0.39816700  1
  Li  Li4  1  0.30328400  0.50000000  0.60581500  1
  Li  Li5  1  0.10774600  0.50000000  0.20354100  1
  Li  Li6  1  0.88360700  0.50000000  0.81393400  1
  Li  Li7  1  0.20972300  0.00000000  0.39816700  1
  Mn  Mn8  1  0.90971600  0.00000000  0.30028900  1
  Mn  Mn9  1  0.16779800  0.50000000  0.89655400  1
  Mn  Mn10  1  0.82933700  0.50000000  0.09106500  1
  Mn  Mn11  1  0.01056100  0.50000000  0.49527600  1
  Mn  Mn12  1  0.09322600  0.00000000  0.69620200  1
  Mn  Mn13  1  0.40971600  0.50000000  0.30028900  1
  Mn  Mn14  1  0.66779800  0.00000000  0.89655400  1
  Mn  Mn15  1  0.32933700  0.00000000  0.09106500  1
  Mn  Mn16  1  0.51056100  0.00000000  0.49527600  1
  Mn  Mn17  1  0.59322600  0.50000000  0.69620200  1
  O  O18  1  0.87693300  0.00000000  0.44184000  1
  O  O19  1  0.95310200  0.00000000  0.17443500  1
  O  O20  1  0.22699900  0.50000000  0.73907400  1
  O  O21  1  0.04374000  0.50000000  0.34250900  1
  O  O22  1  0.96186100  0.50000000  0.64250500  1
  O  O23  1  0.77725500  0.50000000  0.26753200  1
  O  O24  1  0.29821000  0.00000000  0.93946400  1
  O  O25  1  0.03975100  0.00000000  0.84318100  1
  O  O26  1  0.14540500  0.00000000  0.53555900  1
  O  O27  1  0.37693300  0.50000000  0.44184000  1
  O  O28  1  0.45310200  0.50000000  0.17443500  1
  O  O29  1  0.72699900  0.00000000  0.73907400  1
  O  O30  1  0.54374000  0.00000000  0.34250900  1
  O  O31  1  0.46186100  0.00000000  0.64250500  1
  O  O32  1  0.27725500  0.00000000  0.26753200  1
  O  O33  1  0.79821000  0.50000000  0.93946400  1
  O  O34  1  0.53975100  0.50000000  0.84318100  1
  O  O35  1  0.64540500  0.50000000  0.53555900  1
  F  F36  1  0.66174900  0.00000000  0.07305800  1
  F  F37  1  0.16174900  0.50000000  0.07305800  1
