# generated using pymatgen
data_Na5Bi2P(CO4)4
_symmetry_space_group_name_H-M   'P 1'
_cell_length_a   14.58002400
_cell_length_b   14.67087600
_cell_length_c   14.92797400
_cell_angle_alpha   90.00000000
_cell_angle_beta   90.00000000
_cell_angle_gamma   90.00000000
_symmetry_Int_Tables_number   1
_chemical_formula_structural   Na5Bi2P(CO4)4
_chemical_formula_sum   'Na40 Bi16 P8 C32 O128'
_cell_volume   3193.11937713
_cell_formula_units_Z   8
loop_
 _symmetry_equiv_pos_site_id
 _symmetry_equiv_pos_as_xyz
  1  'x, y, z'
loop_
 _atom_site_type_symbol
 _atom_site_label
 _atom_site_symmetry_multiplicity
 _atom_site_fract_x
 _atom_site_fract_y
 _atom_site_fract_z
 _atom_site_occupancy
  Na  Na0  1  0.75000000  0.05614500  0.25000000  1
  Na  Na1  1  0.30876800  0.00000000  0.00000000  1
  Na  Na2  1  0.50000000  0.80961700  0.00000000  1
  Na  Na3  1  0.75000000  0.25000000  0.44258300  1
  Na  Na4  1  0.55550600  0.25000000  0.25000000  1
  Na  Na5  1  0.75000000  0.25000000  0.05741700  1
  Na  Na6  1  0.69123200  0.00000000  0.00000000  1
  Na  Na7  1  0.75000000  0.44385500  0.25000000  1
  Na  Na8  1  0.94449400  0.25000000  0.25000000  1
  Na  Na9  1  0.50000000  0.19038300  0.00000000  1
  Na  Na10  1  0.75000000  0.55614500  0.75000000  1
  Na  Na11  1  0.30876800  0.50000000  0.50000000  1
  Na  Na12  1  0.50000000  0.30961700  0.50000000  1
  Na  Na13  1  0.75000000  0.75000000  0.94258300  1
  Na  Na14  1  0.55550600  0.75000000  0.75000000  1
  Na  Na15  1  0.75000000  0.75000000  0.55741700  1
  Na  Na16  1  0.69123200  0.50000000  0.50000000  1
  Na  Na17  1  0.75000000  0.94385500  0.75000000  1
  Na  Na18  1  0.94449400  0.75000000  0.75000000  1
  Na  Na19  1  0.50000000  0.69038300  0.50000000  1
  Na  Na20  1  0.25000000  0.05614500  0.75000000  1
  Na  Na21  1  0.80876800  0.00000000  0.50000000  1
  Na  Na22  1  0.00000000  0.80961700  0.50000000  1
  Na  Na23  1  0.25000000  0.25000000  0.94258300  1
  Na  Na24  1  0.05550600  0.25000000  0.75000000  1
  Na  Na25  1  0.25000000  0.25000000  0.55741700  1
  Na  Na26  1  0.19123200  0.00000000  0.50000000  1
  Na  Na27  1  0.25000000  0.44385500  0.75000000  1
  Na  Na28  1  0.44449400  0.25000000  0.75000000  1
  Na  Na29  1  0.00000000  0.19038300  0.50000000  1
  Na  Na30  1  0.25000000  0.55614500  0.25000000  1
  Na  Na31  1  0.80876800  0.50000000  0.00000000  1
  Na  Na32  1  0.00000000  0.30961700  0.00000000  1
  Na  Na33  1  0.25000000  0.75000000  0.44258300  1
  Na  Na34  1  0.05550600  0.75000000  0.25000000  1
  Na  Na35  1  0.25000000  0.75000000  0.05741700  1
  Na  Na36  1  0.19123200  0.50000000  0.00000000  1
  Na  Na37  1  0.25000000  0.94385500  0.25000000  1
  Na  Na38  1  0.44449400  0.75000000  0.25000000  1
  Na  Na39  1  0.00000000  0.69038300  0.00000000  1
  Bi  Bi40  1  0.62302200  0.62393550  0.12919150  1
  Bi  Bi41  1  0.62302200  0.87606450  0.37080850  1
  Bi  Bi42  1  0.87697800  0.62393550  0.37080850  1
  Bi  Bi43  1  0.87697800  0.87606450  0.12919150  1
  Bi  Bi44  1  0.62302200  0.12393550  0.62919150  1
  Bi  Bi45  1  0.62302200  0.37606450  0.87080850  1
  Bi  Bi46  1  0.87697800  0.12393550  0.87080850  1
  Bi  Bi47  1  0.87697800  0.37606450  0.62919150  1
  Bi  Bi48  1  0.12302200  0.62393550  0.62919150  1
  Bi  Bi49  1  0.12302200  0.87606450  0.87080850  1
  Bi  Bi50  1  0.37697800  0.62393550  0.87080850  1
  Bi  Bi51  1  0.37697800  0.87606450  0.62919150  1
  Bi  Bi52  1  0.12302200  0.12393550  0.12919150  1
  Bi  Bi53  1  0.12302200  0.37606450  0.37080850  1
  Bi  Bi54  1  0.37697800  0.12393550  0.37080850  1
  Bi  Bi55  1  0.37697800  0.37606450  0.12919150  1
  P  P56  1  0.75000000  0.25000000  0.25000000  1
  P  P57  1  0.50000000  0.00000000  0.00000000  1
  P  P58  1  0.75000000  0.75000000  0.75000000  1
  P  P59  1  0.50000000  0.50000000  0.50000000  1
  P  P60  1  0.25000000  0.25000000  0.75000000  1
  P  P61  1  0.00000000  0.00000000  0.50000000  1
  P  P62  1  0.25000000  0.75000000  0.25000000  1
  P  P63  1  0.00000000  0.50000000  0.00000000  1
  C  C64  1  0.65399450  0.84449600  0.15348850  1
  C  C65  1  0.84600550  0.84449600  0.34651150  1
  C  C66  1  0.34600550  0.15550400  0.15348850  1
  C  C67  1  0.15399450  0.15550400  0.34651150  1
  C  C68  1  0.60027800  0.09963200  0.40656400  1
  C  C69  1  0.89972200  0.09963200  0.09343600  1
  C  C70  1  0.60027800  0.40036800  0.09343600  1
  C  C71  1  0.89972200  0.40036800  0.40656400  1
  C  C72  1  0.65399450  0.34449600  0.65348850  1
  C  C73  1  0.84600550  0.34449600  0.84651150  1
  C  C74  1  0.34600550  0.65550400  0.65348850  1
  C  C75  1  0.15399450  0.65550400  0.84651150  1
  C  C76  1  0.60027800  0.59963200  0.90656400  1
  C  C77  1  0.89972200  0.59963200  0.59343600  1
  C  C78  1  0.60027800  0.90036800  0.59343600  1
  C  C79  1  0.89972200  0.90036800  0.90656400  1
  C  C80  1  0.15399450  0.84449600  0.65348850  1
  C  C81  1  0.34600550  0.84449600  0.84651150  1
  C  C82  1  0.84600550  0.15550400  0.65348850  1
  C  C83  1  0.65399450  0.15550400  0.84651150  1
  C  C84  1  0.10027800  0.09963200  0.90656400  1
  C  C85  1  0.39972200  0.09963200  0.59343600  1
  C  C86  1  0.10027800  0.40036800  0.59343600  1
  C  C87  1  0.39972200  0.40036800  0.90656400  1
  C  C88  1  0.15399450  0.34449600  0.15348850  1
  C  C89  1  0.34600550  0.34449600  0.34651150  1
  C  C90  1  0.84600550  0.65550400  0.15348850  1
  C  C91  1  0.65399450  0.65550400  0.34651150  1
  C  C92  1  0.10027800  0.59963200  0.40656400  1
  C  C93  1  0.39972200  0.59963200  0.09343600  1
  C  C94  1  0.10027800  0.90036800  0.09343600  1
  C  C95  1  0.39972200  0.90036800  0.40656400  1
  O  O96  1  0.65918000  0.10495600  0.47204600  1
  O  O97  1  0.71762550  0.90677600  0.14972150  1
  O  O98  1  0.78237450  0.90677600  0.35027850  1
  O  O99  1  0.15918000  0.89504400  0.02795400  1
  O  O100  1  0.90406550  0.84290100  0.28074650  1
  O  O101  1  0.81139650  0.31117600  0.18912150  1
  O  O102  1  0.68860350  0.31117600  0.31087850  1
  O  O103  1  0.64903500  0.78213100  0.09133500  1
  O  O104  1  0.85096500  0.78213100  0.40866500  1
  O  O105  1  0.14903500  0.21786900  0.40866500  1
  O  O106  1  0.35096500  0.21786900  0.09133500  1
  O  O107  1  0.81139650  0.18882400  0.31087850  1
  O  O108  1  0.68860350  0.18882400  0.18912150  1
  O  O109  1  0.03511150  0.66019000  0.40001850  1
  O  O110  1  0.46488850  0.66019000  0.09998150  1
  O  O111  1  0.40406550  0.15709900  0.21925350  1
  O  O112  1  0.84082000  0.10495600  0.02795400  1
  O  O113  1  0.21762550  0.09322400  0.35027850  1
  O  O114  1  0.28237450  0.09322400  0.14972150  1
  O  O115  1  0.56322100  0.06299750  0.05809450  1
  O  O116  1  0.93677900  0.06299750  0.44190550  1
  O  O117  1  0.89285900  0.03542650  0.15270550  1
  O  O118  1  0.60714100  0.03542650  0.34729450  1
  O  O119  1  0.10714100  0.96457350  0.15270550  1
  O  O120  1  0.39285900  0.96457350  0.34729450  1
  O  O121  1  0.06322100  0.93700250  0.44190550  1
  O  O122  1  0.43677900  0.93700250  0.05809450  1
  O  O123  1  0.34082000  0.89504400  0.47204600  1
  O  O124  1  0.59593450  0.84290100  0.21925350  1
  O  O125  1  0.96488850  0.33981000  0.40001850  1
  O  O126  1  0.53511150  0.33981000  0.09998150  1
  O  O127  1  0.09593450  0.15709900  0.28074650  1
  O  O128  1  0.65918000  0.60495600  0.97204600  1
  O  O129  1  0.71762550  0.40677600  0.64972150  1
  O  O130  1  0.78237450  0.40677600  0.85027850  1
  O  O131  1  0.15918000  0.39504400  0.52795400  1
  O  O132  1  0.90406550  0.34290100  0.78074650  1
  O  O133  1  0.81139650  0.81117600  0.68912150  1
  O  O134  1  0.68860350  0.81117600  0.81087850  1
  O  O135  1  0.64903500  0.28213100  0.59133500  1
  O  O136  1  0.85096500  0.28213100  0.90866500  1
  O  O137  1  0.14903500  0.71786900  0.90866500  1
  O  O138  1  0.35096500  0.71786900  0.59133500  1
  O  O139  1  0.81139650  0.68882400  0.81087850  1
  O  O140  1  0.68860350  0.68882400  0.68912150  1
  O  O141  1  0.03511150  0.16019000  0.90001850  1
  O  O142  1  0.46488850  0.16019000  0.59998150  1
  O  O143  1  0.40406550  0.65709900  0.71925350  1
  O  O144  1  0.84082000  0.60495600  0.52795400  1
  O  O145  1  0.21762550  0.59322400  0.85027850  1
  O  O146  1  0.28237450  0.59322400  0.64972150  1
  O  O147  1  0.56322100  0.56299750  0.55809450  1
  O  O148  1  0.93677900  0.56299750  0.94190550  1
  O  O149  1  0.89285900  0.53542650  0.65270550  1
  O  O150  1  0.60714100  0.53542650  0.84729450  1
  O  O151  1  0.10714100  0.46457350  0.65270550  1
  O  O152  1  0.39285900  0.46457350  0.84729450  1
  O  O153  1  0.06322100  0.43700250  0.94190550  1
  O  O154  1  0.43677900  0.43700250  0.55809450  1
  O  O155  1  0.34082000  0.39504400  0.97204600  1
  O  O156  1  0.59593450  0.34290100  0.71925350  1
  O  O157  1  0.96488850  0.83981000  0.90001850  1
  O  O158  1  0.53511150  0.83981000  0.59998150  1
  O  O159  1  0.09593450  0.65709900  0.78074650  1
  O  O160  1  0.15918000  0.10495600  0.97204600  1
  O  O161  1  0.21762550  0.90677600  0.64972150  1
  O  O162  1  0.28237450  0.90677600  0.85027850  1
  O  O163  1  0.65918000  0.89504400  0.52795400  1
  O  O164  1  0.40406550  0.84290100  0.78074650  1
  O  O165  1  0.31139650  0.31117600  0.68912150  1
  O  O166  1  0.18860350  0.31117600  0.81087850  1
  O  O167  1  0.14903500  0.78213100  0.59133500  1
  O  O168  1  0.35096500  0.78213100  0.90866500  1
  O  O169  1  0.64903500  0.21786900  0.90866500  1
  O  O170  1  0.85096500  0.21786900  0.59133500  1
  O  O171  1  0.31139650  0.18882400  0.81087850  1
  O  O172  1  0.18860350  0.18882400  0.68912150  1
  O  O173  1  0.53511150  0.66019000  0.90001850  1
  O  O174  1  0.96488850  0.66019000  0.59998150  1
  O  O175  1  0.90406550  0.15709900  0.71925350  1
  O  O176  1  0.34082000  0.10495600  0.52795400  1
  O  O177  1  0.71762550  0.09322400  0.85027850  1
  O  O178  1  0.78237450  0.09322400  0.64972150  1
  O  O179  1  0.06322100  0.06299750  0.55809450  1
  O  O180  1  0.43677900  0.06299750  0.94190550  1
  O  O181  1  0.39285900  0.03542650  0.65270550  1
  O  O182  1  0.10714100  0.03542650  0.84729450  1
  O  O183  1  0.60714100  0.96457350  0.65270550  1
  O  O184  1  0.89285900  0.96457350  0.84729450  1
  O  O185  1  0.56322100  0.93700250  0.94190550  1
  O  O186  1  0.93677900  0.93700250  0.55809450  1
  O  O187  1  0.84082000  0.89504400  0.97204600  1
  O  O188  1  0.09593450  0.84290100  0.71925350  1
  O  O189  1  0.46488850  0.33981000  0.90001850  1
  O  O190  1  0.03511150  0.33981000  0.59998150  1
  O  O191  1  0.59593450  0.15709900  0.78074650  1
  O  O192  1  0.15918000  0.60495600  0.47204600  1
  O  O193  1  0.21762550  0.40677600  0.14972150  1
  O  O194  1  0.28237450  0.40677600  0.35027850  1
  O  O195  1  0.65918000  0.39504400  0.02795400  1
  O  O196  1  0.40406550  0.34290100  0.28074650  1
  O  O197  1  0.31139650  0.81117600  0.18912150  1
  O  O198  1  0.18860350  0.81117600  0.31087850  1
  O  O199  1  0.14903500  0.28213100  0.09133500  1
  O  O200  1  0.35096500  0.28213100  0.40866500  1
  O  O201  1  0.64903500  0.71786900  0.40866500  1
  O  O202  1  0.85096500  0.71786900  0.09133500  1
  O  O203  1  0.31139650  0.68882400  0.31087850  1
  O  O204  1  0.18860350  0.68882400  0.18912150  1
  O  O205  1  0.53511150  0.16019000  0.40001850  1
  O  O206  1  0.96488850  0.16019000  0.09998150  1
  O  O207  1  0.90406550  0.65709900  0.21925350  1
  O  O208  1  0.34082000  0.60495600  0.02795400  1
  O  O209  1  0.71762550  0.59322400  0.35027850  1
  O  O210  1  0.78237450  0.59322400  0.14972150  1
  O  O211  1  0.06322100  0.56299750  0.05809450  1
  O  O212  1  0.43677900  0.56299750  0.44190550  1
  O  O213  1  0.39285900  0.53542650  0.15270550  1
  O  O214  1  0.10714100  0.53542650  0.34729450  1
  O  O215  1  0.60714100  0.46457350  0.15270550  1
  O  O216  1  0.89285900  0.46457350  0.34729450  1
  O  O217  1  0.56322100  0.43700250  0.44190550  1
  O  O218  1  0.93677900  0.43700250  0.05809450  1
  O  O219  1  0.84082000  0.39504400  0.47204600  1
  O  O220  1  0.09593450  0.34290100  0.21925350  1
  O  O221  1  0.46488850  0.83981000  0.40001850  1
  O  O222  1  0.03511150  0.83981000  0.09998150  1
  O  O223  1  0.59593450  0.65709900  0.28074650  1
