# generated using pymatgen
data_LiMnPO4
_symmetry_space_group_name_H-M   'P 1'
_cell_length_a   7.82851201
_cell_length_b   15.51101401
_cell_length_c   6.02192800
_cell_angle_alpha   90.00000000
_cell_angle_beta   90.00000000
_cell_angle_gamma   90.00000000
_symmetry_Int_Tables_number   1
_chemical_formula_structural   LiMnPO4
_chemical_formula_sum   'Li8 Mn8 P8 O32'
_cell_volume   731.23163392
_cell_formula_units_Z   8
loop_
 _symmetry_equiv_pos_site_id
 _symmetry_equiv_pos_as_xyz
  1  'x, y, z'
loop_
 _atom_site_type_symbol
 _atom_site_label
 _atom_site_symmetry_multiplicity
 _atom_site_fract_x
 _atom_site_fract_y
 _atom_site_fract_z
 _atom_site_occupancy
  Li  Li0  1  0.49868950  0.26494600  0.76509800  1
  Li  Li1  1  0.50131050  0.26494600  0.26509800  1
  Li  Li2  1  0.99868950  0.23505400  0.26509800  1
  Li  Li3  1  0.00131050  0.23505400  0.76509800  1
  Li  Li4  1  0.99868950  0.76494600  0.76509800  1
  Li  Li5  1  0.00131050  0.76494600  0.26509800  1
  Li  Li6  1  0.49868950  0.73505400  0.26509800  1
  Li  Li7  1  0.50131050  0.73505400  0.76509800  1
  Mn  Mn8  1  0.69357450  0.09647600  0.01376300  1
  Mn  Mn9  1  0.80642550  0.40352400  0.01376300  1
  Mn  Mn10  1  0.19357450  0.40352400  0.51376300  1
  Mn  Mn11  1  0.30642550  0.09647600  0.51376300  1
  Mn  Mn12  1  0.19357450  0.59647600  0.01376300  1
  Mn  Mn13  1  0.30642550  0.90352400  0.01376300  1
  Mn  Mn14  1  0.69357450  0.90352400  0.51376300  1
  Mn  Mn15  1  0.80642550  0.59647600  0.51376300  1
  P  P16  1  0.20684850  0.37072600  0.01711500  1
  P  P17  1  0.79315150  0.37072600  0.51711500  1
  P  P18  1  0.70684850  0.12927400  0.51711500  1
  P  P19  1  0.29315150  0.12927400  0.01711500  1
  P  P20  1  0.70684850  0.87072600  0.01711500  1
  P  P21  1  0.29315150  0.87072600  0.51711500  1
  P  P22  1  0.20684850  0.62927400  0.51711500  1
  P  P23  1  0.79315150  0.62927400  0.01711500  1
  O  O24  1  0.16978950  0.46751300  0.02385200  1
  O  O25  1  0.66978950  0.03248700  0.52385200  1
  O  O26  1  0.83021050  0.46751300  0.52385200  1
  O  O27  1  0.33021050  0.03248700  0.02385200  1
  O  O28  1  0.30543600  0.34681550  0.80123900  1
  O  O29  1  0.69456400  0.34681550  0.30123900  1
  O  O30  1  0.80543600  0.15318450  0.30123900  1
  O  O31  1  0.19456400  0.15318450  0.80123900  1
  O  O32  1  0.30601600  0.34436050  0.23060100  1
  O  O33  1  0.69398400  0.34436050  0.73060100  1
  O  O34  1  0.80601600  0.15563950  0.73060100  1
  O  O35  1  0.19398400  0.15563950  0.23060100  1
  O  O36  1  0.52930500  0.17791350  0.51494200  1
  O  O37  1  0.47069500  0.17791350  0.01494200  1
  O  O38  1  0.02930500  0.32208650  0.01494200  1
  O  O39  1  0.97069500  0.32208650  0.51494200  1
  O  O40  1  0.66978950  0.96751300  0.02385200  1
  O  O41  1  0.16978950  0.53248700  0.52385200  1
  O  O42  1  0.33021050  0.96751300  0.52385200  1
  O  O43  1  0.83021050  0.53248700  0.02385200  1
  O  O44  1  0.80543600  0.84681550  0.80123900  1
  O  O45  1  0.19456400  0.84681550  0.30123900  1
  O  O46  1  0.30543600  0.65318450  0.30123900  1
  O  O47  1  0.69456400  0.65318450  0.80123900  1
  O  O48  1  0.80601600  0.84436050  0.23060100  1
  O  O49  1  0.19398400  0.84436050  0.73060100  1
  O  O50  1  0.30601600  0.65563950  0.73060100  1
  O  O51  1  0.69398400  0.65563950  0.23060100  1
  O  O52  1  0.02930500  0.67791350  0.51494200  1
  O  O53  1  0.97069500  0.67791350  0.01494200  1
  O  O54  1  0.52930500  0.82208650  0.01494200  1
  O  O55  1  0.47069500  0.82208650  0.51494200  1
