# generated using pymatgen
data_LiFeSiO4
_symmetry_space_group_name_H-M   'P 1'
_cell_length_a   5.13673200
_cell_length_b   10.29992800
_cell_length_c   13.46510000
_cell_angle_alpha   90.00000000
_cell_angle_beta   90.00000000
_cell_angle_gamma   90.00000000
_symmetry_Int_Tables_number   1
_chemical_formula_structural   LiFeSiO4
_chemical_formula_sum   'Li8 Fe8 Si8 O32'
_cell_volume   712.41110355
_cell_formula_units_Z   8
loop_
 _symmetry_equiv_pos_site_id
 _symmetry_equiv_pos_as_xyz
  1  'x, y, z'
loop_
 _atom_site_type_symbol
 _atom_site_label
 _atom_site_symmetry_multiplicity
 _atom_site_fract_x
 _atom_site_fract_y
 _atom_site_fract_z
 _atom_site_occupancy
  Li  Li0  1  0.06605400  0.03668900  0.75363100  1
  Li  Li1  1  0.55255300  0.21128200  0.00147800  1
  Li  Li2  1  0.55255300  0.28871800  0.50147800  1
  Li  Li3  1  0.06605400  0.46331100  0.25363100  1
  Li  Li4  1  0.93394600  0.53668900  0.75363100  1
  Li  Li5  1  0.44744700  0.71128200  0.00147800  1
  Li  Li6  1  0.44744700  0.78871800  0.50147800  1
  Li  Li7  1  0.93394600  0.96331100  0.25363100  1
  Fe  Fe8  1  0.91826500  0.03316800  0.50325500  1
  Fe  Fe9  1  0.55513500  0.21433900  0.74956400  1
  Fe  Fe10  1  0.55513500  0.28566100  0.24956400  1
  Fe  Fe11  1  0.91826500  0.46683200  0.00325500  1
  Fe  Fe12  1  0.08173500  0.53316800  0.50325500  1
  Fe  Fe13  1  0.44486500  0.71433900  0.74956400  1
  Fe  Fe14  1  0.44486500  0.78566100  0.24956400  1
  Fe  Fe15  1  0.08173500  0.96683200  0.00325500  1
  Si  Si16  1  0.42963500  0.03442700  0.37571300  1
  Si  Si17  1  0.05205700  0.21640100  0.12746400  1
  Si  Si18  1  0.05205700  0.28359900  0.62746400  1
  Si  Si19  1  0.42963500  0.46557300  0.87571300  1
  Si  Si20  1  0.57036500  0.53442700  0.37571300  1
  Si  Si21  1  0.94794300  0.71640100  0.12746400  1
  Si  Si22  1  0.94794300  0.78359900  0.62746400  1
  Si  Si23  1  0.57036500  0.96557300  0.87571300  1
  O  O24  1  0.88369800  0.99600500  0.88480400  1
  O  O25  1  0.57492400  0.97500300  0.47491500  1
  O  O26  1  0.45249000  0.04073900  0.77750000  1
  O  O27  1  0.99044900  0.05960600  0.12136000  1
  O  O28  1  0.49130000  0.19045700  0.36817800  1
  O  O29  1  0.92064800  0.21447900  0.52923400  1
  O  O30  1  0.92010600  0.28252500  0.22650200  1
  O  O31  1  0.36836600  0.24238100  0.13200300  1
  O  O32  1  0.36836600  0.25761900  0.63200300  1
  O  O33  1  0.92010600  0.21747500  0.72650200  1
  O  O34  1  0.92064800  0.28552100  0.02923400  1
  O  O35  1  0.49130000  0.30954300  0.86817800  1
  O  O36  1  0.99044900  0.44039400  0.62136000  1
  O  O37  1  0.45249000  0.45926100  0.27750000  1
  O  O38  1  0.57492400  0.52499700  0.97491500  1
  O  O39  1  0.88369800  0.50399500  0.38480400  1
  O  O40  1  0.11630200  0.49600500  0.88480400  1
  O  O41  1  0.42507600  0.47500300  0.47491500  1
  O  O42  1  0.54751000  0.54073900  0.77750000  1
  O  O43  1  0.00955100  0.55960600  0.12136000  1
  O  O44  1  0.50870000  0.69045700  0.36817800  1
  O  O45  1  0.07935200  0.71447900  0.52923400  1
  O  O46  1  0.07989400  0.78252500  0.22650200  1
  O  O47  1  0.63163400  0.74238100  0.13200300  1
  O  O48  1  0.63163400  0.75761900  0.63200300  1
  O  O49  1  0.07989400  0.71747500  0.72650200  1
  O  O50  1  0.07935200  0.78552100  0.02923400  1
  O  O51  1  0.50870000  0.80954300  0.86817800  1
  O  O52  1  0.00955100  0.94039400  0.62136000  1
  O  O53  1  0.54751000  0.95926100  0.27750000  1
  O  O54  1  0.42507600  0.02499700  0.97491500  1
  O  O55  1  0.11630200  0.00399500  0.38480400  1
