# generated using pymatgen
data_Li2Ni3TeO8
_symmetry_space_group_name_H-M   'P 1'
_cell_length_a   10.11179000
_cell_length_b   6.00267600
_cell_length_c   6.17639806
_cell_angle_alpha   90.00000000
_cell_angle_beta   127.30933486
_cell_angle_gamma   90.00000000
_symmetry_Int_Tables_number   1
_chemical_formula_structural   Li2Ni3TeO8
_chemical_formula_sum   'Li4 Ni6 Te2 O16'
_cell_volume   298.18103391
_cell_formula_units_Z   2
loop_
 _symmetry_equiv_pos_site_id
 _symmetry_equiv_pos_as_xyz
  1  'x, y, z'
loop_
 _atom_site_type_symbol
 _atom_site_label
 _atom_site_symmetry_multiplicity
 _atom_site_fract_x
 _atom_site_fract_y
 _atom_site_fract_z
 _atom_site_occupancy
  Li  Li0  1  0.50000000  0.00000000  0.50000000  1
  Li  Li1  1  0.00000000  0.00000000  0.50000000  1
  Li  Li2  1  0.00000000  0.50000000  0.50000000  1
  Li  Li3  1  0.50000000  0.50000000  0.50000000  1
  Ni  Ni4  1  0.00000000  0.50000000  0.00000000  1
  Ni  Ni5  1  0.25000000  0.25000000  0.50000000  1
  Ni  Ni6  1  0.25000000  0.75000000  0.50000000  1
  Ni  Ni7  1  0.50000000  0.00000000  0.00000000  1
  Ni  Ni8  1  0.75000000  0.75000000  0.50000000  1
  Ni  Ni9  1  0.75000000  0.25000000  0.50000000  1
  Te  Te10  1  0.00000000  0.00000000  0.00000000  1
  Te  Te11  1  0.50000000  0.50000000  0.00000000  1
  O  O12  1  0.25096600  0.00000000  0.68548800  1
  O  O13  1  0.49207750  0.73302350  0.76793600  1
  O  O14  1  0.49207750  0.26697650  0.76793600  1
  O  O15  1  0.24086200  0.00000000  0.25122700  1
  O  O16  1  0.25913800  0.50000000  0.74877300  1
  O  O17  1  0.00792250  0.23302350  0.23206400  1
  O  O18  1  0.00792250  0.76697650  0.23206400  1
  O  O19  1  0.24903400  0.50000000  0.31451200  1
  O  O20  1  0.75096600  0.50000000  0.68548800  1
  O  O21  1  0.99207750  0.23302350  0.76793600  1
  O  O22  1  0.99207750  0.76697650  0.76793600  1
  O  O23  1  0.74086200  0.50000000  0.25122700  1
  O  O24  1  0.75913800  0.00000000  0.74877300  1
  O  O25  1  0.50792250  0.73302350  0.23206400  1
  O  O26  1  0.50792250  0.26697650  0.23206400  1
  O  O27  1  0.74903400  0.00000000  0.31451200  1
