# generated using pymatgen
data_LiCo2(PO4)2
_symmetry_space_group_name_H-M   'P 1'
_cell_length_a   8.43344380
_cell_length_b   5.28068600
_cell_length_c   16.49517839
_cell_angle_alpha   90.00000000
_cell_angle_beta   104.29362178
_cell_angle_gamma   90.00000000
_symmetry_Int_Tables_number   1
_chemical_formula_structural   LiCo2(PO4)2
_chemical_formula_sum   'Li4 Co8 P8 O32'
_cell_volume   711.86143212
_cell_formula_units_Z   4
loop_
 _symmetry_equiv_pos_site_id
 _symmetry_equiv_pos_as_xyz
  1  'x, y, z'
loop_
 _atom_site_type_symbol
 _atom_site_label
 _atom_site_symmetry_multiplicity
 _atom_site_fract_x
 _atom_site_fract_y
 _atom_site_fract_z
 _atom_site_occupancy
  Li  Li0  1  0.59598000  0.85244100  0.51565900  1
  Li  Li1  1  0.59598000  0.14755900  0.01565900  1
  Li  Li2  1  0.03023000  0.33929800  0.74963200  1
  Li  Li3  1  0.03023000  0.66070200  0.24963200  1
  Co  Co4  1  0.26779200  0.31457200  0.06229600  1
  Co  Co5  1  0.78809000  0.33582300  0.56649300  1
  Co  Co6  1  0.68980100  0.81608100  0.31242400  1
  Co  Co7  1  0.78809000  0.66417700  0.06649300  1
  Co  Co8  1  0.19837900  0.82552400  0.81994800  1
  Co  Co9  1  0.26779200  0.68542800  0.56229600  1
  Co  Co10  1  0.19837900  0.17447600  0.31994800  1
  Co  Co11  1  0.68980100  0.18391900  0.81242400  1
  P  P12  1  0.38172700  0.66957000  0.37960500  1
  P  P13  1  0.46370700  0.81664000  0.12560900  1
  P  P14  1  0.88445400  0.67750900  0.87868600  1
  P  P15  1  0.96409400  0.83084400  0.63215600  1
  P  P16  1  0.88445400  0.32249100  0.37868600  1
  P  P17  1  0.96409400  0.16915600  0.13215600  1
  P  P18  1  0.38172700  0.33043000  0.87960500  1
  P  P19  1  0.46370700  0.18336000  0.62560900  1
  O  O20  1  0.06501600  0.19200600  0.06402300  1
  O  O21  1  0.38684100  0.39123200  0.35605600  1
  O  O22  1  0.30803000  0.65166800  0.09433400  1
  O  O23  1  0.57058300  0.18942800  0.56141900  1
  O  O24  1  0.55395300  0.79459100  0.38903500  1
  O  O25  1  0.41186500  0.09391300  0.13756400  1
  O  O26  1  0.87123400  0.41114400  0.83257700  1
  O  O27  1  0.56171300  0.70751900  0.21027200  1
  O  O28  1  0.79575300  0.70470300  0.59349100  1
  O  O29  1  0.57058300  0.81057200  0.06141900  1
  O  O30  1  0.06157300  0.76773400  0.89599000  1
  O  O31  1  0.76891800  0.14093400  0.31435700  1
  O  O32  1  0.93870600  0.11549500  0.65063600  1
  O  O33  1  0.82239300  0.33526500  0.45736200  1
  O  O34  1  0.05645900  0.69034200  0.71197900  1
  O  O35  1  0.87123400  0.58885600  0.33257700  1
  O  O36  1  0.79575300  0.29529700  0.09349100  1
  O  O37  1  0.06501600  0.80799400  0.56402300  1
  O  O38  1  0.24356400  0.19092300  0.81568800  1
  O  O39  1  0.36170700  0.28850100  0.97091300  1
  O  O40  1  0.06157300  0.23226600  0.39599000  1
  O  O41  1  0.93870600  0.88450500  0.15063600  1
  O  O42  1  0.38684100  0.60876800  0.85605600  1
  O  O43  1  0.05645900  0.30965800  0.21197900  1
  O  O44  1  0.30803000  0.34833200  0.59433400  1
  O  O45  1  0.55395300  0.20540900  0.88903500  1
  O  O46  1  0.24356400  0.80907700  0.31568800  1
  O  O47  1  0.41186500  0.90608700  0.63756400  1
  O  O48  1  0.36170700  0.71149900  0.47091300  1
  O  O49  1  0.56171300  0.29248100  0.71027200  1
  O  O50  1  0.76891800  0.85906600  0.81435700  1
  O  O51  1  0.82239300  0.66473500  0.95736200  1
