# generated using pymatgen
data_Li2FeF6
_symmetry_space_group_name_H-M   'P 1'
_cell_length_a   15.22324800
_cell_length_b   8.67526000
_cell_length_c   4.50803193
_cell_angle_alpha   90.00000000
_cell_angle_beta   90.80680094
_cell_angle_gamma   90.00000000
_symmetry_Int_Tables_number   1
_chemical_formula_structural   Li2FeF6
_chemical_formula_sum   'Li12 Fe6 F36'
_cell_volume   595.29707284
_cell_formula_units_Z   6
loop_
 _symmetry_equiv_pos_site_id
 _symmetry_equiv_pos_as_xyz
  1  'x, y, z'
loop_
 _atom_site_type_symbol
 _atom_site_label
 _atom_site_symmetry_multiplicity
 _atom_site_fract_x
 _atom_site_fract_y
 _atom_site_fract_z
 _atom_site_occupancy
  Li  Li0  1  0.67409200  0.66693400  0.00514200  1
  Li  Li1  1  0.82590800  0.83306600  0.99485800  1
  Li  Li2  1  0.82590800  0.16693400  0.99485800  1
  Li  Li3  1  0.00000000  0.34885100  0.00000000  1
  Li  Li4  1  0.67409200  0.33306600  0.00514200  1
  Li  Li5  1  0.00000000  0.65114900  0.00000000  1
  Li  Li6  1  0.17409200  0.16693400  0.00514200  1
  Li  Li7  1  0.32590800  0.33306600  0.99485800  1
  Li  Li8  1  0.32590800  0.66693400  0.99485800  1
  Li  Li9  1  0.50000000  0.84885100  0.00000000  1
  Li  Li10  1  0.17409200  0.83306600  0.00514200  1
  Li  Li11  1  0.50000000  0.15114900  0.00000000  1
  Fe  Fe12  1  0.66691300  0.00000000  0.49424100  1
  Fe  Fe13  1  0.00000000  0.00000000  0.00000000  1
  Fe  Fe14  1  0.83308700  0.50000000  0.50575900  1
  Fe  Fe15  1  0.16691300  0.50000000  0.49424100  1
  Fe  Fe16  1  0.50000000  0.50000000  0.00000000  1
  Fe  Fe17  1  0.33308700  0.00000000  0.50575900  1
  F  F18  1  0.55121700  0.65678900  0.21857200  1
  F  F19  1  0.71751100  0.84587800  0.25386000  1
  F  F20  1  0.61752000  0.84492900  0.73009900  1
  F  F21  1  0.77236100  0.00000000  0.74460300  1
  F  F22  1  0.89666000  0.00000000  0.21704600  1
  F  F23  1  0.56193900  0.00000000  0.24205900  1
  F  F24  1  0.94878300  0.15678900  0.78142800  1
  F  F25  1  0.61752000  0.15507100  0.73009900  1
  F  F26  1  0.71751100  0.15412200  0.25386000  1
  F  F27  1  0.78248900  0.34587800  0.74614000  1
  F  F28  1  0.88248000  0.34492900  0.26990100  1
  F  F29  1  0.55121700  0.34321100  0.21857200  1
  F  F30  1  0.60334000  0.50000000  0.78295400  1
  F  F31  1  0.72763900  0.50000000  0.25539700  1
  F  F32  1  0.93806100  0.50000000  0.75794100  1
  F  F33  1  0.88248000  0.65507100  0.26990100  1
  F  F34  1  0.78248900  0.65412200  0.74614000  1
  F  F35  1  0.94878300  0.84321100  0.78142800  1
  F  F36  1  0.05121700  0.15678900  0.21857200  1
  F  F37  1  0.21751100  0.34587800  0.25386000  1
  F  F38  1  0.11752000  0.34492900  0.73009900  1
  F  F39  1  0.27236100  0.50000000  0.74460300  1
  F  F40  1  0.39666000  0.50000000  0.21704600  1
  F  F41  1  0.06193900  0.50000000  0.24205900  1
  F  F42  1  0.44878300  0.65678900  0.78142800  1
  F  F43  1  0.11752000  0.65507100  0.73009900  1
  F  F44  1  0.21751100  0.65412200  0.25386000  1
  F  F45  1  0.28248900  0.84587800  0.74614000  1
  F  F46  1  0.38248000  0.84492900  0.26990100  1
  F  F47  1  0.05121700  0.84321100  0.21857200  1
  F  F48  1  0.10334000  0.00000000  0.78295400  1
  F  F49  1  0.22763900  0.00000000  0.25539700  1
  F  F50  1  0.43806100  0.00000000  0.75794100  1
  F  F51  1  0.38248000  0.15507100  0.26990100  1
  F  F52  1  0.28248900  0.15412200  0.74614000  1
  F  F53  1  0.44878300  0.34321100  0.78142800  1
