# generated using pymatgen
data_Co3(O2F)2
_symmetry_space_group_name_H-M   'P 1'
_cell_length_a   9.03431200
_cell_length_b   6.08584800
_cell_length_c   7.42490839
_cell_angle_alpha   90.00000000
_cell_angle_beta   115.90583113
_cell_angle_gamma   90.00000000
_symmetry_Int_Tables_number   1
_chemical_formula_structural   Co3(O2F)2
_chemical_formula_sum   'Co12 O16 F8'
_cell_volume   367.21032562
_cell_formula_units_Z   4
loop_
 _symmetry_equiv_pos_site_id
 _symmetry_equiv_pos_as_xyz
  1  'x, y, z'
loop_
 _atom_site_type_symbol
 _atom_site_label
 _atom_site_symmetry_multiplicity
 _atom_site_fract_x
 _atom_site_fract_y
 _atom_site_fract_z
 _atom_site_occupancy
  Co  Co0  1  0.17891700  0.50000000  0.14237100  1
  Co  Co1  1  0.15897100  0.50000000  0.67474400  1
  Co  Co2  1  0.83706700  0.50000000  0.34546800  1
  Co  Co3  1  0.83888000  0.50000000  0.82155700  1
  Co  Co4  1  0.49739000  0.50000000  0.50334600  1
  Co  Co5  1  0.49224800  0.50000000  0.00310400  1
  Co  Co6  1  0.67891700  0.00000000  0.14237100  1
  Co  Co7  1  0.65897100  0.00000000  0.67474400  1
  Co  Co8  1  0.33706700  0.00000000  0.34546800  1
  Co  Co9  1  0.33888000  0.00000000  0.82155700  1
  Co  Co10  1  0.99739000  0.00000000  0.50334600  1
  Co  Co11  1  0.99224800  0.00000000  0.00310400  1
  O  O12  1  0.16499700  0.19504600  0.66958400  1
  O  O13  1  0.83604300  0.19396900  0.33144000  1
  O  O14  1  0.94304600  0.50000000  0.62839400  1
  O  O15  1  0.26398400  0.50000000  0.95112800  1
  O  O16  1  0.16499700  0.80495400  0.66958400  1
  O  O17  1  0.83604300  0.80603100  0.33144000  1
  O  O18  1  0.99973150  0.30657150  0.99742800  1
  O  O19  1  0.99973150  0.69342850  0.99742800  1
  O  O20  1  0.66499700  0.69504600  0.66958400  1
  O  O21  1  0.33604300  0.69396900  0.33144000  1
  O  O22  1  0.44304600  0.00000000  0.62839400  1
  O  O23  1  0.76398400  0.00000000  0.95112800  1
  O  O24  1  0.66499700  0.30495400  0.66958400  1
  O  O25  1  0.33604300  0.30603100  0.33144000  1
  O  O26  1  0.49973150  0.80657150  0.99742800  1
  O  O27  1  0.49973150  0.19342850  0.99742800  1
  F  F28  1  0.07663300  0.50000000  0.38711000  1
  F  F29  1  0.38174200  0.50000000  0.69483500  1
  F  F30  1  0.72801100  0.50000000  0.04637700  1
  F  F31  1  0.60156900  0.50000000  0.30466000  1
  F  F32  1  0.57663300  0.00000000  0.38711000  1
  F  F33  1  0.88174200  0.00000000  0.69483500  1
  F  F34  1  0.22801100  0.00000000  0.04637700  1
  F  F35  1  0.10156900  0.00000000  0.30466000  1
