# generated using pymatgen
data_Fe4O7F
_symmetry_space_group_name_H-M   'P 1'
_cell_length_a   6.00754400
_cell_length_b   13.35992400
_cell_length_c   6.43377400
_cell_angle_alpha   90.00000000
_cell_angle_beta   90.00000000
_cell_angle_gamma   90.00000000
_symmetry_Int_Tables_number   1
_chemical_formula_structural   Fe4O7F
_chemical_formula_sum   'Fe16 O28 F4'
_cell_volume   516.37683253
_cell_formula_units_Z   4
loop_
 _symmetry_equiv_pos_site_id
 _symmetry_equiv_pos_as_xyz
  1  'x, y, z'
loop_
 _atom_site_type_symbol
 _atom_site_label
 _atom_site_symmetry_multiplicity
 _atom_site_fract_x
 _atom_site_fract_y
 _atom_site_fract_z
 _atom_site_occupancy
  Fe  Fe0  1  0.24444150  0.75423250  0.00000000  1
  Fe  Fe1  1  0.75555850  0.75423250  0.00000000  1
  Fe  Fe2  1  0.50000000  0.75266700  0.50000000  1
  Fe  Fe3  1  0.00000000  0.74166800  0.50000000  1
  Fe  Fe4  1  0.00000000  0.99312900  0.00000000  1
  Fe  Fe5  1  0.00000000  0.50037600  0.00000000  1
  Fe  Fe6  1  0.75478050  0.50391050  0.50000000  1
  Fe  Fe7  1  0.24521950  0.50391050  0.50000000  1
  Fe  Fe8  1  0.74444150  0.25423250  0.00000000  1
  Fe  Fe9  1  0.25555850  0.25423250  0.00000000  1
  Fe  Fe10  1  0.00000000  0.25266700  0.50000000  1
  Fe  Fe11  1  0.50000000  0.24166800  0.50000000  1
  Fe  Fe12  1  0.50000000  0.49312900  0.00000000  1
  Fe  Fe13  1  0.50000000  0.00037600  0.00000000  1
  Fe  Fe14  1  0.25478050  0.00391050  0.50000000  1
  Fe  Fe15  1  0.74521950  0.00391050  0.50000000  1
  O  O16  1  0.00000000  0.84824200  0.00000000  1
  O  O17  1  0.50000000  0.84302100  0.00000000  1
  O  O18  1  0.25329700  0.75000400  0.69208300  1
  O  O19  1  0.74670300  0.75000400  0.69208300  1
  O  O20  1  0.25329700  0.75000400  0.30791700  1
  O  O21  1  0.24715750  0.99975350  0.80632700  1
  O  O22  1  0.75284250  0.99975350  0.80632700  1
  O  O23  1  0.74670300  0.75000400  0.30791700  1
  O  O24  1  0.00000000  0.65741800  0.00000000  1
  O  O25  1  0.50000000  0.90729200  0.50000000  1
  O  O26  1  0.00000000  0.59774700  0.50000000  1
  O  O27  1  0.50000000  0.59340700  0.50000000  1
  O  O28  1  0.24715750  0.99975350  0.19367300  1
  O  O29  1  0.75284250  0.99975350  0.19367300  1
  O  O30  1  0.50000000  0.34824200  0.00000000  1
  O  O31  1  0.00000000  0.34302100  0.00000000  1
  O  O32  1  0.75329700  0.25000400  0.69208300  1
  O  O33  1  0.24670300  0.25000400  0.69208300  1
  O  O34  1  0.75329700  0.25000400  0.30791700  1
  O  O35  1  0.74715750  0.49975350  0.80632700  1
  O  O36  1  0.25284250  0.49975350  0.80632700  1
  O  O37  1  0.24670300  0.25000400  0.30791700  1
  O  O38  1  0.50000000  0.15741800  0.00000000  1
  O  O39  1  0.00000000  0.40729200  0.50000000  1
  O  O40  1  0.50000000  0.09774700  0.50000000  1
  O  O41  1  0.00000000  0.09340700  0.50000000  1
  O  O42  1  0.74715750  0.49975350  0.19367300  1
  O  O43  1  0.25284250  0.49975350  0.19367300  1
  F  F44  1  0.50000000  0.65085600  0.00000000  1
  F  F45  1  0.00000000  0.89886100  0.50000000  1
  F  F46  1  0.00000000  0.15085600  0.00000000  1
  F  F47  1  0.50000000  0.39886100  0.50000000  1
