# generated using pymatgen
data_Fe2OF3
_symmetry_space_group_name_H-M   'P 1'
_cell_length_a   6.80203800
_cell_length_b   6.95463400
_cell_length_c   12.40846300
_cell_angle_alpha   90.00000000
_cell_angle_beta   90.00000000
_cell_angle_gamma   90.00000000
_symmetry_Int_Tables_number   1
_chemical_formula_structural   Fe2OF3
_chemical_formula_sum   'Fe16 O8 F24'
_cell_volume   586.99083884
_cell_formula_units_Z   8
loop_
 _symmetry_equiv_pos_site_id
 _symmetry_equiv_pos_as_xyz
  1  'x, y, z'
loop_
 _atom_site_type_symbol
 _atom_site_label
 _atom_site_symmetry_multiplicity
 _atom_site_fract_x
 _atom_site_fract_y
 _atom_site_fract_z
 _atom_site_occupancy
  Fe  Fe0  1  0.97196200  0.00000000  0.00000000  1
  Fe  Fe1  1  0.02409500  0.00000000  0.25035300  1
  Fe  Fe2  1  0.01025800  0.00000000  0.50000000  1
  Fe  Fe3  1  0.02409500  0.00000000  0.74964700  1
  Fe  Fe4  1  0.47458900  0.00000000  0.62492300  1
  Fe  Fe5  1  0.50019400  0.00000000  0.12435000  1
  Fe  Fe6  1  0.50019400  0.00000000  0.87565000  1
  Fe  Fe7  1  0.47458900  0.00000000  0.37507700  1
  Fe  Fe8  1  0.47196200  0.50000000  0.00000000  1
  Fe  Fe9  1  0.52409500  0.50000000  0.25035300  1
  Fe  Fe10  1  0.51025800  0.50000000  0.50000000  1
  Fe  Fe11  1  0.52409500  0.50000000  0.74964700  1
  Fe  Fe12  1  0.97458900  0.50000000  0.62492300  1
  Fe  Fe13  1  0.00019400  0.50000000  0.12435000  1
  Fe  Fe14  1  0.00019400  0.50000000  0.87565000  1
  Fe  Fe15  1  0.97458900  0.50000000  0.37507700  1
  O  O16  1  0.31230600  0.00000000  0.50000000  1
  O  O17  1  0.32084000  0.00000000  0.24644000  1
  O  O18  1  0.32084000  0.00000000  0.75356000  1
  O  O19  1  0.66884900  0.00000000  0.00000000  1
  O  O20  1  0.81230600  0.50000000  0.50000000  1
  O  O21  1  0.82084000  0.50000000  0.24644000  1
  O  O22  1  0.82084000  0.50000000  0.75356000  1
  O  O23  1  0.16884900  0.50000000  0.00000000  1
  F  F24  1  0.49744300  0.29582500  0.12418300  1
  F  F25  1  0.50294400  0.29174500  0.37585500  1
  F  F26  1  0.50294400  0.29174500  0.62414500  1
  F  F27  1  0.49744300  0.29582500  0.87581700  1
  F  F28  1  0.29290300  0.00000000  0.00000000  1
  F  F29  1  0.70513900  0.00000000  0.25120700  1
  F  F30  1  0.69245700  0.00000000  0.50000000  1
  F  F31  1  0.70513900  0.00000000  0.74879300  1
  F  F32  1  0.50294400  0.70825500  0.37585500  1
  F  F33  1  0.50294400  0.70825500  0.62414500  1
  F  F34  1  0.49744300  0.70417500  0.12418300  1
  F  F35  1  0.49744300  0.70417500  0.87581700  1
  F  F36  1  0.99744300  0.79582500  0.12418300  1
  F  F37  1  0.00294400  0.79174500  0.37585500  1
  F  F38  1  0.00294400  0.79174500  0.62414500  1
  F  F39  1  0.99744300  0.79582500  0.87581700  1
  F  F40  1  0.79290300  0.50000000  0.00000000  1
  F  F41  1  0.20513900  0.50000000  0.25120700  1
  F  F42  1  0.19245700  0.50000000  0.50000000  1
  F  F43  1  0.20513900  0.50000000  0.74879300  1
  F  F44  1  0.00294400  0.20825500  0.37585500  1
  F  F45  1  0.00294400  0.20825500  0.62414500  1
  F  F46  1  0.99744300  0.20417500  0.12418300  1
  F  F47  1  0.99744300  0.20417500  0.87581700  1
