# generated using pymatgen
data_Li3Co(CuO2)4
_symmetry_space_group_name_H-M   'P 1'
_cell_length_a   10.65821600
_cell_length_b   5.65912600
_cell_length_c   5.54599311
_cell_angle_alpha   90.00000000
_cell_angle_beta   119.26551211
_cell_angle_gamma   90.00000000
_symmetry_Int_Tables_number   1
_chemical_formula_structural   Li3Co(CuO2)4
_chemical_formula_sum   'Li6 Co2 Cu8 O16'
_cell_volume   291.81713295
_cell_formula_units_Z   2
loop_
 _symmetry_equiv_pos_site_id
 _symmetry_equiv_pos_as_xyz
  1  'x, y, z'
loop_
 _atom_site_type_symbol
 _atom_site_label
 _atom_site_symmetry_multiplicity
 _atom_site_fract_x
 _atom_site_fract_y
 _atom_site_fract_z
 _atom_site_occupancy
  Li  Li0  1  0.25000000  0.75000000  0.00000000  1
  Li  Li1  1  0.00000000  0.00000000  0.50000000  1
  Li  Li2  1  0.25000000  0.25000000  0.00000000  1
  Li  Li3  1  0.75000000  0.25000000  0.00000000  1
  Li  Li4  1  0.50000000  0.50000000  0.50000000  1
  Li  Li5  1  0.75000000  0.75000000  0.00000000  1
  Co  Co6  1  0.00000000  0.50000000  0.00000000  1
  Co  Co7  1  0.50000000  0.00000000  0.00000000  1
  Cu  Cu8  1  0.00000000  0.50000000  0.50000000  1
  Cu  Cu9  1  0.00000000  0.00000000  0.00000000  1
  Cu  Cu10  1  0.25000000  0.75000000  0.50000000  1
  Cu  Cu11  1  0.25000000  0.25000000  0.50000000  1
  Cu  Cu12  1  0.50000000  0.00000000  0.50000000  1
  Cu  Cu13  1  0.50000000  0.50000000  0.00000000  1
  Cu  Cu14  1  0.75000000  0.25000000  0.50000000  1
  Cu  Cu15  1  0.75000000  0.75000000  0.50000000  1
  O  O16  1  0.20527600  0.50000000  0.23780600  1
  O  O17  1  0.02681600  0.73031200  0.77188700  1
  O  O18  1  0.02681600  0.26968800  0.77188700  1
  O  O19  1  0.20597600  0.00000000  0.24145000  1
  O  O20  1  0.29402400  0.50000000  0.75855000  1
  O  O21  1  0.47318400  0.23031200  0.22811300  1
  O  O22  1  0.47318400  0.76968800  0.22811300  1
  O  O23  1  0.29472400  0.00000000  0.76219400  1
  O  O24  1  0.70527600  0.00000000  0.23780600  1
  O  O25  1  0.52681600  0.23031200  0.77188700  1
  O  O26  1  0.52681600  0.76968800  0.77188700  1
  O  O27  1  0.70597600  0.50000000  0.24145000  1
  O  O28  1  0.79402400  0.00000000  0.75855000  1
  O  O29  1  0.97318400  0.73031200  0.22811300  1
  O  O30  1  0.97318400  0.26968800  0.22811300  1
  O  O31  1  0.79472400  0.50000000  0.76219400  1
