# generated using pymatgen
data_Sr4Li4Nb5FeO20
_symmetry_space_group_name_H-M   'P 1'
_cell_length_a   5.67386600
_cell_length_b   26.40419000
_cell_length_c   5.67369200
_cell_angle_alpha   90.00000000
_cell_angle_beta   90.00037364
_cell_angle_gamma   90.00000000
_symmetry_Int_Tables_number   1
_chemical_formula_structural   Sr4Li4Nb5FeO20
_chemical_formula_sum   'Sr8 Li8 Nb10 Fe2 O40'
_cell_volume   849.99756223
_cell_formula_units_Z   2
loop_
 _symmetry_equiv_pos_site_id
 _symmetry_equiv_pos_as_xyz
  1  'x, y, z'
loop_
 _atom_site_type_symbol
 _atom_site_label
 _atom_site_symmetry_multiplicity
 _atom_site_fract_x
 _atom_site_fract_y
 _atom_site_fract_z
 _atom_site_occupancy
  Sr  Sr0  1  0.00000000  0.42378700  0.00000000  1
  Sr  Sr1  1  0.50000000  0.07621300  0.00000000  1
  Sr  Sr2  1  0.50000000  0.42379100  0.50000000  1
  Sr  Sr3  1  0.00000000  0.07620900  0.50000000  1
  Sr  Sr4  1  0.50000000  0.92378700  0.00000000  1
  Sr  Sr5  1  0.00000000  0.57621300  0.00000000  1
  Sr  Sr6  1  0.00000000  0.92379100  0.50000000  1
  Sr  Sr7  1  0.50000000  0.57620900  0.50000000  1
  Li  Li8  1  0.25003350  0.25000050  0.25418200  1
  Li  Li9  1  0.74996650  0.25000050  0.74581800  1
  Li  Li10  1  0.75003350  0.24999950  0.25418200  1
  Li  Li11  1  0.24996650  0.24999950  0.74581800  1
  Li  Li12  1  0.75003350  0.75000050  0.25418200  1
  Li  Li13  1  0.24996650  0.75000050  0.74581800  1
  Li  Li14  1  0.25003350  0.74999950  0.25418200  1
  Li  Li15  1  0.74996650  0.74999950  0.74581800  1
  Nb  Nb16  1  0.00000000  0.00000000  0.00000000  1
  Nb  Nb17  1  0.00000000  0.15900400  0.00000000  1
  Nb  Nb18  1  0.50000000  0.34099600  0.00000000  1
  Nb  Nb19  1  0.50000000  0.15571700  0.50000000  1
  Nb  Nb20  1  0.00000000  0.34428300  0.50000000  1
  Nb  Nb21  1  0.50000000  0.50000000  0.00000000  1
  Nb  Nb22  1  0.50000000  0.65900400  0.00000000  1
  Nb  Nb23  1  0.00000000  0.84099600  0.00000000  1
  Nb  Nb24  1  0.00000000  0.65571700  0.50000000  1
  Nb  Nb25  1  0.50000000  0.84428300  0.50000000  1
  Fe  Fe26  1  0.50000000  0.00000000  0.50000000  1
  Fe  Fe27  1  0.00000000  0.50000000  0.50000000  1
  O  O28  1  0.71764500  0.00000000  0.21375200  1
  O  O29  1  0.00000000  0.07620300  0.00000000  1
  O  O30  1  0.24917250  0.15006250  0.24779300  1
  O  O31  1  0.00000000  0.23042900  0.00000000  1
  O  O32  1  0.25233200  0.34993600  0.24929800  1
  O  O33  1  0.50000000  0.42379700  0.00000000  1
  O  O34  1  0.50000000  0.26957100  0.00000000  1
  O  O35  1  0.21375900  0.00000000  0.28235200  1
  O  O36  1  0.50000000  0.22827300  0.50000000  1
  O  O37  1  0.75082750  0.15006250  0.75220700  1
  O  O38  1  0.75233200  0.15006400  0.24929800  1
  O  O39  1  0.00000000  0.42294800  0.50000000  1
  O  O40  1  0.74917250  0.34993750  0.24779300  1
  O  O41  1  0.50000000  0.07705200  0.50000000  1
  O  O42  1  0.74766800  0.34993600  0.75070200  1
  O  O43  1  0.00000000  0.27172700  0.50000000  1
  O  O44  1  0.78624100  0.00000000  0.71764800  1
  O  O45  1  0.28235500  0.00000000  0.78624800  1
  O  O46  1  0.24766800  0.15006400  0.75070200  1
  O  O47  1  0.25082750  0.34993750  0.75220700  1
  O  O48  1  0.21764500  0.50000000  0.21375200  1
  O  O49  1  0.50000000  0.57620300  0.00000000  1
  O  O50  1  0.74917250  0.65006250  0.24779300  1
  O  O51  1  0.50000000  0.73042900  0.00000000  1
  O  O52  1  0.75233200  0.84993600  0.24929800  1
  O  O53  1  0.00000000  0.92379700  0.00000000  1
  O  O54  1  0.00000000  0.76957100  0.00000000  1
  O  O55  1  0.71375900  0.50000000  0.28235200  1
  O  O56  1  0.00000000  0.72827300  0.50000000  1
  O  O57  1  0.25082750  0.65006250  0.75220700  1
  O  O58  1  0.25233200  0.65006400  0.24929800  1
  O  O59  1  0.50000000  0.92294800  0.50000000  1
  O  O60  1  0.24917250  0.84993750  0.24779300  1
  O  O61  1  0.00000000  0.57705200  0.50000000  1
  O  O62  1  0.24766800  0.84993600  0.75070200  1
  O  O63  1  0.50000000  0.77172700  0.50000000  1
  O  O64  1  0.28624100  0.50000000  0.71764800  1
  O  O65  1  0.78235500  0.50000000  0.78624800  1
  O  O66  1  0.74766800  0.65006400  0.75070200  1
  O  O67  1  0.75082750  0.84993750  0.75220700  1
