# generated using pymatgen
data_Li3FeCo3O8
_symmetry_space_group_name_H-M   'P 1'
_cell_length_a   5.89696219
_cell_length_b   5.89696219
_cell_length_c   14.72256436
_cell_angle_alpha   90.00000000
_cell_angle_beta   90.00000000
_cell_angle_gamma   120.00000000
_symmetry_Int_Tables_number   1
_chemical_formula_structural   Li3FeCo3O8
_chemical_formula_sum   'Li9 Fe3 Co9 O24'
_cell_volume   443.37456934
_cell_formula_units_Z   3
loop_
 _symmetry_equiv_pos_site_id
 _symmetry_equiv_pos_as_xyz
  1  'x, y, z'
loop_
 _atom_site_type_symbol
 _atom_site_label
 _atom_site_symmetry_multiplicity
 _atom_site_fract_x
 _atom_site_fract_y
 _atom_site_fract_z
 _atom_site_occupancy
  Li  Li0  1  0.83333333  0.16666667  0.16666667  1
  Li  Li1  1  0.33333333  0.16666667  0.16666667  1
  Li  Li2  1  0.83333333  0.66666667  0.16666667  1
  Li  Li3  1  0.50000000  0.50000000  0.50000000  1
  Li  Li4  1  0.00000000  0.50000000  0.50000000  1
  Li  Li5  1  0.50000000  0.00000000  0.50000000  1
  Li  Li6  1  0.16666667  0.83333333  0.83333333  1
  Li  Li7  1  0.66666667  0.83333333  0.83333333  1
  Li  Li8  1  0.16666667  0.33333333  0.83333333  1
  Fe  Fe9  1  0.00000000  0.00000000  0.00000000  1
  Fe  Fe10  1  0.66666667  0.33333333  0.33333333  1
  Fe  Fe11  1  0.33333333  0.66666667  0.66666667  1
  Co  Co12  1  0.50000000  0.00000000  0.00000000  1
  Co  Co13  1  0.50000000  0.50000000  0.00000000  1
  Co  Co14  1  0.00000000  0.50000000  0.00000000  1
  Co  Co15  1  0.16666667  0.33333333  0.33333333  1
  Co  Co16  1  0.16666667  0.83333333  0.33333333  1
  Co  Co17  1  0.66666667  0.83333333  0.33333333  1
  Co  Co18  1  0.83333333  0.66666667  0.66666667  1
  Co  Co19  1  0.83333333  0.16666667  0.66666667  1
  Co  Co20  1  0.33333333  0.16666667  0.66666667  1
  O  O21  1  0.67497333  0.83748667  0.07209867  1
  O  O22  1  0.16251333  0.83748667  0.07209867  1
  O  O23  1  0.16251333  0.32502667  0.07209867  1
  O  O24  1  0.66666667  0.33333333  0.07779833  1
  O  O25  1  0.00000000  0.00000000  0.25553500  1
  O  O26  1  0.50415333  0.00830667  0.26123467  1
  O  O27  1  0.50415333  0.49584667  0.26123467  1
  O  O28  1  0.99169333  0.49584667  0.26123467  1
  O  O29  1  0.34164000  0.17082000  0.40543200  1
  O  O30  1  0.82918000  0.17082000  0.40543200  1
  O  O31  1  0.82918000  0.65836000  0.40543200  1
  O  O32  1  0.33333333  0.66666667  0.41113167  1
  O  O33  1  0.66666667  0.33333333  0.58886833  1
  O  O34  1  0.17082000  0.34164000  0.59456800  1
  O  O35  1  0.17082000  0.82918000  0.59456800  1
  O  O36  1  0.65836000  0.82918000  0.59456800  1
  O  O37  1  0.00830667  0.50415333  0.73876533  1
  O  O38  1  0.49584667  0.50415333  0.73876533  1
  O  O39  1  0.49584667  0.99169333  0.73876533  1
  O  O40  1  0.00000000  0.00000000  0.74446500  1
  O  O41  1  0.33333333  0.66666667  0.92220167  1
  O  O42  1  0.83748667  0.67497333  0.92790133  1
  O  O43  1  0.83748667  0.16251333  0.92790133  1
  O  O44  1  0.32502667  0.16251333  0.92790133  1
