# generated using pymatgen
data_Li2Fe(CO3)2
_symmetry_space_group_name_H-M   'P 1'
_cell_length_a   5.40201200
_cell_length_b   10.89229200
_cell_length_c   16.52041000
_cell_angle_alpha   90.00000000
_cell_angle_beta   90.00000000
_cell_angle_gamma   90.00000000
_symmetry_Int_Tables_number   1
_chemical_formula_structural   Li2Fe(CO3)2
_chemical_formula_sum   'Li16 Fe8 C16 O48'
_cell_volume   972.06574987
_cell_formula_units_Z   8
loop_
 _symmetry_equiv_pos_site_id
 _symmetry_equiv_pos_as_xyz
  1  'x, y, z'
loop_
 _atom_site_type_symbol
 _atom_site_label
 _atom_site_symmetry_multiplicity
 _atom_site_fract_x
 _atom_site_fract_y
 _atom_site_fract_z
 _atom_site_occupancy
  Li  Li0  1  0.34421500  0.04218500  0.82084700  1
  Li  Li1  1  0.09421500  0.20781500  0.57084700  1
  Li  Li2  1  0.09421500  0.29218500  0.92915300  1
  Li  Li3  1  0.34421500  0.45781500  0.67915300  1
  Li  Li4  1  0.84421500  0.04218500  0.32084700  1
  Li  Li5  1  0.59421500  0.20781500  0.07084700  1
  Li  Li6  1  0.59421500  0.29218500  0.42915300  1
  Li  Li7  1  0.84421500  0.45781500  0.17915300  1
  Li  Li8  1  0.84421500  0.54218500  0.82084700  1
  Li  Li9  1  0.59421500  0.70781500  0.57084700  1
  Li  Li10  1  0.59421500  0.79218500  0.92915300  1
  Li  Li11  1  0.84421500  0.95781500  0.67915300  1
  Li  Li12  1  0.34421500  0.54218500  0.32084700  1
  Li  Li13  1  0.09421500  0.70781500  0.07084700  1
  Li  Li14  1  0.09421500  0.79218500  0.42915300  1
  Li  Li15  1  0.34421500  0.95781500  0.17915300  1
  Fe  Fe16  1  0.67180700  0.25000000  0.75000000  1
  Fe  Fe17  1  0.42180700  0.00000000  0.50000000  1
  Fe  Fe18  1  0.17180700  0.25000000  0.25000000  1
  Fe  Fe19  1  0.92180700  0.00000000  0.00000000  1
  Fe  Fe20  1  0.17180700  0.75000000  0.75000000  1
  Fe  Fe21  1  0.92180700  0.50000000  0.50000000  1
  Fe  Fe22  1  0.67180700  0.75000000  0.25000000  1
  Fe  Fe23  1  0.42180700  0.50000000  0.00000000  1
  C  C24  1  0.80140850  0.03359200  0.85306650  1
  C  C25  1  0.55140850  0.21640800  0.60306650  1
  C  C26  1  0.55140850  0.28359200  0.89693350  1
  C  C27  1  0.80140850  0.46640800  0.64693350  1
  C  C28  1  0.30140850  0.03359200  0.35306650  1
  C  C29  1  0.05140850  0.21640800  0.10306650  1
  C  C30  1  0.05140850  0.28359200  0.39693350  1
  C  C31  1  0.30140850  0.46640800  0.14693350  1
  C  C32  1  0.30140850  0.53359200  0.85306650  1
  C  C33  1  0.05140850  0.71640800  0.60306650  1
  C  C34  1  0.05140850  0.78359200  0.89693350  1
  C  C35  1  0.30140850  0.96640800  0.64693350  1
  C  C36  1  0.80140850  0.53359200  0.35306650  1
  C  C37  1  0.55140850  0.71640800  0.10306650  1
  C  C38  1  0.55140850  0.78359200  0.39693350  1
  C  C39  1  0.80140850  0.96640800  0.14693350  1
  O  O40  1  0.63267150  0.00162550  0.90587200  1
  O  O41  1  0.02751500  0.03985450  0.87727450  1
  O  O42  1  0.73453850  0.05930400  0.77914050  1
  O  O43  1  0.48453850  0.19069600  0.52914050  1
  O  O44  1  0.77751500  0.21014550  0.62727450  1
  O  O45  1  0.38267150  0.24837450  0.65587200  1
  O  O46  1  0.38267150  0.25162550  0.84412800  1
  O  O47  1  0.77751500  0.28985450  0.87272550  1
  O  O48  1  0.48453850  0.30930400  0.97085950  1
  O  O49  1  0.73453850  0.44069600  0.72085950  1
  O  O50  1  0.02751500  0.46014550  0.62272550  1
  O  O51  1  0.63267150  0.49837450  0.59412800  1
  O  O52  1  0.13267150  0.00162550  0.40587200  1
  O  O53  1  0.52751500  0.03985450  0.37727450  1
  O  O54  1  0.23453850  0.05930400  0.27914050  1
  O  O55  1  0.98453850  0.19069600  0.02914050  1
  O  O56  1  0.27751500  0.21014550  0.12727450  1
  O  O57  1  0.88267150  0.24837450  0.15587200  1
  O  O58  1  0.88267150  0.25162550  0.34412800  1
  O  O59  1  0.27751500  0.28985450  0.37272550  1
  O  O60  1  0.98453850  0.30930400  0.47085950  1
  O  O61  1  0.23453850  0.44069600  0.22085950  1
  O  O62  1  0.52751500  0.46014550  0.12272550  1
  O  O63  1  0.13267150  0.49837450  0.09412800  1
  O  O64  1  0.13267150  0.50162550  0.90587200  1
  O  O65  1  0.52751500  0.53985450  0.87727450  1
  O  O66  1  0.23453850  0.55930400  0.77914050  1
  O  O67  1  0.98453850  0.69069600  0.52914050  1
  O  O68  1  0.27751500  0.71014550  0.62727450  1
  O  O69  1  0.88267150  0.74837450  0.65587200  1
  O  O70  1  0.88267150  0.75162550  0.84412800  1
  O  O71  1  0.27751500  0.78985450  0.87272550  1
  O  O72  1  0.98453850  0.80930400  0.97085950  1
  O  O73  1  0.23453850  0.94069600  0.72085950  1
  O  O74  1  0.52751500  0.96014550  0.62272550  1
  O  O75  1  0.13267150  0.99837450  0.59412800  1
  O  O76  1  0.63267150  0.50162550  0.40587200  1
  O  O77  1  0.02751500  0.53985450  0.37727450  1
  O  O78  1  0.73453850  0.55930400  0.27914050  1
  O  O79  1  0.48453850  0.69069600  0.02914050  1
  O  O80  1  0.77751500  0.71014550  0.12727450  1
  O  O81  1  0.38267150  0.74837450  0.15587200  1
  O  O82  1  0.38267150  0.75162550  0.34412800  1
  O  O83  1  0.77751500  0.78985450  0.37272550  1
  O  O84  1  0.48453850  0.80930400  0.47085950  1
  O  O85  1  0.73453850  0.94069600  0.22085950  1
  O  O86  1  0.02751500  0.96014550  0.12272550  1
  O  O87  1  0.63267150  0.99837450  0.09412800  1
