# generated using pymatgen
data_Mn6O5F7
_symmetry_space_group_name_H-M   'P 1'
_cell_length_a   4.74222100
_cell_length_b   5.74097900
_cell_length_c   15.63151868
_cell_angle_alpha   90.00000000
_cell_angle_beta   90.49471428
_cell_angle_gamma   90.00000000
_symmetry_Int_Tables_number   1
_chemical_formula_structural   Mn6O5F7
_chemical_formula_sum   'Mn12 O10 F14'
_cell_volume   425.55209465
_cell_formula_units_Z   2
loop_
 _symmetry_equiv_pos_site_id
 _symmetry_equiv_pos_as_xyz
  1  'x, y, z'
loop_
 _atom_site_type_symbol
 _atom_site_label
 _atom_site_symmetry_multiplicity
 _atom_site_fract_x
 _atom_site_fract_y
 _atom_site_fract_z
 _atom_site_occupancy
  Mn  Mn0  1  0.96134600  0.15568500  0.58070100  1
  Mn  Mn1  1  0.98970400  0.81486800  0.75440300  1
  Mn  Mn2  1  0.99218900  0.13618700  0.91844100  1
  Mn  Mn3  1  0.98970400  0.18513200  0.25440300  1
  Mn  Mn4  1  0.99218900  0.86381300  0.41844100  1
  Mn  Mn5  1  0.96134600  0.84431500  0.08070100  1
  Mn  Mn6  1  0.52464000  0.33409400  0.41472400  1
  Mn  Mn7  1  0.53305700  0.34583500  0.08015500  1
  Mn  Mn8  1  0.48895400  0.37491300  0.74946700  1
  Mn  Mn9  1  0.52464000  0.66590600  0.91472400  1
  Mn  Mn10  1  0.53305700  0.65416500  0.58015500  1
  Mn  Mn11  1  0.48895400  0.62508700  0.24946700  1
  O  O12  1  0.79615100  0.11752000  0.36240700  1
  O  O13  1  0.78323600  0.10458500  0.02583400  1
  O  O14  1  0.79615100  0.88248000  0.86240700  1
  O  O15  1  0.78323600  0.89541500  0.52583400  1
  O  O16  1  0.71167200  0.60926000  0.69021100  1
  O  O17  1  0.72072800  0.37907500  0.52381900  1
  O  O18  1  0.71167200  0.39074000  0.19021100  1
  O  O19  1  0.72072800  0.62092500  0.02381900  1
  O  O20  1  0.29906200  0.62203200  0.81015900  1
  O  O21  1  0.29906200  0.37796800  0.31015900  1
  F  F22  1  0.74110900  0.12164300  0.70073200  1
  F  F23  1  0.74110900  0.87835700  0.20073200  1
  F  F24  1  0.74979000  0.38756700  0.86106900  1
  F  F25  1  0.74979000  0.61243300  0.36106900  1
  F  F26  1  0.28034900  0.36820800  0.97136200  1
  F  F27  1  0.23018900  0.38643500  0.63330600  1
  F  F28  1  0.28034900  0.63179200  0.47136200  1
  F  F29  1  0.23018900  0.61356500  0.13330600  1
  F  F30  1  0.23525900  0.13592800  0.80638800  1
  F  F31  1  0.25043200  0.12053500  0.47539600  1
  F  F32  1  0.21213500  0.89486900  0.64142600  1
  F  F33  1  0.25043200  0.87946500  0.97539600  1
  F  F34  1  0.21213500  0.10513100  0.14142600  1
  F  F35  1  0.23525900  0.86407200  0.30638800  1
