# generated using pymatgen
data_NaMn2O4
_symmetry_space_group_name_H-M   'P 1'
_cell_length_a   6.03137600
_cell_length_b   6.03137600
_cell_length_c   9.08072400
_cell_angle_alpha   90.00000000
_cell_angle_beta   90.00000000
_cell_angle_gamma   90.00000000
_symmetry_Int_Tables_number   1
_chemical_formula_structural   NaMn2O4
_chemical_formula_sum   'Na4 Mn8 O16'
_cell_volume   330.33400510
_cell_formula_units_Z   4
loop_
 _symmetry_equiv_pos_site_id
 _symmetry_equiv_pos_as_xyz
  1  'x, y, z'
loop_
 _atom_site_type_symbol
 _atom_site_label
 _atom_site_symmetry_multiplicity
 _atom_site_fract_x
 _atom_site_fract_y
 _atom_site_fract_z
 _atom_site_occupancy
  Na  Na0  1  0.00000000  0.00000000  0.00000000  1
  Na  Na1  1  0.00000000  0.50000000  0.25000000  1
  Na  Na2  1  0.50000000  0.50000000  0.50000000  1
  Na  Na3  1  0.50000000  0.00000000  0.75000000  1
  Mn  Mn4  1  0.50000000  0.25000000  0.12500000  1
  Mn  Mn5  1  0.50000000  0.75000000  0.12500000  1
  Mn  Mn6  1  0.75000000  0.00000000  0.37500000  1
  Mn  Mn7  1  0.25000000  0.00000000  0.37500000  1
  Mn  Mn8  1  0.00000000  0.75000000  0.62500000  1
  Mn  Mn9  1  0.00000000  0.25000000  0.62500000  1
  Mn  Mn10  1  0.25000000  0.50000000  0.87500000  1
  Mn  Mn11  1  0.75000000  0.50000000  0.87500000  1
  O  O12  1  0.28917700  0.00000000  0.14409700  1
  O  O13  1  0.28917700  0.50000000  0.10590300  1
  O  O14  1  0.50000000  0.21082300  0.35590300  1
  O  O15  1  0.50000000  0.78917700  0.35590300  1
  O  O16  1  0.71082300  0.50000000  0.10590300  1
  O  O17  1  0.71082300  0.00000000  0.14409700  1
  O  O18  1  0.00000000  0.21082300  0.39409700  1
  O  O19  1  0.00000000  0.78917700  0.39409700  1
  O  O20  1  0.78917700  0.50000000  0.64409700  1
  O  O21  1  0.78917700  0.00000000  0.60590300  1
  O  O22  1  0.00000000  0.71082300  0.85590300  1
  O  O23  1  0.00000000  0.28917700  0.85590300  1
  O  O24  1  0.21082300  0.00000000  0.60590300  1
  O  O25  1  0.21082300  0.50000000  0.64409700  1
  O  O26  1  0.50000000  0.71082300  0.89409700  1
  O  O27  1  0.50000000  0.28917700  0.89409700  1
