# generated using pymatgen
data_LiVSiO4
_symmetry_space_group_name_H-M   'P 1'
_cell_length_a   5.66670552
_cell_length_b   5.88759300
_cell_length_c   7.94910003
_cell_angle_alpha   90.00000000
_cell_angle_beta   90.00000000
_cell_angle_gamma   90.00000000
_symmetry_Int_Tables_number   1
_chemical_formula_structural   LiVSiO4
_chemical_formula_sum   'Li4 V4 Si4 O16'
_cell_volume   265.20785768
_cell_formula_units_Z   4
loop_
 _symmetry_equiv_pos_site_id
 _symmetry_equiv_pos_as_xyz
  1  'x, y, z'
loop_
 _atom_site_type_symbol
 _atom_site_label
 _atom_site_symmetry_multiplicity
 _atom_site_fract_x
 _atom_site_fract_y
 _atom_site_fract_z
 _atom_site_occupancy
  Li  Li0  1  0.75000000  0.75000000  0.25000000  1
  Li  Li1  1  0.25000000  0.75000000  0.25000000  1
  Li  Li2  1  0.25000000  0.25000000  0.75000000  1
  Li  Li3  1  0.75000000  0.25000000  0.75000000  1
  V  V4  1  0.50000000  0.50000000  0.00000000  1
  V  V5  1  0.50000000  0.00000000  0.00000000  1
  V  V6  1  0.00000000  0.00000000  0.50000000  1
  V  V7  1  0.00000000  0.50000000  0.50000000  1
  Si  Si8  1  0.50000000  0.25000000  0.36747925  1
  Si  Si9  1  0.00000000  0.25000000  0.13252075  1
  Si  Si10  1  0.00000000  0.75000000  0.86747925  1
  Si  Si11  1  0.50000000  0.75000000  0.63252075  1
  O  O12  1  0.00000000  0.01694250  0.24934400  1
  O  O13  1  0.50000000  0.01694250  0.25065600  1
  O  O14  1  0.00000000  0.48305750  0.24934400  1
  O  O15  1  0.50000000  0.48305750  0.25065600  1
  O  O16  1  0.74031875  0.25000000  0.49240825  1
  O  O17  1  0.25968125  0.25000000  0.49240825  1
  O  O18  1  0.75968125  0.25000000  0.00759175  1
  O  O19  1  0.24031875  0.25000000  0.00759175  1
  O  O20  1  0.50000000  0.51694250  0.74934400  1
  O  O21  1  0.00000000  0.51694250  0.75065600  1
  O  O22  1  0.50000000  0.98305750  0.74934400  1
  O  O23  1  0.00000000  0.98305750  0.75065600  1
  O  O24  1  0.24031875  0.75000000  0.99240825  1
  O  O25  1  0.75968125  0.75000000  0.99240825  1
  O  O26  1  0.25968125  0.75000000  0.50759175  1
  O  O27  1  0.74031875  0.75000000  0.50759175  1
