# generated using pymatgen
data_Mn2O3F
_symmetry_space_group_name_H-M   'P 1'
_cell_length_a   6.03122100
_cell_length_b   13.27131948
_cell_length_c   6.34420022
_cell_angle_alpha   90.00000000
_cell_angle_beta   90.00000000
_cell_angle_gamma   90.00000000
_symmetry_Int_Tables_number   1
_chemical_formula_structural   Mn2O3F
_chemical_formula_sum   'Mn16 O24 F8'
_cell_volume   507.80412862
_cell_formula_units_Z   8
loop_
 _symmetry_equiv_pos_site_id
 _symmetry_equiv_pos_as_xyz
  1  'x, y, z'
loop_
 _atom_site_type_symbol
 _atom_site_label
 _atom_site_symmetry_multiplicity
 _atom_site_fract_x
 _atom_site_fract_y
 _atom_site_fract_z
 _atom_site_occupancy
  Mn  Mn0  1  0.75128800  0.87504900  0.75000000  1
  Mn  Mn1  1  0.24871200  0.87504900  0.75000000  1
  Mn  Mn2  1  0.00000000  0.12629750  0.75000000  1
  Mn  Mn3  1  0.50000000  0.87809250  0.25000000  1
  Mn  Mn4  1  0.50000000  0.12190750  0.75000000  1
  Mn  Mn5  1  0.50000000  0.37370250  0.25000000  1
  Mn  Mn6  1  0.24871200  0.12495100  0.25000000  1
  Mn  Mn7  1  0.75128800  0.12495100  0.25000000  1
  Mn  Mn8  1  0.25128800  0.37504900  0.75000000  1
  Mn  Mn9  1  0.74871200  0.37504900  0.75000000  1
  Mn  Mn10  1  0.50000000  0.62629750  0.75000000  1
  Mn  Mn11  1  0.00000000  0.37809250  0.25000000  1
  Mn  Mn12  1  0.00000000  0.62190750  0.75000000  1
  Mn  Mn13  1  0.00000000  0.87370250  0.25000000  1
  Mn  Mn14  1  0.74871200  0.62495100  0.25000000  1
  Mn  Mn15  1  0.25128800  0.62495100  0.25000000  1
  O  O16  1  0.50000000  0.96869100  0.75000000  1
  O  O17  1  0.75146150  0.87529450  0.44113400  1
  O  O18  1  0.24853850  0.87529450  0.44113400  1
  O  O19  1  0.75146150  0.12470550  0.55886600  1
  O  O20  1  0.75146150  0.87529450  0.05886600  1
  O  O21  1  0.24853850  0.87529450  0.05886600  1
  O  O22  1  0.24853850  0.12470550  0.55886600  1
  O  O23  1  0.50000000  0.28113900  0.75000000  1
  O  O24  1  0.50000000  0.03130900  0.25000000  1
  O  O25  1  0.00000000  0.21886100  0.25000000  1
  O  O26  1  0.75146150  0.12470550  0.94113400  1
  O  O27  1  0.24853850  0.12470550  0.94113400  1
  O  O28  1  0.00000000  0.46869100  0.75000000  1
  O  O29  1  0.25146150  0.37529450  0.44113400  1
  O  O30  1  0.74853850  0.37529450  0.44113400  1
  O  O31  1  0.25146150  0.62470550  0.55886600  1
  O  O32  1  0.25146150  0.37529450  0.05886600  1
  O  O33  1  0.74853850  0.37529450  0.05886600  1
  O  O34  1  0.74853850  0.62470550  0.55886600  1
  O  O35  1  0.00000000  0.78113900  0.75000000  1
  O  O36  1  0.00000000  0.53130900  0.25000000  1
  O  O37  1  0.50000000  0.71886100  0.25000000  1
  O  O38  1  0.25146150  0.62470550  0.94113400  1
  O  O39  1  0.74853850  0.62470550  0.94113400  1
  F  F40  1  0.00000000  0.98389000  0.75000000  1
  F  F41  1  0.00000000  0.01611000  0.25000000  1
  F  F42  1  0.00000000  0.26785600  0.75000000  1
  F  F43  1  0.50000000  0.23214400  0.25000000  1
  F  F44  1  0.50000000  0.48389000  0.75000000  1
  F  F45  1  0.50000000  0.51611000  0.25000000  1
  F  F46  1  0.50000000  0.76785600  0.75000000  1
  F  F47  1  0.00000000  0.73214400  0.25000000  1
