# generated using pymatgen
data_Cr3Sb3(TeO8)2
_symmetry_space_group_name_H-M   'P 1'
_cell_length_a   10.63781600
_cell_length_b   6.19042600
_cell_length_c   9.96441456
_cell_angle_alpha   90.00000000
_cell_angle_beta   90.01914763
_cell_angle_gamma   90.00000000
_symmetry_Int_Tables_number   1
_chemical_formula_structural   Cr3Sb3(TeO8)2
_chemical_formula_sum   'Cr6 Sb6 Te4 O32'
_cell_volume   656.18269642
_cell_formula_units_Z   2
loop_
 _symmetry_equiv_pos_site_id
 _symmetry_equiv_pos_as_xyz
  1  'x, y, z'
loop_
 _atom_site_type_symbol
 _atom_site_label
 _atom_site_symmetry_multiplicity
 _atom_site_fract_x
 _atom_site_fract_y
 _atom_site_fract_z
 _atom_site_occupancy
  Cr  Cr0  1  0.41557850  0.75235750  0.21148800  1
  Cr  Cr1  1  0.41557850  0.24764250  0.21148800  1
  Cr  Cr2  1  0.83077000  0.00000000  0.71091100  1
  Cr  Cr3  1  0.91557850  0.25235750  0.21148800  1
  Cr  Cr4  1  0.91557850  0.74764250  0.21148800  1
  Cr  Cr5  1  0.33077000  0.50000000  0.71091100  1
  Sb  Sb6  1  0.16511300  0.00000000  0.21276400  1
  Sb  Sb7  1  0.58075400  0.24967900  0.71401400  1
  Sb  Sb8  1  0.58075400  0.75032100  0.71401400  1
  Sb  Sb9  1  0.66511300  0.50000000  0.21276400  1
  Sb  Sb10  1  0.08075400  0.74967900  0.71401400  1
  Sb  Sb11  1  0.08075400  0.25032100  0.71401400  1
  Te  Te12  1  0.34517200  0.00000000  0.47262100  1
  Te  Te13  1  0.67868600  0.00000000  0.00090900  1
  Te  Te14  1  0.84517200  0.50000000  0.47262100  1
  Te  Te15  1  0.17868600  0.50000000  0.00090900  1
  O  O16  1  0.42431250  0.73364350  0.60606700  1
  O  O17  1  0.47886700  0.00000000  0.33127700  1
  O  O18  1  0.33023300  0.00000000  0.11352100  1
  O  O19  1  0.99884000  0.00000000  0.30580700  1
  O  O20  1  0.99718700  0.00000000  0.81693100  1
  O  O21  1  0.42431250  0.26635650  0.60606700  1
  O  O22  1  0.26079650  0.78313250  0.33392400  1
  O  O23  1  0.26079650  0.21686750  0.33392400  1
  O  O24  1  0.83686200  0.00000000  0.10497700  1
  O  O25  1  0.15652900  0.00000000  0.61140700  1
  O  O26  1  0.73754150  0.78019650  0.82694100  1
  O  O27  1  0.73754150  0.21980350  0.82694100  1
  O  O28  1  0.66404100  0.00000000  0.60713600  1
  O  O29  1  0.58403200  0.74238400  0.10900100  1
  O  O30  1  0.51137000  0.00000000  0.82463400  1
  O  O31  1  0.58403200  0.25761600  0.10900100  1
  O  O32  1  0.92431250  0.23364350  0.60606700  1
  O  O33  1  0.97886700  0.50000000  0.33127700  1
  O  O34  1  0.83023300  0.50000000  0.11352100  1
  O  O35  1  0.49884000  0.50000000  0.30580700  1
  O  O36  1  0.49718700  0.50000000  0.81693100  1
  O  O37  1  0.92431250  0.76635650  0.60606700  1
  O  O38  1  0.76079650  0.28313250  0.33392400  1
  O  O39  1  0.76079650  0.71686750  0.33392400  1
  O  O40  1  0.33686200  0.50000000  0.10497700  1
  O  O41  1  0.65652900  0.50000000  0.61140700  1
  O  O42  1  0.23754150  0.28019650  0.82694100  1
  O  O43  1  0.23754150  0.71980350  0.82694100  1
  O  O44  1  0.16404100  0.50000000  0.60713600  1
  O  O45  1  0.08403200  0.24238400  0.10900100  1
  O  O46  1  0.01137000  0.50000000  0.82463400  1
  O  O47  1  0.08403200  0.75761600  0.10900100  1
