# generated using pymatgen
data_Li3V4NiO12
_symmetry_space_group_name_H-M   'P 1'
_cell_length_a   10.33470455
_cell_length_b   9.02271278
_cell_length_c   5.84123712
_cell_angle_alpha   90.00000000
_cell_angle_beta   112.00139842
_cell_angle_gamma   90.00000000
_symmetry_Int_Tables_number   1
_chemical_formula_structural   Li3V4NiO12
_chemical_formula_sum   'Li6 V8 Ni2 O24'
_cell_volume   505.01190089
_cell_formula_units_Z   2
loop_
 _symmetry_equiv_pos_site_id
 _symmetry_equiv_pos_as_xyz
  1  'x, y, z'
loop_
 _atom_site_type_symbol
 _atom_site_label
 _atom_site_symmetry_multiplicity
 _atom_site_fract_x
 _atom_site_fract_y
 _atom_site_fract_z
 _atom_site_occupancy
  Li  Li0  1  0.00000000  0.90778150  0.50000000  1
  Li  Li1  1  0.00000000  0.75704900  0.00000000  1
  Li  Li2  1  0.00000000  0.24016650  0.50000000  1
  Li  Li3  1  0.50000000  0.40778150  0.50000000  1
  Li  Li4  1  0.50000000  0.25704900  0.00000000  1
  Li  Li5  1  0.50000000  0.74016650  0.50000000  1
  V  V6  1  0.20559750  0.40497850  0.98061000  1
  V  V7  1  0.79440250  0.40497850  0.01939000  1
  V  V8  1  0.20596000  0.59540400  0.48299900  1
  V  V9  1  0.79404000  0.59540400  0.51700100  1
  V  V10  1  0.70559750  0.90497850  0.98061000  1
  V  V11  1  0.29440250  0.90497850  0.01939000  1
  V  V12  1  0.70596000  0.09540400  0.48299900  1
  V  V13  1  0.29404000  0.09540400  0.51700100  1
  Ni  Ni14  1  0.00000000  0.08900900  0.00000000  1
  Ni  Ni15  1  0.50000000  0.58900900  0.00000000  1
  O  O16  1  0.38471100  0.60073200  0.60480800  1
  O  O17  1  0.61528900  0.60073200  0.39519200  1
  O  O18  1  0.13802450  0.76628550  0.42848400  1
  O  O19  1  0.86197550  0.76628550  0.57151600  1
  O  O20  1  0.38374350  0.40124150  0.08937800  1
  O  O21  1  0.61625650  0.40124150  0.91062200  1
  O  O22  1  0.13885200  0.49791100  0.68506700  1
  O  O23  1  0.86114800  0.49791100  0.31493300  1
  O  O24  1  0.14163650  0.50387950  0.18855900  1
  O  O25  1  0.85836350  0.50387950  0.81144100  1
  O  O26  1  0.13638400  0.23273700  0.92188000  1
  O  O27  1  0.86361600  0.23273700  0.07812000  1
  O  O28  1  0.88471100  0.10073200  0.60480800  1
  O  O29  1  0.11528900  0.10073200  0.39519200  1
  O  O30  1  0.63802450  0.26628550  0.42848400  1
  O  O31  1  0.36197550  0.26628550  0.57151600  1
  O  O32  1  0.88374350  0.90124150  0.08937800  1
  O  O33  1  0.11625650  0.90124150  0.91062200  1
  O  O34  1  0.63885200  0.99791100  0.68506700  1
  O  O35  1  0.36114800  0.99791100  0.31493300  1
  O  O36  1  0.64163650  0.00387950  0.18855900  1
  O  O37  1  0.35836350  0.00387950  0.81144100  1
  O  O38  1  0.63638400  0.73273700  0.92188000  1
  O  O39  1  0.36361600  0.73273700  0.07812000  1
