# generated using pymatgen
data_Co4TeO8
_symmetry_space_group_name_H-M   'P 1'
_cell_length_a   10.43148846
_cell_length_b   6.10840176
_cell_length_c   10.26403551
_cell_angle_alpha   90.00000000
_cell_angle_beta   105.09997091
_cell_angle_gamma   90.00000000
_symmetry_Int_Tables_number   1
_chemical_formula_structural   Co4TeO8
_chemical_formula_sum   'Co16 Te4 O32'
_cell_volume   631.43993901
_cell_formula_units_Z   4
loop_
 _symmetry_equiv_pos_site_id
 _symmetry_equiv_pos_as_xyz
  1  'x, y, z'
loop_
 _atom_site_type_symbol
 _atom_site_label
 _atom_site_symmetry_multiplicity
 _atom_site_fract_x
 _atom_site_fract_y
 _atom_site_fract_z
 _atom_site_occupancy
  Co  Co0  1  0.50000000  0.00000000  0.00000000  1
  Co  Co1  1  0.00000000  0.00000000  0.50000000  1
  Co  Co2  1  0.25136200  0.00000000  0.24809800  1
  Co  Co3  1  0.74863800  0.00000000  0.75190200  1
  Co  Co4  1  0.25000000  0.75000000  0.50000000  1
  Co  Co5  1  0.75000000  0.75000000  0.00000000  1
  Co  Co6  1  0.25000000  0.25000000  0.50000000  1
  Co  Co7  1  0.75000000  0.25000000  0.00000000  1
  Co  Co8  1  0.00000000  0.50000000  0.00000000  1
  Co  Co9  1  0.50000000  0.50000000  0.50000000  1
  Co  Co10  1  0.75136200  0.50000000  0.24809800  1
  Co  Co11  1  0.24863800  0.50000000  0.75190200  1
  Co  Co12  1  0.75000000  0.25000000  0.50000000  1
  Co  Co13  1  0.25000000  0.25000000  0.00000000  1
  Co  Co14  1  0.75000000  0.75000000  0.50000000  1
  Co  Co15  1  0.25000000  0.75000000  0.00000000  1
  Te  Te16  1  0.00000000  0.00000000  0.00000000  1
  Te  Te17  1  0.50000000  0.00000000  0.50000000  1
  Te  Te18  1  0.50000000  0.50000000  0.00000000  1
  Te  Te19  1  0.00000000  0.50000000  0.50000000  1
  O  O20  1  0.36903800  0.00000000  0.60561400  1
  O  O21  1  0.87851350  0.00000000  0.11153200  1
  O  O22  1  0.12148650  0.00000000  0.88846800  1
  O  O23  1  0.63096200  0.00000000  0.39438600  1
  O  O24  1  0.84723100  0.00000000  0.60034900  1
  O  O25  1  0.34429650  0.00000000  0.09198900  1
  O  O26  1  0.65570350  0.00000000  0.90801100  1
  O  O27  1  0.15276900  0.00000000  0.39965100  1
  O  O28  1  0.61930950  0.27078550  0.10648300  1
  O  O29  1  0.61195200  0.77343900  0.61048000  1
  O  O30  1  0.61930950  0.72921450  0.10648300  1
  O  O31  1  0.61195200  0.22656100  0.61048000  1
  O  O32  1  0.38804800  0.22656100  0.38952000  1
  O  O33  1  0.38069050  0.72921450  0.89351700  1
  O  O34  1  0.38804800  0.77343900  0.38952000  1
  O  O35  1  0.38069050  0.27078550  0.89351700  1
  O  O36  1  0.86903800  0.50000000  0.60561400  1
  O  O37  1  0.37851350  0.50000000  0.11153200  1
  O  O38  1  0.62148650  0.50000000  0.88846800  1
  O  O39  1  0.13096200  0.50000000  0.39438600  1
  O  O40  1  0.34723100  0.50000000  0.60034900  1
  O  O41  1  0.84429650  0.50000000  0.09198900  1
  O  O42  1  0.15570350  0.50000000  0.90801100  1
  O  O43  1  0.65276900  0.50000000  0.39965100  1
  O  O44  1  0.11930950  0.77078550  0.10648300  1
  O  O45  1  0.11195200  0.27343900  0.61048000  1
  O  O46  1  0.11930950  0.22921450  0.10648300  1
  O  O47  1  0.11195200  0.72656100  0.61048000  1
  O  O48  1  0.88804800  0.72656100  0.38952000  1
  O  O49  1  0.88069050  0.22921450  0.89351700  1
  O  O50  1  0.88804800  0.27343900  0.38952000  1
  O  O51  1  0.88069050  0.77078550  0.89351700  1
