# generated using pymatgen
data_KAl2NiP3(H2O7)2
_symmetry_space_group_name_H-M   'P 1'
_cell_length_a   13.18737600
_cell_length_b   10.20827000
_cell_length_c   8.77404285
_cell_angle_alpha   90.00000000
_cell_angle_beta   107.96869049
_cell_angle_gamma   90.00000000
_symmetry_Int_Tables_number   1
_chemical_formula_structural   KAl2NiP3(H2O7)2
_chemical_formula_sum   'K4 Al8 Ni4 P12 H16 O56'
_cell_volume   1123.55323084
_cell_formula_units_Z   4
loop_
 _symmetry_equiv_pos_site_id
 _symmetry_equiv_pos_as_xyz
  1  'x, y, z'
loop_
 _atom_site_type_symbol
 _atom_site_label
 _atom_site_symmetry_multiplicity
 _atom_site_fract_x
 _atom_site_fract_y
 _atom_site_fract_z
 _atom_site_occupancy
  K  K0  1  0.00000000  0.86522500  0.25000000  1
  K  K1  1  0.00000000  0.13477500  0.75000000  1
  K  K2  1  0.50000000  0.36522500  0.25000000  1
  K  K3  1  0.50000000  0.63477500  0.75000000  1
  Al  Al4  1  0.82784900  0.57721000  0.92684100  1
  Al  Al5  1  0.17215100  0.57721000  0.57315900  1
  Al  Al6  1  0.17215100  0.42279000  0.07315900  1
  Al  Al7  1  0.82784900  0.42279000  0.42684100  1
  Al  Al8  1  0.32784900  0.07721000  0.92684100  1
  Al  Al9  1  0.67215100  0.07721000  0.57315900  1
  Al  Al10  1  0.67215100  0.92279000  0.07315900  1
  Al  Al11  1  0.32784900  0.92279000  0.42684100  1
  Ni  Ni12  1  0.00000000  0.77390700  0.75000000  1
  Ni  Ni13  1  0.00000000  0.22609300  0.25000000  1
  Ni  Ni14  1  0.50000000  0.27390700  0.75000000  1
  Ni  Ni15  1  0.50000000  0.72609300  0.25000000  1
  P  P16  1  0.29315750  0.37488750  0.82640500  1
  P  P17  1  0.70684250  0.37488750  0.67359500  1
  P  P18  1  0.70684250  0.62511250  0.17359500  1
  P  P19  1  0.29315750  0.62511250  0.32640500  1
  P  P20  1  0.00000000  0.50190200  0.75000000  1
  P  P21  1  0.00000000  0.49809800  0.25000000  1
  P  P22  1  0.79315750  0.87488750  0.82640500  1
  P  P23  1  0.20684250  0.87488750  0.67359500  1
  P  P24  1  0.20684250  0.12511250  0.17359500  1
  P  P25  1  0.79315750  0.12511250  0.32640500  1
  P  P26  1  0.50000000  0.00190200  0.75000000  1
  P  P27  1  0.50000000  0.99809800  0.25000000  1
  H  H28  1  0.85063300  0.72221500  0.45859600  1
  H  H29  1  0.14936700  0.72221500  0.04140400  1
  H  H30  1  0.14936700  0.27778500  0.54140400  1
  H  H31  1  0.85063300  0.27778500  0.95859600  1
  H  H32  1  0.34911950  0.36953650  0.52033100  1
  H  H33  1  0.65088050  0.36953650  0.97966900  1
  H  H34  1  0.65088050  0.63046350  0.47966900  1
  H  H35  1  0.34911950  0.63046350  0.02033100  1
  H  H36  1  0.35063300  0.22221500  0.45859600  1
  H  H37  1  0.64936700  0.22221500  0.04140400  1
  H  H38  1  0.64936700  0.77778500  0.54140400  1
  H  H39  1  0.35063300  0.77778500  0.95859600  1
  H  H40  1  0.84911950  0.86953650  0.52033100  1
  H  H41  1  0.15088050  0.86953650  0.97966900  1
  H  H42  1  0.15088050  0.13046350  0.47966900  1
  H  H43  1  0.84911950  0.13046350  0.02033100  1
  O  O44  1  0.09438250  0.90242350  0.67932200  1
  O  O45  1  0.90561750  0.90242350  0.82067800  1
  O  O46  1  0.90561750  0.09757650  0.32067800  1
  O  O47  1  0.09438250  0.09757650  0.17932200  1
  O  O48  1  0.89567100  0.79500600  0.51647400  1
  O  O49  1  0.10432900  0.79500600  0.98352600  1
  O  O50  1  0.10432900  0.20499400  0.48352600  1
  O  O51  1  0.89567100  0.20499400  0.01647400  1
  O  O52  1  0.92793500  0.59886900  0.80678500  1
  O  O53  1  0.07206500  0.59886900  0.69321500  1
  O  O54  1  0.07206500  0.40113100  0.19321500  1
  O  O55  1  0.92793500  0.40113100  0.30678500  1
  O  O56  1  0.06334350  0.41225050  0.88708100  1
  O  O57  1  0.93665650  0.41225050  0.61291900  1
  O  O58  1  0.93665650  0.58774950  0.11291900  1
  O  O59  1  0.06334350  0.58774950  0.38708100  1
  O  O60  1  0.79221600  0.41818200  0.83376600  1
  O  O61  1  0.20778400  0.41818200  0.66623400  1
  O  O62  1  0.20778400  0.58181800  0.16623400  1
  O  O63  1  0.79221600  0.58181800  0.33376600  1
  O  O64  1  0.72385250  0.54868450  0.03069800  1
  O  O65  1  0.27614750  0.54868450  0.46930200  1
  O  O66  1  0.27614750  0.45131550  0.96930200  1
  O  O67  1  0.72385250  0.45131550  0.53069800  1
  O  O68  1  0.76844950  0.72802350  0.84105100  1
  O  O69  1  0.23155050  0.72802350  0.65894900  1
  O  O70  1  0.23155050  0.27197650  0.15894900  1
  O  O71  1  0.76844950  0.27197650  0.34105100  1
  O  O72  1  0.59438250  0.40242350  0.67932200  1
  O  O73  1  0.40561750  0.40242350  0.82067800  1
  O  O74  1  0.40561750  0.59757650  0.32067800  1
  O  O75  1  0.59438250  0.59757650  0.17932200  1
  O  O76  1  0.39567100  0.29500600  0.51647400  1
  O  O77  1  0.60432900  0.29500600  0.98352600  1
  O  O78  1  0.60432900  0.70499400  0.48352600  1
  O  O79  1  0.39567100  0.70499400  0.01647400  1
  O  O80  1  0.42793500  0.09886900  0.80678500  1
  O  O81  1  0.57206500  0.09886900  0.69321500  1
  O  O82  1  0.57206500  0.90113100  0.19321500  1
  O  O83  1  0.42793500  0.90113100  0.30678500  1
  O  O84  1  0.56334350  0.91225050  0.88708100  1
  O  O85  1  0.43665650  0.91225050  0.61291900  1
  O  O86  1  0.43665650  0.08774950  0.11291900  1
  O  O87  1  0.56334350  0.08774950  0.38708100  1
  O  O88  1  0.29221600  0.91818200  0.83376600  1
  O  O89  1  0.70778400  0.91818200  0.66623400  1
  O  O90  1  0.70778400  0.08181800  0.16623400  1
  O  O91  1  0.29221600  0.08181800  0.33376600  1
  O  O92  1  0.22385250  0.04868450  0.03069800  1
  O  O93  1  0.77614750  0.04868450  0.46930200  1
  O  O94  1  0.77614750  0.95131550  0.96930200  1
  O  O95  1  0.22385250  0.95131550  0.53069800  1
  O  O96  1  0.26844950  0.22802350  0.84105100  1
  O  O97  1  0.73155050  0.22802350  0.65894900  1
  O  O98  1  0.73155050  0.77197650  0.15894900  1
  O  O99  1  0.26844950  0.77197650  0.34105100  1
