# generated using pymatgen
data_Ti3Fe2P6WO24
_symmetry_space_group_name_H-M   'P 1'
_cell_length_a   8.74549400
_cell_length_b   8.74549400
_cell_length_c   20.98645632
_cell_angle_alpha   90.00000000
_cell_angle_beta   90.00000000
_cell_angle_gamma   120.00000000
_symmetry_Int_Tables_number   1
_chemical_formula_structural   Ti3Fe2P6WO24
_chemical_formula_sum   'Ti9 Fe6 P18 W3 O72'
_cell_volume   1390.07565141
_cell_formula_units_Z   3
loop_
 _symmetry_equiv_pos_site_id
 _symmetry_equiv_pos_as_xyz
  1  'x, y, z'
loop_
 _atom_site_type_symbol
 _atom_site_label
 _atom_site_symmetry_multiplicity
 _atom_site_fract_x
 _atom_site_fract_y
 _atom_site_fract_z
 _atom_site_occupancy
  Ti  Ti0  1  0.33333333  0.66666667  0.31157167  1
  Ti  Ti1  1  0.33333333  0.66666667  0.52277067  1
  Ti  Ti2  1  0.33333333  0.66666667  0.02185667  1
  Ti  Ti3  1  0.00000000  0.00000000  0.64490500  1
  Ti  Ti4  1  0.00000000  0.00000000  0.85610400  1
  Ti  Ti5  1  0.00000000  0.00000000  0.35519000  1
  Ti  Ti6  1  0.66666667  0.33333333  0.97823833  1
  Ti  Ti7  1  0.66666667  0.33333333  0.18943733  1
  Ti  Ti8  1  0.66666667  0.33333333  0.68852333  1
  Fe  Fe9  1  0.33333333  0.66666667  0.66453467  1
  Fe  Fe10  1  0.33333333  0.66666667  0.16782667  1
  Fe  Fe11  1  0.00000000  0.00000000  0.99786800  1
  Fe  Fe12  1  0.00000000  0.00000000  0.50116000  1
  Fe  Fe13  1  0.66666667  0.33333333  0.33120133  1
  Fe  Fe14  1  0.66666667  0.33333333  0.83449333  1
  P  P15  1  0.70281967  0.70313833  0.25088833  1
  P  P16  1  0.29686167  0.99968133  0.25088833  1
  P  P17  1  0.00031867  0.29718033  0.25088833  1
  P  P18  1  0.66004267  0.03918833  0.08290233  1
  P  P19  1  0.37914567  0.33995733  0.08290233  1
  P  P20  1  0.96081167  0.62085433  0.08290233  1
  P  P21  1  0.36948633  0.03647167  0.58422167  1
  P  P22  1  0.96352833  0.33301467  0.58422167  1
  P  P23  1  0.66698533  0.63051367  0.58422167  1
  P  P24  1  0.32670933  0.37252167  0.41623567  1
  P  P25  1  0.04581233  0.67329067  0.41623567  1
  P  P26  1  0.62747833  0.95418767  0.41623567  1
  P  P27  1  0.03615300  0.36980500  0.91755500  1
  P  P28  1  0.63019500  0.66634800  0.91755500  1
  P  P29  1  0.33365200  0.96384700  0.91755500  1
  P  P30  1  0.99337600  0.70585500  0.74956900  1
  P  P31  1  0.71247900  0.00662400  0.74956900  1
  P  P32  1  0.29414500  0.28752100  0.74956900  1
  W  W33  1  0.33333333  0.66666667  0.80636567  1
  W  W34  1  0.00000000  0.00000000  0.13969900  1
  W  W35  1  0.66666667  0.33333333  0.47303233  1
  O  O36  1  0.52201167  0.66283533  0.97687433  1
  O  O37  1  0.33716467  0.85917633  0.97687433  1
  O  O38  1  0.14082367  0.47798833  0.97687433  1
  O  O39  1  0.68412533  0.51652267  0.25826767  1
  O  O40  1  0.79321100  0.79223500  0.18957000  1
  O  O41  1  0.51294533  0.67884267  0.24684267  1
  O  O42  1  0.48347733  0.16760267  0.25826767  1
  O  O43  1  0.32115733  0.83410267  0.24684267  1
  O  O44  1  0.33723467  0.47695833  0.47687833  1
  O  O45  1  0.16589733  0.48705467  0.24684267  1
  O  O46  1  0.82479133  0.01931367  0.07127167  1
  O  O47  1  0.13972367  0.66276533  0.47687833  1
  O  O48  1  0.20776500  0.00097600  0.18957000  1
  O  O49  1  0.83239733  0.31587467  0.25826767  1
  O  O50  1  0.49406000  0.85222500  0.09082400  1
  O  O51  1  0.99902400  0.20678900  0.18957000  1
  O  O52  1  0.35816500  0.50594000  0.09082400  1
  O  O53  1  0.19452233  0.17520867  0.07127167  1
  O  O54  1  0.14777500  0.64183500  0.09082400  1
  O  O55  1  0.52304167  0.86027633  0.47687833  1
  O  O56  1  0.98068633  0.80547767  0.07127167  1
  O  O57  1  0.52880333  0.84436067  0.35737267  1
  O  O58  1  0.31555733  0.47119667  0.35737267  1
  O  O59  1  0.15563933  0.68444267  0.35737267  1
  O  O60  1  0.18867833  0.99616867  0.31020767  1
  O  O61  1  0.00383133  0.19250967  0.31020767  1
  O  O62  1  0.80749033  0.81132167  0.31020767  1
  O  O63  1  0.35079200  0.84985600  0.59160100  1
  O  O64  1  0.45987767  0.12556833  0.52290333  1
  O  O65  1  0.17961200  0.01217600  0.58017600  1
  O  O66  1  0.15014400  0.50093600  0.59160100  1
  O  O67  1  0.98782400  0.16743600  0.58017600  1
  O  O68  1  0.00390133  0.81029167  0.81021167  1
  O  O69  1  0.83256400  0.82038800  0.58017600  1
  O  O70  1  0.49145800  0.35264700  0.40460500  1
  O  O71  1  0.80639033  0.99609867  0.81021167  1
  O  O72  1  0.87443167  0.33430933  0.52290333  1
  O  O73  1  0.49906400  0.64920800  0.59160100  1
  O  O74  1  0.16072667  0.18555833  0.42415733  1
  O  O75  1  0.66569067  0.54012233  0.52290333  1
  O  O76  1  0.02483167  0.83927333  0.42415733  1
  O  O77  1  0.86118900  0.50854200  0.40460500  1
  O  O78  1  0.81444167  0.97516833  0.42415733  1
  O  O79  1  0.18970833  0.19360967  0.81021167  1
  O  O80  1  0.64735300  0.13881100  0.40460500  1
  O  O81  1  0.19547000  0.17769400  0.69070600  1
  O  O82  1  0.98222400  0.80453000  0.69070600  1
  O  O83  1  0.82230600  0.01777600  0.69070600  1
  O  O84  1  0.85534500  0.32950200  0.64354100  1
  O  O85  1  0.67049800  0.52584300  0.64354100  1
  O  O86  1  0.47415700  0.14465500  0.64354100  1
  O  O87  1  0.01745867  0.18318933  0.92493433  1
  O  O88  1  0.12654433  0.45890167  0.85623667  1
  O  O89  1  0.84627867  0.34550933  0.91350933  1
  O  O90  1  0.81681067  0.83426933  0.92493433  1
  O  O91  1  0.65449067  0.50076933  0.91350933  1
  O  O92  1  0.67056800  0.14362500  0.14354500  1
  O  O93  1  0.49923067  0.15372133  0.91350933  1
  O  O94  1  0.15812467  0.68598033  0.73793833  1
  O  O95  1  0.47305700  0.32943200  0.14354500  1
  O  O96  1  0.54109833  0.66764267  0.85623667  1
  O  O97  1  0.16573067  0.98254133  0.92493433  1
  O  O98  1  0.82739333  0.51889167  0.75749067  1
  O  O99  1  0.33235733  0.87345567  0.85623667  1
  O  O100  1  0.69149833  0.17260667  0.75749067  1
  O  O101  1  0.52785567  0.84187533  0.73793833  1
  O  O102  1  0.48110833  0.30850167  0.75749067  1
  O  O103  1  0.85637500  0.52694300  0.14354500  1
  O  O104  1  0.31401967  0.47214433  0.73793833  1
  O  O105  1  0.86213667  0.51102733  0.02403933  1
  O  O106  1  0.64889067  0.13786333  0.02403933  1
  O  O107  1  0.48897267  0.35110933  0.02403933  1
