# generated using pymatgen
data_LiVSiO4
_symmetry_space_group_name_H-M   'P 1'
_cell_length_a   8.58864959
_cell_length_b   5.23482700
_cell_length_c   8.65662177
_cell_angle_alpha   90.00000000
_cell_angle_beta   107.97910056
_cell_angle_gamma   90.00000000
_symmetry_Int_Tables_number   1
_chemical_formula_structural   LiVSiO4
_chemical_formula_sum   'Li4 V4 Si4 O16'
_cell_volume   370.19745267
_cell_formula_units_Z   4
loop_
 _symmetry_equiv_pos_site_id
 _symmetry_equiv_pos_as_xyz
  1  'x, y, z'
loop_
 _atom_site_type_symbol
 _atom_site_label
 _atom_site_symmetry_multiplicity
 _atom_site_fract_x
 _atom_site_fract_y
 _atom_site_fract_z
 _atom_site_occupancy
  Li  Li0  1  0.10047500  0.32841250  0.98105700  1
  Li  Li1  1  0.60047500  0.67158750  0.98105700  1
  Li  Li2  1  0.25767800  0.81990150  0.49794500  1
  Li  Li3  1  0.75767800  0.18009850  0.49794500  1
  V  V4  1  0.34040800  0.32400650  0.74168300  1
  V  V5  1  0.84040800  0.67599350  0.74168300  1
  V  V6  1  0.99702000  0.17479450  0.25224800  1
  V  V7  1  0.49702000  0.82520550  0.25224800  1
  Si  Si8  1  0.22670300  0.81822950  0.86575200  1
  Si  Si9  1  0.72670300  0.18177050  0.86575200  1
  Si  Si10  1  0.36565900  0.31588350  0.36894700  1
  Si  Si11  1  0.86565900  0.68411650  0.36894700  1
  O  O12  1  0.06147600  0.68128250  0.88530400  1
  O  O13  1  0.56147600  0.31871750  0.88530400  1
  O  O14  1  0.02469100  0.83586350  0.34527200  1
  O  O15  1  0.52469100  0.16413650  0.34527200  1
  O  O16  1  0.19866900  0.12714350  0.83301300  1
  O  O17  1  0.69866900  0.87285650  0.83301300  1
  O  O18  1  0.27108900  0.67989750  0.71215400  1
  O  O19  1  0.77108900  0.32010250  0.71215400  1
  O  O20  1  0.20311700  0.25611450  0.21286300  1
  O  O21  1  0.70311700  0.74388550  0.21286300  1
  O  O22  1  0.31858600  0.19938250  0.52638000  1
  O  O23  1  0.81858600  0.80061750  0.52638000  1
  O  O24  1  0.40417000  0.62376550  0.39018100  1
  O  O25  1  0.90417000  0.37623450  0.39018100  1
  O  O26  1  0.38405800  0.76154250  0.02602500  1
  O  O27  1  0.88405800  0.23845750  0.02602500  1
