# generated using pymatgen
data_Sr2Li2NiO4
_symmetry_space_group_name_H-M   'P 1'
_cell_length_a   5.45966121
_cell_length_b   5.62439013
_cell_length_c   8.34009334
_cell_angle_alpha   106.29960165
_cell_angle_beta   95.77759591
_cell_angle_gamma   98.65005091
_symmetry_Int_Tables_number   1
_chemical_formula_structural   Sr2Li2NiO4
_chemical_formula_sum   'Sr4 Li4 Ni2 O8'
_cell_volume   240.24140769
_cell_formula_units_Z   2
loop_
 _symmetry_equiv_pos_site_id
 _symmetry_equiv_pos_as_xyz
  1  'x, y, z'
loop_
 _atom_site_type_symbol
 _atom_site_label
 _atom_site_symmetry_multiplicity
 _atom_site_fract_x
 _atom_site_fract_y
 _atom_site_fract_z
 _atom_site_occupancy
  Sr  Sr0  1  0.27780800  0.77288600  0.02671400  1
  Sr  Sr1  1  0.72219200  0.22711400  0.97328600  1
  Sr  Sr2  1  0.82678150  0.85670400  0.30513400  1
  Sr  Sr3  1  0.17321850  0.14329600  0.69486600  1
  Li  Li4  1  0.80068850  0.38045550  0.45481150  1
  Li  Li5  1  0.19931150  0.61954450  0.54518850  1
  Li  Li6  1  0.41374100  0.11420500  0.41244900  1
  Li  Li7  1  0.58625900  0.88579500  0.58755100  1
  Ni  Ni8  1  0.29146250  0.38525450  0.24536750  1
  Ni  Ni9  1  0.70853750  0.61474550  0.75463250  1
  O  O10  1  0.57902650  0.19651100  0.23802000  1
  O  O11  1  0.42097350  0.80348900  0.76198000  1
  O  O12  1  0.19938150  0.30727950  0.99591450  1
  O  O13  1  0.80061850  0.69272050  0.00408550  1
  O  O14  1  0.12368150  0.26291250  0.42453850  1
  O  O15  1  0.87631850  0.73708750  0.57546150  1
  O  O16  1  0.34604250  0.75453900  0.35637000  1
  O  O17  1  0.65395750  0.24546100  0.64363000  1
