# generated using pymatgen
data_LiMn(CO3)2
_symmetry_space_group_name_H-M   'P 1'
_cell_length_a   4.72414990
_cell_length_b   4.72414990
_cell_length_c   15.43243935
_cell_angle_alpha   90.00000000
_cell_angle_beta   90.00000000
_cell_angle_gamma   120.00000000
_symmetry_Int_Tables_number   1
_chemical_formula_structural   LiMn(CO3)2
_chemical_formula_sum   'Li3 Mn3 C6 O18'
_cell_volume   298.27204382
_cell_formula_units_Z   3
loop_
 _symmetry_equiv_pos_site_id
 _symmetry_equiv_pos_as_xyz
  1  'x, y, z'
loop_
 _atom_site_type_symbol
 _atom_site_label
 _atom_site_symmetry_multiplicity
 _atom_site_fract_x
 _atom_site_fract_y
 _atom_site_fract_z
 _atom_site_occupancy
  Li  Li0  1  0.00000000  0.00000000  0.00000000  1
  Li  Li1  1  0.66666667  0.33333333  0.33333333  1
  Li  Li2  1  0.33333333  0.66666667  0.66666667  1
  Mn  Mn3  1  0.33333333  0.66666667  0.16666667  1
  Mn  Mn4  1  1.00000000  0.00000000  0.50000000  1
  Mn  Mn5  1  0.66666667  0.33333333  0.83333333  1
  C  C6  1  0.66666667  0.33333333  0.08796733  1
  C  C7  1  0.00000000  0.00000000  0.24536600  1
  C  C8  1  0.33333333  0.66666667  0.42130067  1
  C  C9  1  0.66666667  0.33333333  0.57869933  1
  C  C10  1  0.00000000  0.00000000  0.75463400  1
  C  C11  1  0.33333333  0.66666667  0.91203267  1
  O  O12  1  0.72232767  0.73036233  0.24596733  1
  O  O13  1  0.39702900  0.34136800  0.08736600  1
  O  O14  1  0.65863200  0.05566100  0.08736600  1
  O  O15  1  0.00803467  0.27767233  0.24596733  1
  O  O16  1  0.26963767  0.99196533  0.24596733  1
  O  O17  1  0.94433900  0.60297100  0.08736600  1
  O  O18  1  0.38899433  0.06369567  0.57930067  1
  O  O19  1  0.06369567  0.67470133  0.42069933  1
  O  O20  1  0.32529867  0.38899433  0.42069933  1
  O  O21  1  0.67470133  0.61100567  0.57930067  1
  O  O22  1  0.93630433  0.32529867  0.57930067  1
  O  O23  1  0.61100567  0.93630433  0.42069933  1
  O  O24  1  0.05566100  0.39702900  0.91263400  1
  O  O25  1  0.73036233  0.00803467  0.75403267  1
  O  O26  1  0.99196533  0.72232767  0.75403267  1
  O  O27  1  0.34136800  0.94433900  0.91263400  1
  O  O28  1  0.60297100  0.65863200  0.91263400  1
  O  O29  1  0.27767233  0.26963767  0.75403267  1
