# generated using pymatgen
data_VSn(PO4)2
_symmetry_space_group_name_H-M   'P 1'
_cell_length_a   5.01695382
_cell_length_b   6.02301300
_cell_length_c   10.18612384
_cell_angle_alpha   90.00000000
_cell_angle_beta   90.40421612
_cell_angle_gamma   90.00000000
_symmetry_Int_Tables_number   1
_chemical_formula_structural   VSn(PO4)2
_chemical_formula_sum   'V2 Sn2 P4 O16'
_cell_volume   307.78825849
_cell_formula_units_Z   2
loop_
 _symmetry_equiv_pos_site_id
 _symmetry_equiv_pos_as_xyz
  1  'x, y, z'
loop_
 _atom_site_type_symbol
 _atom_site_label
 _atom_site_symmetry_multiplicity
 _atom_site_fract_x
 _atom_site_fract_y
 _atom_site_fract_z
 _atom_site_occupancy
  V  V0  1  0.04822500  0.25000000  0.77165950  1
  V  V1  1  0.95177500  0.75000000  0.22834050  1
  Sn  Sn2  1  0.45416800  0.25000000  0.27760650  1
  Sn  Sn3  1  0.54583200  0.75000000  0.72239350  1
  P  P4  1  0.88397500  0.25000000  0.09586750  1
  P  P5  1  0.11602500  0.75000000  0.90413250  1
  P  P6  1  0.40768500  0.75000000  0.40860450  1
  P  P7  1  0.59231500  0.25000000  0.59139550  1
  O  O8  1  0.16151100  0.75000000  0.04960450  1
  O  O9  1  0.83848900  0.25000000  0.95039550  1
  O  O10  1  0.18629200  0.25000000  0.12769350  1
  O  O11  1  0.81370800  0.75000000  0.87230650  1
  O  O12  1  0.70552200  0.75000000  0.39520150  1
  O  O13  1  0.29447800  0.25000000  0.60479850  1
  O  O14  1  0.68010100  0.25000000  0.44571750  1
  O  O15  1  0.31989900  0.75000000  0.55428250  1
  O  O16  1  0.73731500  0.05137400  0.16998750  1
  O  O17  1  0.73731500  0.44862600  0.16998750  1
  O  O18  1  0.26268500  0.55137400  0.83001250  1
  O  O19  1  0.26268500  0.94862600  0.83001250  1
  O  O20  1  0.26472300  0.95221100  0.33599350  1
  O  O21  1  0.26472300  0.54778900  0.33599350  1
  O  O22  1  0.73527700  0.04778900  0.66400650  1
  O  O23  1  0.73527700  0.45221100  0.66400650  1
