# generated using pymatgen
data_Li4Ti3CrO8
_symmetry_space_group_name_H-M   'P 1'
_cell_length_a   5.86794812
_cell_length_b   5.86794812
_cell_length_c   14.89412104
_cell_angle_alpha   90.00000000
_cell_angle_beta   90.00000000
_cell_angle_gamma   120.00000000
_symmetry_Int_Tables_number   1
_chemical_formula_structural   Li4Ti3CrO8
_chemical_formula_sum   'Li12 Ti9 Cr3 O24'
_cell_volume   444.13811103
_cell_formula_units_Z   3
loop_
 _symmetry_equiv_pos_site_id
 _symmetry_equiv_pos_as_xyz
  1  'x, y, z'
loop_
 _atom_site_type_symbol
 _atom_site_label
 _atom_site_symmetry_multiplicity
 _atom_site_fract_x
 _atom_site_fract_y
 _atom_site_fract_z
 _atom_site_occupancy
  Li  Li0  1  0.33333333  0.66666667  0.16666667  1
  Li  Li1  1  0.33333333  0.16666667  0.16666667  1
  Li  Li2  1  0.83333333  0.66666667  0.16666667  1
  Li  Li3  1  0.83333333  0.16666667  0.16666667  1
  Li  Li4  1  1.00000000  1.00000000  0.50000000  1
  Li  Li5  1  0.00000000  0.50000000  0.50000000  1
  Li  Li6  1  0.50000000  0.00000000  0.50000000  1
  Li  Li7  1  0.50000000  0.50000000  0.50000000  1
  Li  Li8  1  0.66666667  0.33333333  0.83333333  1
  Li  Li9  1  0.66666667  0.83333333  0.83333333  1
  Li  Li10  1  0.16666667  0.33333333  0.83333333  1
  Li  Li11  1  0.16666667  0.83333333  0.83333333  1
  Ti  Ti12  1  0.00000000  0.50000000  0.00000000  1
  Ti  Ti13  1  0.50000000  0.00000000  0.00000000  1
  Ti  Ti14  1  0.50000000  0.50000000  0.00000000  1
  Ti  Ti15  1  0.66666667  0.83333333  0.33333333  1
  Ti  Ti16  1  0.16666667  0.33333333  0.33333333  1
  Ti  Ti17  1  0.16666667  0.83333333  0.33333333  1
  Ti  Ti18  1  0.33333333  0.16666667  0.66666667  1
  Ti  Ti19  1  0.83333333  0.66666667  0.66666667  1
  Ti  Ti20  1  0.83333333  0.16666667  0.66666667  1
  Cr  Cr21  1  0.00000000  0.00000000  0.00000000  1
  Cr  Cr22  1  0.66666667  0.33333333  0.33333333  1
  Cr  Cr23  1  0.33333333  0.66666667  0.66666667  1
  O  O24  1  0.66666667  0.33333333  0.07924733  1
  O  O25  1  0.66862933  0.83431467  0.07793767  1
  O  O26  1  0.16568533  0.33137067  0.07793767  1
  O  O27  1  0.00000000  0.00000000  0.25408600  1
  O  O28  1  0.16568533  0.83431467  0.07793767  1
  O  O29  1  0.99803733  0.49901867  0.25539567  1
  O  O30  1  0.50098133  0.00196267  0.25539567  1
  O  O31  1  0.50098133  0.49901867  0.25539567  1
  O  O32  1  0.33333333  0.66666667  0.41258067  1
  O  O33  1  0.33529600  0.16764800  0.41127100  1
  O  O34  1  0.83235200  0.66470400  0.41127100  1
  O  O35  1  0.66666667  0.33333333  0.58741933  1
  O  O36  1  0.83235200  0.16764800  0.41127100  1
  O  O37  1  0.66470400  0.83235200  0.58872900  1
  O  O38  1  0.16764800  0.33529600  0.58872900  1
  O  O39  1  0.16764800  0.83235200  0.58872900  1
  O  O40  1  0.00000000  0.00000000  0.74591400  1
  O  O41  1  0.00196267  0.50098133  0.74460433  1
  O  O42  1  0.49901867  0.99803733  0.74460433  1
  O  O43  1  0.33333333  0.66666667  0.92075267  1
  O  O44  1  0.49901867  0.50098133  0.74460433  1
  O  O45  1  0.33137067  0.16568533  0.92206233  1
  O  O46  1  0.83431467  0.66862933  0.92206233  1
  O  O47  1  0.83431467  0.16568533  0.92206233  1
