# generated using pymatgen
data_Li4CrO4
_symmetry_space_group_name_H-M   'P 1'
_cell_length_a   5.20214650
_cell_length_b   5.22471589
_cell_length_c   7.78964487
_cell_angle_alpha   109.32870263
_cell_angle_beta   83.10530091
_cell_angle_gamma   111.96091498
_symmetry_Int_Tables_number   1
_chemical_formula_structural   Li4CrO4
_chemical_formula_sum   'Li8 Cr2 O8'
_cell_volume   185.28854057
_cell_formula_units_Z   2
loop_
 _symmetry_equiv_pos_site_id
 _symmetry_equiv_pos_as_xyz
  1  'x, y, z'
loop_
 _atom_site_type_symbol
 _atom_site_label
 _atom_site_symmetry_multiplicity
 _atom_site_fract_x
 _atom_site_fract_y
 _atom_site_fract_z
 _atom_site_occupancy
  Li  Li0  1  0.74084100  0.24031200  0.00434000  1
  Li  Li1  1  0.21673500  0.39105700  0.20668800  1
  Li  Li2  1  0.24830400  0.91669300  0.41590800  1
  Li  Li3  1  0.75997800  0.49082900  0.44003500  1
  Li  Li4  1  0.24002200  0.50917100  0.55996500  1
  Li  Li5  1  0.75169600  0.08330700  0.58409200  1
  Li  Li6  1  0.78326500  0.60894300  0.79331200  1
  Li  Li7  1  0.25915900  0.75968800  0.99566000  1
  Cr  Cr8  1  0.77990600  0.83761600  0.22641900  1
  Cr  Cr9  1  0.22009400  0.16238400  0.77358100  1
  O  O10  1  0.66086400  0.84270700  0.02320300  1
  O  O11  1  0.99873700  0.62697600  0.19352200  1
  O  O12  1  0.51386500  0.69792100  0.38244300  1
  O  O13  1  0.97406700  0.19334600  0.37472000  1
  O  O14  1  0.02593300  0.80665400  0.62528000  1
  O  O15  1  0.48613500  0.30207900  0.61755700  1
  O  O16  1  0.00126300  0.37302400  0.80647800  1
  O  O17  1  0.33913600  0.15729300  0.97679700  1
