# generated using pymatgen
data_LiFeP2O7
_symmetry_space_group_name_H-M   'P 1'
_cell_length_a   5.15328300
_cell_length_b   8.59470300
_cell_length_c   6.81848768
_cell_angle_alpha   90.00000000
_cell_angle_beta   109.06732121
_cell_angle_gamma   90.00000000
_symmetry_Int_Tables_number   1
_chemical_formula_structural   LiFeP2O7
_chemical_formula_sum   'Li2 Fe2 P4 O14'
_cell_volume   285.42824775
_cell_formula_units_Z   2
loop_
 _symmetry_equiv_pos_site_id
 _symmetry_equiv_pos_as_xyz
  1  'x, y, z'
loop_
 _atom_site_type_symbol
 _atom_site_label
 _atom_site_symmetry_multiplicity
 _atom_site_fract_x
 _atom_site_fract_y
 _atom_site_fract_z
 _atom_site_occupancy
  Li  Li0  1  0.26192100  0.48301800  0.80237200  1
  Li  Li1  1  0.73807900  0.98301800  0.19762800  1
  Fe  Fe2  1  0.19418400  0.84467200  0.67140200  1
  Fe  Fe3  1  0.80581600  0.34467200  0.32859800  1
  P  P4  1  0.39128000  0.18733700  0.54185100  1
  P  P5  1  0.18081900  0.79087900  0.05030500  1
  P  P6  1  0.81918100  0.29087900  0.94969500  1
  P  P7  1  0.60872000  0.68733700  0.45814900  1
  O  O8  1  0.03530300  0.33076200  0.85968300  1
  O  O9  1  0.10377100  0.67916000  0.86058400  1
  O  O10  1  0.25134800  0.02898400  0.52612000  1
  O  O11  1  0.19431700  0.32787800  0.50102300  1
  O  O12  1  0.42387600  0.69250600  0.59586200  1
  O  O13  1  0.68258400  0.42870800  0.03338300  1
  O  O14  1  0.57227800  0.19888700  0.78001800  1
  O  O15  1  0.42772200  0.69888700  0.21998200  1
  O  O16  1  0.31741600  0.92870800  0.96661700  1
  O  O17  1  0.57612400  0.19250600  0.40413800  1
  O  O18  1  0.80568300  0.82787800  0.49897700  1
  O  O19  1  0.74865200  0.52898400  0.47388000  1
  O  O20  1  0.89622900  0.17916000  0.13941600  1
  O  O21  1  0.96469700  0.83076200  0.14031700  1
