# generated using pymatgen
data_Li3Mn2SnO6
_symmetry_space_group_name_H-M   'P 1'
_cell_length_a   13.65721904
_cell_length_b   3.07176617
_cell_length_c   6.09273132
_cell_angle_alpha   90.00000000
_cell_angle_beta   102.01740798
_cell_angle_gamma   90.00000000
_symmetry_Int_Tables_number   1
_chemical_formula_structural   Li3Mn2SnO6
_chemical_formula_sum   'Li6 Mn4 Sn2 O12'
_cell_volume   249.99929310
_cell_formula_units_Z   2
loop_
 _symmetry_equiv_pos_site_id
 _symmetry_equiv_pos_as_xyz
  1  'x, y, z'
loop_
 _atom_site_type_symbol
 _atom_site_label
 _atom_site_symmetry_multiplicity
 _atom_site_fract_x
 _atom_site_fract_y
 _atom_site_fract_z
 _atom_site_occupancy
  Li  Li0  1  0.00000000  0.00000000  0.00000000  1
  Li  Li1  1  0.66816000  0.00000000  0.32542200  1
  Li  Li2  1  0.83184000  0.50000000  0.67457800  1
  Li  Li3  1  0.50000000  0.50000000  0.00000000  1
  Li  Li4  1  0.16816000  0.50000000  0.32542200  1
  Li  Li5  1  0.33184000  0.00000000  0.67457800  1
  Mn  Mn6  1  0.67014800  0.00000000  0.84821350  1
  Mn  Mn7  1  0.82985200  0.50000000  0.15178650  1
  Mn  Mn8  1  0.17014800  0.50000000  0.84821350  1
  Mn  Mn9  1  0.32985200  0.00000000  0.15178650  1
  Sn  Sn10  1  0.00000000  0.00000000  0.50000000  1
  Sn  Sn11  1  0.50000000  0.50000000  0.50000000  1
  O  O12  1  0.15741450  0.00000000  0.59923600  1
  O  O13  1  0.84258550  0.00000000  0.40076400  1
  O  O14  1  0.83505400  0.00000000  0.92851050  1
  O  O15  1  0.16494600  0.00000000  0.07148950  1
  O  O16  1  0.00495650  0.50000000  0.26658700  1
  O  O17  1  0.99504350  0.50000000  0.73341300  1
  O  O18  1  0.65741450  0.50000000  0.59923600  1
  O  O19  1  0.34258550  0.50000000  0.40076400  1
  O  O20  1  0.33505400  0.50000000  0.92851050  1
  O  O21  1  0.66494600  0.50000000  0.07148950  1
  O  O22  1  0.50495650  0.00000000  0.26658700  1
  O  O23  1  0.49504350  0.00000000  0.73341300  1
