# generated using pymatgen
data_Li2MnO2F
_symmetry_space_group_name_H-M   'P 1'
_cell_length_a   5.22452060
_cell_length_b   8.87866200
_cell_length_c   9.83168386
_cell_angle_alpha   90.00000000
_cell_angle_beta   98.03587587
_cell_angle_gamma   90.00000000
_symmetry_Int_Tables_number   1
_chemical_formula_structural   Li2MnO2F
_chemical_formula_sum   'Li16 Mn8 O16 F8'
_cell_volume   451.58171088
_cell_formula_units_Z   8
loop_
 _symmetry_equiv_pos_site_id
 _symmetry_equiv_pos_as_xyz
  1  'x, y, z'
loop_
 _atom_site_type_symbol
 _atom_site_label
 _atom_site_symmetry_multiplicity
 _atom_site_fract_x
 _atom_site_fract_y
 _atom_site_fract_z
 _atom_site_occupancy
  Li  Li0  1  0.74034000  0.06381800  0.49376900  1
  Li  Li1  1  0.75000000  0.25000000  0.00000000  1
  Li  Li2  1  0.50000000  0.43163000  0.75000000  1
  Li  Li3  1  0.25966000  0.06381800  0.00623100  1
  Li  Li4  1  0.25000000  0.25000000  0.50000000  1
  Li  Li5  1  0.74034000  0.93618200  0.99376900  1
  Li  Li6  1  0.50000000  0.56837000  0.25000000  1
  Li  Li7  1  0.25966000  0.93618200  0.50623100  1
  Li  Li8  1  0.24034000  0.56381800  0.49376900  1
  Li  Li9  1  0.25000000  0.75000000  0.00000000  1
  Li  Li10  1  0.00000000  0.93163000  0.75000000  1
  Li  Li11  1  0.75966000  0.56381800  0.00623100  1
  Li  Li12  1  0.75000000  0.75000000  0.50000000  1
  Li  Li13  1  0.24034000  0.43618200  0.99376900  1
  Li  Li14  1  0.00000000  0.06837000  0.25000000  1
  Li  Li15  1  0.75966000  0.43618200  0.50623100  1
  Mn  Mn16  1  0.50000000  0.24448300  0.25000000  1
  Mn  Mn17  1  0.50000000  0.07975600  0.75000000  1
  Mn  Mn18  1  0.50000000  0.92024400  0.25000000  1
  Mn  Mn19  1  0.50000000  0.75551700  0.75000000  1
  Mn  Mn20  1  0.00000000  0.74448300  0.25000000  1
  Mn  Mn21  1  0.00000000  0.57975600  0.75000000  1
  Mn  Mn22  1  0.00000000  0.42024400  0.25000000  1
  Mn  Mn23  1  0.00000000  0.25551700  0.75000000  1
  O  O24  1  0.84298800  0.09797700  0.85416000  1
  O  O25  1  0.61402400  0.08799800  0.13201900  1
  O  O26  1  0.38597600  0.08799800  0.36798100  1
  O  O27  1  0.84298800  0.90202300  0.35416000  1
  O  O28  1  0.15701200  0.09797700  0.64584000  1
  O  O29  1  0.61402400  0.91200200  0.63201900  1
  O  O30  1  0.38597600  0.91200200  0.86798100  1
  O  O31  1  0.15701200  0.90202300  0.14584000  1
  O  O32  1  0.34298800  0.59797700  0.85416000  1
  O  O33  1  0.11402400  0.58799800  0.13201900  1
  O  O34  1  0.88597600  0.58799800  0.36798100  1
  O  O35  1  0.34298800  0.40202300  0.35416000  1
  O  O36  1  0.65701200  0.59797700  0.64584000  1
  O  O37  1  0.11402400  0.41200200  0.63201900  1
  O  O38  1  0.88597600  0.41200200  0.86798100  1
  O  O39  1  0.65701200  0.40202300  0.14584000  1
  F  F40  1  0.61376600  0.25744600  0.61663400  1
  F  F41  1  0.61376600  0.74255400  0.11663400  1
  F  F42  1  0.38623400  0.25744600  0.88336600  1
  F  F43  1  0.38623400  0.74255400  0.38336600  1
  F  F44  1  0.11376600  0.75744600  0.61663400  1
  F  F45  1  0.11376600  0.24255400  0.11663400  1
  F  F46  1  0.88623400  0.75744600  0.88336600  1
  F  F47  1  0.88623400  0.24255400  0.38336600  1
