# generated using pymatgen
data_Li2(NiO2)3
_symmetry_space_group_name_H-M   'P 1'
_cell_length_a   8.59807200
_cell_length_b   4.87325800
_cell_length_c   9.79242805
_cell_angle_alpha   90.00000000
_cell_angle_beta   90.45002481
_cell_angle_gamma   90.00000000
_symmetry_Int_Tables_number   1
_chemical_formula_structural   Li2(NiO2)3
_chemical_formula_sum   'Li8 Ni12 O24'
_cell_volume   410.29618145
_cell_formula_units_Z   4
loop_
 _symmetry_equiv_pos_site_id
 _symmetry_equiv_pos_as_xyz
  1  'x, y, z'
loop_
 _atom_site_type_symbol
 _atom_site_label
 _atom_site_symmetry_multiplicity
 _atom_site_fract_x
 _atom_site_fract_y
 _atom_site_fract_z
 _atom_site_occupancy
  Li  Li0  1  0.92946550  0.72394750  0.49735200  1
  Li  Li1  1  0.76157600  0.77824200  0.99627200  1
  Li  Li2  1  0.92946550  0.27605250  0.99735200  1
  Li  Li3  1  0.76157600  0.22175800  0.49627200  1
  Li  Li4  1  0.42946550  0.22394750  0.49735200  1
  Li  Li5  1  0.26157600  0.27824200  0.99627200  1
  Li  Li6  1  0.42946550  0.77605250  0.99735200  1
  Li  Li7  1  0.26157600  0.72175800  0.49627200  1
  Ni  Ni8  1  0.94104650  0.64237350  0.75501300  1
  Ni  Ni9  1  0.60913450  0.35637750  0.24480500  1
  Ni  Ni10  1  0.60913450  0.64362250  0.74480500  1
  Ni  Ni11  1  0.77478000  0.85818400  0.25327400  1
  Ni  Ni12  1  0.77478000  0.14181600  0.75327400  1
  Ni  Ni13  1  0.94104650  0.35762650  0.25501300  1
  Ni  Ni14  1  0.44104650  0.14237350  0.75501300  1
  Ni  Ni15  1  0.10913450  0.85637750  0.24480500  1
  Ni  Ni16  1  0.10913450  0.14362250  0.74480500  1
  Ni  Ni17  1  0.27478000  0.35818400  0.25327400  1
  Ni  Ni18  1  0.27478000  0.64181600  0.75327400  1
  Ni  Ni19  1  0.44104650  0.85762650  0.25501300  1
  O  O20  1  0.62115550  0.95411350  0.85478600  1
  O  O21  1  0.62115550  0.04588650  0.35478600  1
  O  O22  1  0.60604750  0.30498450  0.65106500  1
  O  O23  1  0.92445150  0.68084250  0.14633900  1
  O  O24  1  0.93608050  0.98375750  0.85369500  1
  O  O25  1  0.60604750  0.69501550  0.15106500  1
  O  O26  1  0.77147050  0.83301950  0.64303200  1
  O  O27  1  0.93608050  0.01624250  0.35369500  1
  O  O28  1  0.92445150  0.31915750  0.64633900  1
  O  O29  1  0.77147050  0.16698050  0.14303200  1
  O  O30  1  0.78717350  0.47038850  0.85803700  1
  O  O31  1  0.78717350  0.52961150  0.35803700  1
  O  O32  1  0.12115550  0.45411350  0.85478600  1
  O  O33  1  0.12115550  0.54588650  0.35478600  1
  O  O34  1  0.10604750  0.80498450  0.65106500  1
  O  O35  1  0.42445150  0.18084250  0.14633900  1
  O  O36  1  0.43608050  0.48375750  0.85369500  1
  O  O37  1  0.10604750  0.19501550  0.15106500  1
  O  O38  1  0.27147050  0.33301950  0.64303200  1
  O  O39  1  0.43608050  0.51624250  0.35369500  1
  O  O40  1  0.42445150  0.81915750  0.64633900  1
  O  O41  1  0.27147050  0.66698050  0.14303200  1
  O  O42  1  0.28717350  0.97038850  0.85803700  1
  O  O43  1  0.28717350  0.02961150  0.35803700  1
