# generated using pymatgen
data_LiMn16O32
_symmetry_space_group_name_H-M   'P 1'
_cell_length_a   10.25901000
_cell_length_b   5.78672200
_cell_length_c   19.18085701
_cell_angle_alpha   90.00000000
_cell_angle_beta   98.41363134
_cell_angle_gamma   90.00000000
_symmetry_Int_Tables_number   1
_chemical_formula_structural   LiMn16O32
_chemical_formula_sum   'Li2 Mn32 O64'
_cell_volume   1126.43639263
_cell_formula_units_Z   2
loop_
 _symmetry_equiv_pos_site_id
 _symmetry_equiv_pos_as_xyz
  1  'x, y, z'
loop_
 _atom_site_type_symbol
 _atom_site_label
 _atom_site_symmetry_multiplicity
 _atom_site_fract_x
 _atom_site_fract_y
 _atom_site_fract_z
 _atom_site_occupancy
  Li  Li0  1  0.65447000  0.50000000  0.97286100  1
  Li  Li1  1  0.15447000  0.00000000  0.97286100  1
  Mn  Mn2  1  0.99551000  0.50000000  0.00515200  1
  Mn  Mn3  1  0.62325150  0.75275850  0.12388000  1
  Mn  Mn4  1  0.62325150  0.24724150  0.12388000  1
  Mn  Mn5  1  0.87389100  0.25370500  0.37701500  1
  Mn  Mn6  1  0.74106500  0.50000000  0.25526100  1
  Mn  Mn7  1  0.87389100  0.74629500  0.37701500  1
  Mn  Mn8  1  0.87745500  0.00000000  0.62266900  1
  Mn  Mn9  1  0.62570400  0.00000000  0.37651300  1
  Mn  Mn10  1  0.51180400  0.50000000  0.49527900  1
  Mn  Mn11  1  0.62662650  0.25015150  0.62376600  1
  Mn  Mn12  1  0.89378000  0.00000000  0.21910300  1
  Mn  Mn13  1  0.62662650  0.74984850  0.62376600  1
  Mn  Mn14  1  0.62398700  0.00000000  0.87438900  1
  Mn  Mn15  1  0.75027100  0.00000000  0.74856500  1
  Mn  Mn16  1  0.87447800  0.75061800  0.87444900  1
  Mn  Mn17  1  0.87447800  0.24938200  0.87444900  1
  Mn  Mn18  1  0.49551000  0.00000000  0.00515200  1
  Mn  Mn19  1  0.12325150  0.25275850  0.12388000  1
  Mn  Mn20  1  0.12325150  0.74724150  0.12388000  1
  Mn  Mn21  1  0.37389100  0.75370500  0.37701500  1
  Mn  Mn22  1  0.24106500  0.00000000  0.25526100  1
  Mn  Mn23  1  0.37389100  0.24629500  0.37701500  1
  Mn  Mn24  1  0.37745500  0.50000000  0.62266900  1
  Mn  Mn25  1  0.12570400  0.50000000  0.37651300  1
  Mn  Mn26  1  0.01180400  0.00000000  0.49527900  1
  Mn  Mn27  1  0.12662650  0.75015150  0.62376600  1
  Mn  Mn28  1  0.39378000  0.50000000  0.21910300  1
  Mn  Mn29  1  0.12662650  0.24984850  0.62376600  1
  Mn  Mn30  1  0.12398700  0.50000000  0.87438900  1
  Mn  Mn31  1  0.25027100  0.50000000  0.74856500  1
  Mn  Mn32  1  0.37447800  0.25061800  0.87444900  1
  Mn  Mn33  1  0.37447800  0.74938200  0.87444900  1
  O  O34  1  0.96252750  0.26171650  0.06144300  1
  O  O35  1  0.57066800  0.00000000  0.17658300  1
  O  O36  1  0.96252750  0.73828350  0.06144300  1
  O  O37  1  0.66702900  0.00000000  0.06353300  1
  O  O38  1  0.70616200  0.24919500  0.32062200  1
  O  O39  1  0.57189400  0.50000000  0.18612900  1
  O  O40  1  0.78993600  0.26777300  0.18920000  1
  O  O41  1  0.82399300  0.50000000  0.43016600  1
  O  O42  1  0.67923000  0.50000000  0.07341100  1
  O  O43  1  0.70616200  0.75080500  0.32062200  1
  O  O44  1  0.78993600  0.73222700  0.18920000  1
  O  O45  1  0.92280100  0.50000000  0.31768300  1
  O  O46  1  0.95588300  0.77959200  0.56526200  1
  O  O47  1  0.82965100  0.00000000  0.43472800  1
  O  O48  1  0.93221900  0.00000000  0.32016400  1
  O  O49  1  0.54352900  0.25103000  0.43187200  1
  O  O50  1  0.95588300  0.22040800  0.56526200  1
  O  O51  1  0.55642500  0.50000000  0.67495500  1
  O  O52  1  0.54352900  0.74897000  0.43187200  1
  O  O53  1  0.67244300  0.50000000  0.56401500  1
  O  O54  1  0.58429000  0.00000000  0.68451400  1
  O  O55  1  0.70191100  0.77675600  0.81677200  1
  O  O56  1  0.79943650  0.77824550  0.68203000  1
  O  O57  1  0.69610300  0.00000000  0.57242700  1
  O  O58  1  0.80442400  0.00000000  0.92574700  1
  O  O59  1  0.70191100  0.22324400  0.81677200  1
  O  O60  1  0.91690000  0.00000000  0.81449800  1
  O  O61  1  0.79943650  0.22175450  0.68203000  1
  O  O62  1  0.82887000  0.50000000  0.93514200  1
  O  O63  1  0.94383900  0.50000000  0.82356300  1
  O  O64  1  0.54870600  0.77417100  0.93141400  1
  O  O65  1  0.54870600  0.22582900  0.93141400  1
  O  O66  1  0.46252750  0.76171650  0.06144300  1
  O  O67  1  0.07066800  0.50000000  0.17658300  1
  O  O68  1  0.46252750  0.23828350  0.06144300  1
  O  O69  1  0.16702900  0.50000000  0.06353300  1
  O  O70  1  0.20616200  0.74919500  0.32062200  1
  O  O71  1  0.07189400  0.00000000  0.18612900  1
  O  O72  1  0.28993600  0.76777300  0.18920000  1
  O  O73  1  0.32399300  0.00000000  0.43016600  1
  O  O74  1  0.17923000  0.00000000  0.07341100  1
  O  O75  1  0.20616200  0.25080500  0.32062200  1
  O  O76  1  0.28993600  0.23222700  0.18920000  1
  O  O77  1  0.42280100  0.00000000  0.31768300  1
  O  O78  1  0.45588300  0.27959200  0.56526200  1
  O  O79  1  0.32965100  0.50000000  0.43472800  1
  O  O80  1  0.43221900  0.50000000  0.32016400  1
  O  O81  1  0.04352900  0.75103000  0.43187200  1
  O  O82  1  0.45588300  0.72040800  0.56526200  1
  O  O83  1  0.05642500  0.00000000  0.67495500  1
  O  O84  1  0.04352900  0.24897000  0.43187200  1
  O  O85  1  0.17244300  0.00000000  0.56401500  1
  O  O86  1  0.08429000  0.50000000  0.68451400  1
  O  O87  1  0.20191100  0.27675600  0.81677200  1
  O  O88  1  0.29943650  0.27824550  0.68203000  1
  O  O89  1  0.19610300  0.50000000  0.57242700  1
  O  O90  1  0.30442400  0.50000000  0.92574700  1
  O  O91  1  0.20191100  0.72324400  0.81677200  1
  O  O92  1  0.41690000  0.50000000  0.81449800  1
  O  O93  1  0.29943650  0.72175450  0.68203000  1
  O  O94  1  0.32887000  0.00000000  0.93514200  1
  O  O95  1  0.44383900  0.00000000  0.82356300  1
  O  O96  1  0.04870600  0.27417100  0.93141400  1
  O  O97  1  0.04870600  0.72582900  0.93141400  1
