# generated using pymatgen
data_V2Cr3Sb3O16
_symmetry_space_group_name_H-M   'P 1'
_cell_length_a   10.52465800
_cell_length_b   6.11914400
_cell_length_c   9.06046630
_cell_angle_alpha   90.00000000
_cell_angle_beta   90.27227477
_cell_angle_gamma   90.00000000
_symmetry_Int_Tables_number   1
_chemical_formula_structural   V2Cr3Sb3O16
_chemical_formula_sum   'V4 Cr6 Sb6 O32'
_cell_volume   583.50463684
_cell_formula_units_Z   2
loop_
 _symmetry_equiv_pos_site_id
 _symmetry_equiv_pos_as_xyz
  1  'x, y, z'
loop_
 _atom_site_type_symbol
 _atom_site_label
 _atom_site_symmetry_multiplicity
 _atom_site_fract_x
 _atom_site_fract_y
 _atom_site_fract_z
 _atom_site_occupancy
  V  V0  1  0.65037700  0.00000000  0.47458300  1
  V  V1  1  0.32773100  0.00000000  0.99995200  1
  V  V2  1  0.15037700  0.50000000  0.47458300  1
  V  V3  1  0.82773100  0.50000000  0.99995200  1
  Cr  Cr4  1  0.58708900  0.25084200  0.20531500  1
  Cr  Cr5  1  0.58708900  0.74915800  0.20531500  1
  Cr  Cr6  1  0.16995100  0.00000000  0.70905200  1
  Cr  Cr7  1  0.08708900  0.75084200  0.20531500  1
  Cr  Cr8  1  0.08708900  0.24915800  0.20531500  1
  Cr  Cr9  1  0.66995100  0.50000000  0.70905200  1
  Sb  Sb10  1  0.83327100  0.00000000  0.21166000  1
  Sb  Sb11  1  0.41812400  0.24830900  0.71197900  1
  Sb  Sb12  1  0.41812400  0.75169100  0.71197900  1
  Sb  Sb13  1  0.33327100  0.50000000  0.21166000  1
  Sb  Sb14  1  0.91812400  0.74830900  0.71197900  1
  Sb  Sb15  1  0.91812400  0.25169100  0.71197900  1
  O  O16  1  0.58146950  0.24504650  0.60226600  1
  O  O17  1  0.52566600  0.00000000  0.33998900  1
  O  O18  1  0.66966800  0.00000000  0.09877600  1
  O  O19  1  0.00149800  0.00000000  0.30936000  1
  O  O20  1  0.00196700  0.00000000  0.82065600  1
  O  O21  1  0.58146950  0.75495350  0.60226600  1
  O  O22  1  0.73660550  0.21268150  0.34523200  1
  O  O23  1  0.73660550  0.78731850  0.34523200  1
  O  O24  1  0.17415000  0.00000000  0.10080400  1
  O  O25  1  0.83238800  0.00000000  0.60204800  1
  O  O26  1  0.26417200  0.21109200  0.83997200  1
  O  O27  1  0.26417200  0.78890800  0.83997200  1
  O  O28  1  0.33550600  0.00000000  0.59358700  1
  O  O29  1  0.41160950  0.24151950  0.10044400  1
  O  O30  1  0.47986800  0.00000000  0.84478100  1
  O  O31  1  0.41160950  0.75848050  0.10044400  1
  O  O32  1  0.08146950  0.74504650  0.60226600  1
  O  O33  1  0.02566600  0.50000000  0.33998900  1
  O  O34  1  0.16966800  0.50000000  0.09877600  1
  O  O35  1  0.50149800  0.50000000  0.30936000  1
  O  O36  1  0.50196700  0.50000000  0.82065600  1
  O  O37  1  0.08146950  0.25495350  0.60226600  1
  O  O38  1  0.23660550  0.71268150  0.34523200  1
  O  O39  1  0.23660550  0.28731850  0.34523200  1
  O  O40  1  0.67415000  0.50000000  0.10080400  1
  O  O41  1  0.33238800  0.50000000  0.60204800  1
  O  O42  1  0.76417200  0.71109200  0.83997200  1
  O  O43  1  0.76417200  0.28890800  0.83997200  1
  O  O44  1  0.83550600  0.50000000  0.59358700  1
  O  O45  1  0.91160950  0.74151950  0.10044400  1
  O  O46  1  0.97986800  0.50000000  0.84478100  1
  O  O47  1  0.91160950  0.25848050  0.10044400  1
