# generated using pymatgen
data_Li3Ti3CrO8
_symmetry_space_group_name_H-M   'P 1'
_cell_length_a   5.89430479
_cell_length_b   5.89430479
_cell_length_c   14.86152857
_cell_angle_alpha   90.00000000
_cell_angle_beta   90.00000000
_cell_angle_gamma   120.00000000
_symmetry_Int_Tables_number   1
_chemical_formula_structural   Li3Ti3CrO8
_chemical_formula_sum   'Li9 Ti9 Cr3 O24'
_cell_volume   447.15623453
_cell_formula_units_Z   3
loop_
 _symmetry_equiv_pos_site_id
 _symmetry_equiv_pos_as_xyz
  1  'x, y, z'
loop_
 _atom_site_type_symbol
 _atom_site_label
 _atom_site_symmetry_multiplicity
 _atom_site_fract_x
 _atom_site_fract_y
 _atom_site_fract_z
 _atom_site_occupancy
  Li  Li0  1  0.83333333  0.16666667  0.16666667  1
  Li  Li1  1  0.33333333  0.16666667  0.16666667  1
  Li  Li2  1  0.83333333  0.66666667  0.16666667  1
  Li  Li3  1  0.50000000  0.50000000  0.50000000  1
  Li  Li4  1  0.00000000  0.50000000  0.50000000  1
  Li  Li5  1  0.50000000  0.00000000  0.50000000  1
  Li  Li6  1  0.16666667  0.83333333  0.83333333  1
  Li  Li7  1  0.66666667  0.83333333  0.83333333  1
  Li  Li8  1  0.16666667  0.33333333  0.83333333  1
  Ti  Ti9  1  0.50000000  0.50000000  0.00000000  1
  Ti  Ti10  1  0.00000000  0.50000000  0.00000000  1
  Ti  Ti11  1  0.50000000  0.00000000  0.00000000  1
  Ti  Ti12  1  0.16666667  0.83333333  0.33333333  1
  Ti  Ti13  1  0.66666667  0.83333333  0.33333333  1
  Ti  Ti14  1  0.16666667  0.33333333  0.33333333  1
  Ti  Ti15  1  0.83333333  0.16666667  0.66666667  1
  Ti  Ti16  1  0.33333333  0.16666667  0.66666667  1
  Ti  Ti17  1  0.83333333  0.66666667  0.66666667  1
  Cr  Cr18  1  0.00000000  0.00000000  0.00000000  1
  Cr  Cr19  1  0.66666667  0.33333333  0.33333333  1
  Cr  Cr20  1  0.33333333  0.66666667  0.66666667  1
  O  O21  1  0.00000000  0.00000000  0.25469200  1
  O  O22  1  0.50179267  0.49820733  0.25984333  1
  O  O23  1  0.99641467  0.49820733  0.25984333  1
  O  O24  1  0.66666667  0.33333333  0.07864133  1
  O  O25  1  0.50179267  0.00358533  0.25984333  1
  O  O26  1  0.16487400  0.83512600  0.07349000  1
  O  O27  1  0.67025200  0.83512600  0.07349000  1
  O  O28  1  0.16487400  0.32974800  0.07349000  1
  O  O29  1  0.66666667  0.33333333  0.58802533  1
  O  O30  1  0.16845933  0.83154067  0.59317667  1
  O  O31  1  0.66308133  0.83154067  0.59317667  1
  O  O32  1  0.33333333  0.66666667  0.41197467  1
  O  O33  1  0.16845933  0.33691867  0.59317667  1
  O  O34  1  0.83154067  0.16845933  0.40682333  1
  O  O35  1  0.33691867  0.16845933  0.40682333  1
  O  O36  1  0.83154067  0.66308133  0.40682333  1
  O  O37  1  0.33333333  0.66666667  0.92135867  1
  O  O38  1  0.83512600  0.16487400  0.92651000  1
  O  O39  1  0.32974800  0.16487400  0.92651000  1
  O  O40  1  0.00000000  0.00000000  0.74530800  1
  O  O41  1  0.83512600  0.67025200  0.92651000  1
  O  O42  1  0.49820733  0.50179267  0.74015667  1
  O  O43  1  0.00358533  0.50179267  0.74015667  1
  O  O44  1  0.49820733  0.99641467  0.74015667  1
