# generated using pymatgen
data_Cr3Ni(PO4)6
_symmetry_space_group_name_H-M   'P 1'
_cell_length_a   8.58254389
_cell_length_b   8.58254389
_cell_length_c   21.79107635
_cell_angle_alpha   90.00000000
_cell_angle_beta   90.00000000
_cell_angle_gamma   120.00000000
_symmetry_Int_Tables_number   1
_chemical_formula_structural   Cr3Ni(PO4)6
_chemical_formula_sum   'Cr9 Ni3 P18 O72'
_cell_volume   1390.08507385
_cell_formula_units_Z   3
loop_
 _symmetry_equiv_pos_site_id
 _symmetry_equiv_pos_as_xyz
  1  'x, y, z'
loop_
 _atom_site_type_symbol
 _atom_site_label
 _atom_site_symmetry_multiplicity
 _atom_site_fract_x
 _atom_site_fract_y
 _atom_site_fract_z
 _atom_site_occupancy
  Cr  Cr0  1  0.00000000  0.00000000  0.14240200  1
  Cr  Cr1  1  0.33333333  0.66666667  0.02450267  1
  Cr  Cr2  1  0.33333333  0.66666667  0.30933567  1
  Cr  Cr3  1  0.66666667  0.33333333  0.47573533  1
  Cr  Cr4  1  0.00000000  0.00000000  0.35783600  1
  Cr  Cr5  1  0.00000000  0.00000000  0.64266900  1
  Cr  Cr6  1  0.33333333  0.66666667  0.80906867  1
  Cr  Cr7  1  0.66666667  0.33333333  0.69116933  1
  Cr  Cr8  1  0.66666667  0.33333333  0.97600233  1
  Ni  Ni9  1  0.66666667  0.33333333  0.18971533  1
  Ni  Ni10  1  0.33333333  0.66666667  0.52304867  1
  Ni  Ni11  1  0.00000000  0.00000000  0.85638200  1
  P  P12  1  0.38239667  0.05029433  0.08335633  1
  P  P13  1  0.66789767  0.61760333  0.08335633  1
  P  P14  1  0.94970567  0.33210233  0.08335633  1
  P  P15  1  0.71576567  0.99800933  0.24994833  1
  P  P16  1  0.00199067  0.71775633  0.24994833  1
  P  P17  1  0.28224367  0.28423433  0.24994833  1
  P  P18  1  0.04906333  0.38362767  0.41668967  1
  P  P19  1  0.33456433  0.95093667  0.41668967  1
  P  P20  1  0.61637233  0.66543567  0.41668967  1
  P  P21  1  0.38243233  0.33134267  0.58328167  1
  P  P22  1  0.66865733  0.05108967  0.58328167  1
  P  P23  1  0.94891033  0.61756767  0.58328167  1
  P  P24  1  0.71573000  0.71696100  0.75002300  1
  P  P25  1  0.00123100  0.28427000  0.75002300  1
  P  P26  1  0.28303900  0.99876900  0.75002300  1
  P  P27  1  0.04909900  0.66467600  0.91661500  1
  P  P28  1  0.33532400  0.38442300  0.91661500  1
  P  P29  1  0.61557700  0.95090100  0.91661500  1
  O  O30  1  0.19320233  0.17415367  0.30826367  1
  O  O31  1  0.82584633  0.01904867  0.30826367  1
  O  O32  1  0.19527867  0.03310333  0.08931633  1
  O  O33  1  0.98095133  0.80679767  0.30826367  1
  O  O34  1  0.35001367  0.85655233  0.07575333  1
  O  O35  1  0.49816233  0.11895967  0.14103467  1
  O  O36  1  0.83782467  0.80472133  0.08931633  1
  O  O37  1  0.50653867  0.64998633  0.07575333  1
  O  O38  1  0.14344767  0.49346133  0.07575333  1
  O  O39  1  0.79943633  0.97080967  0.19137467  1
  O  O40  1  0.70206667  0.16893733  0.24712533  1
  O  O41  1  0.02919033  0.82862667  0.19137467  1
  O  O42  1  0.62079733  0.50183767  0.14103467  1
  O  O43  1  0.96689667  0.16217533  0.08931633  1
  O  O44  1  0.88104033  0.37920267  0.14103467  1
  O  O45  1  0.52523600  0.83185200  0.25518800  1
  O  O46  1  0.16814800  0.69338400  0.25518800  1
  O  O47  1  0.83106267  0.53312933  0.24712533  1
  O  O48  1  0.17137333  0.20056367  0.19137467  1
  O  O49  1  0.30661600  0.47476400  0.25518800  1
  O  O50  1  0.69704767  0.53227733  0.02554333  1
  O  O51  1  0.46687067  0.29793333  0.24712533  1
  O  O52  1  0.83522967  0.30295233  0.02554333  1
  O  O53  1  0.46772267  0.16477033  0.02554333  1
  O  O54  1  0.85986900  0.50748700  0.64159700  1
  O  O55  1  0.49251300  0.35238200  0.64159700  1
  O  O56  1  0.86194533  0.36643667  0.42264967  1
  O  O57  1  0.64761800  0.14013100  0.64159700  1
  O  O58  1  0.01668033  0.18988567  0.40908667  1
  O  O59  1  0.16482900  0.45229300  0.47436800  1
  O  O60  1  0.50449133  0.13805467  0.42264967  1
  O  O61  1  0.17320533  0.98331967  0.40908667  1
  O  O62  1  0.81011433  0.82679467  0.40908667  1
  O  O63  1  0.46610300  0.30414300  0.52470800  1
  O  O64  1  0.36873333  0.50227067  0.58045867  1
  O  O65  1  0.69585700  0.16196000  0.52470800  1
  O  O66  1  0.28746400  0.83517100  0.47436800  1
  O  O67  1  0.63356333  0.49550867  0.42264967  1
  O  O68  1  0.54770700  0.71253600  0.47436800  1
  O  O69  1  0.19190267  0.16518533  0.58852133  1
  O  O70  1  0.83481467  0.02671733  0.58852133  1
  O  O71  1  0.49772933  0.86646267  0.58045867  1
  O  O72  1  0.83804000  0.53389700  0.52470800  1
  O  O73  1  0.97328267  0.80809733  0.58852133  1
  O  O74  1  0.36371433  0.86561067  0.35887667  1
  O  O75  1  0.13353733  0.63126667  0.58045867  1
  O  O76  1  0.50189633  0.63628567  0.35887667  1
  O  O77  1  0.13438933  0.49810367  0.35887667  1
  O  O78  1  0.52653567  0.84082033  0.97493033  1
  O  O79  1  0.15917967  0.68571533  0.97493033  1
  O  O80  1  0.52861200  0.69977000  0.75598300  1
  O  O81  1  0.31428467  0.47346433  0.97493033  1
  O  O82  1  0.68334700  0.52321900  0.74242000  1
  O  O83  1  0.83149567  0.78562633  0.80770133  1
  O  O84  1  0.17115800  0.47138800  0.75598300  1
  O  O85  1  0.83987200  0.31665300  0.74242000  1
  O  O86  1  0.47678100  0.16012800  0.74242000  1
  O  O87  1  0.13276967  0.63747633  0.85804133  1
  O  O88  1  0.03540000  0.83560400  0.91379200  1
  O  O89  1  0.36252367  0.49529333  0.85804133  1
  O  O90  1  0.95413067  0.16850433  0.80770133  1
  O  O91  1  0.30023000  0.82884200  0.75598300  1
  O  O92  1  0.21437367  0.04586933  0.80770133  1
  O  O93  1  0.85856933  0.49851867  0.92185467  1
  O  O94  1  0.50148133  0.36005067  0.92185467  1
  O  O95  1  0.16439600  0.19979600  0.91379200  1
  O  O96  1  0.50470667  0.86723033  0.85804133  1
  O  O97  1  0.63994933  0.14143067  0.92185467  1
  O  O98  1  0.03038100  0.19894400  0.69221000  1
  O  O99  1  0.80020400  0.96460000  0.91379200  1
  O  O100  1  0.16856300  0.96961900  0.69221000  1
  O  O101  1  0.80105600  0.83143700  0.69221000  1
