# generated using pymatgen
data_MnPO4
_symmetry_space_group_name_H-M   'P 1'
_cell_length_a   9.30509414
_cell_length_b   4.91707250
_cell_length_c   9.11797831
_cell_angle_alpha   90.00000000
_cell_angle_beta   115.94216159
_cell_angle_gamma   90.00000000
_symmetry_Int_Tables_number   1
_chemical_formula_structural   MnPO4
_chemical_formula_sum   'Mn4 P4 O16'
_cell_volume   375.14544376
_cell_formula_units_Z   4
loop_
 _symmetry_equiv_pos_site_id
 _symmetry_equiv_pos_as_xyz
  1  'x, y, z'
loop_
 _atom_site_type_symbol
 _atom_site_label
 _atom_site_symmetry_multiplicity
 _atom_site_fract_x
 _atom_site_fract_y
 _atom_site_fract_z
 _atom_site_occupancy
  Mn  Mn0  1  0.49399550  0.71617650  0.74242700  1
  Mn  Mn1  1  0.99399550  0.78382350  0.24242700  1
  Mn  Mn2  1  0.99399550  0.21617650  0.74242700  1
  Mn  Mn3  1  0.49399550  0.28382350  0.24242700  1
  P  P4  1  0.37586900  0.77639700  0.37388900  1
  P  P5  1  0.37586900  0.22360300  0.87388900  1
  P  P6  1  0.87586900  0.27639700  0.37388900  1
  P  P7  1  0.87586900  0.72360300  0.87388900  1
  O  O8  1  0.89571250  0.13047550  0.23327800  1
  O  O9  1  0.51130850  0.68786950  0.54144900  1
  O  O10  1  0.38572750  0.91306450  0.84719900  1
  O  O11  1  0.21554750  0.29310950  0.87870800  1
  O  O12  1  0.38572750  0.08693550  0.34719900  1
  O  O13  1  0.39571250  0.36952450  0.73327800  1
  O  O14  1  0.21554750  0.70689050  0.37870800  1
  O  O15  1  0.01130850  0.81213050  0.04144900  1
  O  O16  1  0.39571250  0.63047550  0.23327800  1
  O  O17  1  0.01130850  0.18786950  0.54144900  1
  O  O18  1  0.88572750  0.41306450  0.84719900  1
  O  O19  1  0.71554750  0.79310950  0.87870800  1
  O  O20  1  0.88572750  0.58693550  0.34719900  1
  O  O21  1  0.89571250  0.86952450  0.73327800  1
  O  O22  1  0.71554750  0.20689050  0.37870800  1
  O  O23  1  0.51130850  0.31213050  0.04144900  1
