# generated using pymatgen
data_Nb5(AsPd)4
_symmetry_space_group_name_H-M   'P 1'
_cell_length_a   10.61760800
_cell_length_b   10.61760800
_cell_length_c   3.81775400
_cell_angle_alpha   90.00000000
_cell_angle_beta   90.00000000
_cell_angle_gamma   90.00000000
_symmetry_Int_Tables_number   1
_chemical_formula_structural   Nb5(AsPd)4
_chemical_formula_sum   'Nb10 As8 Pd8'
_cell_volume   430.38915097
_cell_formula_units_Z   2
loop_
 _symmetry_equiv_pos_site_id
 _symmetry_equiv_pos_as_xyz
  1  'x, y, z'
loop_
 _atom_site_type_symbol
 _atom_site_label
 _atom_site_symmetry_multiplicity
 _atom_site_fract_x
 _atom_site_fract_y
 _atom_site_fract_z
 _atom_site_occupancy
  Nb  Nb0  1  0.81205000  0.11827600  0.50000000  1
  Nb  Nb1  1  0.18795000  0.88172400  0.50000000  1
  Nb  Nb2  1  0.00000000  0.00000000  0.00000000  1
  Nb  Nb3  1  0.38172400  0.31205000  0.00000000  1
  Nb  Nb4  1  0.61827600  0.68795000  0.00000000  1
  Nb  Nb5  1  0.31205000  0.61827600  0.00000000  1
  Nb  Nb6  1  0.68795000  0.38172400  0.00000000  1
  Nb  Nb7  1  0.50000000  0.50000000  0.50000000  1
  Nb  Nb8  1  0.88172400  0.81205000  0.50000000  1
  Nb  Nb9  1  0.11827600  0.18795000  0.50000000  1
  As  As10  1  0.24393300  0.06593600  0.00000000  1
  As  As11  1  0.75606700  0.93406400  0.00000000  1
  As  As12  1  0.56593600  0.25606700  0.50000000  1
  As  As13  1  0.43406400  0.74393300  0.50000000  1
  As  As14  1  0.74393300  0.56593600  0.50000000  1
  As  As15  1  0.25606700  0.43406400  0.50000000  1
  As  As16  1  0.06593600  0.75606700  0.00000000  1
  As  As17  1  0.93406400  0.24393300  0.00000000  1
  Pd  Pd18  1  0.61142100  0.90380800  0.50000000  1
  Pd  Pd19  1  0.40380800  0.88857900  0.00000000  1
  Pd  Pd20  1  0.38857900  0.09619200  0.50000000  1
  Pd  Pd21  1  0.59619200  0.11142100  0.00000000  1
  Pd  Pd22  1  0.11142100  0.40380800  0.00000000  1
  Pd  Pd23  1  0.90380800  0.38857900  0.50000000  1
  Pd  Pd24  1  0.88857900  0.59619200  0.00000000  1
  Pd  Pd25  1  0.09619200  0.61142100  0.50000000  1
