# generated using pymatgen
data_Li2V2Sn(PO4)3
_symmetry_space_group_name_H-M   'P 1'
_cell_length_a   15.36053200
_cell_length_b   8.87333200
_cell_length_c   9.17476083
_cell_angle_alpha   90.00000000
_cell_angle_beta   122.93867268
_cell_angle_gamma   90.00000000
_symmetry_Int_Tables_number   1
_chemical_formula_structural   Li2V2Sn(PO4)3
_chemical_formula_sum   'Li8 V8 Sn4 P12 O48'
_cell_volume   1049.49571087
_cell_formula_units_Z   4
loop_
 _symmetry_equiv_pos_site_id
 _symmetry_equiv_pos_as_xyz
  1  'x, y, z'
loop_
 _atom_site_type_symbol
 _atom_site_label
 _atom_site_symmetry_multiplicity
 _atom_site_fract_x
 _atom_site_fract_y
 _atom_site_fract_z
 _atom_site_occupancy
  Li  Li0  1  0.50000000  0.85758900  0.00000000  1
  Li  Li1  1  0.50000000  0.15737900  0.50000000  1
  Li  Li2  1  0.20457550  0.04492450  0.49756700  1
  Li  Li3  1  0.79542450  0.04492450  0.50243300  1
  Li  Li4  1  0.00000000  0.35758900  0.00000000  1
  Li  Li5  1  0.00000000  0.65737900  0.50000000  1
  Li  Li6  1  0.70457550  0.54492450  0.49756700  1
  Li  Li7  1  0.29542450  0.54492450  0.50243300  1
  V  V8  1  0.59675300  0.74963400  0.79542000  1
  V  V9  1  0.40324700  0.74963400  0.20458000  1
  V  V10  1  0.59846400  0.25278900  0.30082800  1
  V  V11  1  0.40153600  0.25278900  0.69917200  1
  V  V12  1  0.09675300  0.24963400  0.79542000  1
  V  V13  1  0.90324700  0.24963400  0.20458000  1
  V  V14  1  0.09846400  0.75278900  0.30082800  1
  V  V15  1  0.90153600  0.75278900  0.69917200  1
  Sn  Sn16  1  0.24471650  0.24396150  0.20347700  1
  Sn  Sn17  1  0.75528350  0.24396150  0.79652300  1
  Sn  Sn18  1  0.74471650  0.74396150  0.20347700  1
  Sn  Sn19  1  0.25528350  0.74396150  0.79652300  1
  P  P20  1  0.64435550  0.10523450  0.99940300  1
  P  P21  1  0.35564450  0.10523450  0.00059700  1
  P  P22  1  0.50000000  0.54228800  0.00000000  1
  P  P23  1  0.50000000  0.46178900  0.50000000  1
  P  P24  1  0.64215550  0.89432450  0.48995000  1
  P  P25  1  0.35784450  0.89432450  0.51005000  1
  P  P26  1  0.14435550  0.60523450  0.99940300  1
  P  P27  1  0.85564450  0.60523450  0.00059700  1
  P  P28  1  0.00000000  0.04228800  0.00000000  1
  P  P29  1  0.00000000  0.96178900  0.50000000  1
  P  P30  1  0.14215550  0.39432450  0.48995000  1
  P  P31  1  0.85784450  0.39432450  0.51005000  1
  O  O32  1  0.36823000  0.86931600  0.35514900  1
  O  O33  1  0.93100050  0.05388250  0.33545200  1
  O  O34  1  0.64491050  0.92564550  0.98930000  1
  O  O35  1  0.55394550  0.82643350  0.31603500  1
  O  O36  1  0.55379850  0.16773450  0.82844900  1
  O  O37  1  0.74637700  0.16883000  0.01990700  1
  O  O38  1  0.25362300  0.16883000  0.98009300  1
  O  O39  1  0.35508950  0.92564550  0.01070000  1
  O  O40  1  0.06899950  0.05388250  0.66454800  1
  O  O41  1  0.42147150  0.65521850  0.00608600  1
  O  O42  1  0.42518950  0.35440550  0.51743400  1
  O  O43  1  0.63177000  0.86931600  0.64485100  1
  O  O44  1  0.35482750  0.13607250  0.83649200  1
  O  O45  1  0.57852850  0.65521850  0.99391400  1
  O  O46  1  0.57481050  0.35440550  0.48256600  1
  O  O47  1  0.93608000  0.95349700  0.83136700  1
  O  O48  1  0.64921700  0.07010900  0.47572900  1
  O  O49  1  0.74533600  0.82996600  0.52124300  1
  O  O50  1  0.25466400  0.82996600  0.47875700  1
  O  O51  1  0.44605450  0.82643350  0.68396500  1
  O  O52  1  0.44620150  0.16773450  0.17155100  1
  O  O53  1  0.35078300  0.07010900  0.52427100  1
  O  O54  1  0.06392000  0.95349700  0.16863300  1
  O  O55  1  0.64517250  0.13607250  0.16350800  1
  O  O56  1  0.86823000  0.36931600  0.35514900  1
  O  O57  1  0.43100050  0.55388250  0.33545200  1
  O  O58  1  0.14491050  0.42564550  0.98930000  1
  O  O59  1  0.05394550  0.32643350  0.31603500  1
  O  O60  1  0.05379850  0.66773450  0.82844900  1
  O  O61  1  0.24637700  0.66883000  0.01990700  1
  O  O62  1  0.75362300  0.66883000  0.98009300  1
  O  O63  1  0.85508950  0.42564550  0.01070000  1
  O  O64  1  0.56899950  0.55388250  0.66454800  1
  O  O65  1  0.92147150  0.15521850  0.00608600  1
  O  O66  1  0.92518950  0.85440550  0.51743400  1
  O  O67  1  0.13177000  0.36931600  0.64485100  1
  O  O68  1  0.85482750  0.63607250  0.83649200  1
  O  O69  1  0.07852850  0.15521850  0.99391400  1
  O  O70  1  0.07481050  0.85440550  0.48256600  1
  O  O71  1  0.43608000  0.45349700  0.83136700  1
  O  O72  1  0.14921700  0.57010900  0.47572900  1
  O  O73  1  0.24533600  0.32996600  0.52124300  1
  O  O74  1  0.75466400  0.32996600  0.47875700  1
  O  O75  1  0.94605450  0.32643350  0.68396500  1
  O  O76  1  0.94620150  0.66773450  0.17155100  1
  O  O77  1  0.85078300  0.57010900  0.52427100  1
  O  O78  1  0.56392000  0.45349700  0.16863300  1
  O  O79  1  0.14517250  0.63607250  0.16350800  1
