# generated using pymatgen
data_Li2Ti3Ni(PO4)6
_symmetry_space_group_name_H-M   'P 1'
_cell_length_a   8.64281543
_cell_length_b   8.64281543
_cell_length_c   21.36023895
_cell_angle_alpha   90.00000000
_cell_angle_beta   90.00000000
_cell_angle_gamma   120.00000000
_symmetry_Int_Tables_number   1
_chemical_formula_structural   Li2Ti3Ni(PO4)6
_chemical_formula_sum   'Li6 Ti9 Ni3 P18 O72'
_cell_volume   1381.80644958
_cell_formula_units_Z   3
loop_
 _symmetry_equiv_pos_site_id
 _symmetry_equiv_pos_as_xyz
  1  'x, y, z'
loop_
 _atom_site_type_symbol
 _atom_site_label
 _atom_site_symmetry_multiplicity
 _atom_site_fract_x
 _atom_site_fract_y
 _atom_site_fract_z
 _atom_site_occupancy
  Li  Li0  1  0.00000000  0.00000000  0.01160400  1
  Li  Li1  1  0.33333333  0.66666667  0.16489467  1
  Li  Li2  1  0.66666667  0.33333333  0.34493733  1
  Li  Li3  1  0.00000000  0.00000000  0.49822800  1
  Li  Li4  1  0.33333333  0.66666667  0.67827067  1
  Li  Li5  1  0.66666667  0.33333333  0.83156133  1
  Ti  Ti6  1  0.66666667  0.33333333  0.19114133  1
  Ti  Ti7  1  0.33333333  0.66666667  0.31116167  1
  Ti  Ti8  1  0.33333333  0.66666667  0.02149167  1
  Ti  Ti9  1  0.33333333  0.66666667  0.52447467  1
  Ti  Ti10  1  0.00000000  0.00000000  0.64449500  1
  Ti  Ti11  1  0.00000000  0.00000000  0.35482500  1
  Ti  Ti12  1  0.00000000  0.00000000  0.85780800  1
  Ti  Ti13  1  0.66666667  0.33333333  0.97782833  1
  Ti  Ti14  1  0.66666667  0.33333333  0.68815833  1
  Ni  Ni15  1  0.00000000  0.00000000  0.14280600  1
  Ni  Ni16  1  0.66666667  0.33333333  0.47613933  1
  Ni  Ni17  1  0.33333333  0.66666667  0.80947267  1
  P  P18  1  0.70797567  0.71035633  0.24897133  1
  P  P19  1  0.28964367  0.99761933  0.24897133  1
  P  P20  1  0.00238067  0.29202433  0.24897133  1
  P  P21  1  0.66690000  0.04254200  0.08361800  1
  P  P22  1  0.37564200  0.33310000  0.08361800  1
  P  P23  1  0.95745800  0.62435800  0.08361800  1
  P  P24  1  0.37464233  0.04368967  0.58230467  1
  P  P25  1  0.95631033  0.33095267  0.58230467  1
  P  P26  1  0.66904733  0.62535767  0.58230467  1
  P  P27  1  0.33356667  0.37587533  0.41695133  1
  P  P28  1  0.04230867  0.66643333  0.41695133  1
  P  P29  1  0.62412467  0.95769133  0.41695133  1
  P  P30  1  0.04130900  0.37702300  0.91563800  1
  P  P31  1  0.62297700  0.66428600  0.91563800  1
  P  P32  1  0.33571400  0.95869100  0.91563800  1
  P  P33  1  0.00023333  0.70920867  0.75028467  1
  P  P34  1  0.70897533  0.99976667  0.75028467  1
  P  P35  1  0.29079133  0.29102467  0.75028467  1
  O  O36  1  0.85564100  0.51493800  0.02519200  1
  O  O37  1  0.65929700  0.14435900  0.02519200  1
  O  O38  1  0.69681733  0.52573367  0.24995467  1
  O  O39  1  0.48506200  0.34070300  0.02519200  1
  O  O40  1  0.51373967  0.67658333  0.25119833  1
  O  O41  1  0.79243233  0.81437867  0.18957167  1
  O  O42  1  0.47426633  0.17108367  0.24995467  1
  O  O43  1  0.32341667  0.83715633  0.25119833  1
  O  O44  1  0.16284367  0.48626033  0.25119833  1
  O  O45  1  0.66056700  0.14320600  0.14249400  1
  O  O46  1  0.83648100  0.02946900  0.07858100  1
  O  O47  1  0.48263900  0.33943300  0.14249400  1
  O  O48  1  0.18562133  0.97805367  0.18957167  1
  O  O49  1  0.82891633  0.30318267  0.24995467  1
  O  O50  1  0.02194633  0.20756767  0.18957167  1
  O  O51  1  0.50027833  0.85163767  0.08543667  1
  O  O52  1  0.35135933  0.49972167  0.08543667  1
  O  O53  1  0.19298800  0.16351900  0.07858100  1
  O  O54  1  0.85679400  0.51736100  0.14249400  1
  O  O55  1  0.14836233  0.64864067  0.08543667  1
  O  O56  1  0.18752000  0.00205500  0.30839300  1
  O  O57  1  0.97053100  0.80701200  0.07858100  1
  O  O58  1  0.99794500  0.18546500  0.30839300  1
  O  O59  1  0.81453500  0.81248000  0.30839300  1
  O  O60  1  0.52230767  0.84827133  0.35852533  1
  O  O61  1  0.32596367  0.47769233  0.35852533  1
  O  O62  1  0.36348400  0.85906700  0.58328800  1
  O  O63  1  0.15172867  0.67403633  0.35852533  1
  O  O64  1  0.18040633  0.00991667  0.58453167  1
  O  O65  1  0.45909900  0.14771200  0.52290500  1
  O  O66  1  0.14093300  0.50441700  0.58328800  1
  O  O67  1  0.99008333  0.17048967  0.58453167  1
  O  O68  1  0.82951033  0.81959367  0.58453167  1
  O  O69  1  0.32723367  0.47653933  0.47582733  1
  O  O70  1  0.50314767  0.36280233  0.41191433  1
  O  O71  1  0.14930567  0.67276633  0.47582733  1
  O  O72  1  0.85228800  0.31138700  0.52290500  1
  O  O73  1  0.49558300  0.63651600  0.58328800  1
  O  O74  1  0.68861300  0.54090100  0.52290500  1
  O  O75  1  0.16694500  0.18497100  0.41877000  1
  O  O76  1  0.01802600  0.83305500  0.41877000  1
  O  O77  1  0.85965467  0.49685233  0.41191433  1
  O  O78  1  0.52346067  0.85069433  0.47582733  1
  O  O79  1  0.81502900  0.98197400  0.41877000  1
  O  O80  1  0.85418667  0.33538833  0.64172633  1
  O  O81  1  0.63719767  0.14034533  0.41191433  1
  O  O82  1  0.66461167  0.51879833  0.64172633  1
  O  O83  1  0.48120167  0.14581333  0.64172633  1
  O  O84  1  0.18897433  0.18160467  0.69185867  1
  O  O85  1  0.99263033  0.81102567  0.69185867  1
  O  O86  1  0.03015067  0.19240033  0.91662133  1
  O  O87  1  0.81839533  0.00736967  0.69185867  1
  O  O88  1  0.84707300  0.34325000  0.91786500  1
  O  O89  1  0.12576567  0.48104533  0.85623833  1
  O  O90  1  0.80759967  0.83775033  0.91662133  1
  O  O91  1  0.65675000  0.50382300  0.91786500  1
  O  O92  1  0.49617700  0.15292700  0.91786500  1
  O  O93  1  0.99390033  0.80987267  0.80916067  1
  O  O94  1  0.16981433  0.69613567  0.74524767  1
  O  O95  1  0.81597233  0.00609967  0.80916067  1
  O  O96  1  0.51895467  0.64472033  0.85623833  1
  O  O97  1  0.16224967  0.96984933  0.91662133  1
  O  O98  1  0.35527967  0.87423433  0.85623833  1
  O  O99  1  0.83361167  0.51830433  0.75210333  1
  O  O100  1  0.68469267  0.16638833  0.75210333  1
  O  O101  1  0.52632133  0.83018567  0.74524767  1
  O  O102  1  0.19012733  0.18402767  0.80916067  1
  O  O103  1  0.48169567  0.31530733  0.75210333  1
  O  O104  1  0.52085333  0.66872167  0.97505967  1
  O  O105  1  0.30386433  0.47367867  0.74524767  1
  O  O106  1  0.33127833  0.85213167  0.97505967  1
  O  O107  1  0.14786833  0.47914667  0.97505967  1
