# generated using pymatgen
data_LiCo2(CO3)4
_symmetry_space_group_name_H-M   'P 1'
_cell_length_a   7.45583900
_cell_length_b   9.55086800
_cell_length_c   8.43336493
_cell_angle_alpha   90.00000000
_cell_angle_beta   109.58333072
_cell_angle_gamma   90.00000000
_symmetry_Int_Tables_number   1
_chemical_formula_structural   LiCo2(CO3)4
_chemical_formula_sum   'Li2 Co4 C8 O24'
_cell_volume   565.79957720
_cell_formula_units_Z   2
loop_
 _symmetry_equiv_pos_site_id
 _symmetry_equiv_pos_as_xyz
  1  'x, y, z'
loop_
 _atom_site_type_symbol
 _atom_site_label
 _atom_site_symmetry_multiplicity
 _atom_site_fract_x
 _atom_site_fract_y
 _atom_site_fract_z
 _atom_site_occupancy
  Li  Li0  1  0.74745300  0.08685900  0.10862100  1
  Li  Li1  1  0.25254700  0.58685900  0.89137900  1
  Co  Co2  1  0.17482900  0.86535900  0.67712400  1
  Co  Co3  1  0.82517100  0.36535900  0.32287600  1
  Co  Co4  1  0.71041400  0.64635800  0.18249800  1
  Co  Co5  1  0.28958600  0.14635800  0.81750200  1
  C  C6  1  0.49191200  0.02642700  0.61791400  1
  C  C7  1  0.00672100  0.49911300  0.10126300  1
  C  C8  1  0.00525300  0.60028600  0.51784700  1
  C  C9  1  0.99474700  0.10028600  0.48215300  1
  C  C10  1  0.48014700  0.87994500  0.99610100  1
  C  C11  1  0.51985300  0.37994500  0.00389900  1
  C  C12  1  0.50808800  0.52642700  0.38208600  1
  C  C13  1  0.99327900  0.99911300  0.89873700  1
  O  O14  1  0.38908200  0.91530400  0.61728200  1
  O  O15  1  0.47269900  0.14108000  0.69230300  1
  O  O16  1  0.38602800  0.52109900  0.45494100  1
  O  O17  1  0.87955700  0.60007600  0.06504500  1
  O  O18  1  0.00195800  0.40249800  0.21143300  1
  O  O19  1  0.86816000  0.99338200  0.96649900  1
  O  O20  1  0.12532300  0.66227400  0.64667300  1
  O  O21  1  0.01731500  0.96820400  0.47431300  1
  O  O22  1  0.08479400  0.17585300  0.61257000  1
  O  O23  1  0.91520600  0.67585300  0.38743000  1
  O  O24  1  0.98268500  0.46820400  0.52568700  1
  O  O25  1  0.87467700  0.16227400  0.35332700  1
  O  O26  1  0.62500100  0.83920100  0.12076100  1
  O  O27  1  0.53008100  0.51507800  0.02793700  1
  O  O28  1  0.63984700  0.29241200  0.09698100  1
  O  O29  1  0.36015300  0.79241200  0.90301900  1
  O  O30  1  0.46991900  0.01507800  0.97206300  1
  O  O31  1  0.37499900  0.33920100  0.87923900  1
  O  O32  1  0.61397200  0.02109900  0.54505900  1
  O  O33  1  0.52730100  0.64108000  0.30769700  1
  O  O34  1  0.61091800  0.41530400  0.38271800  1
  O  O35  1  0.13184000  0.49338200  0.03350100  1
  O  O36  1  0.99804200  0.90249800  0.78856700  1
  O  O37  1  0.12044300  0.10007600  0.93495500  1
