# generated using pymatgen
data_LiMg2Mn3O8
_symmetry_space_group_name_H-M   'P 1'
_cell_length_a   5.95386607
_cell_length_b   5.95386607
_cell_length_c   14.59243500
_cell_angle_alpha   90.00000000
_cell_angle_beta   90.00000000
_cell_angle_gamma   120.00000000
_symmetry_Int_Tables_number   1
_chemical_formula_structural   LiMg2Mn3O8
_chemical_formula_sum   'Li3 Mg6 Mn9 O24'
_cell_volume   447.97782983
_cell_formula_units_Z   3
loop_
 _symmetry_equiv_pos_site_id
 _symmetry_equiv_pos_as_xyz
  1  'x, y, z'
loop_
 _atom_site_type_symbol
 _atom_site_label
 _atom_site_symmetry_multiplicity
 _atom_site_fract_x
 _atom_site_fract_y
 _atom_site_fract_z
 _atom_site_occupancy
  Li  Li0  1  0.66666667  0.33333333  0.21608633  1
  Li  Li1  1  0.33333333  0.66666667  0.54941967  1
  Li  Li2  1  0.00000000  0.00000000  0.88275300  1
  Mg  Mg3  1  0.00000000  0.00000000  0.11738300  1
  Mg  Mg4  1  0.33333333  0.66666667  0.16655667  1
  Mg  Mg5  1  0.66666667  0.33333333  0.45071633  1
  Mg  Mg6  1  0.00000000  0.00000000  0.49989000  1
  Mg  Mg7  1  0.33333333  0.66666667  0.78404967  1
  Mg  Mg8  1  0.66666667  0.33333333  0.83322333  1
  Mn  Mn9  1  0.16848200  0.33696400  0.33268500  1
  Mn  Mn10  1  0.16848200  0.83151800  0.33268500  1
  Mn  Mn11  1  0.66303600  0.83151800  0.33268500  1
  Mn  Mn12  1  0.83514867  0.67029733  0.66601833  1
  Mn  Mn13  1  0.83514867  0.16485133  0.66601833  1
  Mn  Mn14  1  0.32970267  0.16485133  0.66601833  1
  Mn  Mn15  1  0.50181533  0.00363067  0.99935167  1
  Mn  Mn16  1  0.50181533  0.49818467  0.99935167  1
  Mn  Mn17  1  0.99636933  0.49818467  0.99935167  1
  O  O18  1  0.00000000  0.00000000  0.25771900  1
  O  O19  1  0.63636600  0.81818300  0.07319600  1
  O  O20  1  0.18181700  0.81818300  0.07319600  1
  O  O21  1  0.18181700  0.36363400  0.07319600  1
  O  O22  1  0.48441233  0.51558767  0.26108667  1
  O  O23  1  0.48441233  0.96882467  0.26108667  1
  O  O24  1  0.03117533  0.51558767  0.26108667  1
  O  O25  1  0.66666667  0.33333333  0.07468733  1
  O  O26  1  0.66666667  0.33333333  0.59105233  1
  O  O27  1  0.30303267  0.15151633  0.40652933  1
  O  O28  1  0.84848367  0.15151633  0.40652933  1
  O  O29  1  0.84848367  0.69696733  0.40652933  1
  O  O30  1  0.15107900  0.84892100  0.59442000  1
  O  O31  1  0.15107900  0.30215800  0.59442000  1
  O  O32  1  0.69784200  0.84892100  0.59442000  1
  O  O33  1  0.33333333  0.66666667  0.40802067  1
  O  O34  1  0.33333333  0.66666667  0.92438567  1
  O  O35  1  0.96969933  0.48484967  0.73986267  1
  O  O36  1  0.51515033  0.48484967  0.73986267  1
  O  O37  1  0.51515033  0.03030067  0.73986267  1
  O  O38  1  0.81774567  0.18225433  0.92775333  1
  O  O39  1  0.81774567  0.63549133  0.92775333  1
  O  O40  1  0.36450867  0.18225433  0.92775333  1
  O  O41  1  0.00000000  0.00000000  0.74135400  1
