# generated using pymatgen
data_Na4Fe2C4SO16
_symmetry_space_group_name_H-M   'P 1'
_cell_length_a   13.71914200
_cell_length_b   13.80234800
_cell_length_c   14.36502400
_cell_angle_alpha   90.00000000
_cell_angle_beta   90.00000000
_cell_angle_gamma   90.00000000
_symmetry_Int_Tables_number   1
_chemical_formula_structural   Na4Fe2C4SO16
_chemical_formula_sum   'Na32 Fe16 C32 S8 O128'
_cell_volume   2720.10883042
_cell_formula_units_Z   8
loop_
 _symmetry_equiv_pos_site_id
 _symmetry_equiv_pos_as_xyz
  1  'x, y, z'
loop_
 _atom_site_type_symbol
 _atom_site_label
 _atom_site_symmetry_multiplicity
 _atom_site_fract_x
 _atom_site_fract_y
 _atom_site_fract_z
 _atom_site_occupancy
  Na  Na0  1  0.75000000  0.45863400  0.25000000  1
  Na  Na1  1  0.95898600  0.25000000  0.25000000  1
  Na  Na2  1  0.70898600  0.00000000  0.00000000  1
  Na  Na3  1  0.50000000  0.20863400  0.00000000  1
  Na  Na4  1  0.75000000  0.04136600  0.25000000  1
  Na  Na5  1  0.54101400  0.25000000  0.25000000  1
  Na  Na6  1  0.29101400  0.00000000  0.00000000  1
  Na  Na7  1  0.50000000  0.79136600  0.00000000  1
  Na  Na8  1  0.75000000  0.95863400  0.75000000  1
  Na  Na9  1  0.95898600  0.75000000  0.75000000  1
  Na  Na10  1  0.70898600  0.50000000  0.50000000  1
  Na  Na11  1  0.50000000  0.70863400  0.50000000  1
  Na  Na12  1  0.75000000  0.54136600  0.75000000  1
  Na  Na13  1  0.54101400  0.75000000  0.75000000  1
  Na  Na14  1  0.29101400  0.50000000  0.50000000  1
  Na  Na15  1  0.50000000  0.29136600  0.50000000  1
  Na  Na16  1  0.25000000  0.45863400  0.75000000  1
  Na  Na17  1  0.45898600  0.25000000  0.75000000  1
  Na  Na18  1  0.20898600  0.00000000  0.50000000  1
  Na  Na19  1  0.00000000  0.20863400  0.50000000  1
  Na  Na20  1  0.25000000  0.04136600  0.75000000  1
  Na  Na21  1  0.04101400  0.25000000  0.75000000  1
  Na  Na22  1  0.79101400  0.00000000  0.50000000  1
  Na  Na23  1  0.00000000  0.79136600  0.50000000  1
  Na  Na24  1  0.25000000  0.95863400  0.25000000  1
  Na  Na25  1  0.45898600  0.75000000  0.25000000  1
  Na  Na26  1  0.20898600  0.50000000  0.00000000  1
  Na  Na27  1  0.00000000  0.70863400  0.00000000  1
  Na  Na28  1  0.25000000  0.54136600  0.25000000  1
  Na  Na29  1  0.04101400  0.75000000  0.25000000  1
  Na  Na30  1  0.79101400  0.50000000  0.00000000  1
  Na  Na31  1  0.00000000  0.29136600  0.00000000  1
  Fe  Fe32  1  0.62500000  0.62500000  0.12500000  1
  Fe  Fe33  1  0.87500000  0.87500000  0.12500000  1
  Fe  Fe34  1  0.87500000  0.62500000  0.37500000  1
  Fe  Fe35  1  0.62500000  0.87500000  0.37500000  1
  Fe  Fe36  1  0.62500000  0.12500000  0.62500000  1
  Fe  Fe37  1  0.87500000  0.37500000  0.62500000  1
  Fe  Fe38  1  0.87500000  0.12500000  0.87500000  1
  Fe  Fe39  1  0.62500000  0.37500000  0.87500000  1
  Fe  Fe40  1  0.12500000  0.62500000  0.62500000  1
  Fe  Fe41  1  0.37500000  0.87500000  0.62500000  1
  Fe  Fe42  1  0.37500000  0.62500000  0.87500000  1
  Fe  Fe43  1  0.12500000  0.87500000  0.87500000  1
  Fe  Fe44  1  0.12500000  0.12500000  0.12500000  1
  Fe  Fe45  1  0.37500000  0.37500000  0.12500000  1
  Fe  Fe46  1  0.37500000  0.12500000  0.37500000  1
  Fe  Fe47  1  0.12500000  0.37500000  0.37500000  1
  C  C48  1  0.90799550  0.40945750  0.41458300  1
  C  C49  1  0.15799550  0.15945750  0.33541700  1
  C  C50  1  0.59200450  0.40945750  0.08541700  1
  C  C51  1  0.90799550  0.09054250  0.08541700  1
  C  C52  1  0.34200450  0.15945750  0.16458300  1
  C  C53  1  0.65799550  0.84054250  0.16458300  1
  C  C54  1  0.59200450  0.09054250  0.41458300  1
  C  C55  1  0.84200450  0.84054250  0.33541700  1
  C  C56  1  0.90799550  0.90945750  0.91458300  1
  C  C57  1  0.15799550  0.65945750  0.83541700  1
  C  C58  1  0.59200450  0.90945750  0.58541700  1
  C  C59  1  0.90799550  0.59054250  0.58541700  1
  C  C60  1  0.34200450  0.65945750  0.66458300  1
  C  C61  1  0.65799550  0.34054250  0.66458300  1
  C  C62  1  0.59200450  0.59054250  0.91458300  1
  C  C63  1  0.84200450  0.34054250  0.83541700  1
  C  C64  1  0.40799550  0.40945750  0.91458300  1
  C  C65  1  0.65799550  0.15945750  0.83541700  1
  C  C66  1  0.09200450  0.40945750  0.58541700  1
  C  C67  1  0.40799550  0.09054250  0.58541700  1
  C  C68  1  0.84200450  0.15945750  0.66458300  1
  C  C69  1  0.15799550  0.84054250  0.66458300  1
  C  C70  1  0.09200450  0.09054250  0.91458300  1
  C  C71  1  0.34200450  0.84054250  0.83541700  1
  C  C72  1  0.40799550  0.90945750  0.41458300  1
  C  C73  1  0.65799550  0.65945750  0.33541700  1
  C  C74  1  0.09200450  0.90945750  0.08541700  1
  C  C75  1  0.40799550  0.59054250  0.08541700  1
  C  C76  1  0.84200450  0.65945750  0.16458300  1
  C  C77  1  0.15799550  0.34054250  0.16458300  1
  C  C78  1  0.09200450  0.59054250  0.41458300  1
  C  C79  1  0.34200450  0.34054250  0.33541700  1
  S  S80  1  0.50000000  0.00000000  0.00000000  1
  S  S81  1  0.75000000  0.25000000  0.25000000  1
  S  S82  1  0.50000000  0.50000000  0.50000000  1
  S  S83  1  0.75000000  0.75000000  0.75000000  1
  S  S84  1  0.00000000  0.00000000  0.50000000  1
  S  S85  1  0.25000000  0.25000000  0.75000000  1
  S  S86  1  0.00000000  0.50000000  0.00000000  1
  S  S87  1  0.25000000  0.75000000  0.25000000  1
  O  O88  1  0.39174750  0.97946050  0.35632900  1
  O  O89  1  0.06369250  0.93653600  0.44120550  1
  O  O90  1  0.35257850  0.89853900  0.48683150  1
  O  O91  1  0.10257850  0.14853900  0.26316850  1
  O  O92  1  0.14742150  0.89853900  0.01316850  1
  O  O93  1  0.22885050  0.09885650  0.35097900  1
  O  O94  1  0.43630750  0.93653600  0.05879450  1
  O  O95  1  0.93630750  0.06346400  0.44120550  1
  O  O96  1  0.72885050  0.90114350  0.14902100  1
  O  O97  1  0.85257850  0.10146100  0.01316850  1
  O  O98  1  0.14174750  0.22946050  0.39367100  1
  O  O99  1  0.56369250  0.06346400  0.05879450  1
  O  O100  1  0.10825250  0.97946050  0.14367100  1
  O  O101  1  0.89174750  0.02053950  0.14367100  1
  O  O102  1  0.97885050  0.34885650  0.39902100  1
  O  O103  1  0.27114950  0.09885650  0.14902100  1
  O  O104  1  0.47885050  0.65114350  0.10097900  1
  O  O105  1  0.77114950  0.90114350  0.35097900  1
  O  O106  1  0.35825250  0.22946050  0.10632900  1
  O  O107  1  0.64174750  0.77053950  0.10632900  1
  O  O108  1  0.68630750  0.18653600  0.19120550  1
  O  O109  1  0.60825250  0.02053950  0.35632900  1
  O  O110  1  0.39742150  0.14853900  0.23683150  1
  O  O111  1  0.52114950  0.34885650  0.10097900  1
  O  O112  1  0.81369250  0.18653600  0.30879450  1
  O  O113  1  0.81369250  0.31346400  0.19120550  1
  O  O114  1  0.02114950  0.65114350  0.39902100  1
  O  O115  1  0.60257850  0.85146100  0.23683150  1
  O  O116  1  0.64742150  0.10146100  0.48683150  1
  O  O117  1  0.89742150  0.85146100  0.26316850  1
  O  O118  1  0.68630750  0.31346400  0.30879450  1
  O  O119  1  0.85825250  0.77053950  0.39367100  1
  O  O120  1  0.39174750  0.47946050  0.85632900  1
  O  O121  1  0.06369250  0.43653600  0.94120550  1
  O  O122  1  0.35257850  0.39853900  0.98683150  1
  O  O123  1  0.10257850  0.64853900  0.76316850  1
  O  O124  1  0.14742150  0.39853900  0.51316850  1
  O  O125  1  0.22885050  0.59885650  0.85097900  1
  O  O126  1  0.43630750  0.43653600  0.55879450  1
  O  O127  1  0.93630750  0.56346400  0.94120550  1
  O  O128  1  0.72885050  0.40114350  0.64902100  1
  O  O129  1  0.85257850  0.60146100  0.51316850  1
  O  O130  1  0.14174750  0.72946050  0.89367100  1
  O  O131  1  0.56369250  0.56346400  0.55879450  1
  O  O132  1  0.10825250  0.47946050  0.64367100  1
  O  O133  1  0.89174750  0.52053950  0.64367100  1
  O  O134  1  0.97885050  0.84885650  0.89902100  1
  O  O135  1  0.27114950  0.59885650  0.64902100  1
  O  O136  1  0.47885050  0.15114350  0.60097900  1
  O  O137  1  0.77114950  0.40114350  0.85097900  1
  O  O138  1  0.35825250  0.72946050  0.60632900  1
  O  O139  1  0.64174750  0.27053950  0.60632900  1
  O  O140  1  0.68630750  0.68653600  0.69120550  1
  O  O141  1  0.60825250  0.52053950  0.85632900  1
  O  O142  1  0.39742150  0.64853900  0.73683150  1
  O  O143  1  0.52114950  0.84885650  0.60097900  1
  O  O144  1  0.81369250  0.68653600  0.80879450  1
  O  O145  1  0.81369250  0.81346400  0.69120550  1
  O  O146  1  0.02114950  0.15114350  0.89902100  1
  O  O147  1  0.60257850  0.35146100  0.73683150  1
  O  O148  1  0.64742150  0.60146100  0.98683150  1
  O  O149  1  0.89742150  0.35146100  0.76316850  1
  O  O150  1  0.68630750  0.81346400  0.80879450  1
  O  O151  1  0.85825250  0.27053950  0.89367100  1
  O  O152  1  0.89174750  0.97946050  0.85632900  1
  O  O153  1  0.56369250  0.93653600  0.94120550  1
  O  O154  1  0.85257850  0.89853900  0.98683150  1
  O  O155  1  0.60257850  0.14853900  0.76316850  1
  O  O156  1  0.64742150  0.89853900  0.51316850  1
  O  O157  1  0.72885050  0.09885650  0.85097900  1
  O  O158  1  0.93630750  0.93653600  0.55879450  1
  O  O159  1  0.43630750  0.06346400  0.94120550  1
  O  O160  1  0.22885050  0.90114350  0.64902100  1
  O  O161  1  0.35257850  0.10146100  0.51316850  1
  O  O162  1  0.64174750  0.22946050  0.89367100  1
  O  O163  1  0.06369250  0.06346400  0.55879450  1
  O  O164  1  0.60825250  0.97946050  0.64367100  1
  O  O165  1  0.39174750  0.02053950  0.64367100  1
  O  O166  1  0.47885050  0.34885650  0.89902100  1
  O  O167  1  0.77114950  0.09885650  0.64902100  1
  O  O168  1  0.97885050  0.65114350  0.60097900  1
  O  O169  1  0.27114950  0.90114350  0.85097900  1
  O  O170  1  0.85825250  0.22946050  0.60632900  1
  O  O171  1  0.14174750  0.77053950  0.60632900  1
  O  O172  1  0.18630750  0.18653600  0.69120550  1
  O  O173  1  0.10825250  0.02053950  0.85632900  1
  O  O174  1  0.89742150  0.14853900  0.73683150  1
  O  O175  1  0.02114950  0.34885650  0.60097900  1
  O  O176  1  0.31369250  0.18653600  0.80879450  1
  O  O177  1  0.31369250  0.31346400  0.69120550  1
  O  O178  1  0.52114950  0.65114350  0.89902100  1
  O  O179  1  0.10257850  0.85146100  0.73683150  1
  O  O180  1  0.14742150  0.10146100  0.98683150  1
  O  O181  1  0.39742150  0.85146100  0.76316850  1
  O  O182  1  0.18630750  0.31346400  0.80879450  1
  O  O183  1  0.35825250  0.77053950  0.89367100  1
  O  O184  1  0.89174750  0.47946050  0.35632900  1
  O  O185  1  0.56369250  0.43653600  0.44120550  1
  O  O186  1  0.85257850  0.39853900  0.48683150  1
  O  O187  1  0.60257850  0.64853900  0.26316850  1
  O  O188  1  0.64742150  0.39853900  0.01316850  1
  O  O189  1  0.72885050  0.59885650  0.35097900  1
  O  O190  1  0.93630750  0.43653600  0.05879450  1
  O  O191  1  0.43630750  0.56346400  0.44120550  1
  O  O192  1  0.22885050  0.40114350  0.14902100  1
  O  O193  1  0.35257850  0.60146100  0.01316850  1
  O  O194  1  0.64174750  0.72946050  0.39367100  1
  O  O195  1  0.06369250  0.56346400  0.05879450  1
  O  O196  1  0.60825250  0.47946050  0.14367100  1
  O  O197  1  0.39174750  0.52053950  0.14367100  1
  O  O198  1  0.47885050  0.84885650  0.39902100  1
  O  O199  1  0.77114950  0.59885650  0.14902100  1
  O  O200  1  0.97885050  0.15114350  0.10097900  1
  O  O201  1  0.27114950  0.40114350  0.35097900  1
  O  O202  1  0.85825250  0.72946050  0.10632900  1
  O  O203  1  0.14174750  0.27053950  0.10632900  1
  O  O204  1  0.18630750  0.68653600  0.19120550  1
  O  O205  1  0.10825250  0.52053950  0.35632900  1
  O  O206  1  0.89742150  0.64853900  0.23683150  1
  O  O207  1  0.02114950  0.84885650  0.10097900  1
  O  O208  1  0.31369250  0.68653600  0.30879450  1
  O  O209  1  0.31369250  0.81346400  0.19120550  1
  O  O210  1  0.52114950  0.15114350  0.39902100  1
  O  O211  1  0.10257850  0.35146100  0.23683150  1
  O  O212  1  0.14742150  0.60146100  0.48683150  1
  O  O213  1  0.39742150  0.35146100  0.26316850  1
  O  O214  1  0.18630750  0.81346400  0.30879450  1
  O  O215  1  0.35825250  0.27053950  0.39367100  1
