# generated using pymatgen
data_LiCrP2O7
_symmetry_space_group_name_H-M   'P 1'
_cell_length_a   7.04307300
_cell_length_b   10.02668000
_cell_length_c   8.09974918
_cell_angle_alpha   90.00000000
_cell_angle_beta   110.91581629
_cell_angle_gamma   90.00000000
_symmetry_Int_Tables_number   1
_chemical_formula_structural   LiCrP2O7
_chemical_formula_sum   'Li4 Cr4 P8 O28'
_cell_volume   534.30231894
_cell_formula_units_Z   4
loop_
 _symmetry_equiv_pos_site_id
 _symmetry_equiv_pos_as_xyz
  1  'x, y, z'
loop_
 _atom_site_type_symbol
 _atom_site_label
 _atom_site_symmetry_multiplicity
 _atom_site_fract_x
 _atom_site_fract_y
 _atom_site_fract_z
 _atom_site_occupancy
  Li  Li0  1  0.39760100  0.16190100  0.95013400  1
  Li  Li1  1  0.39760100  0.33809900  0.45013400  1
  Li  Li2  1  0.60239900  0.66190100  0.54986600  1
  Li  Li3  1  0.60239900  0.83809900  0.04986600  1
  Cr  Cr4  1  0.26906800  0.60796900  0.74357300  1
  Cr  Cr5  1  0.26906800  0.89203100  0.24357300  1
  Cr  Cr6  1  0.73093200  0.10796900  0.75642700  1
  Cr  Cr7  1  0.73093200  0.39203100  0.25642700  1
  P  P8  1  0.03138400  0.85385900  0.79574000  1
  P  P9  1  0.03138400  0.64614100  0.29574000  1
  P  P10  1  0.36121700  0.90901100  0.68167800  1
  P  P11  1  0.36121700  0.59098900  0.18167800  1
  P  P12  1  0.63878300  0.40901100  0.81832200  1
  P  P13  1  0.63878300  0.09098900  0.31832200  1
  P  P14  1  0.96861600  0.35385900  0.70426000  1
  P  P15  1  0.96861600  0.14614100  0.20426000  1
  O  O16  1  0.01139600  0.70597900  0.74024000  1
  O  O17  1  0.17954400  0.88041700  0.98181600  1
  O  O18  1  0.17580100  0.41805800  0.74575700  1
  O  O19  1  0.12843100  0.92835800  0.66381800  1
  O  O20  1  0.01139600  0.79402100  0.24024000  1
  O  O21  1  0.17954400  0.61958300  0.48181600  1
  O  O22  1  0.37678800  0.60478100  0.00296000  1
  O  O23  1  0.17580100  0.08194200  0.24575700  1
  O  O24  1  0.12843100  0.57164200  0.16381800  1
  O  O25  1  0.43859800  0.78142100  0.79275000  1
  O  O26  1  0.37678800  0.89521900  0.50296000  1
  O  O27  1  0.52526500  0.53090500  0.71267900  1
  O  O28  1  0.47473500  0.03090500  0.78732100  1
  O  O29  1  0.43859800  0.71857900  0.29275000  1
  O  O30  1  0.56140200  0.28142100  0.70725000  1
  O  O31  1  0.52526500  0.96909500  0.21267900  1
  O  O32  1  0.47473500  0.46909500  0.28732100  1
  O  O33  1  0.62321200  0.10478100  0.49704000  1
  O  O34  1  0.56140200  0.21857900  0.20725000  1
  O  O35  1  0.87156900  0.42835800  0.83618200  1
  O  O36  1  0.82419900  0.91805800  0.75424300  1
  O  O37  1  0.62321200  0.39521900  0.99704000  1
  O  O38  1  0.82045600  0.38041700  0.51818400  1
  O  O39  1  0.98860400  0.20597900  0.75976000  1
  O  O40  1  0.87156900  0.07164200  0.33618200  1
  O  O41  1  0.82419900  0.58194200  0.25424300  1
  O  O42  1  0.82045600  0.11958300  0.01818400  1
  O  O43  1  0.98860400  0.29402100  0.25976000  1
