# generated using pymatgen
data_Li3(CoO2)4
_symmetry_space_group_name_H-M   'P 1'
_cell_length_a   5.77274200
_cell_length_b   5.77274200
_cell_length_c   14.04590741
_cell_angle_alpha   90.00000000
_cell_angle_beta   90.00000000
_cell_angle_gamma   120.00000000
_symmetry_Int_Tables_number   1
_chemical_formula_structural   Li3(CoO2)4
_chemical_formula_sum   'Li9 Co12 O24'
_cell_volume   405.36358149
_cell_formula_units_Z   3
loop_
 _symmetry_equiv_pos_site_id
 _symmetry_equiv_pos_as_xyz
  1  'x, y, z'
loop_
 _atom_site_type_symbol
 _atom_site_label
 _atom_site_symmetry_multiplicity
 _atom_site_fract_x
 _atom_site_fract_y
 _atom_site_fract_z
 _atom_site_occupancy
  Li  Li0  1  0.16666667  0.33333333  0.83333333  1
  Li  Li1  1  0.33333333  0.16666667  0.16666667  1
  Li  Li2  1  0.83333333  0.16666667  0.16666667  1
  Li  Li3  1  0.83333333  0.66666667  0.16666667  1
  Li  Li4  1  0.00000000  0.50000000  0.50000000  1
  Li  Li5  1  0.50000000  0.50000000  0.50000000  1
  Li  Li6  1  0.50000000  0.00000000  0.50000000  1
  Li  Li7  1  0.66666667  0.83333333  0.83333333  1
  Li  Li8  1  0.16666667  0.83333333  0.83333333  1
  Co  Co9  1  0.50000000  0.50000000  0.00000000  1
  Co  Co10  1  0.00000000  0.50000000  0.00000000  1
  Co  Co11  1  0.16666667  0.33333333  0.33333333  1
  Co  Co12  1  0.33333333  0.66666667  0.16666667  1
  Co  Co13  1  0.16666667  0.83333333  0.33333333  1
  Co  Co14  1  0.66666667  0.83333333  0.33333333  1
  Co  Co15  1  0.83333333  0.66666667  0.66666667  1
  Co  Co16  1  1.00000000  1.00000000  0.50000000  1
  Co  Co17  1  0.83333333  0.16666667  0.66666667  1
  Co  Co18  1  0.33333333  0.16666667  0.66666667  1
  Co  Co19  1  0.50000000  0.00000000  0.00000000  1
  Co  Co20  1  0.66666667  0.33333333  0.83333333  1
  O  O21  1  0.33333333  0.66666667  0.40397967  1
  O  O22  1  0.18260700  0.36521400  0.08393400  1
  O  O23  1  0.18260700  0.81739300  0.08393400  1
  O  O24  1  0.03188067  0.51594033  0.24939933  1
  O  O25  1  0.63478600  0.81739300  0.08393400  1
  O  O26  1  0.48405967  0.51594033  0.24939933  1
  O  O27  1  0.48405967  0.96811933  0.24939933  1
  O  O28  1  0.33333333  0.66666667  0.92935367  1
  O  O29  1  0.00000000  0.00000000  0.73731300  1
  O  O30  1  0.84927367  0.69854733  0.41726733  1
  O  O31  1  0.84927367  0.15072633  0.41726733  1
  O  O32  1  0.69854733  0.84927367  0.58273267  1
  O  O33  1  0.30145267  0.15072633  0.41726733  1
  O  O34  1  0.15072633  0.84927367  0.58273267  1
  O  O35  1  0.15072633  0.30145267  0.58273267  1
  O  O36  1  0.00000000  0.00000000  0.26268700  1
  O  O37  1  0.66666667  0.33333333  0.07064633  1
  O  O38  1  0.51594033  0.03188067  0.75060067  1
  O  O39  1  0.51594033  0.48405967  0.75060067  1
  O  O40  1  0.36521400  0.18260700  0.91606600  1
  O  O41  1  0.96811933  0.48405967  0.75060067  1
  O  O42  1  0.81739300  0.18260700  0.91606600  1
  O  O43  1  0.81739300  0.63478600  0.91606600  1
  O  O44  1  0.66666667  0.33333333  0.59602033  1
