# generated using pymatgen
data_Li4Fe3Co2Ni3O16
_symmetry_space_group_name_H-M   'P 1'
_cell_length_a   10.05503000
_cell_length_b   5.83680600
_cell_length_c   9.28840466
_cell_angle_alpha   90.00000000
_cell_angle_beta   90.29325308
_cell_angle_gamma   90.00000000
_symmetry_Int_Tables_number   1
_chemical_formula_structural   Li4Fe3Co2Ni3O16
_chemical_formula_sum   'Li8 Fe6 Co4 Ni6 O32'
_cell_volume   545.12245069
_cell_formula_units_Z   2
loop_
 _symmetry_equiv_pos_site_id
 _symmetry_equiv_pos_as_xyz
  1  'x, y, z'
loop_
 _atom_site_type_symbol
 _atom_site_label
 _atom_site_symmetry_multiplicity
 _atom_site_fract_x
 _atom_site_fract_y
 _atom_site_fract_z
 _atom_site_occupancy
  Li  Li0  1  0.67073200  0.00000000  0.10573500  1
  Li  Li1  1  0.99398000  0.00000000  0.00749700  1
  Li  Li2  1  0.99430900  0.00000000  0.50568700  1
  Li  Li3  1  0.33618300  0.00000000  0.59917700  1
  Li  Li4  1  0.17073200  0.50000000  0.10573500  1
  Li  Li5  1  0.49398000  0.50000000  0.00749700  1
  Li  Li6  1  0.49430900  0.50000000  0.50568700  1
  Li  Li7  1  0.83618300  0.50000000  0.59917700  1
  Fe  Fe8  1  0.58599100  0.75481500  0.78742000  1
  Fe  Fe9  1  0.58599100  0.24518500  0.78742000  1
  Fe  Fe10  1  0.16892500  0.00000000  0.28664900  1
  Fe  Fe11  1  0.08599100  0.25481500  0.78742000  1
  Fe  Fe12  1  0.08599100  0.74518500  0.78742000  1
  Fe  Fe13  1  0.66892500  0.50000000  0.28664900  1
  Co  Co14  1  0.66647000  0.00000000  0.51427700  1
  Co  Co15  1  0.33629800  0.00000000  0.01801300  1
  Co  Co16  1  0.16647000  0.50000000  0.51427700  1
  Co  Co17  1  0.83629800  0.50000000  0.01801300  1
  Ni  Ni18  1  0.82759700  0.00000000  0.78913200  1
  Ni  Ni19  1  0.41455600  0.75736600  0.28742700  1
  Ni  Ni20  1  0.41455600  0.24263400  0.28742700  1
  Ni  Ni21  1  0.32759700  0.50000000  0.78913200  1
  Ni  Ni22  1  0.91455600  0.25736600  0.28742700  1
  Ni  Ni23  1  0.91455600  0.74263400  0.28742700  1
  O  O24  1  0.58267800  0.75180900  0.40220000  1
  O  O25  1  0.52262300  0.00000000  0.65099300  1
  O  O26  1  0.67034300  0.00000000  0.89698700  1
  O  O27  1  0.99198500  0.00000000  0.69850300  1
  O  O28  1  0.99068900  0.00000000  0.20018300  1
  O  O29  1  0.58267800  0.24819100  0.40220000  1
  O  O30  1  0.73909000  0.78051900  0.64903900  1
  O  O31  1  0.73909000  0.21948100  0.64903900  1
  O  O32  1  0.16971000  0.00000000  0.90427000  1
  O  O33  1  0.82562400  0.00000000  0.40426900  1
  O  O34  1  0.26435850  0.78274150  0.15280200  1
  O  O35  1  0.26435850  0.21725850  0.15280200  1
  O  O36  1  0.34002600  0.00000000  0.39053900  1
  O  O37  1  0.41599100  0.75915500  0.90517300  1
  O  O38  1  0.48191300  0.00000000  0.15202400  1
  O  O39  1  0.41599100  0.24084500  0.90517300  1
  O  O40  1  0.08267800  0.25180900  0.40220000  1
  O  O41  1  0.02262300  0.50000000  0.65099300  1
  O  O42  1  0.17034300  0.50000000  0.89698700  1
  O  O43  1  0.49198500  0.50000000  0.69850300  1
  O  O44  1  0.49068900  0.50000000  0.20018300  1
  O  O45  1  0.08267800  0.74819100  0.40220000  1
  O  O46  1  0.23909000  0.28051900  0.64903900  1
  O  O47  1  0.23909000  0.71948100  0.64903900  1
  O  O48  1  0.66971000  0.50000000  0.90427000  1
  O  O49  1  0.32562400  0.50000000  0.40426900  1
  O  O50  1  0.76435850  0.28274150  0.15280200  1
  O  O51  1  0.76435850  0.71725850  0.15280200  1
  O  O52  1  0.84002600  0.50000000  0.39053900  1
  O  O53  1  0.91599100  0.25915500  0.90517300  1
  O  O54  1  0.98191300  0.50000000  0.15202400  1
  O  O55  1  0.91599100  0.74084500  0.90517300  1
