# generated using pymatgen
data_Li3MnCu3O8
_symmetry_space_group_name_H-M   'P 1'
_cell_length_a   5.87203630
_cell_length_b   5.87203630
_cell_length_c   14.59818484
_cell_angle_alpha   90.00000000
_cell_angle_beta   90.00000000
_cell_angle_gamma   120.00000000
_symmetry_Int_Tables_number   1
_chemical_formula_structural   Li3MnCu3O8
_chemical_formula_sum   'Li9 Mn3 Cu9 O24'
_cell_volume   435.92015850
_cell_formula_units_Z   3
loop_
 _symmetry_equiv_pos_site_id
 _symmetry_equiv_pos_as_xyz
  1  'x, y, z'
loop_
 _atom_site_type_symbol
 _atom_site_label
 _atom_site_symmetry_multiplicity
 _atom_site_fract_x
 _atom_site_fract_y
 _atom_site_fract_z
 _atom_site_occupancy
  Li  Li0  1  0.83333333  0.16666667  0.16666667  1
  Li  Li1  1  0.33333333  0.16666667  0.16666667  1
  Li  Li2  1  0.83333333  0.66666667  0.16666667  1
  Li  Li3  1  0.50000000  0.50000000  0.50000000  1
  Li  Li4  1  0.00000000  0.50000000  0.50000000  1
  Li  Li5  1  0.50000000  0.00000000  0.50000000  1
  Li  Li6  1  0.16666667  0.83333333  0.83333333  1
  Li  Li7  1  0.66666667  0.83333333  0.83333333  1
  Li  Li8  1  0.16666667  0.33333333  0.83333333  1
  Mn  Mn9  1  0.00000000  0.00000000  0.00000000  1
  Mn  Mn10  1  0.66666667  0.33333333  0.33333333  1
  Mn  Mn11  1  0.33333333  0.66666667  0.66666667  1
  Cu  Cu12  1  0.50000000  0.50000000  0.00000000  1
  Cu  Cu13  1  0.00000000  0.50000000  0.00000000  1
  Cu  Cu14  1  0.50000000  0.00000000  0.00000000  1
  Cu  Cu15  1  0.16666667  0.83333333  0.33333333  1
  Cu  Cu16  1  0.66666667  0.83333333  0.33333333  1
  Cu  Cu17  1  0.16666667  0.33333333  0.33333333  1
  Cu  Cu18  1  0.83333333  0.16666667  0.66666667  1
  Cu  Cu19  1  0.33333333  0.16666667  0.66666667  1
  Cu  Cu20  1  0.83333333  0.66666667  0.66666667  1
  O  O21  1  0.66666667  0.33333333  0.07302133  1
  O  O22  1  0.15727667  0.84272333  0.07309933  1
  O  O23  1  0.68544667  0.84272333  0.07309933  1
  O  O24  1  0.00000000  0.00000000  0.26031200  1
  O  O25  1  0.15727667  0.31455333  0.07309933  1
  O  O26  1  0.50939000  0.49061000  0.26023400  1
  O  O27  1  0.98122000  0.49061000  0.26023400  1
  O  O28  1  0.50939000  0.01878000  0.26023400  1
  O  O29  1  0.33333333  0.66666667  0.40635467  1
  O  O30  1  0.82394333  0.17605667  0.40643267  1
  O  O31  1  0.35211333  0.17605667  0.40643267  1
  O  O32  1  0.66666667  0.33333333  0.59364533  1
  O  O33  1  0.82394333  0.64788667  0.40643267  1
  O  O34  1  0.17605667  0.82394333  0.59356733  1
  O  O35  1  0.64788667  0.82394333  0.59356733  1
  O  O36  1  0.17605667  0.35211333  0.59356733  1
  O  O37  1  0.00000000  0.00000000  0.73968800  1
  O  O38  1  0.49061000  0.50939000  0.73976600  1
  O  O39  1  0.01878000  0.50939000  0.73976600  1
  O  O40  1  0.33333333  0.66666667  0.92697867  1
  O  O41  1  0.49061000  0.98122000  0.73976600  1
  O  O42  1  0.84272333  0.15727667  0.92690067  1
  O  O43  1  0.31455333  0.15727667  0.92690067  1
  O  O44  1  0.84272333  0.68544667  0.92690067  1
