# generated using pymatgen
data_LiV2O2F3
_symmetry_space_group_name_H-M   'P 1'
_cell_length_a   10.42961200
_cell_length_b   5.30695800
_cell_length_c   7.20521477
_cell_angle_alpha   90.00000000
_cell_angle_beta   112.56491915
_cell_angle_gamma   90.00000000
_symmetry_Int_Tables_number   1
_chemical_formula_structural   LiV2O2F3
_chemical_formula_sum   'Li4 V8 O8 F12'
_cell_volume   368.27473632
_cell_formula_units_Z   4
loop_
 _symmetry_equiv_pos_site_id
 _symmetry_equiv_pos_as_xyz
  1  'x, y, z'
loop_
 _atom_site_type_symbol
 _atom_site_label
 _atom_site_symmetry_multiplicity
 _atom_site_fract_x
 _atom_site_fract_y
 _atom_site_fract_z
 _atom_site_occupancy
  Li  Li0  1  0.00000000  0.00000000  0.00000000  1
  Li  Li1  1  0.00000000  0.00000000  0.50000000  1
  Li  Li2  1  0.50000000  0.50000000  0.00000000  1
  Li  Li3  1  0.50000000  0.50000000  0.50000000  1
  V  V4  1  0.11591900  0.50678900  0.20563900  1
  V  V5  1  0.11591900  0.49321100  0.70563900  1
  V  V6  1  0.38408100  0.00678900  0.29436100  1
  V  V7  1  0.38408100  0.99321100  0.79436100  1
  V  V8  1  0.61591900  0.00678900  0.20563900  1
  V  V9  1  0.61591900  0.99321100  0.70563900  1
  V  V10  1  0.88408100  0.50678900  0.29436100  1
  V  V11  1  0.88408100  0.49321100  0.79436100  1
  O  O12  1  0.07968350  0.64349150  0.43927900  1
  O  O13  1  0.07968350  0.35650850  0.93927900  1
  O  O14  1  0.42031650  0.14349150  0.06072100  1
  O  O15  1  0.42031650  0.85650850  0.56072100  1
  O  O16  1  0.57968350  0.14349150  0.43927900  1
  O  O17  1  0.57968350  0.85650850  0.93927900  1
  O  O18  1  0.92031650  0.64349150  0.06072100  1
  O  O19  1  0.92031650  0.35650850  0.56072100  1
  F  F20  1  0.19588350  0.84772750  0.16091700  1
  F  F21  1  0.30411650  0.34772750  0.33908300  1
  F  F22  1  0.19588350  0.15227250  0.66091700  1
  F  F23  1  0.30411650  0.65227250  0.83908300  1
  F  F24  1  0.00000000  0.19919700  0.25000000  1
  F  F25  1  0.00000000  0.80080300  0.75000000  1
  F  F26  1  0.69588350  0.34772750  0.16091700  1
  F  F27  1  0.80411650  0.84772750  0.33908300  1
  F  F28  1  0.69588350  0.65227250  0.66091700  1
  F  F29  1  0.80411650  0.15227250  0.83908300  1
  F  F30  1  0.50000000  0.69919700  0.25000000  1
  F  F31  1  0.50000000  0.30080300  0.75000000  1
