# generated using pymatgen
data_Ba4LiY2Cu5O14
_symmetry_space_group_name_H-M   'P 1'
_cell_length_a   7.71684000
_cell_length_b   7.84948000
_cell_length_c   12.50736570
_cell_angle_alpha   90.00000000
_cell_angle_beta   107.94821565
_cell_angle_gamma   90.00000000
_symmetry_Int_Tables_number   1
_chemical_formula_structural   Ba4LiY2Cu5O14
_chemical_formula_sum   'Ba8 Li2 Y4 Cu10 O28'
_cell_volume   720.74211166
_cell_formula_units_Z   2
loop_
 _symmetry_equiv_pos_site_id
 _symmetry_equiv_pos_as_xyz
  1  'x, y, z'
loop_
 _atom_site_type_symbol
 _atom_site_label
 _atom_site_symmetry_multiplicity
 _atom_site_fract_x
 _atom_site_fract_y
 _atom_site_fract_z
 _atom_site_occupancy
  Ba  Ba0  1  0.65476450  0.74991550  0.81274500  1
  Ba  Ba1  1  0.34136800  0.75070100  0.18192600  1
  Ba  Ba2  1  0.65476450  0.25008450  0.81274500  1
  Ba  Ba3  1  0.34136800  0.24929900  0.18192600  1
  Ba  Ba4  1  0.15476450  0.24991550  0.81274500  1
  Ba  Ba5  1  0.84136800  0.25070100  0.18192600  1
  Ba  Ba6  1  0.15476450  0.75008450  0.81274500  1
  Ba  Ba7  1  0.84136800  0.74929900  0.18192600  1
  Li  Li8  1  0.82957200  0.00000000  0.66316900  1
  Li  Li9  1  0.32957200  0.50000000  0.66316900  1
  Y  Y10  1  0.49963050  0.74917450  0.50256500  1
  Y  Y11  1  0.49963050  0.25082550  0.50256500  1
  Y  Y12  1  0.99963050  0.24917450  0.50256500  1
  Y  Y13  1  0.99963050  0.75082550  0.50256500  1
  Cu  Cu14  1  0.99866100  0.00000000  0.99727600  1
  Cu  Cu15  1  0.49898500  0.00000000  0.00014200  1
  Cu  Cu16  1  0.17632700  0.00000000  0.35334000  1
  Cu  Cu17  1  0.67656200  0.00000000  0.35432100  1
  Cu  Cu18  1  0.31174200  0.00000000  0.62828400  1
  Cu  Cu19  1  0.49866100  0.50000000  0.99727600  1
  Cu  Cu20  1  0.99898500  0.50000000  0.00014200  1
  Cu  Cu21  1  0.67632700  0.50000000  0.35334000  1
  Cu  Cu22  1  0.17656200  0.50000000  0.35432100  1
  Cu  Cu23  1  0.81174200  0.50000000  0.62828400  1
  O  O24  1  0.48609850  0.74975050  0.99874700  1
  O  O25  1  0.30748800  0.76064100  0.61916700  1
  O  O26  1  0.42207800  0.00000000  0.84488600  1
  O  O27  1  0.06514300  0.00000000  0.61850500  1
  O  O28  1  0.48609850  0.25024950  0.99874700  1
  O  O29  1  0.68692350  0.75074950  0.37858300  1
  O  O30  1  0.30748800  0.23935900  0.61916700  1
  O  O31  1  0.08117800  0.00000000  0.15517400  1
  O  O32  1  0.92125500  0.00000000  0.83882900  1
  O  O33  1  0.43823100  0.00000000  0.37692500  1
  O  O34  1  0.54974800  0.00000000  0.61839200  1
  O  O35  1  0.68692350  0.24925050  0.37858300  1
  O  O36  1  0.58232500  0.00000000  0.15726100  1
  O  O37  1  0.93749400  0.00000000  0.37664400  1
  O  O38  1  0.98609850  0.24975050  0.99874700  1
  O  O39  1  0.80748800  0.26064100  0.61916700  1
  O  O40  1  0.92207800  0.50000000  0.84488600  1
  O  O41  1  0.56514300  0.50000000  0.61850500  1
  O  O42  1  0.98609850  0.75024950  0.99874700  1
  O  O43  1  0.18692350  0.25074950  0.37858300  1
  O  O44  1  0.80748800  0.73935900  0.61916700  1
  O  O45  1  0.58117800  0.50000000  0.15517400  1
  O  O46  1  0.42125500  0.50000000  0.83882900  1
  O  O47  1  0.93823100  0.50000000  0.37692500  1
  O  O48  1  0.04974800  0.50000000  0.61839200  1
  O  O49  1  0.18692350  0.74925050  0.37858300  1
  O  O50  1  0.08232500  0.50000000  0.15726100  1
  O  O51  1  0.43749400  0.50000000  0.37664400  1
