# generated using pymatgen
data_Li5Co2Ni5O12
_symmetry_space_group_name_H-M   'P 1'
_cell_length_a   4.96304485
_cell_length_b   8.72476661
_cell_length_c   9.63792686
_cell_angle_alpha   90.00000000
_cell_angle_beta   100.25192687
_cell_angle_gamma   90.00000000
_symmetry_Int_Tables_number   1
_chemical_formula_structural   Li5Co2Ni5O12
_chemical_formula_sum   'Li10 Co4 Ni10 O24'
_cell_volume   410.67291684
_cell_formula_units_Z   2
loop_
 _symmetry_equiv_pos_site_id
 _symmetry_equiv_pos_as_xyz
  1  'x, y, z'
loop_
 _atom_site_type_symbol
 _atom_site_label
 _atom_site_symmetry_multiplicity
 _atom_site_fract_x
 _atom_site_fract_y
 _atom_site_fract_z
 _atom_site_occupancy
  Li  Li0  1  0.75295100  0.91708100  0.75423300  1
  Li  Li1  1  0.24704900  0.91708100  0.24576700  1
  Li  Li2  1  0.50000000  0.58326550  0.00000000  1
  Li  Li3  1  0.25049200  0.58523500  0.24444200  1
  Li  Li4  1  0.74950800  0.58523500  0.75555800  1
  Li  Li5  1  0.25295100  0.41708100  0.75423300  1
  Li  Li6  1  0.74704900  0.41708100  0.24576700  1
  Li  Li7  1  0.00000000  0.08326550  0.00000000  1
  Li  Li8  1  0.75049200  0.08523500  0.24444200  1
  Li  Li9  1  0.24950800  0.08523500  0.75555800  1
  Co  Co10  1  0.50000000  0.74763200  0.50000000  1
  Co  Co11  1  0.00000000  0.74971300  0.00000000  1
  Co  Co12  1  0.00000000  0.24763200  0.50000000  1
  Co  Co13  1  0.50000000  0.24971300  0.00000000  1
  Ni  Ni14  1  0.74295800  0.74534100  0.24564900  1
  Ni  Ni15  1  0.25704200  0.74534100  0.75435100  1
  Ni  Ni16  1  0.50000000  0.91817000  0.00000000  1
  Ni  Ni17  1  0.00000000  0.91448050  0.50000000  1
  Ni  Ni18  1  0.00000000  0.58246600  0.50000000  1
  Ni  Ni19  1  0.24295800  0.24534100  0.24564900  1
  Ni  Ni20  1  0.75704200  0.24534100  0.75435100  1
  Ni  Ni21  1  0.00000000  0.41817000  0.00000000  1
  Ni  Ni22  1  0.50000000  0.41448050  0.50000000  1
  Ni  Ni23  1  0.50000000  0.08246600  0.50000000  1
  O  O24  1  0.85667150  0.90472650  0.11322000  1
  O  O25  1  0.63078550  0.90322850  0.38707100  1
  O  O26  1  0.63450950  0.76355050  0.88744300  1
  O  O27  1  0.14332850  0.90472650  0.88678000  1
  O  O28  1  0.36921450  0.90322850  0.61292900  1
  O  O29  1  0.36549050  0.76355050  0.11255700  1
  O  O30  1  0.13341750  0.75128350  0.38166600  1
  O  O31  1  0.11272350  0.58896450  0.88381700  1
  O  O32  1  0.86658250  0.75128350  0.61833400  1
  O  O33  1  0.38249550  0.59139850  0.61752800  1
  O  O34  1  0.88727650  0.58896450  0.11618300  1
  O  O35  1  0.61750450  0.59139850  0.38247200  1
  O  O36  1  0.35667150  0.40472650  0.11322000  1
  O  O37  1  0.13078550  0.40322850  0.38707100  1
  O  O38  1  0.13450950  0.26355050  0.88744300  1
  O  O39  1  0.64332850  0.40472650  0.88678000  1
  O  O40  1  0.86921450  0.40322850  0.61292900  1
  O  O41  1  0.86549050  0.26355050  0.11255700  1
  O  O42  1  0.63341750  0.25128350  0.38166600  1
  O  O43  1  0.61272350  0.08896450  0.88381700  1
  O  O44  1  0.36658250  0.25128350  0.61833400  1
  O  O45  1  0.88249550  0.09139850  0.61752800  1
  O  O46  1  0.38727650  0.08896450  0.11618300  1
  O  O47  1  0.11750450  0.09139850  0.38247200  1
