# generated using pymatgen
data_Li2Fe2S3
_symmetry_space_group_name_H-M   'P 1'
_cell_length_a   14.07389000
_cell_length_b   12.00279000
_cell_length_c   6.51577409
_cell_angle_alpha   90.00000000
_cell_angle_beta   116.97820595
_cell_angle_gamma   90.00000000
_symmetry_Int_Tables_number   1
_chemical_formula_structural   Li2Fe2S3
_chemical_formula_sum   'Li16 Fe16 S24'
_cell_volume   980.90600790
_cell_formula_units_Z   8
loop_
 _symmetry_equiv_pos_site_id
 _symmetry_equiv_pos_as_xyz
  1  'x, y, z'
loop_
 _atom_site_type_symbol
 _atom_site_label
 _atom_site_symmetry_multiplicity
 _atom_site_fract_x
 _atom_site_fract_y
 _atom_site_fract_z
 _atom_site_occupancy
  Li  Li0  1  0.40726700  0.58359500  0.95513000  1
  Li  Li1  1  0.40726700  0.41640500  0.45513000  1
  Li  Li2  1  0.00000000  0.72257000  0.75000000  1
  Li  Li3  1  0.00000000  0.42317200  0.75000000  1
  Li  Li4  1  0.00000000  0.57682800  0.25000000  1
  Li  Li5  1  0.00000000  0.27743000  0.25000000  1
  Li  Li6  1  0.59273300  0.58359500  0.54487000  1
  Li  Li7  1  0.59273300  0.41640500  0.04487000  1
  Li  Li8  1  0.90726700  0.08359500  0.95513000  1
  Li  Li9  1  0.90726700  0.91640500  0.45513000  1
  Li  Li10  1  0.50000000  0.22257000  0.75000000  1
  Li  Li11  1  0.50000000  0.92317200  0.75000000  1
  Li  Li12  1  0.50000000  0.07682800  0.25000000  1
  Li  Li13  1  0.50000000  0.77743000  0.25000000  1
  Li  Li14  1  0.09273300  0.08359500  0.54487000  1
  Li  Li15  1  0.09273300  0.91640500  0.04487000  1
  Fe  Fe16  1  0.20761650  0.42106350  0.62473600  1
  Fe  Fe17  1  0.18905900  0.74800900  0.60116900  1
  Fe  Fe18  1  0.20761650  0.57893650  0.12473600  1
  Fe  Fe19  1  0.18905900  0.25199100  0.10116900  1
  Fe  Fe20  1  0.81094100  0.74800900  0.89883100  1
  Fe  Fe21  1  0.79238350  0.42106350  0.87526400  1
  Fe  Fe22  1  0.81094100  0.25199100  0.39883100  1
  Fe  Fe23  1  0.79238350  0.57893650  0.37526400  1
  Fe  Fe24  1  0.70761650  0.92106350  0.62473600  1
  Fe  Fe25  1  0.68905900  0.24800900  0.60116900  1
  Fe  Fe26  1  0.70761650  0.07893650  0.12473600  1
  Fe  Fe27  1  0.68905900  0.75199100  0.10116900  1
  Fe  Fe28  1  0.31094100  0.24800900  0.89883100  1
  Fe  Fe29  1  0.29238350  0.92106350  0.87526400  1
  Fe  Fe30  1  0.31094100  0.75199100  0.39883100  1
  Fe  Fe31  1  0.29238350  0.07893650  0.37526400  1
  S  S32  1  0.13839300  0.58022100  0.71796800  1
  S  S33  1  0.12311000  0.27111800  0.70248500  1
  S  S34  1  0.13839300  0.41977900  0.21796800  1
  S  S35  1  0.12311000  0.72888200  0.20248500  1
  S  S36  1  0.38922500  0.39624200  0.81111200  1
  S  S37  1  0.61077500  0.60375800  0.18888800  1
  S  S38  1  0.87689000  0.27111800  0.79751500  1
  S  S39  1  0.86160700  0.58022100  0.78203200  1
  S  S40  1  0.38922500  0.60375800  0.31111200  1
  S  S41  1  0.87689000  0.72888200  0.29751500  1
  S  S42  1  0.86160700  0.41977900  0.28203200  1
  S  S43  1  0.61077500  0.39624200  0.68888800  1
  S  S44  1  0.63839300  0.08022100  0.71796800  1
  S  S45  1  0.62311000  0.77111800  0.70248500  1
  S  S46  1  0.63839300  0.91977900  0.21796800  1
  S  S47  1  0.62311000  0.22888200  0.20248500  1
  S  S48  1  0.88922500  0.89624200  0.81111200  1
  S  S49  1  0.11077500  0.10375800  0.18888800  1
  S  S50  1  0.37689000  0.77111800  0.79751500  1
  S  S51  1  0.36160700  0.08022100  0.78203200  1
  S  S52  1  0.88922500  0.10375800  0.31111200  1
  S  S53  1  0.37689000  0.22888200  0.29751500  1
  S  S54  1  0.36160700  0.91977900  0.28203200  1
  S  S55  1  0.11077500  0.89624200  0.68888800  1
