# generated using pymatgen
data_Cr3Co3(TeO8)2
_symmetry_space_group_name_H-M   'P 1'
_cell_length_a   10.05732570
_cell_length_b   5.83842021
_cell_length_c   9.11825627
_cell_angle_alpha   90.00000000
_cell_angle_beta   91.56260290
_cell_angle_gamma   90.00000000
_symmetry_Int_Tables_number   1
_chemical_formula_structural   Cr3Co3(TeO8)2
_chemical_formula_sum   'Cr6 Co6 Te4 O32'
_cell_volume   535.21481364
_cell_formula_units_Z   2
loop_
 _symmetry_equiv_pos_site_id
 _symmetry_equiv_pos_as_xyz
  1  'x, y, z'
loop_
 _atom_site_type_symbol
 _atom_site_label
 _atom_site_symmetry_multiplicity
 _atom_site_fract_x
 _atom_site_fract_y
 _atom_site_fract_z
 _atom_site_occupancy
  Cr  Cr0  1  0.41716950  0.24374950  0.21707700  1
  Cr  Cr1  1  0.41716950  0.75625050  0.21707700  1
  Cr  Cr2  1  0.83167300  0.00000000  0.71893100  1
  Cr  Cr3  1  0.91716950  0.74374950  0.21707700  1
  Cr  Cr4  1  0.91716950  0.25625050  0.21707700  1
  Cr  Cr5  1  0.33167300  0.50000000  0.71893100  1
  Co  Co6  1  0.17316000  0.00000000  0.21228500  1
  Co  Co7  1  0.58727950  0.24310750  0.71266300  1
  Co  Co8  1  0.58727950  0.75689250  0.71266300  1
  Co  Co9  1  0.67316000  0.50000000  0.21228500  1
  Co  Co10  1  0.08727950  0.74310750  0.71266300  1
  Co  Co11  1  0.08727950  0.25689250  0.71266300  1
  Te  Te12  1  0.33028000  0.00000000  0.49387100  1
  Te  Te13  1  0.66409350  0.00000000  0.98964800  1
  Te  Te14  1  0.83028000  0.50000000  0.49387100  1
  Te  Te15  1  0.16409350  0.50000000  0.98964800  1
  O  O16  1  0.41616650  0.25118550  0.59673000  1
  O  O17  1  0.48104850  0.00000000  0.35141600  1
  O  O18  1  0.33101750  0.00000000  0.10824600  1
  O  O19  1  0.00735400  0.00000000  0.29810500  1
  O  O20  1  0.00608800  0.00000000  0.79714800  1
  O  O21  1  0.41616650  0.74881450  0.59673000  1
  O  O22  1  0.25543300  0.21843500  0.34083500  1
  O  O23  1  0.25543300  0.78156500  0.34083500  1
  O  O24  1  0.83112050  0.00000000  0.09602000  1
  O  O25  1  0.16262900  0.00000000  0.59690100  1
  O  O26  1  0.73799800  0.22406000  0.84299100  1
  O  O27  1  0.73799800  0.77594000  0.84299100  1
  O  O28  1  0.66411950  0.00000000  0.61195500  1
  O  O29  1  0.58350100  0.24981300  0.09466600  1
  O  O30  1  0.51848100  0.00000000  0.83136800  1
  O  O31  1  0.58350100  0.75018700  0.09466600  1
  O  O32  1  0.91616650  0.75118550  0.59673000  1
  O  O33  1  0.98104850  0.50000000  0.35141600  1
  O  O34  1  0.83101750  0.50000000  0.10824600  1
  O  O35  1  0.50735400  0.50000000  0.29810500  1
  O  O36  1  0.50608800  0.50000000  0.79714800  1
  O  O37  1  0.91616650  0.24881450  0.59673000  1
  O  O38  1  0.75543300  0.71843500  0.34083500  1
  O  O39  1  0.75543300  0.28156500  0.34083500  1
  O  O40  1  0.33112050  0.50000000  0.09602000  1
  O  O41  1  0.66262900  0.50000000  0.59690100  1
  O  O42  1  0.23799800  0.72406000  0.84299100  1
  O  O43  1  0.23799800  0.27594000  0.84299100  1
  O  O44  1  0.16411950  0.50000000  0.61195500  1
  O  O45  1  0.08350100  0.74981300  0.09466600  1
  O  O46  1  0.01848100  0.50000000  0.83136800  1
  O  O47  1  0.08350100  0.25018700  0.09466600  1
