# generated using pymatgen
data_Li2Ni3BiO8
_symmetry_space_group_name_H-M   'P 1'
_cell_length_a   5.89751762
_cell_length_b   5.89751762
_cell_length_c   15.35228554
_cell_angle_alpha   90.00000000
_cell_angle_beta   90.00000000
_cell_angle_gamma   120.00000000
_symmetry_Int_Tables_number   1
_chemical_formula_structural   Li2Ni3BiO8
_chemical_formula_sum   'Li6 Ni9 Bi3 O24'
_cell_volume   462.42591602
_cell_formula_units_Z   3
loop_
 _symmetry_equiv_pos_site_id
 _symmetry_equiv_pos_as_xyz
  1  'x, y, z'
loop_
 _atom_site_type_symbol
 _atom_site_label
 _atom_site_symmetry_multiplicity
 _atom_site_fract_x
 _atom_site_fract_y
 _atom_site_fract_z
 _atom_site_occupancy
  Li  Li0  1  0.66666667  0.33333333  0.21232367  1
  Li  Li1  1  0.00000000  0.00000000  0.12100967  1
  Li  Li2  1  0.33333333  0.66666667  0.54565700  1
  Li  Li3  1  0.66666667  0.33333333  0.45434300  1
  Li  Li4  1  0.00000000  0.00000000  0.87899033  1
  Li  Li5  1  0.33333333  0.66666667  0.78767633  1
  Ni  Ni6  1  0.50000000  0.50000000  0.00000000  1
  Ni  Ni7  1  0.50000000  0.00000000  0.00000000  1
  Ni  Ni8  1  0.00000000  0.50000000  0.00000000  1
  Ni  Ni9  1  0.16666667  0.83333333  0.33333333  1
  Ni  Ni10  1  0.16666667  0.33333333  0.33333333  1
  Ni  Ni11  1  0.66666667  0.83333333  0.33333333  1
  Ni  Ni12  1  0.83333333  0.16666667  0.66666667  1
  Ni  Ni13  1  0.83333333  0.66666667  0.66666667  1
  Ni  Ni14  1  0.33333333  0.16666667  0.66666667  1
  Bi  Bi15  1  0.33333333  0.66666667  0.16666667  1
  Bi  Bi16  1  1.00000000  1.00000000  0.50000000  1
  Bi  Bi17  1  0.66666667  0.33333333  0.83333333  1
  O  O18  1  0.49039283  0.98078567  0.25785767  1
  O  O19  1  0.49039283  0.50960717  0.25785767  1
  O  O20  1  0.00000000  0.00000000  0.27116333  1
  O  O21  1  0.01921433  0.50960717  0.25785767  1
  O  O22  1  0.64745233  0.82372617  0.07547567  1
  O  O23  1  0.66666667  0.33333333  0.06217000  1
  O  O24  1  0.17627383  0.82372617  0.07547567  1
  O  O25  1  0.17627383  0.35254767  0.07547567  1
  O  O26  1  0.15705950  0.31411900  0.59119100  1
  O  O27  1  0.15705950  0.84294050  0.59119100  1
  O  O28  1  0.66666667  0.33333333  0.60449667  1
  O  O29  1  0.68588100  0.84294050  0.59119100  1
  O  O30  1  0.31411900  0.15705950  0.40880900  1
  O  O31  1  0.33333333  0.66666667  0.39550333  1
  O  O32  1  0.84294050  0.15705950  0.40880900  1
  O  O33  1  0.84294050  0.68588100  0.40880900  1
  O  O34  1  0.82372617  0.64745233  0.92452433  1
  O  O35  1  0.82372617  0.17627383  0.92452433  1
  O  O36  1  0.33333333  0.66666667  0.93783000  1
  O  O37  1  0.35254767  0.17627383  0.92452433  1
  O  O38  1  0.98078567  0.49039283  0.74214233  1
  O  O39  1  0.00000000  0.00000000  0.72883667  1
  O  O40  1  0.50960717  0.49039283  0.74214233  1
  O  O41  1  0.50960717  0.01921433  0.74214233  1
