# generated using pymatgen
data_VCr3(PO4)6
_symmetry_space_group_name_H-M   'P 1'
_cell_length_a   8.55167780
_cell_length_b   8.55167780
_cell_length_c   21.74313649
_cell_angle_alpha   90.00000000
_cell_angle_beta   90.00000000
_cell_angle_gamma   120.00000000
_symmetry_Int_Tables_number   1
_chemical_formula_structural   VCr3(PO4)6
_chemical_formula_sum   'V3 Cr9 P18 O72'
_cell_volume   1377.06830775
_cell_formula_units_Z   3
loop_
 _symmetry_equiv_pos_site_id
 _symmetry_equiv_pos_as_xyz
  1  'x, y, z'
loop_
 _atom_site_type_symbol
 _atom_site_label
 _atom_site_symmetry_multiplicity
 _atom_site_fract_x
 _atom_site_fract_y
 _atom_site_fract_z
 _atom_site_occupancy
  V  V0  1  0.00000000  0.00000000  0.14071300  1
  V  V1  1  0.66666667  0.33333333  0.47404633  1
  V  V2  1  0.33333333  0.66666667  0.80737967  1
  Cr  Cr3  1  0.66666667  0.33333333  0.19045633  1
  Cr  Cr4  1  0.33333333  0.66666667  0.30908667  1
  Cr  Cr5  1  0.33333333  0.66666667  0.02405767  1
  Cr  Cr6  1  0.33333333  0.66666667  0.52378967  1
  Cr  Cr7  1  0.00000000  0.00000000  0.64242000  1
  Cr  Cr8  1  0.00000000  0.00000000  0.35739100  1
  Cr  Cr9  1  0.00000000  0.00000000  0.85712300  1
  Cr  Cr10  1  0.66666667  0.33333333  0.97575333  1
  Cr  Cr11  1  0.66666667  0.33333333  0.69072433  1
  P  P12  1  0.28388533  0.00013067  0.24991367  1
  P  P13  1  0.99986933  0.28375467  0.24991367  1
  P  P14  1  0.71624533  0.71611467  0.24991367  1
  P  P15  1  0.95059800  0.61571600  0.08309400  1
  P  P16  1  0.66511800  0.04940200  0.08309400  1
  P  P17  1  0.38428400  0.33488200  0.08309400  1
  P  P18  1  0.95055200  0.33346400  0.58324700  1
  P  P19  1  0.66653600  0.61708800  0.58324700  1
  P  P20  1  0.38291200  0.04944800  0.58324700  1
  P  P21  1  0.61726467  0.94904933  0.41642733  1
  P  P22  1  0.33178467  0.38273533  0.41642733  1
  P  P23  1  0.05095067  0.66821533  0.41642733  1
  P  P24  1  0.61721867  0.66679733  0.91658033  1
  P  P25  1  0.33320267  0.95042133  0.91658033  1
  P  P26  1  0.04957867  0.38278133  0.91658033  1
  P  P27  1  0.28393133  0.28238267  0.74976067  1
  P  P28  1  0.99845133  0.71606867  0.74976067  1
  P  P29  1  0.71761733  0.00154867  0.74976067  1
  O  O30  1  0.46340200  0.29946500  0.02520300  1
  O  O31  1  0.83606300  0.53659800  0.02520300  1
  O  O32  1  0.47363500  0.16688500  0.24399700  1
  O  O33  1  0.70053500  0.16393700  0.02520300  1
  O  O34  1  0.30306133  0.83131767  0.25505367  1
  O  O35  1  0.16694667  0.97366533  0.19203733  1
  O  O36  1  0.83311500  0.30675000  0.24399700  1
  O  O37  1  0.16868233  0.47174367  0.25505367  1
  O  O38  1  0.52825633  0.69693867  0.25505367  1
  O  O39  1  0.86646233  0.50470667  0.14139367  1
  O  O40  1  0.97238933  0.80786967  0.09162367  1
  O  O41  1  0.63824433  0.13353767  0.14139367  1
  O  O42  1  0.02633467  0.19328133  0.19203733  1
  O  O43  1  0.69325000  0.52636500  0.24399700  1
  O  O44  1  0.80671867  0.83305333  0.19203733  1
  O  O45  1  0.14007967  0.64055333  0.07702433  1
  O  O46  1  0.50047367  0.85992033  0.07702433  1
  O  O47  1  0.83548033  0.02761067  0.09162367  1
  O  O48  1  0.49529333  0.36175567  0.14139367  1
  O  O49  1  0.35944667  0.49952633  0.07702433  1
  O  O50  1  0.97115467  0.17129233  0.30811033  1
  O  O51  1  0.19213033  0.16451967  0.09162367  1
  O  O52  1  0.82870767  0.79986233  0.30811033  1
  O  O53  1  0.20013767  0.02884533  0.30811033  1
  O  O54  1  0.13006867  0.63279833  0.35853633  1
  O  O55  1  0.50272967  0.86993133  0.35853633  1
  O  O56  1  0.14030167  0.50021833  0.57733033  1
  O  O57  1  0.36720167  0.49727033  0.35853633  1
  O  O58  1  0.96972800  0.16465100  0.58838700  1
  O  O59  1  0.83361333  0.30699867  0.52537067  1
  O  O60  1  0.49978167  0.64008333  0.57733033  1
  O  O61  1  0.83534900  0.80507700  0.58838700  1
  O  O62  1  0.19492300  0.03027200  0.58838700  1
  O  O63  1  0.53312900  0.83804000  0.47472700  1
  O  O64  1  0.63905600  0.14120300  0.42495700  1
  O  O65  1  0.30491100  0.46687100  0.47472700  1
  O  O66  1  0.69300133  0.52661467  0.52537067  1
  O  O67  1  0.35991667  0.85969833  0.57733033  1
  O  O68  1  0.47338533  0.16638667  0.52537067  1
  O  O69  1  0.80674633  0.97388667  0.41035767  1
  O  O70  1  0.16714033  0.19325367  0.41035767  1
  O  O71  1  0.50214700  0.36094400  0.42495700  1
  O  O72  1  0.16196000  0.69508900  0.47472700  1
  O  O73  1  0.02611333  0.83285967  0.41035767  1
  O  O74  1  0.63782133  0.50462567  0.64144367  1
  O  O75  1  0.85879700  0.49785300  0.42495700  1
  O  O76  1  0.49537433  0.13319567  0.64144367  1
  O  O77  1  0.86680433  0.36217867  0.64144367  1
  O  O78  1  0.79673533  0.96613167  0.69186967  1
  O  O79  1  0.16939633  0.20326467  0.69186967  1
  O  O80  1  0.80696833  0.83355167  0.91066367  1
  O  O81  1  0.03386833  0.83060367  0.69186967  1
  O  O82  1  0.63639467  0.49798433  0.92172033  1
  O  O83  1  0.50028000  0.64033200  0.85870400  1
  O  O84  1  0.16644833  0.97341667  0.91066367  1
  O  O85  1  0.50201567  0.13841033  0.92172033  1
  O  O86  1  0.86158967  0.36360533  0.92172033  1
  O  O87  1  0.19979567  0.17137333  0.80806033  1
  O  O88  1  0.30572267  0.47453633  0.75829033  1
  O  O89  1  0.97157767  0.80020433  0.80806033  1
  O  O90  1  0.35966800  0.85994800  0.85870400  1
  O  O91  1  0.02658333  0.19303167  0.91066367  1
  O  O92  1  0.14005200  0.49972000  0.85870400  1
  O  O93  1  0.47341300  0.30722000  0.74369100  1
  O  O94  1  0.83380700  0.52658700  0.74369100  1
  O  O95  1  0.16881367  0.69427733  0.75829033  1
  O  O96  1  0.82862667  0.02842233  0.80806033  1
  O  O97  1  0.69278000  0.16619300  0.74369100  1
  O  O98  1  0.30448800  0.83795900  0.97477700  1
  O  O99  1  0.52546367  0.83118633  0.75829033  1
  O  O100  1  0.16204100  0.46652900  0.97477700  1
  O  O101  1  0.53347100  0.69551200  0.97477700  1
