# generated using pymatgen
data_Li4Fe5NiO12
_symmetry_space_group_name_H-M   'P 1'
_cell_length_a   5.11912200
_cell_length_b   8.84706400
_cell_length_c   10.23636655
_cell_angle_alpha   90.00000000
_cell_angle_beta   90.75237962
_cell_angle_gamma   90.00000000
_symmetry_Int_Tables_number   1
_chemical_formula_structural   Li4Fe5NiO12
_chemical_formula_sum   'Li8 Fe10 Ni2 O24'
_cell_volume   463.55688154
_cell_formula_units_Z   2
loop_
 _symmetry_equiv_pos_site_id
 _symmetry_equiv_pos_as_xyz
  1  'x, y, z'
loop_
 _atom_site_type_symbol
 _atom_site_label
 _atom_site_symmetry_multiplicity
 _atom_site_fract_x
 _atom_site_fract_y
 _atom_site_fract_z
 _atom_site_occupancy
  Li  Li0  1  0.59790950  0.74456050  0.75244600  1
  Li  Li1  1  0.40209050  0.74456050  0.24755400  1
  Li  Li2  1  0.59794400  0.26248500  0.75009500  1
  Li  Li3  1  0.40205600  0.26248500  0.24990500  1
  Li  Li4  1  0.09790950  0.24456050  0.75244600  1
  Li  Li5  1  0.90209050  0.24456050  0.24755400  1
  Li  Li6  1  0.09794400  0.76248500  0.75009500  1
  Li  Li7  1  0.90205600  0.76248500  0.24990500  1
  Fe  Fe8  1  0.50000000  0.66260500  0.50000000  1
  Fe  Fe9  1  0.50000000  0.16208600  0.00000000  1
  Fe  Fe10  1  0.50000000  0.83308100  0.00000000  1
  Fe  Fe11  1  0.50000000  0.33519100  0.50000000  1
  Fe  Fe12  1  0.50000000  0.99889200  0.50000000  1
  Fe  Fe13  1  0.00000000  0.16260500  0.50000000  1
  Fe  Fe14  1  0.00000000  0.66208600  0.00000000  1
  Fe  Fe15  1  0.00000000  0.33308100  0.00000000  1
  Fe  Fe16  1  0.00000000  0.83519100  0.50000000  1
  Fe  Fe17  1  0.00000000  0.49889200  0.50000000  1
  Ni  Ni18  1  0.50000000  0.50185800  0.00000000  1
  Ni  Ni19  1  0.00000000  0.00185800  0.00000000  1
  O  O20  1  0.65827650  0.68486250  0.10840700  1
  O  O21  1  0.34172350  0.68486250  0.89159300  1
  O  O22  1  0.67504700  0.82864900  0.39379400  1
  O  O23  1  0.65526750  0.17757050  0.39369300  1
  O  O24  1  0.32495300  0.82864900  0.60620600  1
  O  O25  1  0.84086150  0.99145950  0.59865200  1
  O  O26  1  0.34473250  0.17757050  0.60630700  1
  O  O27  1  0.67437900  0.31870600  0.10158200  1
  O  O28  1  0.65095000  0.00038100  0.09581100  1
  O  O29  1  0.32562100  0.31870600  0.89841800  1
  O  O30  1  0.34905000  0.00038100  0.90418900  1
  O  O31  1  0.15913850  0.99145950  0.40134800  1
  O  O32  1  0.15827650  0.18486250  0.10840700  1
  O  O33  1  0.84172350  0.18486250  0.89159300  1
  O  O34  1  0.17504700  0.32864900  0.39379400  1
  O  O35  1  0.15526750  0.67757050  0.39369300  1
  O  O36  1  0.82495300  0.32864900  0.60620600  1
  O  O37  1  0.34086150  0.49145950  0.59865200  1
  O  O38  1  0.84473250  0.67757050  0.60630700  1
  O  O39  1  0.17437900  0.81870600  0.10158200  1
  O  O40  1  0.15095000  0.50038100  0.09581100  1
  O  O41  1  0.82562100  0.81870600  0.89841800  1
  O  O42  1  0.84905000  0.50038100  0.90418900  1
  O  O43  1  0.65913850  0.49145950  0.40134800  1
