# generated using pymatgen
data_EuSeO4
_symmetry_space_group_name_H-M   'P 1'
_cell_length_a   5.90653000
_cell_length_b   9.03160600
_cell_length_c   7.99607200
_cell_angle_alpha   90.00000000
_cell_angle_beta   90.00000000
_cell_angle_gamma   90.00000000
_symmetry_Int_Tables_number   1
_chemical_formula_structural   EuSeO4
_chemical_formula_sum   'Eu4 Se4 O16'
_cell_volume   426.55407336
_cell_formula_units_Z   4
loop_
 _symmetry_equiv_pos_site_id
 _symmetry_equiv_pos_as_xyz
  1  'x, y, z'
loop_
 _atom_site_type_symbol
 _atom_site_label
 _atom_site_symmetry_multiplicity
 _atom_site_fract_x
 _atom_site_fract_y
 _atom_site_fract_z
 _atom_site_occupancy
  Eu  Eu0  1  0.00000000  0.00000000  0.00000000  1
  Eu  Eu1  1  0.00000000  0.00000000  0.50000000  1
  Eu  Eu2  1  0.50000000  0.50000000  0.00000000  1
  Eu  Eu3  1  0.50000000  0.50000000  0.50000000  1
  Se  Se4  1  0.50000000  0.86294600  0.25000000  1
  Se  Se5  1  0.50000000  0.13705400  0.75000000  1
  Se  Se6  1  0.00000000  0.36294600  0.25000000  1
  Se  Se7  1  0.00000000  0.63705400  0.75000000  1
  O  O8  1  0.25972900  0.02942800  0.75000000  1
  O  O9  1  0.25972900  0.97057200  0.25000000  1
  O  O10  1  0.50000000  0.76258000  0.07292000  1
  O  O11  1  0.50000000  0.76258000  0.42708000  1
  O  O12  1  0.50000000  0.23742000  0.57292000  1
  O  O13  1  0.50000000  0.23742000  0.92708000  1
  O  O14  1  0.74027100  0.97057200  0.25000000  1
  O  O15  1  0.74027100  0.02942800  0.75000000  1
  O  O16  1  0.75972900  0.52942800  0.75000000  1
  O  O17  1  0.75972900  0.47057200  0.25000000  1
  O  O18  1  0.00000000  0.26258000  0.07292000  1
  O  O19  1  0.00000000  0.26258000  0.42708000  1
  O  O20  1  0.00000000  0.73742000  0.57292000  1
  O  O21  1  0.00000000  0.73742000  0.92708000  1
  O  O22  1  0.24027100  0.47057200  0.25000000  1
  O  O23  1  0.24027100  0.52942800  0.75000000  1
