# generated using pymatgen
data_Li8Fe7(PO4)8
_symmetry_space_group_name_H-M   'P 1'
_cell_length_a   9.57802967
_cell_length_b   12.20788800
_cell_length_c   11.31403528
_cell_angle_alpha   90.00000000
_cell_angle_beta   114.69918751
_cell_angle_gamma   90.00000000
_symmetry_Int_Tables_number   1
_chemical_formula_structural   Li8Fe7(PO4)8
_chemical_formula_sum   'Li16 Fe14 P16 O64'
_cell_volume   1201.89330523
_cell_formula_units_Z   2
loop_
 _symmetry_equiv_pos_site_id
 _symmetry_equiv_pos_as_xyz
  1  'x, y, z'
loop_
 _atom_site_type_symbol
 _atom_site_label
 _atom_site_symmetry_multiplicity
 _atom_site_fract_x
 _atom_site_fract_y
 _atom_site_fract_z
 _atom_site_occupancy
  Li  Li0  1  0.12889850  0.62019150  0.51898100  1
  Li  Li1  1  0.12889850  0.37980850  0.51898100  1
  Li  Li2  1  0.12113550  0.12271650  0.49670900  1
  Li  Li3  1  0.62113550  0.37728350  0.49670900  1
  Li  Li4  1  0.11373150  0.11849550  0.99549100  1
  Li  Li5  1  0.61373150  0.38150450  0.99549100  1
  Li  Li6  1  0.13083300  0.38206800  0.99354200  1
  Li  Li7  1  0.13083300  0.61793200  0.99354200  1
  Li  Li8  1  0.62889850  0.12019150  0.51898100  1
  Li  Li9  1  0.62889850  0.87980850  0.51898100  1
  Li  Li10  1  0.62113550  0.62271650  0.49670900  1
  Li  Li11  1  0.12113550  0.87728350  0.49670900  1
  Li  Li12  1  0.61373150  0.61849550  0.99549100  1
  Li  Li13  1  0.11373150  0.88150450  0.99549100  1
  Li  Li14  1  0.63083300  0.88206800  0.99354200  1
  Li  Li15  1  0.63083300  0.11793200  0.99354200  1
  Fe  Fe16  1  0.75883000  0.50000000  0.78223100  1
  Fe  Fe17  1  0.47778350  0.25218550  0.71909000  1
  Fe  Fe18  1  0.97778350  0.24781450  0.71909000  1
  Fe  Fe19  1  0.77750200  0.50000000  0.27968700  1
  Fe  Fe20  1  0.27542800  0.50000000  0.28169300  1
  Fe  Fe21  1  0.99825100  0.24936500  0.22300100  1
  Fe  Fe22  1  0.49825100  0.25063500  0.22300100  1
  Fe  Fe23  1  0.25883000  0.00000000  0.78223100  1
  Fe  Fe24  1  0.97778350  0.75218550  0.71909000  1
  Fe  Fe25  1  0.47778350  0.74781450  0.71909000  1
  Fe  Fe26  1  0.27750200  0.00000000  0.27968700  1
  Fe  Fe27  1  0.77542800  0.00000000  0.28169300  1
  Fe  Fe28  1  0.49825100  0.74936500  0.22300100  1
  Fe  Fe29  1  0.99825100  0.75063500  0.22300100  1
  P  P30  1  0.78072500  0.25417400  0.90149500  1
  P  P31  1  0.28072500  0.24582600  0.90149500  1
  P  P32  1  0.38792600  0.50000000  0.59847200  1
  P  P33  1  0.88177500  0.50000000  0.58976100  1
  P  P34  1  0.86723450  0.25003450  0.40604500  1
  P  P35  1  0.36723450  0.24996550  0.40604500  1
  P  P36  1  0.96755800  0.50000000  0.09484600  1
  P  P37  1  0.46711900  0.50000000  0.09867200  1
  P  P38  1  0.28072500  0.75417400  0.90149500  1
  P  P39  1  0.78072500  0.74582600  0.90149500  1
  P  P40  1  0.88792600  0.00000000  0.59847200  1
  P  P41  1  0.38177500  0.00000000  0.58976100  1
  P  P42  1  0.36723450  0.75003450  0.40604500  1
  P  P43  1  0.86723450  0.74996550  0.40604500  1
  P  P44  1  0.46755800  0.00000000  0.09484600  1
  P  P45  1  0.96711900  0.00000000  0.09867200  1
  O  O46  1  0.96039600  0.50000000  0.95407700  1
  O  O47  1  0.46143600  0.50000000  0.96194600  1
  O  O48  1  0.43567800  0.25030500  0.88958100  1
  O  O49  1  0.93567800  0.24969500  0.88958100  1
  O  O50  1  0.16420600  0.66300000  0.82474700  1
  O  O51  1  0.68108300  0.35914100  0.83399900  1
  O  O52  1  0.16420600  0.33700000  0.82474700  1
  O  O53  1  0.18108300  0.14085900  0.83399900  1
  O  O54  1  0.85691350  0.39649450  0.66588500  1
  O  O55  1  0.85691350  0.60350550  0.66588500  1
  O  O56  1  0.36241650  0.60748350  0.66314700  1
  O  O57  1  0.36241650  0.39251650  0.66314700  1
  O  O58  1  0.03233600  0.50000000  0.57857600  1
  O  O59  1  0.05005300  0.00000000  0.59977200  1
  O  O60  1  0.99829650  0.25213750  0.54919800  1
  O  O61  1  0.99829650  0.74786250  0.54919800  1
  O  O62  1  0.25361300  0.50000000  0.45952400  1
  O  O63  1  0.23745400  0.00000000  0.45646000  1
  O  O64  1  0.20598550  0.24948750  0.40440000  1
  O  O65  1  0.20598550  0.75051250  0.40440000  1
  O  O66  1  0.39791200  0.15004800  0.33436600  1
  O  O67  1  0.90373800  0.14776600  0.34108800  1
  O  O68  1  0.89791200  0.34995200  0.33436600  1
  O  O69  1  0.40373800  0.35223400  0.34108800  1
  O  O70  1  0.06940600  0.10128300  0.17369700  1
  O  O71  1  0.06861550  0.60194950  0.16351400  1
  O  O72  1  0.06861550  0.39805050  0.16351400  1
  O  O73  1  0.56940600  0.39871700  0.17369700  1
  O  O74  1  0.80870800  0.50000000  0.09818000  1
  O  O75  1  0.30631400  0.50000000  0.10106200  1
  O  O76  1  0.29892300  0.24835300  0.04338800  1
  O  O77  1  0.79892300  0.25164700  0.04338800  1
  O  O78  1  0.46039600  0.00000000  0.95407700  1
  O  O79  1  0.96143600  0.00000000  0.96194600  1
  O  O80  1  0.93567800  0.75030500  0.88958100  1
  O  O81  1  0.43567800  0.74969500  0.88958100  1
  O  O82  1  0.66420600  0.16300000  0.82474700  1
  O  O83  1  0.18108300  0.85914100  0.83399900  1
  O  O84  1  0.66420600  0.83700000  0.82474700  1
  O  O85  1  0.68108300  0.64085900  0.83399900  1
  O  O86  1  0.35691350  0.89649450  0.66588500  1
  O  O87  1  0.35691350  0.10350550  0.66588500  1
  O  O88  1  0.86241650  0.10748350  0.66314700  1
  O  O89  1  0.86241650  0.89251650  0.66314700  1
  O  O90  1  0.53233600  0.00000000  0.57857600  1
  O  O91  1  0.55005300  0.50000000  0.59977200  1
  O  O92  1  0.49829650  0.75213750  0.54919800  1
  O  O93  1  0.49829650  0.24786250  0.54919800  1
  O  O94  1  0.75361300  0.00000000  0.45952400  1
  O  O95  1  0.73745400  0.50000000  0.45646000  1
  O  O96  1  0.70598550  0.74948750  0.40440000  1
  O  O97  1  0.70598550  0.25051250  0.40440000  1
  O  O98  1  0.89791200  0.65004800  0.33436600  1
  O  O99  1  0.40373800  0.64776600  0.34108800  1
  O  O100  1  0.39791200  0.84995200  0.33436600  1
  O  O101  1  0.90373800  0.85223400  0.34108800  1
  O  O102  1  0.56940600  0.60128300  0.17369700  1
  O  O103  1  0.56861550  0.10194950  0.16351400  1
  O  O104  1  0.56861550  0.89805050  0.16351400  1
  O  O105  1  0.06940600  0.89871700  0.17369700  1
  O  O106  1  0.30870800  0.00000000  0.09818000  1
  O  O107  1  0.80631400  0.00000000  0.10106200  1
  O  O108  1  0.79892300  0.74835300  0.04338800  1
  O  O109  1  0.29892300  0.75164700  0.04338800  1
