# generated using pymatgen
data_Li4V3Cr3(FeO8)2
_symmetry_space_group_name_H-M   'P 1'
_cell_length_a   10.12399452
_cell_length_b   5.93129056
_cell_length_c   9.58529270
_cell_angle_alpha   90.00000000
_cell_angle_beta   90.79443771
_cell_angle_gamma   90.00000000
_symmetry_Int_Tables_number   1
_chemical_formula_structural   Li4V3Cr3(FeO8)2
_chemical_formula_sum   'Li8 V6 Cr6 Fe4 O32'
_cell_volume   575.52571361
_cell_formula_units_Z   2
loop_
 _symmetry_equiv_pos_site_id
 _symmetry_equiv_pos_as_xyz
  1  'x, y, z'
loop_
 _atom_site_type_symbol
 _atom_site_label
 _atom_site_symmetry_multiplicity
 _atom_site_fract_x
 _atom_site_fract_y
 _atom_site_fract_z
 _atom_site_occupancy
  Li  Li0  1  0.16757400  0.50000000  0.10921900  1
  Li  Li1  1  0.50184300  0.50000000  0.00376300  1
  Li  Li2  1  0.49710300  0.50000000  0.50382900  1
  Li  Li3  1  0.83734500  0.50000000  0.60636200  1
  Li  Li4  1  0.66757400  0.00000000  0.10921900  1
  Li  Li5  1  0.00184300  0.00000000  0.00376300  1
  Li  Li6  1  0.99710300  0.00000000  0.50382900  1
  Li  Li7  1  0.33734500  0.00000000  0.60636200  1
  V  V8  1  0.91488650  0.74299650  0.28487000  1
  V  V9  1  0.32975550  0.50000000  0.78403100  1
  V  V10  1  0.91488650  0.25700350  0.28487000  1
  V  V11  1  0.41488650  0.24299650  0.28487000  1
  V  V12  1  0.82975550  0.00000000  0.78403100  1
  V  V13  1  0.41488650  0.75700350  0.28487000  1
  Cr  Cr14  1  0.08612650  0.74665350  0.78477300  1
  Cr  Cr15  1  0.08612650  0.25334650  0.78477300  1
  Cr  Cr16  1  0.66989650  0.50000000  0.28967400  1
  Cr  Cr17  1  0.58612650  0.24665350  0.78477300  1
  Cr  Cr18  1  0.58612650  0.75334650  0.78477300  1
  Cr  Cr19  1  0.16989650  0.00000000  0.28967400  1
  Fe  Fe20  1  0.16281000  0.50000000  0.50970100  1
  Fe  Fe21  1  0.82940900  0.50000000  0.00876300  1
  Fe  Fe22  1  0.66281000  0.00000000  0.50970100  1
  Fe  Fe23  1  0.32940900  0.00000000  0.00876300  1
  O  O24  1  0.07574300  0.75483000  0.39988300  1
  O  O25  1  0.02163200  0.50000000  0.66059900  1
  O  O26  1  0.17763500  0.50000000  0.89512300  1
  O  O27  1  0.49457550  0.50000000  0.68906600  1
  O  O28  1  0.49769650  0.50000000  0.18908100  1
  O  O29  1  0.07574300  0.24517000  0.39988300  1
  O  O30  1  0.24853400  0.71569800  0.66329900  1
  O  O31  1  0.24853400  0.28430200  0.66329900  1
  O  O32  1  0.66288400  0.50000000  0.90142600  1
  O  O33  1  0.33380850  0.50000000  0.39592900  1
  O  O34  1  0.76327300  0.72341200  0.16501600  1
  O  O35  1  0.76327300  0.27658800  0.16501600  1
  O  O36  1  0.83843200  0.50000000  0.39960200  1
  O  O37  1  0.91252150  0.76318650  0.89402800  1
  O  O38  1  0.98176600  0.50000000  0.16119400  1
  O  O39  1  0.91252150  0.23681350  0.89402800  1
  O  O40  1  0.57574300  0.25483000  0.39988300  1
  O  O41  1  0.52163200  0.00000000  0.66059900  1
  O  O42  1  0.67763500  0.00000000  0.89512300  1
  O  O43  1  0.99457550  0.00000000  0.68906600  1
  O  O44  1  0.99769650  0.00000000  0.18908100  1
  O  O45  1  0.57574300  0.74517000  0.39988300  1
  O  O46  1  0.74853400  0.21569800  0.66329900  1
  O  O47  1  0.74853400  0.78430200  0.66329900  1
  O  O48  1  0.16288400  0.00000000  0.90142600  1
  O  O49  1  0.83380850  0.00000000  0.39592900  1
  O  O50  1  0.26327300  0.22341200  0.16501600  1
  O  O51  1  0.26327300  0.77658800  0.16501600  1
  O  O52  1  0.33843200  0.00000000  0.39960200  1
  O  O53  1  0.41252150  0.26318650  0.89402800  1
  O  O54  1  0.48176600  0.00000000  0.16119400  1
  O  O55  1  0.41252150  0.73681350  0.89402800  1
