# generated using pymatgen
data_LiVPO5
_symmetry_space_group_name_H-M   'P 1'
_cell_length_a   14.76633121
_cell_length_b   5.98764026
_cell_length_c   5.14719073
_cell_angle_alpha   90.00000000
_cell_angle_beta   101.80160202
_cell_angle_gamma   90.00000000
_symmetry_Int_Tables_number   1
_chemical_formula_structural   LiVPO5
_chemical_formula_sum   'Li4 V4 P4 O20'
_cell_volume   445.47146501
_cell_formula_units_Z   4
loop_
 _symmetry_equiv_pos_site_id
 _symmetry_equiv_pos_as_xyz
  1  'x, y, z'
loop_
 _atom_site_type_symbol
 _atom_site_label
 _atom_site_symmetry_multiplicity
 _atom_site_fract_x
 _atom_site_fract_y
 _atom_site_fract_z
 _atom_site_occupancy
  Li  Li0  1  0.36889700  0.50000000  0.94254000  1
  Li  Li1  1  0.13110300  0.00000000  0.05746000  1
  Li  Li2  1  0.86889700  0.00000000  0.94254000  1
  Li  Li3  1  0.63110300  0.50000000  0.05746000  1
  V  V4  1  0.50000000  0.27315675  0.50000000  1
  V  V5  1  0.50000000  0.72684325  0.50000000  1
  V  V6  1  0.00000000  0.77315675  0.50000000  1
  V  V7  1  0.00000000  0.22684325  0.50000000  1
  P  P8  1  0.35734300  0.00000000  0.28241100  1
  P  P9  1  0.14265700  0.50000000  0.71758900  1
  P  P10  1  0.85734300  0.50000000  0.28241100  1
  P  P11  1  0.64265700  0.00000000  0.71758900  1
  O  O12  1  0.45313750  0.50000000  0.68185400  1
  O  O13  1  0.04686250  0.00000000  0.31814600  1
  O  O14  1  0.41745475  0.00000000  0.58025200  1
  O  O15  1  0.08254525  0.50000000  0.41974800  1
  O  O16  1  0.25531550  0.00000000  0.23972200  1
  O  O17  1  0.24468450  0.50000000  0.76027800  1
  O  O18  1  0.40183425  0.21674275  0.18266600  1
  O  O19  1  0.40183425  0.78325725  0.18266600  1
  O  O20  1  0.09816575  0.71674275  0.81733400  1
  O  O21  1  0.09816575  0.28325725  0.81733400  1
  O  O22  1  0.95313750  0.00000000  0.68185400  1
  O  O23  1  0.54686250  0.50000000  0.31814600  1
  O  O24  1  0.91745475  0.50000000  0.58025200  1
  O  O25  1  0.58254525  0.00000000  0.41974800  1
  O  O26  1  0.75531550  0.50000000  0.23972200  1
  O  O27  1  0.74468450  0.00000000  0.76027800  1
  O  O28  1  0.90183425  0.71674275  0.18266600  1
  O  O29  1  0.90183425  0.28325725  0.18266600  1
  O  O30  1  0.59816575  0.21674275  0.81733400  1
  O  O31  1  0.59816575  0.78325725  0.81733400  1
