# generated using pymatgen
data_Li13Mn8O24
_symmetry_space_group_name_H-M   'P 1'
_cell_length_a   5.00409200
_cell_length_b   8.61179600
_cell_length_c   19.26638911
_cell_angle_alpha   90.00000000
_cell_angle_beta   95.60302664
_cell_angle_gamma   90.00000000
_symmetry_Int_Tables_number   1
_chemical_formula_structural   Li13Mn8O24
_chemical_formula_sum   'Li26 Mn16 O48'
_cell_volume   826.30317304
_cell_formula_units_Z   2
loop_
 _symmetry_equiv_pos_site_id
 _symmetry_equiv_pos_as_xyz
  1  'x, y, z'
loop_
 _atom_site_type_symbol
 _atom_site_label
 _atom_site_symmetry_multiplicity
 _atom_site_fract_x
 _atom_site_fract_y
 _atom_site_fract_z
 _atom_site_occupancy
  Li  Li0  1  0.25745600  0.74940500  0.75039300  1
  Li  Li1  1  0.62119650  0.24636450  0.37610800  1
  Li  Li2  1  0.74254400  0.74940500  0.24960700  1
  Li  Li3  1  0.50000000  0.74604700  0.50000000  1
  Li  Li4  1  0.50000000  0.59772000  0.00000000  1
  Li  Li5  1  0.50000000  0.24990900  0.00000000  1
  Li  Li6  1  0.25339800  0.90711600  0.25028300  1
  Li  Li7  1  0.24658950  0.09271050  0.74974300  1
  Li  Li8  1  0.74660200  0.90711600  0.74971700  1
  Li  Li9  1  0.75341050  0.09271050  0.25025700  1
  Li  Li10  1  0.50000000  0.40727400  0.50000000  1
  Li  Li11  1  0.37880350  0.24636450  0.62389200  1
  Li  Li12  1  0.50000000  0.90212900  0.00000000  1
  Li  Li13  1  0.75745600  0.24940500  0.75039300  1
  Li  Li14  1  0.12119650  0.74636450  0.37610800  1
  Li  Li15  1  0.24254400  0.24940500  0.24960700  1
  Li  Li16  1  0.00000000  0.24604700  0.50000000  1
  Li  Li17  1  0.00000000  0.09772000  0.00000000  1
  Li  Li18  1  0.00000000  0.74990900  0.00000000  1
  Li  Li19  1  0.75339800  0.40711600  0.25028300  1
  Li  Li20  1  0.74658950  0.59271050  0.74974300  1
  Li  Li21  1  0.24660200  0.40711600  0.74971700  1
  Li  Li22  1  0.25341050  0.59271050  0.25025700  1
  Li  Li23  1  0.00000000  0.90727400  0.50000000  1
  Li  Li24  1  0.87880350  0.74636450  0.62389200  1
  Li  Li25  1  0.00000000  0.40212900  0.00000000  1
  Mn  Mn26  1  0.37388150  0.91928350  0.62484400  1
  Mn  Mn27  1  0.87517200  0.91722800  0.12498800  1
  Mn  Mn28  1  0.86986950  0.08410250  0.62450900  1
  Mn  Mn29  1  0.37524150  0.08222650  0.12500400  1
  Mn  Mn30  1  0.62611850  0.91928350  0.37515600  1
  Mn  Mn31  1  0.12482800  0.91722800  0.87501200  1
  Mn  Mn32  1  0.13013050  0.08410250  0.37549100  1
  Mn  Mn33  1  0.62475850  0.08222650  0.87499600  1
  Mn  Mn34  1  0.87388150  0.41928350  0.62484400  1
  Mn  Mn35  1  0.37517200  0.41722800  0.12498800  1
  Mn  Mn36  1  0.36986950  0.58410250  0.62450900  1
  Mn  Mn37  1  0.87524150  0.58222650  0.12500400  1
  Mn  Mn38  1  0.12611850  0.41928350  0.37515600  1
  Mn  Mn39  1  0.62482800  0.41722800  0.87501200  1
  Mn  Mn40  1  0.63013050  0.58410250  0.37549100  1
  Mn  Mn41  1  0.12475850  0.58222650  0.87499600  1
  O  O42  1  0.71759200  0.25427300  0.56949600  1
  O  O43  1  0.53685000  0.75054800  0.68279300  1
  O  O44  1  0.72673000  0.74978700  0.06657800  1
  O  O45  1  0.42817700  0.07392900  0.31839400  1
  O  O46  1  0.57182300  0.07392900  0.68160600  1
  O  O47  1  0.52112050  0.24987650  0.18304100  1
  O  O48  1  0.32156200  0.92532900  0.42848900  1
  O  O49  1  0.91774050  0.06369850  0.81789600  1
  O  O50  1  0.08225950  0.06369850  0.18210400  1
  O  O51  1  0.83275850  0.07128550  0.42975800  1
  O  O52  1  0.67843800  0.92532900  0.57151100  1
  O  O53  1  0.83265100  0.93652900  0.93211900  1
  O  O54  1  0.16724150  0.07128550  0.57024200  1
  O  O55  1  0.33277050  0.06346550  0.93210000  1
  O  O56  1  0.16734900  0.93652900  0.06788100  1
  O  O57  1  0.92722050  0.92934350  0.31874700  1
  O  O58  1  0.07277950  0.92934350  0.68125300  1
  O  O59  1  0.66722950  0.06346550  0.06790000  1
  O  O60  1  0.46315000  0.75054800  0.31720700  1
  O  O61  1  0.41778000  0.93631800  0.81786500  1
  O  O62  1  0.58222000  0.93631800  0.18213500  1
  O  O63  1  0.28240800  0.25427300  0.43050400  1
  O  O64  1  0.47887950  0.24987650  0.81695900  1
  O  O65  1  0.27327000  0.74978700  0.93342200  1
  O  O66  1  0.21759200  0.75427300  0.56949600  1
  O  O67  1  0.03685000  0.25054800  0.68279300  1
  O  O68  1  0.22673000  0.24978700  0.06657800  1
  O  O69  1  0.92817700  0.57392900  0.31839400  1
  O  O70  1  0.07182300  0.57392900  0.68160600  1
  O  O71  1  0.02112050  0.74987650  0.18304100  1
  O  O72  1  0.82156200  0.42532900  0.42848900  1
  O  O73  1  0.41774050  0.56369850  0.81789600  1
  O  O74  1  0.58225950  0.56369850  0.18210400  1
  O  O75  1  0.33275850  0.57128550  0.42975800  1
  O  O76  1  0.17843800  0.42532900  0.57151100  1
  O  O77  1  0.33265100  0.43652900  0.93211900  1
  O  O78  1  0.66724150  0.57128550  0.57024200  1
  O  O79  1  0.83277050  0.56346550  0.93210000  1
  O  O80  1  0.66734900  0.43652900  0.06788100  1
  O  O81  1  0.42722050  0.42934350  0.31874700  1
  O  O82  1  0.57277950  0.42934350  0.68125300  1
  O  O83  1  0.16722950  0.56346550  0.06790000  1
  O  O84  1  0.96315000  0.25054800  0.31720700  1
  O  O85  1  0.91778000  0.43631800  0.81786500  1
  O  O86  1  0.08222000  0.43631800  0.18213500  1
  O  O87  1  0.78240800  0.75427300  0.43050400  1
  O  O88  1  0.97887950  0.74987650  0.81695900  1
  O  O89  1  0.77327000  0.24978700  0.93342200  1
