# generated using pymatgen
data_V2O3F
_symmetry_space_group_name_H-M   'P 1'
_cell_length_a   6.38735200
_cell_length_b   6.79552200
_cell_length_c   15.24241500
_cell_angle_alpha   90.00000000
_cell_angle_beta   90.00000000
_cell_angle_gamma   90.00000000
_symmetry_Int_Tables_number   1
_chemical_formula_structural   V2O3F
_chemical_formula_sum   'V20 O30 F10'
_cell_volume   661.60298343
_cell_formula_units_Z   10
loop_
 _symmetry_equiv_pos_site_id
 _symmetry_equiv_pos_as_xyz
  1  'x, y, z'
loop_
 _atom_site_type_symbol
 _atom_site_label
 _atom_site_symmetry_multiplicity
 _atom_site_fract_x
 _atom_site_fract_y
 _atom_site_fract_z
 _atom_site_occupancy
  V  V0  1  0.50000000  0.49951300  0.70054300  1
  V  V1  1  0.50000000  0.50744700  0.50000000  1
  V  V2  1  0.50000000  0.49951300  0.29945700  1
  V  V3  1  0.50000000  0.48362600  0.90132200  1
  V  V4  1  0.50000000  0.48362600  0.09867800  1
  V  V5  1  0.50000000  0.96047300  0.40003700  1
  V  V6  1  0.50000000  0.03751600  0.79902800  1
  V  V7  1  0.50000000  0.01399300  0.00000000  1
  V  V8  1  0.50000000  0.03751600  0.20097200  1
  V  V9  1  0.50000000  0.96047300  0.59996300  1
  V  V10  1  0.00000000  0.99951300  0.70054300  1
  V  V11  1  0.00000000  0.00744700  0.50000000  1
  V  V12  1  0.00000000  0.99951300  0.29945700  1
  V  V13  1  0.00000000  0.98362600  0.90132200  1
  V  V14  1  0.00000000  0.98362600  0.09867800  1
  V  V15  1  0.00000000  0.46047300  0.40003700  1
  V  V16  1  0.00000000  0.53751600  0.79902800  1
  V  V17  1  0.00000000  0.51399300  0.00000000  1
  V  V18  1  0.00000000  0.53751600  0.20097200  1
  V  V19  1  0.00000000  0.46047300  0.59996300  1
  O  O20  1  0.50000000  0.30310000  0.19953900  1
  O  O21  1  0.50000000  0.30618600  0.00000000  1
  O  O22  1  0.50000000  0.30310000  0.80046100  1
  O  O23  1  0.30768550  0.99994650  0.30029600  1
  O  O24  1  0.30723550  0.99840450  0.50000000  1
  O  O25  1  0.30768550  0.99994650  0.69970400  1
  O  O26  1  0.29806550  0.00364350  0.89666000  1
  O  O27  1  0.29806550  0.00364350  0.10334000  1
  O  O28  1  0.69231450  0.99994650  0.30029600  1
  O  O29  1  0.69276450  0.99840450  0.50000000  1
  O  O30  1  0.69231450  0.99994650  0.69970400  1
  O  O31  1  0.70193450  0.00364350  0.89666000  1
  O  O32  1  0.70193450  0.00364350  0.10334000  1
  O  O33  1  0.50000000  0.69740000  0.39943500  1
  O  O34  1  0.50000000  0.69740000  0.60056500  1
  O  O35  1  0.00000000  0.80310000  0.19953900  1
  O  O36  1  0.00000000  0.80618600  0.00000000  1
  O  O37  1  0.00000000  0.80310000  0.80046100  1
  O  O38  1  0.80768550  0.49994650  0.30029600  1
  O  O39  1  0.80723550  0.49840450  0.50000000  1
  O  O40  1  0.80768550  0.49994650  0.69970400  1
  O  O41  1  0.79806550  0.50364350  0.89666000  1
  O  O42  1  0.79806550  0.50364350  0.10334000  1
  O  O43  1  0.19231450  0.49994650  0.30029600  1
  O  O44  1  0.19276450  0.49840450  0.50000000  1
  O  O45  1  0.19231450  0.49994650  0.69970400  1
  O  O46  1  0.20193450  0.50364350  0.89666000  1
  O  O47  1  0.20193450  0.50364350  0.10334000  1
  O  O48  1  0.00000000  0.19740000  0.39943500  1
  O  O49  1  0.00000000  0.19740000  0.60056500  1
  F  F50  1  0.50000000  0.29930900  0.40044400  1
  F  F51  1  0.50000000  0.29930900  0.59955600  1
  F  F52  1  0.50000000  0.69950900  0.80118600  1
  F  F53  1  0.50000000  0.69950900  0.19881400  1
  F  F54  1  0.50000000  0.70031300  0.00000000  1
  F  F55  1  0.00000000  0.79930900  0.40044400  1
  F  F56  1  0.00000000  0.79930900  0.59955600  1
  F  F57  1  0.00000000  0.19950900  0.80118600  1
  F  F58  1  0.00000000  0.19950900  0.19881400  1
  F  F59  1  0.00000000  0.20031300  0.00000000  1
