# generated using pymatgen
data_CeSmO2
_symmetry_space_group_name_H-M   'P 1'
_cell_length_a   4.97868334
_cell_length_b   4.97868334
_cell_length_c   9.95394543
_cell_angle_alpha   90.00000000
_cell_angle_beta   90.00000000
_cell_angle_gamma   90.00000000
_symmetry_Int_Tables_number   1
_chemical_formula_structural   CeSmO2
_chemical_formula_sum   'Ce4 Sm4 O8'
_cell_volume   246.73130968
_cell_formula_units_Z   4
loop_
 _symmetry_equiv_pos_site_id
 _symmetry_equiv_pos_as_xyz
  1  'x, y, z'
loop_
 _atom_site_type_symbol
 _atom_site_label
 _atom_site_symmetry_multiplicity
 _atom_site_fract_x
 _atom_site_fract_y
 _atom_site_fract_z
 _atom_site_occupancy
  Ce  Ce0  1  0.00000000  0.50000000  0.75000000  1
  Ce  Ce1  1  0.50000000  0.50000000  0.00000000  1
  Ce  Ce2  1  0.50000000  0.00000000  0.25000000  1
  Ce  Ce3  1  0.00000000  0.00000000  0.50000000  1
  Sm  Sm4  1  0.00000000  0.00000000  0.99487601  1
  Sm  Sm5  1  0.50000000  0.00000000  0.74487601  1
  Sm  Sm6  1  0.50000000  0.50000000  0.49487601  1
  Sm  Sm7  1  0.00000000  0.50000000  0.24487601  1
  O  O8  1  0.00000000  0.00000000  0.74545243  1
  O  O9  1  0.50000000  0.50000000  0.74185913  1
  O  O10  1  0.50000000  0.00000000  0.49545243  1
  O  O11  1  0.50000000  0.00000000  0.00454757  1
  O  O12  1  0.50000000  0.50000000  0.24545243  1
  O  O13  1  0.00000000  0.00000000  0.24185913  1
  O  O14  1  0.00000000  0.50000000  0.99545243  1
  O  O15  1  0.00000000  0.50000000  0.50454757  1
