# generated using pymatgen
data_NiTe(PO4)2
_symmetry_space_group_name_H-M   'P 1'
_cell_length_a   4.79698505
_cell_length_b   6.53943910
_cell_length_c   9.87228485
_cell_angle_alpha   90.00000000
_cell_angle_beta   96.09161407
_cell_angle_gamma   90.00000000
_symmetry_Int_Tables_number   1
_chemical_formula_structural   NiTe(PO4)2
_chemical_formula_sum   'Ni2 Te2 P4 O16'
_cell_volume   307.94087760
_cell_formula_units_Z   2
loop_
 _symmetry_equiv_pos_site_id
 _symmetry_equiv_pos_as_xyz
  1  'x, y, z'
loop_
 _atom_site_type_symbol
 _atom_site_label
 _atom_site_symmetry_multiplicity
 _atom_site_fract_x
 _atom_site_fract_y
 _atom_site_fract_z
 _atom_site_occupancy
  Ni  Ni0  1  0.56985850  0.75000000  0.73337300  1
  Ni  Ni1  1  0.43014150  0.25000000  0.26662700  1
  Te  Te2  1  0.92618050  0.75000000  0.20049800  1
  Te  Te3  1  0.07381950  0.25000000  0.79950200  1
  P  P4  1  0.84444250  0.25000000  0.09086400  1
  P  P5  1  0.15555750  0.75000000  0.90913600  1
  P  P6  1  0.39431250  0.75000000  0.40126900  1
  P  P7  1  0.60568750  0.25000000  0.59873100  1
  O  O8  1  0.26100550  0.75000000  0.06374800  1
  O  O9  1  0.73899450  0.25000000  0.93625200  1
  O  O10  1  0.16476350  0.25000000  0.10110700  1
  O  O11  1  0.83523650  0.75000000  0.89889300  1
  O  O12  1  0.70588050  0.75000000  0.37421600  1
  O  O13  1  0.29411950  0.25000000  0.62578400  1
  O  O14  1  0.63301250  0.25000000  0.44917800  1
  O  O15  1  0.36698750  0.75000000  0.55082200  1
  O  O16  1  0.72071750  0.06629100  0.16719000  1
  O  O17  1  0.72071750  0.43370900  0.16719000  1
  O  O18  1  0.27928250  0.56629100  0.83281000  1
  O  O19  1  0.27928250  0.93370900  0.83281000  1
  O  O20  1  0.22399850  0.93286200  0.32199600  1
  O  O21  1  0.22399850  0.56713800  0.32199600  1
  O  O22  1  0.77600150  0.06713800  0.67800400  1
  O  O23  1  0.77600150  0.43286200  0.67800400  1
