# generated using pymatgen
data_Li3Fe(PO4)2
_symmetry_space_group_name_H-M   'P 1'
_cell_length_a   4.79680978
_cell_length_b   5.82158802
_cell_length_c   10.26977236
_cell_angle_alpha   90.00000000
_cell_angle_beta   91.04079570
_cell_angle_gamma   90.00000000
_symmetry_Int_Tables_number   1
_chemical_formula_structural   Li3Fe(PO4)2
_chemical_formula_sum   'Li6 Fe2 P4 O16'
_cell_volume   286.73659546
_cell_formula_units_Z   2
loop_
 _symmetry_equiv_pos_site_id
 _symmetry_equiv_pos_as_xyz
  1  'x, y, z'
loop_
 _atom_site_type_symbol
 _atom_site_label
 _atom_site_symmetry_multiplicity
 _atom_site_fract_x
 _atom_site_fract_y
 _atom_site_fract_z
 _atom_site_occupancy
  Li  Li0  1  0.40063900  0.75000000  0.43566450  1
  Li  Li1  1  0.59936100  0.25000000  0.56433550  1
  Li  Li2  1  0.99207150  0.75000000  0.26986950  1
  Li  Li3  1  0.00792850  0.25000000  0.73013050  1
  Li  Li4  1  0.00000000  0.50000000  0.00000000  1
  Li  Li5  1  0.00000000  0.00000000  0.00000000  1
  Fe  Fe6  1  0.52173850  0.25000000  0.22599050  1
  Fe  Fe7  1  0.47826150  0.75000000  0.77400950  1
  P  P8  1  0.10743700  0.25000000  0.40285000  1
  P  P9  1  0.89256300  0.75000000  0.59715000  1
  P  P10  1  0.56886650  0.75000000  0.08874700  1
  P  P11  1  0.43113350  0.25000000  0.91125300  1
  O  O12  1  0.81169800  0.75000000  0.45315300  1
  O  O13  1  0.18830200  0.25000000  0.54684700  1
  O  O14  1  0.78618950  0.25000000  0.38332200  1
  O  O15  1  0.21381050  0.75000000  0.61667800  1
  O  O16  1  0.25256550  0.75000000  0.08758700  1
  O  O17  1  0.74743450  0.25000000  0.91241300  1
  O  O18  1  0.30125600  0.25000000  0.05092700  1
  O  O19  1  0.69874400  0.75000000  0.94907300  1
  O  O20  1  0.24720900  0.04160000  0.32969650  1
  O  O21  1  0.24720900  0.45840000  0.32969650  1
  O  O22  1  0.75279100  0.54160000  0.67030350  1
  O  O23  1  0.75279100  0.95840000  0.67030350  1
  O  O24  1  0.70627250  0.53879750  0.16009950  1
  O  O25  1  0.70627250  0.96120250  0.16009950  1
  O  O26  1  0.29372750  0.03879750  0.83990050  1
  O  O27  1  0.29372750  0.46120250  0.83990050  1
