# generated using pymatgen
data_LiNi2O3
_symmetry_space_group_name_H-M   'P 1'
_cell_length_a   5.07854483
_cell_length_b   8.82529760
_cell_length_c   9.71275585
_cell_angle_alpha   90.00000000
_cell_angle_beta   100.35442735
_cell_angle_gamma   90.00000000
_symmetry_Int_Tables_number   1
_chemical_formula_structural   LiNi2O3
_chemical_formula_sum   'Li8 Ni16 O24'
_cell_volume   428.23316861
_cell_formula_units_Z   8
loop_
 _symmetry_equiv_pos_site_id
 _symmetry_equiv_pos_as_xyz
  1  'x, y, z'
loop_
 _atom_site_type_symbol
 _atom_site_label
 _atom_site_symmetry_multiplicity
 _atom_site_fract_x
 _atom_site_fract_y
 _atom_site_fract_z
 _atom_site_occupancy
  Li  Li0  1  0.00000000  0.74445000  0.25000000  1
  Li  Li1  1  0.50000000  0.58543650  0.25000000  1
  Li  Li2  1  0.50000000  0.75555000  0.75000000  1
  Li  Li3  1  0.00000000  0.91456350  0.75000000  1
  Li  Li4  1  0.50000000  0.24445000  0.25000000  1
  Li  Li5  1  0.00000000  0.08543650  0.25000000  1
  Li  Li6  1  0.00000000  0.25555000  0.75000000  1
  Li  Li7  1  0.50000000  0.41456350  0.75000000  1
  Ni  Ni8  1  0.50000000  0.91491900  0.25000000  1
  Ni  Ni9  1  0.25042500  0.91705800  0.50040600  1
  Ni  Ni10  1  0.74957500  0.08294200  0.49959400  1
  Ni  Ni11  1  0.75000000  0.75000000  0.50000000  1
  Ni  Ni12  1  0.00000000  0.58508100  0.75000000  1
  Ni  Ni13  1  0.25000000  0.75000000  0.00000000  1
  Ni  Ni14  1  0.74957500  0.91705800  0.99959400  1
  Ni  Ni15  1  0.25042500  0.08294200  0.00040600  1
  Ni  Ni16  1  0.00000000  0.41491900  0.25000000  1
  Ni  Ni17  1  0.75042500  0.41705800  0.50040600  1
  Ni  Ni18  1  0.24957500  0.58294200  0.49959400  1
  Ni  Ni19  1  0.25000000  0.25000000  0.50000000  1
  Ni  Ni20  1  0.50000000  0.08508100  0.75000000  1
  Ni  Ni21  1  0.75000000  0.25000000  0.00000000  1
  Ni  Ni22  1  0.24957500  0.41705800  0.99959400  1
  Ni  Ni23  1  0.75042500  0.58294200  0.00040600  1
  O  O24  1  0.13503850  0.90453350  0.11603400  1
  O  O25  1  0.62262050  0.07604150  0.12492700  1
  O  O26  1  0.60081700  0.75128300  0.11512200  1
  O  O27  1  0.39918300  0.75128300  0.38487800  1
  O  O28  1  0.37737950  0.07604150  0.37507300  1
  O  O29  1  0.86496150  0.90453350  0.38396600  1
  O  O30  1  0.10081700  0.74871700  0.61512200  1
  O  O31  1  0.62262050  0.92395850  0.62492700  1
  O  O32  1  0.63503850  0.59546650  0.61603400  1
  O  O33  1  0.37737950  0.92395850  0.87507300  1
  O  O34  1  0.36496150  0.59546650  0.88396600  1
  O  O35  1  0.89918300  0.74871700  0.88487800  1
  O  O36  1  0.63503850  0.40453350  0.11603400  1
  O  O37  1  0.12262050  0.57604150  0.12492700  1
  O  O38  1  0.10081700  0.25128300  0.11512200  1
  O  O39  1  0.89918300  0.25128300  0.38487800  1
  O  O40  1  0.87737950  0.57604150  0.37507300  1
  O  O41  1  0.36496150  0.40453350  0.38396600  1
  O  O42  1  0.60081700  0.24871700  0.61512200  1
  O  O43  1  0.12262050  0.42395850  0.62492700  1
  O  O44  1  0.13503850  0.09546650  0.61603400  1
  O  O45  1  0.87737950  0.42395850  0.87507300  1
  O  O46  1  0.86496150  0.09546650  0.88396600  1
  O  O47  1  0.39918300  0.24871700  0.88487800  1
