# generated using pymatgen
data_NbFe3(PO4)6
_symmetry_space_group_name_H-M   'P 1'
_cell_length_a   8.77730553
_cell_length_b   8.77730553
_cell_length_c   22.21991257
_cell_angle_alpha   90.00000000
_cell_angle_beta   90.00000000
_cell_angle_gamma   120.00000000
_symmetry_Int_Tables_number   1
_chemical_formula_structural   NbFe3(PO4)6
_chemical_formula_sum   'Nb3 Fe9 P18 O72'
_cell_volume   1482.50241639
_cell_formula_units_Z   3
loop_
 _symmetry_equiv_pos_site_id
 _symmetry_equiv_pos_as_xyz
  1  'x, y, z'
loop_
 _atom_site_type_symbol
 _atom_site_label
 _atom_site_symmetry_multiplicity
 _atom_site_fract_x
 _atom_site_fract_y
 _atom_site_fract_z
 _atom_site_occupancy
  Nb  Nb0  1  0.66666667  0.33333333  0.19293533  1
  Nb  Nb1  1  0.33333333  0.66666667  0.52626867  1
  Nb  Nb2  1  0.00000000  0.00000000  0.85960200  1
  Fe  Fe3  1  0.00000000  0.00000000  0.14276200  1
  Fe  Fe4  1  0.33333333  0.66666667  0.02465267  1
  Fe  Fe5  1  0.33333333  0.66666667  0.30988867  1
  Fe  Fe6  1  0.66666667  0.33333333  0.47609533  1
  Fe  Fe7  1  0.00000000  0.00000000  0.35798600  1
  Fe  Fe8  1  0.00000000  0.00000000  0.64322200  1
  Fe  Fe9  1  0.33333333  0.66666667  0.80942867  1
  Fe  Fe10  1  0.66666667  0.33333333  0.69131933  1
  Fe  Fe11  1  0.66666667  0.33333333  0.97655533  1
  P  P12  1  0.95284800  0.33273500  0.08265800  1
  P  P13  1  0.37988700  0.04715200  0.08265800  1
  P  P14  1  0.66726500  0.62011300  0.08265800  1
  P  P15  1  0.00711833  0.72243467  0.25063267  1
  P  P16  1  0.27756533  0.28468367  0.25063267  1
  P  P17  1  0.71531633  0.99288167  0.25063267  1
  P  P18  1  0.61951467  0.66606833  0.41599133  1
  P  P19  1  0.04655367  0.38048533  0.41599133  1
  P  P20  1  0.33393167  0.95344633  0.41599133  1
  P  P21  1  0.67378500  0.05576800  0.58396600  1
  P  P22  1  0.94423200  0.61801700  0.58396600  1
  P  P23  1  0.38198300  0.32621500  0.58396600  1
  P  P24  1  0.28618133  0.99940167  0.74932467  1
  P  P25  1  0.71322033  0.71381867  0.74932467  1
  P  P26  1  0.00059833  0.28677967  0.74932467  1
  P  P27  1  0.34045167  0.38910133  0.91729933  1
  P  P28  1  0.61089867  0.95135033  0.91729933  1
  P  P29  1  0.04864967  0.65954833  0.91729933  1
  O  O30  1  0.82944733  0.03095767  0.30694267  1
  O  O31  1  0.96904233  0.79848967  0.30694267  1
  O  O32  1  0.97461267  0.17065833  0.09006633  1
  O  O33  1  0.20151033  0.17055267  0.30694267  1
  O  O34  1  0.13264300  0.49991900  0.07726600  1
  O  O35  1  0.85884033  0.35443267  0.13876767  1
  O  O36  1  0.19604567  0.02538733  0.09006633  1
  O  O37  1  0.36727600  0.86735700  0.07726600  1
  O  O38  1  0.50008100  0.63272400  0.07726600  1
  O  O39  1  0.03505000  0.83456100  0.19427500  1
  O  O40  1  0.84282167  0.53480033  0.24040233  1
  O  O41  1  0.16543900  0.20048900  0.19427500  1
  O  O42  1  0.49559233  0.14115967  0.13876767  1
  O  O43  1  0.82934167  0.80395433  0.09006633  1
  O  O44  1  0.64556733  0.50440767  0.13876767  1
  O  O45  1  0.16974800  0.70305700  0.25800300  1
  O  O46  1  0.29694300  0.46669100  0.25800300  1
  O  O47  1  0.46519967  0.30802133  0.24040233  1
  O  O48  1  0.79951100  0.96495000  0.19427500  1
  O  O49  1  0.53330900  0.83025200  0.25800300  1
  O  O50  1  0.46277100  0.16159100  0.02646200  1
  O  O51  1  0.69197867  0.15717833  0.24040233  1
  O  O52  1  0.69882000  0.53722900  0.02646200  1
  O  O53  1  0.83840900  0.30118000  0.02646200  1
  O  O54  1  0.49611400  0.36429100  0.64027600  1
  O  O55  1  0.63570900  0.13182300  0.64027600  1
  O  O56  1  0.64127933  0.50399167  0.42339967  1
  O  O57  1  0.86817700  0.50388600  0.64027600  1
  O  O58  1  0.79930967  0.83325233  0.41059933  1
  O  O59  1  0.52550700  0.68776600  0.47210100  1
  O  O60  1  0.86271233  0.35872067  0.42339967  1
  O  O61  1  0.03394267  0.20069033  0.41059933  1
  O  O62  1  0.16674767  0.96605733  0.41059933  1
  O  O63  1  0.70171667  0.16789433  0.52760833  1
  O  O64  1  0.50948833  0.86813367  0.57373567  1
  O  O65  1  0.83210567  0.53382233  0.52760833  1
  O  O66  1  0.16225900  0.47449300  0.47210100  1
  O  O67  1  0.49600833  0.13728767  0.42339967  1
  O  O68  1  0.31223400  0.83774100  0.47210100  1
  O  O69  1  0.83641467  0.03639033  0.59133633  1
  O  O70  1  0.96360967  0.80002433  0.59133633  1
  O  O71  1  0.13186633  0.64135467  0.57373567  1
  O  O72  1  0.46617767  0.29828333  0.52760833  1
  O  O73  1  0.19997567  0.16358533  0.59133633  1
  O  O74  1  0.12943767  0.49492433  0.35979533  1
  O  O75  1  0.35864533  0.49051167  0.57373567  1
  O  O76  1  0.36548667  0.87056233  0.35979533  1
  O  O77  1  0.50507567  0.63451333  0.35979533  1
  O  O78  1  0.16278067  0.69762433  0.97360933  1
  O  O79  1  0.30237567  0.46515633  0.97360933  1
  O  O80  1  0.30794600  0.83732500  0.75673300  1
  O  O81  1  0.53484367  0.83721933  0.97360933  1
  O  O82  1  0.46597633  0.16658567  0.74393267  1
  O  O83  1  0.19217367  0.02109933  0.80543433  1
  O  O84  1  0.52937900  0.69205400  0.75673300  1
  O  O85  1  0.70060933  0.53402367  0.74393267  1
  O  O86  1  0.83341433  0.29939067  0.74393267  1
  O  O87  1  0.36838333  0.50122767  0.86094167  1
  O  O88  1  0.17615500  0.20146700  0.90706900  1
  O  O89  1  0.49877233  0.86715567  0.86094167  1
  O  O90  1  0.82892567  0.80782633  0.80543433  1
  O  O91  1  0.16267500  0.47062100  0.75673300  1
  O  O92  1  0.97890067  0.17107433  0.80543433  1
  O  O93  1  0.50308133  0.36972367  0.92466967  1
  O  O94  1  0.63027633  0.13335767  0.92466967  1
  O  O95  1  0.79853300  0.97468800  0.90706900  1
  O  O96  1  0.13284433  0.63161667  0.86094167  1
  O  O97  1  0.86664233  0.49691867  0.92466967  1
  O  O98  1  0.79610433  0.82825767  0.69312867  1
  O  O99  1  0.02531200  0.82384500  0.90706900  1
  O  O100  1  0.03215333  0.20389567  0.69312867  1
  O  O101  1  0.17174233  0.96784667  0.69312867  1
