# generated using pymatgen
data_Li2FeOF3
_symmetry_space_group_name_H-M   'P 1'
_cell_length_a   10.30085956
_cell_length_b   5.98694442
_cell_length_c   5.95473232
_cell_angle_alpha   90.00000000
_cell_angle_beta   124.10572004
_cell_angle_gamma   90.00000000
_symmetry_Int_Tables_number   1
_chemical_formula_structural   Li2FeOF3
_chemical_formula_sum   'Li8 Fe4 O4 F12'
_cell_volume   304.06998989
_cell_formula_units_Z   4
loop_
 _symmetry_equiv_pos_site_id
 _symmetry_equiv_pos_as_xyz
  1  'x, y, z'
loop_
 _atom_site_type_symbol
 _atom_site_label
 _atom_site_symmetry_multiplicity
 _atom_site_fract_x
 _atom_site_fract_y
 _atom_site_fract_z
 _atom_site_occupancy
  Li  Li0  1  0.00000000  0.00000000  0.00000000  1
  Li  Li1  1  0.00000000  0.00000000  0.50000000  1
  Li  Li2  1  0.12405525  0.50000000  0.90638400  1
  Li  Li3  1  0.37594475  0.00000000  0.09361600  1
  Li  Li4  1  0.50000000  0.50000000  0.00000000  1
  Li  Li5  1  0.50000000  0.50000000  0.50000000  1
  Li  Li6  1  0.62405525  0.00000000  0.90638400  1
  Li  Li7  1  0.87594475  0.50000000  0.09361600  1
  Fe  Fe8  1  0.25000000  0.75000000  0.50000000  1
  Fe  Fe9  1  0.25000000  0.25000000  0.50000000  1
  Fe  Fe10  1  0.75000000  0.25000000  0.50000000  1
  Fe  Fe11  1  0.75000000  0.75000000  0.50000000  1
  O  O12  1  0.24537375  0.00000000  0.69303500  1
  O  O13  1  0.25462625  0.50000000  0.30696500  1
  O  O14  1  0.74537375  0.50000000  0.69303500  1
  O  O15  1  0.75462625  0.00000000  0.30696500  1
  F  F16  1  0.24583575  0.00000000  0.24370400  1
  F  F17  1  0.25416425  0.50000000  0.75629600  1
  F  F18  1  0.51169975  0.26260175  0.25629600  1
  F  F19  1  0.01169975  0.23739825  0.25629600  1
  F  F20  1  0.48830025  0.26260175  0.74370400  1
  F  F21  1  0.98830025  0.23739825  0.74370400  1
  F  F22  1  0.74583575  0.50000000  0.24370400  1
  F  F23  1  0.75416425  0.00000000  0.75629600  1
  F  F24  1  0.01169975  0.76260175  0.25629600  1
  F  F25  1  0.51169975  0.73739825  0.25629600  1
  F  F26  1  0.98830025  0.76260175  0.74370400  1
  F  F27  1  0.48830025  0.73739825  0.74370400  1
