# generated using pymatgen
data_TiNi(PO4)2
_symmetry_space_group_name_H-M   'P 1'
_cell_length_a   8.60981612
_cell_length_b   8.60981612
_cell_length_c   20.55709492
_cell_angle_alpha   90.00000000
_cell_angle_beta   90.00000000
_cell_angle_gamma   120.00000000
_symmetry_Int_Tables_number   1
_chemical_formula_structural   TiNi(PO4)2
_chemical_formula_sum   'Ti9 Ni9 P18 O72'
_cell_volume   1319.71491744
_cell_formula_units_Z   9
loop_
 _symmetry_equiv_pos_site_id
 _symmetry_equiv_pos_as_xyz
  1  'x, y, z'
loop_
 _atom_site_type_symbol
 _atom_site_label
 _atom_site_symmetry_multiplicity
 _atom_site_fract_x
 _atom_site_fract_y
 _atom_site_fract_z
 _atom_site_occupancy
  Ti  Ti0  1  0.33333333  0.66666667  0.02186767  1
  Ti  Ti1  1  0.33333333  0.66666667  0.80900467  1
  Ti  Ti2  1  0.33333333  0.66666667  0.31184867  1
  Ti  Ti3  1  0.00000000  0.00000000  0.35520100  1
  Ti  Ti4  1  0.00000000  0.00000000  0.14233800  1
  Ti  Ti5  1  0.00000000  0.00000000  0.64518200  1
  Ti  Ti6  1  0.66666667  0.33333333  0.68853433  1
  Ti  Ti7  1  0.66666667  0.33333333  0.47567133  1
  Ti  Ti8  1  0.66666667  0.33333333  0.97851533  1
  Ni  Ni9  1  0.33333333  0.66666667  0.66384567  1
  Ni  Ni10  1  0.33333333  0.66666667  0.52486067  1
  Ni  Ni11  1  0.33333333  0.66666667  0.16542467  1
  Ni  Ni12  1  0.00000000  0.00000000  0.99717900  1
  Ni  Ni13  1  0.00000000  0.00000000  0.85819400  1
  Ni  Ni14  1  0.00000000  0.00000000  0.49875800  1
  Ni  Ni15  1  0.66666667  0.33333333  0.33051233  1
  Ni  Ni16  1  0.66666667  0.33333333  0.19152733  1
  Ni  Ni17  1  0.66666667  0.33333333  0.83209133  1
  P  P18  1  0.37104567  0.03820633  0.08522933  1
  P  P19  1  0.66716067  0.62895433  0.08522933  1
  P  P20  1  0.96179367  0.33283933  0.08522933  1
  P  P21  1  0.70312200  0.99966300  0.24966900  1
  P  P22  1  0.00033700  0.70345900  0.24966900  1
  P  P23  1  0.29654100  0.29687800  0.24966900  1
  P  P24  1  0.03771233  0.37153967  0.41856267  1
  P  P25  1  0.33382733  0.96228767  0.41856267  1
  P  P26  1  0.62846033  0.66617267  0.41856267  1
  P  P27  1  0.36978867  0.33299633  0.58300233  1
  P  P28  1  0.66700367  0.03679233  0.58300233  1
  P  P29  1  0.96320767  0.63021133  0.58300233  1
  P  P30  1  0.70437900  0.70487300  0.75189600  1
  P  P31  1  0.00049400  0.29562100  0.75189600  1
  P  P32  1  0.29512700  0.99950600  0.75189600  1
  P  P33  1  0.03645533  0.66632967  0.91633567  1
  P  P34  1  0.33367033  0.37012567  0.91633567  1
  P  P35  1  0.62987433  0.96354467  0.91633567  1
  O  O36  1  0.32716667  0.85329733  0.35656833  1
  O  O37  1  0.52613067  0.67283333  0.35656833  1
  O  O38  1  0.14670267  0.47386933  0.35656833  1
  O  O39  1  0.18042800  0.01559900  0.07402500  1
  O  O40  1  0.46183600  0.13269400  0.14652000  1
  O  O41  1  0.34345800  0.84396000  0.08886200  1
  O  O42  1  0.83517100  0.81957200  0.07402500  1
  O  O43  1  0.50050200  0.65654200  0.08886200  1
  O  O44  1  0.14669867  0.67348333  0.85545633  1
  O  O45  1  0.15604000  0.49949800  0.08886200  1
  O  O46  1  0.68480633  0.16488567  0.26089667  1
  O  O47  1  0.32651667  0.47321533  0.85545633  1
  O  O48  1  0.67085800  0.53816400  0.14652000  1
  O  O49  1  0.98440100  0.16482900  0.07402500  1
  O  O50  1  0.51575667  0.82828933  0.24093933  1
  O  O51  1  0.86730600  0.32914200  0.14652000  1
  O  O52  1  0.17171067  0.68746733  0.24093933  1
  O  O53  1  0.83511433  0.51992067  0.26089667  1
  O  O54  1  0.31253267  0.48424333  0.24093933  1
  O  O55  1  0.52678467  0.85330133  0.85545633  1
  O  O56  1  0.48007933  0.31519367  0.26089667  1
  O  O57  1  0.51264000  0.86443000  0.97623300  1
  O  O58  1  0.13557000  0.64821000  0.97623300  1
  O  O59  1  0.35179000  0.48736000  0.97623300  1
  O  O60  1  0.99383333  0.18663067  0.68990167  1
  O  O61  1  0.19279733  0.00616667  0.68990167  1
  O  O62  1  0.81336933  0.80720267  0.68990167  1
  O  O63  1  0.84709467  0.34893233  0.40735833  1
  O  O64  1  0.12850267  0.46602733  0.47985333  1
  O  O65  1  0.01012467  0.17729333  0.42219533  1
  O  O66  1  0.50183767  0.15290533  0.40735833  1
  O  O67  1  0.16716867  0.98987533  0.42219533  1
  O  O68  1  0.81336533  0.00681667  0.18878967  1
  O  O69  1  0.82270667  0.83283133  0.42219533  1
  O  O70  1  0.35147300  0.49821900  0.59423000  1
  O  O71  1  0.99318333  0.80654867  0.18878967  1
  O  O72  1  0.33752467  0.87149733  0.47985333  1
  O  O73  1  0.65106767  0.49816233  0.40735833  1
  O  O74  1  0.18242333  0.16162267  0.57427267  1
  O  O75  1  0.53397267  0.66247533  0.47985333  1
  O  O76  1  0.83837733  0.02080067  0.57427267  1
  O  O77  1  0.50178100  0.85325400  0.59423000  1
  O  O78  1  0.97919933  0.81757667  0.57427267  1
  O  O79  1  0.19345133  0.18663467  0.18878967  1
  O  O80  1  0.14674600  0.64852700  0.59423000  1
  O  O81  1  0.17930667  0.19776333  0.30956633  1
  O  O82  1  0.80223667  0.98154333  0.30956633  1
  O  O83  1  0.01845667  0.82069333  0.30956633  1
  O  O84  1  0.66050000  0.51996400  0.02323500  1
  O  O85  1  0.85946400  0.33950000  0.02323500  1
  O  O86  1  0.48003600  0.14053600  0.02323500  1
  O  O87  1  0.51376133  0.68226567  0.74069167  1
  O  O88  1  0.79516933  0.79936067  0.81318667  1
  O  O89  1  0.67679133  0.51062667  0.75552867  1
  O  O90  1  0.16850433  0.48623867  0.74069167  1
  O  O91  1  0.83383533  0.32320867  0.75552867  1
  O  O92  1  0.48003200  0.34015000  0.52212300  1
  O  O93  1  0.48937333  0.16616467  0.75552867  1
  O  O94  1  0.01813967  0.83155233  0.92756333  1
  O  O95  1  0.65985000  0.13988200  0.52212300  1
  O  O96  1  0.00419133  0.20483067  0.81318667  1
  O  O97  1  0.31773433  0.83149567  0.74069167  1
  O  O98  1  0.84909000  0.49495600  0.90760600  1
  O  O99  1  0.20063933  0.99580867  0.81318667  1
  O  O100  1  0.50504400  0.35413400  0.90760600  1
  O  O101  1  0.16844767  0.18658733  0.92756333  1
  O  O102  1  0.64586600  0.15091000  0.90760600  1
  O  O103  1  0.86011800  0.51996800  0.52212300  1
  O  O104  1  0.81341267  0.98186033  0.92756333  1
  O  O105  1  0.84597333  0.53109667  0.64289967  1
  O  O106  1  0.46890333  0.31487667  0.64289967  1
  O  O107  1  0.68512333  0.15402667  0.64289967  1
