# generated using pymatgen
data_LiCoPO4
_symmetry_space_group_name_H-M   'P 1'
_cell_length_a   5.13468386
_cell_length_b   5.13468386
_cell_length_c   23.72683826
_cell_angle_alpha   90.00000000
_cell_angle_beta   90.00000000
_cell_angle_gamma   120.00000000
_symmetry_Int_Tables_number   1
_chemical_formula_structural   LiCoPO4
_chemical_formula_sum   'Li6 Co6 P6 O24'
_cell_volume   541.74875294
_cell_formula_units_Z   6
loop_
 _symmetry_equiv_pos_site_id
 _symmetry_equiv_pos_as_xyz
  1  'x, y, z'
loop_
 _atom_site_type_symbol
 _atom_site_label
 _atom_site_symmetry_multiplicity
 _atom_site_fract_x
 _atom_site_fract_y
 _atom_site_fract_z
 _atom_site_occupancy
  Li  Li0  1  0.66666667  0.33333333  0.95872467  1
  Li  Li1  1  0.33333333  0.66666667  0.04127533  1
  Li  Li2  1  0.33333333  0.66666667  0.29205800  1
  Li  Li3  1  0.00000000  0.00000000  0.37460867  1
  Li  Li4  1  0.00000000  0.00000000  0.62539133  1
  Li  Li5  1  0.66666667  0.33333333  0.70794200  1
  Co  Co6  1  0.66666667  0.33333333  0.10249300  1
  Co  Co7  1  0.33333333  0.66666667  0.89750700  1
  Co  Co8  1  0.33333333  0.66666667  0.43582633  1
  Co  Co9  1  0.00000000  0.00000000  0.23084033  1
  Co  Co10  1  0.00000000  0.00000000  0.76915967  1
  Co  Co11  1  0.66666667  0.33333333  0.56417367  1
  P  P12  1  0.00000000  0.00000000  0.91371633  1
  P  P13  1  0.00000000  0.00000000  0.08628367  1
  P  P14  1  0.66666667  0.33333333  0.24704967  1
  P  P15  1  0.66666667  0.33333333  0.41961700  1
  P  P16  1  0.33333333  0.66666667  0.58038300  1
  P  P17  1  0.33333333  0.66666667  0.75295033  1
  O  O18  1  0.70642167  0.98589533  0.93596333  1
  O  O19  1  0.72052633  0.70642167  0.06403667  1
  O  O20  1  0.29357833  0.01410467  0.06403667  1
  O  O21  1  0.33333333  0.66666667  0.81736333  1
  O  O22  1  0.01410467  0.72052633  0.93596333  1
  O  O23  1  0.27947367  0.29357833  0.93596333  1
  O  O24  1  0.98589533  0.27947367  0.06403667  1
  O  O25  1  0.00000000  0.00000000  0.84930333  1
  O  O26  1  0.37308833  0.31922867  0.26929667  1
  O  O27  1  0.38719300  0.03975500  0.39737000  1
  O  O28  1  0.96024500  0.34743800  0.39737000  1
  O  O29  1  0.00000000  0.00000000  0.15069667  1
  O  O30  1  0.68077133  0.05385967  0.26929667  1
  O  O31  1  0.94614033  0.62691167  0.26929667  1
  O  O32  1  0.65256200  0.61280700  0.39737000  1
  O  O33  1  0.66666667  0.33333333  0.18263667  1
  O  O34  1  0.03975500  0.65256200  0.60263000  1
  O  O35  1  0.05385967  0.37308833  0.73070333  1
  O  O36  1  0.62691167  0.68077133  0.73070333  1
  O  O37  1  0.66666667  0.33333333  0.48403000  1
  O  O38  1  0.34743800  0.38719300  0.60263000  1
  O  O39  1  0.61280700  0.96024500  0.60263000  1
  O  O40  1  0.31922867  0.94614033  0.73070333  1
  O  O41  1  0.33333333  0.66666667  0.51597000  1
