# generated using pymatgen
data_Li2Si2NiO6
_symmetry_space_group_name_H-M   'P 1'
_cell_length_a   5.80347189
_cell_length_b   9.50077139
_cell_length_c   9.43195145
_cell_angle_alpha   90.00000000
_cell_angle_beta   91.93012486
_cell_angle_gamma   90.00000000
_symmetry_Int_Tables_number   1
_chemical_formula_structural   Li2Si2NiO6
_chemical_formula_sum   'Li8 Si8 Ni4 O24'
_cell_volume   519.75878798
_cell_formula_units_Z   4
loop_
 _symmetry_equiv_pos_site_id
 _symmetry_equiv_pos_as_xyz
  1  'x, y, z'
loop_
 _atom_site_type_symbol
 _atom_site_label
 _atom_site_symmetry_multiplicity
 _atom_site_fract_x
 _atom_site_fract_y
 _atom_site_fract_z
 _atom_site_occupancy
  Li  Li0  1  0.93157750  0.67097750  0.11913850  1
  Li  Li1  1  0.93157750  0.32902250  0.61913850  1
  Li  Li2  1  0.06842250  0.67097750  0.38086150  1
  Li  Li3  1  0.06842250  0.32902250  0.88086150  1
  Li  Li4  1  0.43157750  0.17097750  0.11913850  1
  Li  Li5  1  0.43157750  0.82902250  0.61913850  1
  Li  Li6  1  0.56842250  0.17097750  0.38086150  1
  Li  Li7  1  0.56842250  0.82902250  0.88086150  1
  Si  Si8  1  0.66819700  0.47146350  0.36845800  1
  Si  Si9  1  0.66819700  0.52853650  0.86845800  1
  Si  Si10  1  0.33180300  0.47146350  0.13154200  1
  Si  Si11  1  0.33180300  0.52853650  0.63154200  1
  Si  Si12  1  0.16819700  0.97146350  0.36845800  1
  Si  Si13  1  0.16819700  0.02853650  0.86845800  1
  Si  Si14  1  0.83180300  0.97146350  0.13154200  1
  Si  Si15  1  0.83180300  0.02853650  0.63154200  1
  Ni  Ni16  1  0.00000000  0.25699450  0.25000000  1
  Ni  Ni17  1  0.00000000  0.74300550  0.75000000  1
  Ni  Ni18  1  0.50000000  0.75699450  0.25000000  1
  Ni  Ni19  1  0.50000000  0.24300550  0.75000000  1
  O  O20  1  0.00000000  0.88478975  0.25000000  1
  O  O21  1  0.00000000  0.11521025  0.75000000  1
  O  O22  1  0.50000000  0.50000000  0.50000000  1
  O  O23  1  0.50000000  0.50000000  0.00000000  1
  O  O24  1  0.75432375  0.61968175  0.30060350  1
  O  O25  1  0.75432375  0.38031825  0.80060350  1
  O  O26  1  0.24567625  0.61968175  0.19939650  1
  O  O27  1  0.24567625  0.38031825  0.69939650  1
  O  O28  1  0.87047400  0.35995550  0.41374200  1
  O  O29  1  0.87047400  0.64004450  0.91374200  1
  O  O30  1  0.12952600  0.35995550  0.08625800  1
  O  O31  1  0.12952600  0.64004450  0.58625800  1
  O  O32  1  0.50000000  0.38478975  0.25000000  1
  O  O33  1  0.50000000  0.61521025  0.75000000  1
  O  O34  1  0.00000000  0.00000000  0.50000000  1
  O  O35  1  0.00000000  0.00000000  0.00000000  1
  O  O36  1  0.25432375  0.11968175  0.30060350  1
  O  O37  1  0.25432375  0.88031825  0.80060350  1
  O  O38  1  0.74567625  0.11968175  0.19939650  1
  O  O39  1  0.74567625  0.88031825  0.69939650  1
  O  O40  1  0.37047400  0.85995550  0.41374200  1
  O  O41  1  0.37047400  0.14004450  0.91374200  1
  O  O42  1  0.62952600  0.85995550  0.08625800  1
  O  O43  1  0.62952600  0.14004450  0.58625800  1
