# generated using pymatgen
data_FeOF
_symmetry_space_group_name_H-M   'P 1'
_cell_length_a   9.63839200
_cell_length_b   3.14268700
_cell_length_c   14.39802151
_cell_angle_alpha   90.00000000
_cell_angle_beta   90.15620438
_cell_angle_gamma   90.00000000
_symmetry_Int_Tables_number   1
_chemical_formula_structural   FeOF
_chemical_formula_sum   'Fe12 O12 F12'
_cell_volume   436.12091885
_cell_formula_units_Z   12
loop_
 _symmetry_equiv_pos_site_id
 _symmetry_equiv_pos_as_xyz
  1  'x, y, z'
loop_
 _atom_site_type_symbol
 _atom_site_label
 _atom_site_symmetry_multiplicity
 _atom_site_fract_x
 _atom_site_fract_y
 _atom_site_fract_z
 _atom_site_occupancy
  Fe  Fe0  1  0.00007400  0.00000000  0.99918400  1
  Fe  Fe1  1  0.01325200  0.00000000  0.32626200  1
  Fe  Fe2  1  0.00632100  0.00000000  0.67166200  1
  Fe  Fe3  1  0.22614200  0.50000000  0.15832900  1
  Fe  Fe4  1  0.27660000  0.50000000  0.50342400  1
  Fe  Fe5  1  0.22459200  0.50000000  0.83523900  1
  Fe  Fe6  1  0.49795700  0.00000000  0.34100500  1
  Fe  Fe7  1  0.51708700  0.00000000  0.99793000  1
  Fe  Fe8  1  0.50653400  0.00000000  0.65999600  1
  Fe  Fe9  1  0.75052300  0.50000000  0.14808300  1
  Fe  Fe10  1  0.72952300  0.50000000  0.49821700  1
  Fe  Fe11  1  0.75733500  0.50000000  0.85258200  1
  O  O12  1  0.09909200  0.50000000  0.27091000  1
  O  O13  1  0.09444800  0.50000000  0.93709200  1
  O  O14  1  0.14793000  0.00000000  0.09986400  1
  O  O15  1  0.15089600  0.00000000  0.76880100  1
  O  O16  1  0.34608600  0.00000000  0.57023100  1
  O  O17  1  0.40019500  0.50000000  0.39438000  1
  O  O18  1  0.59230100  0.50000000  0.93400200  1
  O  O19  1  0.60129300  0.50000000  0.60482200  1
  O  O20  1  0.65161600  0.00000000  0.10233600  1
  O  O21  1  0.65722900  0.00000000  0.43192800  1
  O  O22  1  0.85172300  0.00000000  0.89961000  1
  O  O23  1  0.90530600  0.50000000  0.06308400  1
  F  F24  1  0.09453600  0.50000000  0.59418900  1
  F  F25  1  0.14897400  0.00000000  0.43867600  1
  F  F26  1  0.34886700  0.00000000  0.22552200  1
  F  F27  1  0.34383600  0.00000000  0.90128500  1
  F  F28  1  0.39797500  0.50000000  0.06462700  1
  F  F29  1  0.40726000  0.50000000  0.73707600  1
  F  F30  1  0.59891300  0.50000000  0.26647600  1
  F  F31  1  0.65624700  0.00000000  0.77120600  1
  F  F32  1  0.84688500  0.00000000  0.23571100  1
  F  F33  1  0.85344700  0.00000000  0.56535500  1
  F  F34  1  0.90778500  0.50000000  0.40100300  1
  F  F35  1  0.89122300  0.50000000  0.72990200  1
