# generated using pymatgen
data_Li2Ti3NiO8
_symmetry_space_group_name_H-M   'P 1'
_cell_length_a   5.97167141
_cell_length_b   5.97167141
_cell_length_c   14.65380180
_cell_angle_alpha   90.00000000
_cell_angle_beta   90.00000000
_cell_angle_gamma   120.00000000
_symmetry_Int_Tables_number   1
_chemical_formula_structural   Li2Ti3NiO8
_chemical_formula_sum   'Li6 Ti9 Ni3 O24'
_cell_volume   452.55644088
_cell_formula_units_Z   3
loop_
 _symmetry_equiv_pos_site_id
 _symmetry_equiv_pos_as_xyz
  1  'x, y, z'
loop_
 _atom_site_type_symbol
 _atom_site_label
 _atom_site_symmetry_multiplicity
 _atom_site_fract_x
 _atom_site_fract_y
 _atom_site_fract_z
 _atom_site_occupancy
  Li  Li0  1  0.33333333  0.66666667  0.54588017  1
  Li  Li1  1  0.66666667  0.33333333  0.45411983  1
  Li  Li2  1  0.00000000  0.00000000  0.87921350  1
  Li  Li3  1  0.33333333  0.66666667  0.78745317  1
  Li  Li4  1  0.66666667  0.33333333  0.21254683  1
  Li  Li5  1  0.00000000  0.00000000  0.12078650  1
  Ti  Ti6  1  0.16666667  0.33333333  0.33333333  1
  Ti  Ti7  1  0.16666667  0.83333333  0.33333333  1
  Ti  Ti8  1  0.33333333  0.16666667  0.66666667  1
  Ti  Ti9  1  0.83333333  0.66666667  0.66666667  1
  Ti  Ti10  1  0.83333333  0.16666667  0.66666667  1
  Ti  Ti11  1  0.00000000  0.50000000  0.00000000  1
  Ti  Ti12  1  0.50000000  0.00000000  0.00000000  1
  Ti  Ti13  1  0.50000000  0.50000000  0.00000000  1
  Ti  Ti14  1  0.66666667  0.83333333  0.33333333  1
  Ni  Ni15  1  0.00000000  0.00000000  0.50000000  1
  Ni  Ni16  1  0.66666667  0.33333333  0.83333333  1
  Ni  Ni17  1  0.33333333  0.66666667  0.16666667  1
  O  O18  1  0.33333333  0.66666667  0.40594975  1
  O  O19  1  0.66666667  0.33333333  0.59405025  1
  O  O20  1  0.69563367  0.84781683  0.59386958  1
  O  O21  1  0.15218317  0.84781683  0.59386958  1
  O  O22  1  0.15218317  0.30436633  0.59386958  1
  O  O23  1  0.84781683  0.69563367  0.40613042  1
  O  O24  1  0.84781683  0.15218317  0.40613042  1
  O  O25  1  0.30436633  0.15218317  0.40613042  1
  O  O26  1  0.00000000  0.00000000  0.73928308  1
  O  O27  1  0.33333333  0.66666667  0.92738358  1
  O  O28  1  0.36230033  0.18115017  0.92720292  1
  O  O29  1  0.81884983  0.18115017  0.92720292  1
  O  O30  1  0.81884983  0.63769967  0.92720292  1
  O  O31  1  0.51448350  0.02896700  0.73946375  1
  O  O32  1  0.51448350  0.48551650  0.73946375  1
  O  O33  1  0.97103300  0.48551650  0.73946375  1
  O  O34  1  0.66666667  0.33333333  0.07261642  1
  O  O35  1  0.00000000  0.00000000  0.26071692  1
  O  O36  1  0.02896700  0.51448350  0.26053625  1
  O  O37  1  0.48551650  0.51448350  0.26053625  1
  O  O38  1  0.48551650  0.97103300  0.26053625  1
  O  O39  1  0.18115017  0.36230033  0.07279708  1
  O  O40  1  0.18115017  0.81884983  0.07279708  1
  O  O41  1  0.63769967  0.81884983  0.07279708  1
