# generated using pymatgen
data_Fe2O3F
_symmetry_space_group_name_H-M   'P 1'
_cell_length_a   6.39595600
_cell_length_b   6.88088200
_cell_length_c   12.04422300
_cell_angle_alpha   90.00000000
_cell_angle_beta   90.00000000
_cell_angle_gamma   90.00000000
_symmetry_Int_Tables_number   1
_chemical_formula_structural   Fe2O3F
_chemical_formula_sum   'Fe16 O24 F8'
_cell_volume   530.06406836
_cell_formula_units_Z   8
loop_
 _symmetry_equiv_pos_site_id
 _symmetry_equiv_pos_as_xyz
  1  'x, y, z'
loop_
 _atom_site_type_symbol
 _atom_site_label
 _atom_site_symmetry_multiplicity
 _atom_site_fract_x
 _atom_site_fract_y
 _atom_site_fract_z
 _atom_site_occupancy
  Fe  Fe0  1  0.50000000  0.49808500  0.37461400  1
  Fe  Fe1  1  0.50000000  0.49808500  0.62538600  1
  Fe  Fe2  1  0.50000000  0.48412000  0.87535300  1
  Fe  Fe3  1  0.50000000  0.48412000  0.12464700  1
  Fe  Fe4  1  0.50000000  0.02059700  0.00000000  1
  Fe  Fe5  1  0.50000000  0.96549600  0.50000000  1
  Fe  Fe6  1  0.50000000  0.02552900  0.25020200  1
  Fe  Fe7  1  0.50000000  0.02552900  0.74979800  1
  Fe  Fe8  1  0.00000000  0.99808500  0.37461400  1
  Fe  Fe9  1  0.00000000  0.99808500  0.62538600  1
  Fe  Fe10  1  0.00000000  0.98412000  0.87535300  1
  Fe  Fe11  1  0.00000000  0.98412000  0.12464700  1
  Fe  Fe12  1  0.00000000  0.52059700  0.00000000  1
  Fe  Fe13  1  0.00000000  0.46549600  0.50000000  1
  Fe  Fe14  1  0.00000000  0.52552900  0.25020200  1
  Fe  Fe15  1  0.00000000  0.52552900  0.74979800  1
  O  O16  1  0.50000000  0.31005200  0.00000000  1
  O  O17  1  0.50000000  0.31514200  0.25363900  1
  O  O18  1  0.50000000  0.31514200  0.74636100  1
  O  O19  1  0.30687000  0.99592100  0.62562000  1
  O  O20  1  0.30772450  0.00452850  0.87516300  1
  O  O21  1  0.30687000  0.99592100  0.37438000  1
  O  O22  1  0.30772450  0.00452850  0.12483700  1
  O  O23  1  0.69227550  0.00452850  0.87516300  1
  O  O24  1  0.69227550  0.00452850  0.12483700  1
  O  O25  1  0.69313000  0.99592100  0.37438000  1
  O  O26  1  0.69313000  0.99592100  0.62562000  1
  O  O27  1  0.50000000  0.67475600  0.50000000  1
  O  O28  1  0.00000000  0.81005200  0.00000000  1
  O  O29  1  0.00000000  0.81514200  0.25363900  1
  O  O30  1  0.00000000  0.81514200  0.74636100  1
  O  O31  1  0.80687000  0.49592100  0.62562000  1
  O  O32  1  0.80772450  0.50452850  0.87516300  1
  O  O33  1  0.80687000  0.49592100  0.37438000  1
  O  O34  1  0.80772450  0.50452850  0.12483700  1
  O  O35  1  0.19227550  0.50452850  0.87516300  1
  O  O36  1  0.19227550  0.50452850  0.12483700  1
  O  O37  1  0.19313000  0.49592100  0.37438000  1
  O  O38  1  0.19313000  0.49592100  0.62562000  1
  O  O39  1  0.00000000  0.17475600  0.50000000  1
  F  F40  1  0.50000000  0.29623600  0.50000000  1
  F  F41  1  0.50000000  0.69604700  0.75285300  1
  F  F42  1  0.50000000  0.69321500  0.00000000  1
  F  F43  1  0.50000000  0.69604700  0.24714700  1
  F  F44  1  0.00000000  0.79623600  0.50000000  1
  F  F45  1  0.00000000  0.19604700  0.75285300  1
  F  F46  1  0.00000000  0.19321500  0.00000000  1
  F  F47  1  0.00000000  0.19604700  0.24714700  1
