# generated using pymatgen
data_Li6Fe2C4SO16
_symmetry_space_group_name_H-M   'P 1'
_cell_length_a   13.35132400
_cell_length_b   13.35132400
_cell_length_c   13.35132400
_cell_angle_alpha   90.00000000
_cell_angle_beta   90.00000000
_cell_angle_gamma   90.00000000
_symmetry_Int_Tables_number   1
_chemical_formula_structural   Li6Fe2C4SO16
_chemical_formula_sum   'Li48 Fe16 C32 S8 O128'
_cell_volume   2379.97834498
_cell_formula_units_Z   8
loop_
 _symmetry_equiv_pos_site_id
 _symmetry_equiv_pos_as_xyz
  1  'x, y, z'
loop_
 _atom_site_type_symbol
 _atom_site_label
 _atom_site_symmetry_multiplicity
 _atom_site_fract_x
 _atom_site_fract_y
 _atom_site_fract_z
 _atom_site_occupancy
  Li  Li0  1  0.21853000  0.00000000  0.50000000  1
  Li  Li1  1  0.96853000  0.75000000  0.75000000  1
  Li  Li2  1  0.00000000  0.78147000  0.50000000  1
  Li  Li3  1  0.00000000  0.00000000  0.28147000  1
  Li  Li4  1  0.00000000  0.21853000  0.50000000  1
  Li  Li5  1  0.00000000  0.00000000  0.71853000  1
  Li  Li6  1  0.25000000  0.75000000  0.03147000  1
  Li  Li7  1  0.25000000  0.03147000  0.75000000  1
  Li  Li8  1  0.75000000  0.96853000  0.75000000  1
  Li  Li9  1  0.25000000  0.75000000  0.46853000  1
  Li  Li10  1  0.78147000  0.00000000  0.50000000  1
  Li  Li11  1  0.53147000  0.75000000  0.75000000  1
  Li  Li12  1  0.21853000  0.50000000  0.00000000  1
  Li  Li13  1  0.96853000  0.25000000  0.25000000  1
  Li  Li14  1  0.00000000  0.28147000  0.00000000  1
  Li  Li15  1  0.00000000  0.50000000  0.78147000  1
  Li  Li16  1  0.00000000  0.71853000  0.00000000  1
  Li  Li17  1  0.00000000  0.50000000  0.21853000  1
  Li  Li18  1  0.25000000  0.25000000  0.53147000  1
  Li  Li19  1  0.25000000  0.53147000  0.25000000  1
  Li  Li20  1  0.75000000  0.46853000  0.25000000  1
  Li  Li21  1  0.25000000  0.25000000  0.96853000  1
  Li  Li22  1  0.78147000  0.50000000  0.00000000  1
  Li  Li23  1  0.53147000  0.25000000  0.25000000  1
  Li  Li24  1  0.71853000  0.00000000  0.00000000  1
  Li  Li25  1  0.46853000  0.75000000  0.25000000  1
  Li  Li26  1  0.50000000  0.78147000  0.00000000  1
  Li  Li27  1  0.50000000  0.00000000  0.78147000  1
  Li  Li28  1  0.50000000  0.21853000  0.00000000  1
  Li  Li29  1  0.50000000  0.00000000  0.21853000  1
  Li  Li30  1  0.75000000  0.75000000  0.53147000  1
  Li  Li31  1  0.75000000  0.03147000  0.25000000  1
  Li  Li32  1  0.25000000  0.96853000  0.25000000  1
  Li  Li33  1  0.75000000  0.75000000  0.96853000  1
  Li  Li34  1  0.28147000  0.00000000  0.00000000  1
  Li  Li35  1  0.03147000  0.75000000  0.25000000  1
  Li  Li36  1  0.71853000  0.50000000  0.50000000  1
  Li  Li37  1  0.46853000  0.25000000  0.75000000  1
  Li  Li38  1  0.50000000  0.28147000  0.50000000  1
  Li  Li39  1  0.50000000  0.50000000  0.28147000  1
  Li  Li40  1  0.50000000  0.71853000  0.50000000  1
  Li  Li41  1  0.50000000  0.50000000  0.71853000  1
  Li  Li42  1  0.75000000  0.25000000  0.03147000  1
  Li  Li43  1  0.75000000  0.53147000  0.75000000  1
  Li  Li44  1  0.25000000  0.46853000  0.75000000  1
  Li  Li45  1  0.75000000  0.25000000  0.46853000  1
  Li  Li46  1  0.28147000  0.50000000  0.50000000  1
  Li  Li47  1  0.03147000  0.25000000  0.75000000  1
  Fe  Fe48  1  0.87500000  0.12500000  0.87500000  1
  Fe  Fe49  1  0.37500000  0.87500000  0.62500000  1
  Fe  Fe50  1  0.62500000  0.12500000  0.62500000  1
  Fe  Fe51  1  0.12500000  0.87500000  0.87500000  1
  Fe  Fe52  1  0.87500000  0.62500000  0.37500000  1
  Fe  Fe53  1  0.37500000  0.37500000  0.12500000  1
  Fe  Fe54  1  0.62500000  0.62500000  0.12500000  1
  Fe  Fe55  1  0.12500000  0.37500000  0.37500000  1
  Fe  Fe56  1  0.37500000  0.12500000  0.37500000  1
  Fe  Fe57  1  0.87500000  0.87500000  0.12500000  1
  Fe  Fe58  1  0.12500000  0.12500000  0.12500000  1
  Fe  Fe59  1  0.62500000  0.87500000  0.37500000  1
  Fe  Fe60  1  0.37500000  0.62500000  0.87500000  1
  Fe  Fe61  1  0.87500000  0.37500000  0.62500000  1
  Fe  Fe62  1  0.12500000  0.62500000  0.62500000  1
  Fe  Fe63  1  0.62500000  0.37500000  0.87500000  1
  C  C64  1  0.89967833  0.89967833  0.89967833  1
  C  C65  1  0.89967833  0.10032167  0.10032167  1
  C  C66  1  0.10032167  0.89967833  0.10032167  1
  C  C67  1  0.10032167  0.10032167  0.89967833  1
  C  C68  1  0.64967833  0.14967833  0.85032167  1
  C  C69  1  0.14967833  0.85032167  0.64967833  1
  C  C70  1  0.35032167  0.85032167  0.85032167  1
  C  C71  1  0.85032167  0.14967833  0.64967833  1
  C  C72  1  0.89967833  0.39967833  0.39967833  1
  C  C73  1  0.89967833  0.60032167  0.60032167  1
  C  C74  1  0.10032167  0.39967833  0.60032167  1
  C  C75  1  0.10032167  0.60032167  0.39967833  1
  C  C76  1  0.64967833  0.64967833  0.35032167  1
  C  C77  1  0.14967833  0.35032167  0.14967833  1
  C  C78  1  0.35032167  0.35032167  0.35032167  1
  C  C79  1  0.85032167  0.64967833  0.14967833  1
  C  C80  1  0.39967833  0.89967833  0.39967833  1
  C  C81  1  0.39967833  0.10032167  0.60032167  1
  C  C82  1  0.60032167  0.89967833  0.60032167  1
  C  C83  1  0.60032167  0.10032167  0.39967833  1
  C  C84  1  0.14967833  0.14967833  0.35032167  1
  C  C85  1  0.64967833  0.85032167  0.14967833  1
  C  C86  1  0.85032167  0.85032167  0.35032167  1
  C  C87  1  0.35032167  0.14967833  0.14967833  1
  C  C88  1  0.39967833  0.39967833  0.89967833  1
  C  C89  1  0.39967833  0.60032167  0.10032167  1
  C  C90  1  0.60032167  0.39967833  0.10032167  1
  C  C91  1  0.60032167  0.60032167  0.89967833  1
  C  C92  1  0.14967833  0.64967833  0.85032167  1
  C  C93  1  0.64967833  0.35032167  0.64967833  1
  C  C94  1  0.85032167  0.35032167  0.85032167  1
  C  C95  1  0.35032167  0.64967833  0.64967833  1
  S  S96  1  0.75000000  0.75000000  0.75000000  1
  S  S97  1  0.00000000  0.00000000  0.50000000  1
  S  S98  1  0.75000000  0.25000000  0.25000000  1
  S  S99  1  0.00000000  0.50000000  0.00000000  1
  S  S100  1  0.25000000  0.75000000  0.25000000  1
  S  S101  1  0.50000000  0.00000000  0.00000000  1
  S  S102  1  0.25000000  0.25000000  0.75000000  1
  S  S103  1  0.50000000  0.50000000  0.50000000  1
  O  O104  1  0.18534100  0.18534100  0.68534100  1
  O  O105  1  0.18534100  0.81465900  0.31465900  1
  O  O106  1  0.81465900  0.81465900  0.68534100  1
  O  O107  1  0.81465900  0.18534100  0.31465900  1
  O  O108  1  0.83332950  0.89534300  0.97068050  1
  O  O109  1  0.83332950  0.10465700  0.02931950  1
  O  O110  1  0.89534300  0.97068050  0.83332950  1
  O  O111  1  0.89534300  0.02931950  0.16667050  1
  O  O112  1  0.97068050  0.16667050  0.10465700  1
  O  O113  1  0.97068050  0.83332950  0.89534300  1
  O  O114  1  0.02931950  0.16667050  0.89534300  1
  O  O115  1  0.02931950  0.83332950  0.10465700  1
  O  O116  1  0.58332950  0.14534300  0.77931950  1
  O  O117  1  0.08332950  0.85465700  0.72068050  1
  O  O118  1  0.10465700  0.02931950  0.83332950  1
  O  O119  1  0.10465700  0.97068050  0.16667050  1
  O  O120  1  0.64534300  0.22068050  0.91667050  1
  O  O121  1  0.14534300  0.77931950  0.58332950  1
  O  O122  1  0.16667050  0.10465700  0.97068050  1
  O  O123  1  0.16667050  0.89534300  0.02931950  1
  O  O124  1  0.72068050  0.08332950  0.85465700  1
  O  O125  1  0.22068050  0.91667050  0.64534300  1
  O  O126  1  0.27931950  0.91667050  0.85465700  1
  O  O127  1  0.77931950  0.08332950  0.64534300  1
  O  O128  1  0.35465700  0.77931950  0.91667050  1
  O  O129  1  0.85465700  0.22068050  0.58332950  1
  O  O130  1  0.91667050  0.14534300  0.72068050  1
  O  O131  1  0.41667050  0.85465700  0.77931950  1
  O  O132  1  0.93534100  0.06465900  0.43534100  1
  O  O133  1  0.93534100  0.93534100  0.56465900  1
  O  O134  1  0.06465900  0.93534100  0.43534100  1
  O  O135  1  0.06465900  0.06465900  0.56465900  1
  O  O136  1  0.18534100  0.68534100  0.18534100  1
  O  O137  1  0.18534100  0.31465900  0.81465900  1
  O  O138  1  0.81465900  0.31465900  0.18534100  1
  O  O139  1  0.81465900  0.68534100  0.81465900  1
  O  O140  1  0.83332950  0.39534300  0.47068050  1
  O  O141  1  0.83332950  0.60465700  0.52931950  1
  O  O142  1  0.89534300  0.47068050  0.33332950  1
  O  O143  1  0.89534300  0.52931950  0.66667050  1
  O  O144  1  0.97068050  0.66667050  0.60465700  1
  O  O145  1  0.97068050  0.33332950  0.39534300  1
  O  O146  1  0.02931950  0.66667050  0.39534300  1
  O  O147  1  0.02931950  0.33332950  0.60465700  1
  O  O148  1  0.58332950  0.64534300  0.27931950  1
  O  O149  1  0.08332950  0.35465700  0.22068050  1
  O  O150  1  0.10465700  0.52931950  0.33332950  1
  O  O151  1  0.10465700  0.47068050  0.66667050  1
  O  O152  1  0.64534300  0.72068050  0.41667050  1
  O  O153  1  0.14534300  0.27931950  0.08332950  1
  O  O154  1  0.16667050  0.60465700  0.47068050  1
  O  O155  1  0.16667050  0.39534300  0.52931950  1
  O  O156  1  0.72068050  0.58332950  0.35465700  1
  O  O157  1  0.22068050  0.41667050  0.14534300  1
  O  O158  1  0.27931950  0.41667050  0.35465700  1
  O  O159  1  0.77931950  0.58332950  0.14534300  1
  O  O160  1  0.35465700  0.27931950  0.41667050  1
  O  O161  1  0.85465700  0.72068050  0.08332950  1
  O  O162  1  0.91667050  0.64534300  0.22068050  1
  O  O163  1  0.41667050  0.35465700  0.27931950  1
  O  O164  1  0.93534100  0.56465900  0.93534100  1
  O  O165  1  0.93534100  0.43534100  0.06465900  1
  O  O166  1  0.06465900  0.43534100  0.93534100  1
  O  O167  1  0.06465900  0.56465900  0.06465900  1
  O  O168  1  0.68534100  0.18534100  0.18534100  1
  O  O169  1  0.68534100  0.81465900  0.81465900  1
  O  O170  1  0.31465900  0.81465900  0.18534100  1
  O  O171  1  0.31465900  0.18534100  0.81465900  1
  O  O172  1  0.33332950  0.89534300  0.47068050  1
  O  O173  1  0.33332950  0.10465700  0.52931950  1
  O  O174  1  0.39534300  0.97068050  0.33332950  1
  O  O175  1  0.39534300  0.02931950  0.66667050  1
  O  O176  1  0.47068050  0.16667050  0.60465700  1
  O  O177  1  0.47068050  0.83332950  0.39534300  1
  O  O178  1  0.52931950  0.16667050  0.39534300  1
  O  O179  1  0.52931950  0.83332950  0.60465700  1
  O  O180  1  0.08332950  0.14534300  0.27931950  1
  O  O181  1  0.58332950  0.85465700  0.22068050  1
  O  O182  1  0.60465700  0.02931950  0.33332950  1
  O  O183  1  0.60465700  0.97068050  0.66667050  1
  O  O184  1  0.14534300  0.22068050  0.41667050  1
  O  O185  1  0.64534300  0.77931950  0.08332950  1
  O  O186  1  0.66667050  0.10465700  0.47068050  1
  O  O187  1  0.66667050  0.89534300  0.52931950  1
  O  O188  1  0.22068050  0.08332950  0.35465700  1
  O  O189  1  0.72068050  0.91667050  0.14534300  1
  O  O190  1  0.77931950  0.91667050  0.35465700  1
  O  O191  1  0.27931950  0.08332950  0.14534300  1
  O  O192  1  0.85465700  0.77931950  0.41667050  1
  O  O193  1  0.35465700  0.22068050  0.08332950  1
  O  O194  1  0.41667050  0.14534300  0.22068050  1
  O  O195  1  0.91667050  0.85465700  0.27931950  1
  O  O196  1  0.43534100  0.06465900  0.93534100  1
  O  O197  1  0.43534100  0.93534100  0.06465900  1
  O  O198  1  0.56465900  0.93534100  0.93534100  1
  O  O199  1  0.56465900  0.06465900  0.06465900  1
  O  O200  1  0.68534100  0.68534100  0.68534100  1
  O  O201  1  0.68534100  0.31465900  0.31465900  1
  O  O202  1  0.31465900  0.31465900  0.68534100  1
  O  O203  1  0.31465900  0.68534100  0.31465900  1
  O  O204  1  0.33332950  0.39534300  0.97068050  1
  O  O205  1  0.33332950  0.60465700  0.02931950  1
  O  O206  1  0.39534300  0.47068050  0.83332950  1
  O  O207  1  0.39534300  0.52931950  0.16667050  1
  O  O208  1  0.47068050  0.66667050  0.10465700  1
  O  O209  1  0.47068050  0.33332950  0.89534300  1
  O  O210  1  0.52931950  0.66667050  0.89534300  1
  O  O211  1  0.52931950  0.33332950  0.10465700  1
  O  O212  1  0.08332950  0.64534300  0.77931950  1
  O  O213  1  0.58332950  0.35465700  0.72068050  1
  O  O214  1  0.60465700  0.52931950  0.83332950  1
  O  O215  1  0.60465700  0.47068050  0.16667050  1
  O  O216  1  0.14534300  0.72068050  0.91667050  1
  O  O217  1  0.64534300  0.27931950  0.58332950  1
  O  O218  1  0.66667050  0.60465700  0.97068050  1
  O  O219  1  0.66667050  0.39534300  0.02931950  1
  O  O220  1  0.22068050  0.58332950  0.85465700  1
  O  O221  1  0.72068050  0.41667050  0.64534300  1
  O  O222  1  0.77931950  0.41667050  0.85465700  1
  O  O223  1  0.27931950  0.58332950  0.64534300  1
  O  O224  1  0.85465700  0.27931950  0.91667050  1
  O  O225  1  0.35465700  0.72068050  0.58332950  1
  O  O226  1  0.41667050  0.64534300  0.72068050  1
  O  O227  1  0.91667050  0.35465700  0.77931950  1
  O  O228  1  0.43534100  0.56465900  0.43534100  1
  O  O229  1  0.43534100  0.43534100  0.56465900  1
  O  O230  1  0.56465900  0.43534100  0.43534100  1
  O  O231  1  0.56465900  0.56465900  0.56465900  1
