# generated using pymatgen
data_Li2Co3NiO8
_symmetry_space_group_name_H-M   'P 1'
_cell_length_a   5.63825012
_cell_length_b   5.63825012
_cell_length_c   9.45501017
_cell_angle_alpha   90.00000000
_cell_angle_beta   90.00000000
_cell_angle_gamma   120.00000000
_symmetry_Int_Tables_number   1
_chemical_formula_structural   Li2Co3NiO8
_chemical_formula_sum   'Li4 Co6 Ni2 O16'
_cell_volume   260.30427892
_cell_formula_units_Z   2
loop_
 _symmetry_equiv_pos_site_id
 _symmetry_equiv_pos_as_xyz
  1  'x, y, z'
loop_
 _atom_site_type_symbol
 _atom_site_label
 _atom_site_symmetry_multiplicity
 _atom_site_fract_x
 _atom_site_fract_y
 _atom_site_fract_z
 _atom_site_occupancy
  Li  Li0  1  0.33333333  0.66666667  0.89332900  1
  Li  Li1  1  0.00000000  0.00000000  0.99801800  1
  Li  Li2  1  0.00000000  0.00000000  0.49801800  1
  Li  Li3  1  0.66666667  0.33333333  0.39332900  1
  Co  Co4  1  0.16849100  0.83150900  0.21431100  1
  Co  Co5  1  0.16849100  0.33698200  0.21431100  1
  Co  Co6  1  0.66301800  0.83150900  0.21431100  1
  Co  Co7  1  0.33698200  0.16849100  0.71431100  1
  Co  Co8  1  0.83150900  0.66301800  0.71431100  1
  Co  Co9  1  0.83150900  0.16849100  0.71431100  1
  Ni  Ni10  1  0.33333333  0.66666667  0.49040800  1
  Ni  Ni11  1  0.66666667  0.33333333  0.99040800  1
  O  O12  1  0.15814850  0.84185150  0.60968400  1
  O  O13  1  0.03609700  0.51804850  0.32635400  1
  O  O14  1  0.33333333  0.66666667  0.10838700  1
  O  O15  1  0.00000000  0.00000000  0.31268800  1
  O  O16  1  0.00000000  0.00000000  0.81268800  1
  O  O17  1  0.15814850  0.31629700  0.60968400  1
  O  O18  1  0.48195150  0.96390300  0.32635400  1
  O  O19  1  0.48195150  0.51804850  0.32635400  1
  O  O20  1  0.31629700  0.15814850  0.10968400  1
  O  O21  1  0.68370300  0.84185150  0.60968400  1
  O  O22  1  0.51804850  0.48195150  0.82635400  1
  O  O23  1  0.51804850  0.03609700  0.82635400  1
  O  O24  1  0.66666667  0.33333333  0.60838700  1
  O  O25  1  0.84185150  0.68370300  0.10968400  1
  O  O26  1  0.96390300  0.48195150  0.82635400  1
  O  O27  1  0.84185150  0.15814850  0.10968400  1
