# generated using pymatgen
data_Li2Mn2F7
_symmetry_space_group_name_H-M   'P 1'
_cell_length_a   7.78882300
_cell_length_b   5.22248600
_cell_length_c   13.14981379
_cell_angle_alpha   90.00000000
_cell_angle_beta   97.82089246
_cell_angle_gamma   90.00000000
_symmetry_Int_Tables_number   1
_chemical_formula_structural   Li2Mn2F7
_chemical_formula_sum   'Li8 Mn8 F28'
_cell_volume   529.91978463
_cell_formula_units_Z   4
loop_
 _symmetry_equiv_pos_site_id
 _symmetry_equiv_pos_as_xyz
  1  'x, y, z'
loop_
 _atom_site_type_symbol
 _atom_site_label
 _atom_site_symmetry_multiplicity
 _atom_site_fract_x
 _atom_site_fract_y
 _atom_site_fract_z
 _atom_site_occupancy
  Li  Li0  1  0.85369700  0.22586300  0.43099500  1
  Li  Li1  1  0.77337600  0.73582300  0.09625500  1
  Li  Li2  1  0.72146500  0.24141400  0.89025900  1
  Li  Li3  1  0.60319600  0.72027500  0.57552000  1
  Li  Li4  1  0.39680400  0.22027500  0.42448000  1
  Li  Li5  1  0.27853500  0.74141400  0.10974100  1
  Li  Li6  1  0.22662400  0.23582300  0.90374500  1
  Li  Li7  1  0.14630300  0.72586300  0.56900500  1
  Mn  Mn8  1  0.92050400  0.23946700  0.67905800  1
  Mn  Mn9  1  0.97367500  0.73548300  0.88815300  1
  Mn  Mn10  1  0.58226200  0.74162200  0.32020900  1
  Mn  Mn11  1  0.52882300  0.23839500  0.11284600  1
  Mn  Mn12  1  0.47117700  0.73839500  0.88715400  1
  Mn  Mn13  1  0.41773800  0.24162200  0.67979100  1
  Mn  Mn14  1  0.02632500  0.23548300  0.11184700  1
  Mn  Mn15  1  0.07949600  0.73946700  0.32094200  1
  F  F16  1  0.95489400  0.95185600  0.59908300  1
  F  F17  1  0.02068500  0.07839200  0.80918800  1
  F  F18  1  0.83135700  0.90038900  0.34257100  1
  F  F19  1  0.78042700  0.08755900  0.12355900  1
  F  F20  1  0.82313800  0.42030100  0.56287100  1
  F  F21  1  0.91661700  0.40929300  0.97378500  1
  F  F22  1  0.86791200  0.52085300  0.76249600  1
  F  F23  1  0.64901200  0.43073400  0.37895500  1
  F  F24  1  0.61373700  0.59022800  0.17970800  1
  F  F25  1  0.73077200  0.88108500  0.91939600  1
  F  F26  1  0.66761600  0.09190600  0.70384900  1
  F  F27  1  0.55618200  0.92022900  0.45130800  1
  F  F28  1  0.43253200  0.91202600  0.02864000  1
  F  F29  1  0.49299100  0.03431600  0.24652500  1
  F  F30  1  0.50700900  0.53431600  0.75347500  1
  F  F31  1  0.56746800  0.41202600  0.97136000  1
  F  F32  1  0.44381800  0.42022900  0.54869200  1
  F  F33  1  0.33238400  0.59190600  0.29615100  1
  F  F34  1  0.26922800  0.38108500  0.08060400  1
  F  F35  1  0.38626300  0.09022800  0.82029200  1
  F  F36  1  0.35098800  0.93073400  0.62104500  1
  F  F37  1  0.13208800  0.02085300  0.23750400  1
  F  F38  1  0.08338300  0.90929300  0.02621500  1
  F  F39  1  0.17686200  0.92030100  0.43712900  1
  F  F40  1  0.21957300  0.58755900  0.87644100  1
  F  F41  1  0.16864300  0.40038900  0.65742900  1
  F  F42  1  0.97931500  0.57839200  0.19081200  1
  F  F43  1  0.04510600  0.45185600  0.40091700  1
