# generated using pymatgen
data_Li4Mn3Sn2Sb3O16
_symmetry_space_group_name_H-M   'P 1'
_cell_length_a   11.06408400
_cell_length_b   6.27976800
_cell_length_c   10.00359055
_cell_angle_alpha   90.00000000
_cell_angle_beta   91.54028167
_cell_angle_gamma   90.00000000
_symmetry_Int_Tables_number   1
_chemical_formula_structural   Li4Mn3Sn2Sb3O16
_chemical_formula_sum   'Li8 Mn6 Sn4 Sb6 O32'
_cell_volume   694.79713901
_cell_formula_units_Z   2
loop_
 _symmetry_equiv_pos_site_id
 _symmetry_equiv_pos_as_xyz
  1  'x, y, z'
loop_
 _atom_site_type_symbol
 _atom_site_label
 _atom_site_symmetry_multiplicity
 _atom_site_fract_x
 _atom_site_fract_y
 _atom_site_fract_z
 _atom_site_occupancy
  Li  Li0  1  0.65607400  0.00000000  0.88899900  1
  Li  Li1  1  0.99409000  0.00000000  0.98309100  1
  Li  Li2  1  0.99626400  0.00000000  0.50021000  1
  Li  Li3  1  0.81883900  0.50000000  0.40788200  1
  Li  Li4  1  0.15607400  0.50000000  0.88899900  1
  Li  Li5  1  0.49409000  0.50000000  0.98309100  1
  Li  Li6  1  0.49626400  0.50000000  0.50021000  1
  Li  Li7  1  0.31883900  0.00000000  0.40788200  1
  Mn  Mn8  1  0.83161200  0.00000000  0.21366700  1
  Mn  Mn9  1  0.91898650  0.74472950  0.71091500  1
  Mn  Mn10  1  0.91898650  0.25527050  0.71091500  1
  Mn  Mn11  1  0.33161200  0.50000000  0.21366700  1
  Mn  Mn12  1  0.41898650  0.24472950  0.71091500  1
  Mn  Mn13  1  0.41898650  0.75527050  0.71091500  1
  Sn  Sn14  1  0.67777600  0.00000000  0.50074600  1
  Sn  Sn15  1  0.84496700  0.50000000  0.97883100  1
  Sn  Sn16  1  0.17777600  0.50000000  0.50074600  1
  Sn  Sn17  1  0.34496700  0.00000000  0.97883100  1
  Sb  Sb18  1  0.58483400  0.24645800  0.21527800  1
  Sb  Sb19  1  0.58483400  0.75354200  0.21527800  1
  Sb  Sb20  1  0.67308100  0.50000000  0.71528700  1
  Sb  Sb21  1  0.08483400  0.74645800  0.21527800  1
  Sb  Sb22  1  0.08483400  0.25354200  0.21527800  1
  Sb  Sb23  1  0.17308100  0.00000000  0.71528700  1
  O  O24  1  0.59220550  0.26039050  0.59459300  1
  O  O25  1  0.51796100  0.00000000  0.33686300  1
  O  O26  1  0.65605500  0.00000000  0.10526100  1
  O  O27  1  0.50821200  0.50000000  0.31406000  1
  O  O28  1  0.51603800  0.50000000  0.80306300  1
  O  O29  1  0.59220550  0.73960950  0.59459300  1
  O  O30  1  0.73035950  0.22620050  0.34084200  1
  O  O31  1  0.73035950  0.77379950  0.34084200  1
  O  O32  1  0.66012200  0.50000000  0.10610300  1
  O  O33  1  0.84199300  0.00000000  0.58743100  1
  O  O34  1  0.74956550  0.71686450  0.84647100  1
  O  O35  1  0.74956550  0.28313550  0.84647100  1
  O  O36  1  0.81840700  0.50000000  0.60346600  1
  O  O37  1  0.92698450  0.75324350  0.09914900  1
  O  O38  1  0.98144400  0.50000000  0.84838400  1
  O  O39  1  0.92698450  0.24675650  0.09914900  1
  O  O40  1  0.09220550  0.76039050  0.59459300  1
  O  O41  1  0.01796100  0.50000000  0.33686300  1
  O  O42  1  0.15605500  0.50000000  0.10526100  1
  O  O43  1  0.00821200  0.00000000  0.31406000  1
  O  O44  1  0.01603800  0.00000000  0.80306300  1
  O  O45  1  0.09220550  0.23960950  0.59459300  1
  O  O46  1  0.23035950  0.72620050  0.34084200  1
  O  O47  1  0.23035950  0.27379950  0.34084200  1
  O  O48  1  0.16012200  0.00000000  0.10610300  1
  O  O49  1  0.34199300  0.50000000  0.58743100  1
  O  O50  1  0.24956550  0.21686450  0.84647100  1
  O  O51  1  0.24956550  0.78313550  0.84647100  1
  O  O52  1  0.31840700  0.00000000  0.60346600  1
  O  O53  1  0.42698450  0.25324350  0.09914900  1
  O  O54  1  0.48144400  0.00000000  0.84838400  1
  O  O55  1  0.42698450  0.74675650  0.09914900  1
