# generated using pymatgen
data_Li3Ti2CrO6
_symmetry_space_group_name_H-M   'P 1'
_cell_length_a   13.11268219
_cell_length_b   2.94195102
_cell_length_c   5.99063610
_cell_angle_alpha   90.00000000
_cell_angle_beta   104.82727401
_cell_angle_gamma   90.00000000
_symmetry_Int_Tables_number   1
_chemical_formula_structural   Li3Ti2CrO6
_chemical_formula_sum   'Li6 Ti4 Cr2 O12'
_cell_volume   223.40474150
_cell_formula_units_Z   2
loop_
 _symmetry_equiv_pos_site_id
 _symmetry_equiv_pos_as_xyz
  1  'x, y, z'
loop_
 _atom_site_type_symbol
 _atom_site_label
 _atom_site_symmetry_multiplicity
 _atom_site_fract_x
 _atom_site_fract_y
 _atom_site_fract_z
 _atom_site_occupancy
  Li  Li0  1  0.00000000  0.50000000  0.50000000  1
  Li  Li1  1  0.16267588  0.00000000  0.83966750  1
  Li  Li2  1  0.83732412  0.00000000  0.16033250  1
  Li  Li3  1  0.50000000  0.00000000  0.50000000  1
  Li  Li4  1  0.66267588  0.50000000  0.83966750  1
  Li  Li5  1  0.33732412  0.50000000  0.16033250  1
  Ti  Ti6  1  0.67163813  0.50000000  0.34475000  1
  Ti  Ti7  1  0.82836187  0.00000000  0.65525000  1
  Ti  Ti8  1  0.17163813  0.00000000  0.34475000  1
  Ti  Ti9  1  0.32836187  0.50000000  0.65525000  1
  Cr  Cr10  1  0.00000000  0.50000000  0.00000000  1
  Cr  Cr11  1  0.50000000  0.00000000  0.00000000  1
  O  O12  1  0.16075587  0.50000000  0.09701300  1
  O  O13  1  0.83924413  0.50000000  0.90298700  1
  O  O14  1  0.83378687  0.50000000  0.41875725  1
  O  O15  1  0.16621313  0.50000000  0.58124275  1
  O  O16  1  0.99309212  0.00000000  0.76328125  1
  O  O17  1  0.00690788  0.00000000  0.23671875  1
  O  O18  1  0.66075587  0.00000000  0.09701300  1
  O  O19  1  0.33924413  0.00000000  0.90298700  1
  O  O20  1  0.33378687  0.00000000  0.41875725  1
  O  O21  1  0.66621313  0.00000000  0.58124275  1
  O  O22  1  0.49309212  0.50000000  0.76328125  1
  O  O23  1  0.50690788  0.50000000  0.23671875  1
