# generated using pymatgen
data_LiMnBO3
_symmetry_space_group_name_H-M   'P 1'
_cell_length_a   5.19675481
_cell_length_b   5.24243446
_cell_length_c   6.05058058
_cell_angle_alpha   90.67348008
_cell_angle_beta   113.16499673
_cell_angle_gamma   119.07751031
_symmetry_Int_Tables_number   1
_chemical_formula_structural   LiMnBO3
_chemical_formula_sum   'Li2 Mn2 B2 O6'
_cell_volume   128.15501344
_cell_formula_units_Z   2
loop_
 _symmetry_equiv_pos_site_id
 _symmetry_equiv_pos_as_xyz
  1  'x, y, z'
loop_
 _atom_site_type_symbol
 _atom_site_label
 _atom_site_symmetry_multiplicity
 _atom_site_fract_x
 _atom_site_fract_y
 _atom_site_fract_z
 _atom_site_occupancy
  Li  Li0  1  0.43689850  0.36920450  0.67201100  1
  Li  Li1  1  0.56310150  0.63079550  0.32798900  1
  Mn  Mn2  1  0.16104550  0.74826550  0.76525650  1
  Mn  Mn3  1  0.83895450  0.25173450  0.23474350  1
  B  B4  1  0.80785100  0.07325500  0.73701700  1
  B  B5  1  0.19214900  0.92674500  0.26298300  1
  O  O6  1  0.03372250  0.30240150  0.67566150  1
  O  O7  1  0.96627750  0.69759850  0.32433850  1
  O  O8  1  0.62472400  0.13188200  0.82583400  1
  O  O9  1  0.37527600  0.86811800  0.17416600  1
  O  O10  1  0.75287150  0.78650950  0.70186400  1
  O  O11  1  0.24712850  0.21349050  0.29813600  1
