# generated using pymatgen
data_Li13Mn3(SbO8)2
_symmetry_space_group_name_H-M   'P 1'
_cell_length_a   10.38427800
_cell_length_b   6.08952000
_cell_length_c   10.01915823
_cell_angle_alpha   90.00000000
_cell_angle_beta   91.21407998
_cell_angle_gamma   90.00000000
_symmetry_Int_Tables_number   1
_chemical_formula_structural   Li13Mn3(SbO8)2
_chemical_formula_sum   'Li26 Mn6 Sb4 O32'
_cell_volume   633.42193082
_cell_formula_units_Z   2
loop_
 _symmetry_equiv_pos_site_id
 _symmetry_equiv_pos_as_xyz
  1  'x, y, z'
loop_
 _atom_site_type_symbol
 _atom_site_label
 _atom_site_symmetry_multiplicity
 _atom_site_fract_x
 _atom_site_fract_y
 _atom_site_fract_z
 _atom_site_occupancy
  Li  Li0  1  0.54006850  0.80260550  0.77547800  1
  Li  Li1  1  0.61655750  0.79697150  0.01585600  1
  Li  Li2  1  0.54006850  0.19739450  0.77547800  1
  Li  Li3  1  0.11330000  0.00000000  0.50760400  1
  Li  Li4  1  0.61655750  0.20302850  0.01585600  1
  Li  Li5  1  0.00455500  0.00000000  0.98941000  1
  Li  Li6  1  0.66766200  0.00000000  0.24633700  1
  Li  Li7  1  0.17215700  0.00000000  0.74332000  1
  Li  Li8  1  0.16938300  0.00000000  0.26460200  1
  Li  Li9  1  0.81724900  0.00000000  0.05243600  1
  Li  Li10  1  0.32295700  0.00000000  0.56837400  1
  Li  Li11  1  0.41854000  0.70023700  0.55169700  1
  Li  Li12  1  0.41854000  0.29976300  0.55169700  1
  Li  Li13  1  0.04006850  0.30260550  0.77547800  1
  Li  Li14  1  0.11655750  0.29697150  0.01585600  1
  Li  Li15  1  0.04006850  0.69739450  0.77547800  1
  Li  Li16  1  0.61330000  0.50000000  0.50760400  1
  Li  Li17  1  0.11655750  0.70302850  0.01585600  1
  Li  Li18  1  0.50455500  0.50000000  0.98941000  1
  Li  Li19  1  0.16766200  0.50000000  0.24633700  1
  Li  Li20  1  0.67215700  0.50000000  0.74332000  1
  Li  Li21  1  0.66938300  0.50000000  0.26460200  1
  Li  Li22  1  0.31724900  0.50000000  0.05243600  1
  Li  Li23  1  0.82295700  0.50000000  0.56837400  1
  Li  Li24  1  0.91854000  0.20023700  0.55169700  1
  Li  Li25  1  0.91854000  0.79976300  0.55169700  1
  Mn  Mn26  1  0.41480550  0.75246350  0.28256800  1
  Mn  Mn27  1  0.41480550  0.24753650  0.28256800  1
  Mn  Mn28  1  0.82319400  0.00000000  0.78392100  1
  Mn  Mn29  1  0.91480550  0.25246350  0.28256800  1
  Mn  Mn30  1  0.91480550  0.74753650  0.28256800  1
  Mn  Mn31  1  0.32319400  0.50000000  0.78392100  1
  Sb  Sb32  1  0.64987100  0.00000000  0.51920600  1
  Sb  Sb33  1  0.34032900  0.00000000  0.01777000  1
  Sb  Sb34  1  0.14987100  0.50000000  0.51920600  1
  Sb  Sb35  1  0.84032900  0.50000000  0.01777000  1
  O  O36  1  0.57232150  0.75666950  0.40163800  1
  O  O37  1  0.49417500  0.00000000  0.62932000  1
  O  O38  1  0.57232150  0.24333050  0.40163800  1
  O  O39  1  0.73497600  0.76173100  0.63466200  1
  O  O40  1  0.67369400  0.00000000  0.88510300  1
  O  O41  1  0.16995700  0.00000000  0.93046100  1
  O  O42  1  0.73497600  0.23826900  0.63466200  1
  O  O43  1  0.81370000  0.00000000  0.41103700  1
  O  O44  1  0.26698000  0.76632700  0.14926000  1
  O  O45  1  0.98574300  0.00000000  0.68349300  1
  O  O46  1  0.41385500  0.74715200  0.91483400  1
  O  O47  1  0.98244700  0.00000000  0.18600600  1
  O  O48  1  0.34152500  0.00000000  0.37611000  1
  O  O49  1  0.26698000  0.23367300  0.14926000  1
  O  O50  1  0.41385500  0.25284800  0.91483400  1
  O  O51  1  0.50388800  0.00000000  0.13259600  1
  O  O52  1  0.07232150  0.25666950  0.40163800  1
  O  O53  1  0.99417500  0.50000000  0.62932000  1
  O  O54  1  0.07232150  0.74333050  0.40163800  1
  O  O55  1  0.23497600  0.26173100  0.63466200  1
  O  O56  1  0.17369400  0.50000000  0.88510300  1
  O  O57  1  0.66995700  0.50000000  0.93046100  1
  O  O58  1  0.23497600  0.73826900  0.63466200  1
  O  O59  1  0.31370000  0.50000000  0.41103700  1
  O  O60  1  0.76698000  0.26632700  0.14926000  1
  O  O61  1  0.48574300  0.50000000  0.68349300  1
  O  O62  1  0.91385500  0.24715200  0.91483400  1
  O  O63  1  0.48244700  0.50000000  0.18600600  1
  O  O64  1  0.84152500  0.50000000  0.37611000  1
  O  O65  1  0.76698000  0.73367300  0.14926000  1
  O  O66  1  0.91385500  0.75284800  0.91483400  1
  O  O67  1  0.00388800  0.50000000  0.13259600  1
