# generated using pymatgen
data_Ta7(P2O7)8
_symmetry_space_group_name_H-M   'P 1'
_cell_length_a   11.83698207
_cell_length_b   11.83698207
_cell_length_c   28.80192976
_cell_angle_alpha   90.00000000
_cell_angle_beta   90.00000000
_cell_angle_gamma   120.00000000
_symmetry_Int_Tables_number   1
_chemical_formula_structural   Ta7(P2O7)8
_chemical_formula_sum   'Ta21 P48 O168'
_cell_volume   3494.89553059
_cell_formula_units_Z   3
loop_
 _symmetry_equiv_pos_site_id
 _symmetry_equiv_pos_as_xyz
  1  'x, y, z'
loop_
 _atom_site_type_symbol
 _atom_site_label
 _atom_site_symmetry_multiplicity
 _atom_site_fract_x
 _atom_site_fract_y
 _atom_site_fract_z
 _atom_site_occupancy
  Ta  Ta0  1  0.16666667  0.33333333  0.83333333  1
  Ta  Ta1  1  0.83333333  0.16666667  0.16666667  1
  Ta  Ta2  1  0.50000000  0.50000000  0.00000000  1
  Ta  Ta3  1  0.33333333  0.16666667  0.16666667  1
  Ta  Ta4  1  0.33333333  0.66666667  0.16666667  1
  Ta  Ta5  1  0.00000000  0.50000000  0.00000000  1
  Ta  Ta6  1  0.16666667  0.33333333  0.33333333  1
  Ta  Ta7  1  0.83333333  0.66666667  0.16666667  1
  Ta  Ta8  1  0.50000000  0.50000000  0.50000000  1
  Ta  Ta9  1  0.16666667  0.83333333  0.33333333  1
  Ta  Ta10  1  0.00000000  0.50000000  0.50000000  1
  Ta  Ta11  1  1.00000000  0.00000000  0.50000000  1
  Ta  Ta12  1  0.66666667  0.83333333  0.33333333  1
  Ta  Ta13  1  0.83333333  0.66666667  0.66666667  1
  Ta  Ta14  1  0.50000000  0.00000000  0.50000000  1
  Ta  Ta15  1  0.16666667  0.83333333  0.83333333  1
  Ta  Ta16  1  0.83333333  0.16666667  0.66666667  1
  Ta  Ta17  1  0.66666667  0.83333333  0.83333333  1
  Ta  Ta18  1  0.66666667  0.33333333  0.83333333  1
  Ta  Ta19  1  0.33333333  0.16666667  0.66666667  1
  Ta  Ta20  1  0.50000000  0.00000000  0.00000000  1
  P  P21  1  0.59491167  0.69237333  0.10133733  1
  P  P22  1  0.23849933  0.25389667  0.06424667  1
  P  P23  1  0.65126933  0.57183267  0.26908667  1
  P  P24  1  0.56920500  0.92824500  0.23199600  1
  P  P25  1  0.35904000  0.43079500  0.23199600  1
  P  P26  1  0.33333333  0.66666667  0.86130367  1
  P  P27  1  0.74610333  0.98460267  0.06424667  1
  P  P28  1  0.33333333  0.66666667  0.36179367  1
  P  P29  1  0.33333333  0.66666667  0.97153967  1
  P  P30  1  0.92056333  0.34873067  0.26908667  1
  P  P31  1  0.33333333  0.66666667  0.47202967  1
  P  P32  1  0.30762667  0.90253833  0.10133733  1
  P  P33  1  0.09746167  0.40508833  0.10133733  1
  P  P34  1  0.01539733  0.76150067  0.06424667  1
  P  P35  1  0.42816733  0.07943667  0.26908667  1
  P  P36  1  0.07175500  0.64096000  0.23199600  1
  P  P37  1  0.26157833  0.02570667  0.43467067  1
  P  P38  1  0.90516600  0.58723000  0.39758000  1
  P  P39  1  0.31793600  0.90516600  0.60242000  1
  P  P40  1  0.23587167  0.26157833  0.56532933  1
  P  P41  1  0.02570667  0.76412833  0.56532933  1
  P  P42  1  0.00000000  0.00000000  0.19463700  1
  P  P43  1  0.41277000  0.31793600  0.39758000  1
  P  P44  1  0.00000000  0.00000000  0.69512700  1
  P  P45  1  0.00000000  0.00000000  0.30487300  1
  P  P46  1  0.58723000  0.68206400  0.60242000  1
  P  P47  1  0.00000000  0.00000000  0.80536300  1
  P  P48  1  0.97429333  0.23587167  0.43467067  1
  P  P49  1  0.76412833  0.73842167  0.43467067  1
  P  P50  1  0.68206400  0.09483400  0.39758000  1
  P  P51  1  0.09483400  0.41277000  0.60242000  1
  P  P52  1  0.73842167  0.97429333  0.56532933  1
  P  P53  1  0.92824500  0.35904000  0.76800400  1
  P  P54  1  0.57183267  0.92056333  0.73091333  1
  P  P55  1  0.98460267  0.23849933  0.93575333  1
  P  P56  1  0.90253833  0.59491167  0.89866267  1
  P  P57  1  0.69237333  0.09746167  0.89866267  1
  P  P58  1  0.66666667  0.33333333  0.52797033  1
  P  P59  1  0.07943667  0.65126933  0.73091333  1
  P  P60  1  0.66666667  0.33333333  0.02846033  1
  P  P61  1  0.66666667  0.33333333  0.63820633  1
  P  P62  1  0.25389667  0.01539733  0.93575333  1
  P  P63  1  0.66666667  0.33333333  0.13869633  1
  P  P64  1  0.64096000  0.56920500  0.76800400  1
  P  P65  1  0.43079500  0.07175500  0.76800400  1
  P  P66  1  0.34873067  0.42816733  0.73091333  1
  P  P67  1  0.76150067  0.74610333  0.93575333  1
  P  P68  1  0.40508833  0.30762667  0.89866267  1
  O  O69  1  0.65838067  0.83639333  0.08499333  1
  O  O70  1  0.56396900  0.60268700  0.05947800  1
  O  O71  1  0.68514100  0.67495400  0.13467100  1
  O  O72  1  0.35360233  0.35947867  0.03407467  1
  O  O73  1  0.73530400  0.63797800  0.22448500  1
  O  O74  1  0.67685367  0.01847433  0.19866233  1
  O  O75  1  0.46816733  0.66184367  0.12646067  1
  O  O76  1  0.62794867  0.89730233  0.27385533  1
  O  O77  1  0.30464467  0.23600733  0.10884833  1
  O  O78  1  0.67599867  0.47615433  0.29167733  1
  O  O79  1  0.14282100  0.13348900  0.04165600  1
  O  O80  1  0.66079033  0.68693567  0.29925867  1
  O  O81  1  0.47299033  0.80150067  0.20687267  1
  O  O82  1  0.17801267  0.34161933  0.08499333  1
  O  O83  1  0.50306000  0.51134600  0.24834000  1
  O  O84  1  0.48865400  0.99171400  0.24834000  1
  O  O85  1  0.34162067  0.32314633  0.19866233  1
  O  O86  1  0.32851033  0.52700967  0.20687267  1
  O  O87  1  0.47365567  0.72313633  0.84570533  1
  O  O88  1  0.47356700  0.72115200  0.34612500  1
  O  O89  1  0.86651100  0.00933200  0.04165600  1
  O  O90  1  0.26935367  0.37205133  0.27385533  1
  O  O91  1  0.27686367  0.75051933  0.84570533  1
  O  O92  1  0.64052133  0.99412367  0.03407467  1
  O  O93  1  0.27884800  0.75241500  0.34612500  1
  O  O94  1  0.24758500  0.52643300  0.34612500  1
  O  O95  1  0.24948067  0.52634433  0.84570533  1
  O  O96  1  0.76399267  0.06863733  0.10884833  1
  O  O97  1  0.33333333  0.66666667  0.41686667  1
  O  O98  1  0.00828600  0.49694000  0.24834000  1
  O  O99  1  0.33333333  0.66666667  0.91646667  1
  O  O100  1  0.41718600  0.80698900  0.48762800  1
  O  O101  1  0.90267400  0.26469600  0.22448500  1
  O  O102  1  0.41908167  0.80690033  0.98720833  1
  O  O103  1  0.02614533  0.33920967  0.29925867  1
  O  O104  1  0.38781867  0.58091833  0.98720833  1
  O  O105  1  0.38980300  0.58281400  0.48762800  1
  O  O106  1  0.39731300  0.96128200  0.05947800  1
  O  O107  1  0.80015567  0.32400133  0.29167733  1
  O  O108  1  0.19301100  0.61019700  0.48762800  1
  O  O109  1  0.19309967  0.61218133  0.98720833  1
  O  O110  1  0.33815633  0.80632367  0.12646067  1
  O  O111  1  0.32504600  0.01018700  0.13467100  1
  O  O112  1  0.16360667  0.82198733  0.08499333  1
  O  O113  1  0.19367633  0.53183267  0.12646067  1
  O  O114  1  0.52384567  0.19984433  0.29167733  1
  O  O115  1  0.00587633  0.64639767  0.03407467  1
  O  O116  1  0.99066800  0.85717900  0.04165600  1
  O  O117  1  0.03871800  0.43603100  0.05947800  1
  O  O118  1  0.36202200  0.09732600  0.22448500  1
  O  O119  1  0.19849933  0.67148967  0.20687267  1
  O  O120  1  0.31306433  0.97385467  0.29925867  1
  O  O121  1  0.98981300  0.31485900  0.13467100  1
  O  O122  1  0.93136267  0.69535533  0.10884833  1
  O  O123  1  0.98152567  0.65837933  0.19866233  1
  O  O124  1  0.10269767  0.73064633  0.27385533  1
  O  O125  1  0.32504733  0.16972667  0.41832667  1
  O  O126  1  0.23063567  0.93602033  0.39281133  1
  O  O127  1  0.35180767  0.00828733  0.46800433  1
  O  O128  1  0.02026900  0.69281200  0.36740800  1
  O  O129  1  0.40197067  0.97131133  0.55781833  1
  O  O130  1  0.34352033  0.35180767  0.53199567  1
  O  O131  1  0.13483400  0.99517700  0.45979400  1
  O  O132  1  0.29461533  0.23063567  0.60718867  1
  O  O133  1  0.97131133  0.56934067  0.44218167  1
  O  O134  1  0.34266533  0.80948767  0.62501067  1
  O  O135  1  0.80948767  0.46682233  0.37498933  1
  O  O136  1  0.32745700  0.02026900  0.63259200  1
  O  O137  1  0.13965700  0.13483400  0.54020600  1
  O  O138  1  0.84467933  0.67495267  0.41832667  1
  O  O139  1  0.16972667  0.84467933  0.58167333  1
  O  O140  1  0.15532067  0.32504733  0.58167333  1
  O  O141  1  0.00828733  0.65647967  0.53199567  1
  O  O142  1  0.99517700  0.86034300  0.54020600  1
  O  O143  1  0.14032233  0.05646967  0.17903867  1
  O  O144  1  0.14023367  0.05448533  0.67945833  1
  O  O145  1  0.53317767  0.34266533  0.37498933  1
  O  O146  1  0.93602033  0.70538467  0.60718867  1
  O  O147  1  0.94353033  0.08385267  0.17903867  1
  O  O148  1  0.30718800  0.32745700  0.36740800  1
  O  O149  1  0.94551467  0.08574833  0.67945833  1
  O  O150  1  0.91425167  0.85976633  0.67945833  1
  O  O151  1  0.91614733  0.85967767  0.17903867  1
  O  O152  1  0.43065933  0.40197067  0.44218167  1
  O  O153  1  0.00000000  0.00000000  0.75020000  1
  O  O154  1  0.67495267  0.83027333  0.58167333  1
  O  O155  1  0.00000000  0.00000000  0.24980000  1
  O  O156  1  0.08385267  0.14032233  0.82096133  1
  O  O157  1  0.56934067  0.59802933  0.55781833  1
  O  O158  1  0.08574833  0.14023367  0.32054167  1
  O  O159  1  0.69281200  0.67254300  0.63259200  1
  O  O160  1  0.05448533  0.91425167  0.32054167  1
  O  O161  1  0.05646967  0.91614733  0.82096133  1
  O  O162  1  0.06397967  0.29461533  0.39281133  1
  O  O163  1  0.46682233  0.65733467  0.62501067  1
  O  O164  1  0.85967767  0.94353033  0.82096133  1
  O  O165  1  0.85976633  0.94551467  0.32054167  1
  O  O166  1  0.00482300  0.13965700  0.45979400  1
  O  O167  1  0.99171267  0.34352033  0.46800433  1
  O  O168  1  0.83027333  0.15532067  0.41832667  1
  O  O169  1  0.86034300  0.86516600  0.45979400  1
  O  O170  1  0.19051233  0.53317767  0.62501067  1
  O  O171  1  0.67254300  0.97973100  0.36740800  1
  O  O172  1  0.65733467  0.19051233  0.37498933  1
  O  O173  1  0.70538467  0.76936433  0.39281133  1
  O  O174  1  0.02868867  0.43065933  0.55781833  1
  O  O175  1  0.86516600  0.00482300  0.54020600  1
  O  O176  1  0.97973100  0.30718800  0.63259200  1
  O  O177  1  0.65647967  0.64819233  0.46800433  1
  O  O178  1  0.59802933  0.02868867  0.44218167  1
  O  O179  1  0.64819233  0.99171267  0.53199567  1
  O  O180  1  0.76936433  0.06397967  0.60718867  1
  O  O181  1  0.99171400  0.50306000  0.75166000  1
  O  O182  1  0.89730233  0.26935367  0.72614467  1
  O  O183  1  0.01847433  0.34162067  0.80133767  1
  O  O184  1  0.68693567  0.02614533  0.70074133  1
  O  O185  1  0.06863733  0.30464467  0.89115167  1
  O  O186  1  0.01018700  0.68514100  0.86532900  1
  O  O187  1  0.80150067  0.32851033  0.79312733  1
  O  O188  1  0.96128200  0.56396900  0.94052200  1
  O  O189  1  0.63797800  0.90267400  0.77551500  1
  O  O190  1  0.00933200  0.14282100  0.95834400  1
  O  O191  1  0.47615433  0.80015567  0.70832267  1
  O  O192  1  0.99412367  0.35360233  0.96592533  1
  O  O193  1  0.80632367  0.46816733  0.87353933  1
  O  O194  1  0.51134600  0.00828600  0.75166000  1
  O  O195  1  0.83639333  0.17801267  0.91500667  1
  O  O196  1  0.82198733  0.65838067  0.91500667  1
  O  O197  1  0.67495400  0.98981300  0.86532900  1
  O  O198  1  0.66184367  0.19367633  0.87353933  1
  O  O199  1  0.80698900  0.38980300  0.51237200  1
  O  O200  1  0.80690033  0.38781867  0.01279167  1
  O  O201  1  0.19984433  0.67599867  0.70832267  1
  O  O202  1  0.60268700  0.03871800  0.94052200  1
  O  O203  1  0.61019700  0.41718600  0.51237200  1
  O  O204  1  0.97385467  0.66079033  0.70074133  1
  O  O205  1  0.61218133  0.41908167  0.01279167  1
  O  O206  1  0.58091833  0.19309967  0.01279167  1
  O  O207  1  0.58281400  0.19301100  0.51237200  1
  O  O208  1  0.09732600  0.73530400  0.77551500  1
  O  O209  1  0.66666667  0.33333333  0.08353333  1
  O  O210  1  0.34161933  0.16360667  0.91500667  1
  O  O211  1  0.66666667  0.33333333  0.58313333  1
  O  O212  1  0.75051933  0.47365567  0.15429467  1
  O  O213  1  0.23600733  0.93136267  0.89115167  1
  O  O214  1  0.75241500  0.47356700  0.65387500  1
  O  O215  1  0.35947867  0.00587633  0.96592533  1
  O  O216  1  0.72115200  0.24758500  0.65387500  1
  O  O217  1  0.72313633  0.24948067  0.15429467  1
  O  O218  1  0.73064633  0.62794867  0.72614467  1
  O  O219  1  0.13348900  0.99066800  0.95834400  1
  O  O220  1  0.52634433  0.27686367  0.15429467  1
  O  O221  1  0.52643300  0.27884800  0.65387500  1
  O  O222  1  0.67148967  0.47299033  0.79312733  1
  O  O223  1  0.65837933  0.67685367  0.80133767  1
  O  O224  1  0.49694000  0.48865400  0.75166000  1
  O  O225  1  0.52700967  0.19849933  0.79312733  1
  O  O226  1  0.85717900  0.86651100  0.95834400  1
  O  O227  1  0.33920967  0.31306433  0.70074133  1
  O  O228  1  0.32400133  0.52384567  0.70832267  1
  O  O229  1  0.37205133  0.10269767  0.72614467  1
  O  O230  1  0.69535533  0.76399267  0.89115167  1
  O  O231  1  0.53183267  0.33815633  0.87353933  1
  O  O232  1  0.64639767  0.64052133  0.96592533  1
  O  O233  1  0.32314633  0.98152567  0.80133767  1
  O  O234  1  0.26469600  0.36202200  0.77551500  1
  O  O235  1  0.31485900  0.32504600  0.86532900  1
  O  O236  1  0.43603100  0.39731300  0.94052200  1
