# generated using pymatgen
data_Mn3Co(PO4)4
_symmetry_space_group_name_H-M   'P 1'
_cell_length_a   4.89583200
_cell_length_b   6.02442600
_cell_length_c   9.82057654
_cell_angle_alpha   90.00000000
_cell_angle_beta   90.22768836
_cell_angle_gamma   90.00000000
_symmetry_Int_Tables_number   1
_chemical_formula_structural   Mn3Co(PO4)4
_chemical_formula_sum   'Mn3 Co1 P4 O16'
_cell_volume   289.65146975
_cell_formula_units_Z   1
loop_
 _symmetry_equiv_pos_site_id
 _symmetry_equiv_pos_as_xyz
  1  'x, y, z'
loop_
 _atom_site_type_symbol
 _atom_site_label
 _atom_site_symmetry_multiplicity
 _atom_site_fract_x
 _atom_site_fract_y
 _atom_site_fract_z
 _atom_site_occupancy
  Mn  Mn0  1  0.43277100  0.00000000  0.21447400  1
  Mn  Mn1  1  0.55894100  0.50000000  0.77958400  1
  Mn  Mn2  1  0.93419900  0.50000000  0.28561800  1
  Co  Co3  1  0.03321600  0.00000000  0.72453000  1
  P  P4  1  0.08810700  0.50000000  0.60172900  1
  P  P5  1  0.41832300  0.50000000  0.09907200  1
  P  P6  1  0.58100900  0.00000000  0.90007200  1
  P  P7  1  0.91911200  0.00000000  0.40024200  1
  O  O8  1  0.14710500  0.50000000  0.44730000  1
  O  O9  1  0.22967800  0.70228600  0.67123100  1
  O  O10  1  0.22967800  0.29771400  0.67123100  1
  O  O11  1  0.23018900  0.00000000  0.38043200  1
  O  O12  1  0.27019800  0.00000000  0.87803500  1
  O  O13  1  0.27504100  0.69990500  0.17062700  1
  O  O14  1  0.27504100  0.30009500  0.17062700  1
  O  O15  1  0.35520700  0.50000000  0.94555100  1
  O  O16  1  0.64826100  0.00000000  0.05289200  1
  O  O17  1  0.72978900  0.19860500  0.82841700  1
  O  O18  1  0.72978900  0.80139500  0.82841700  1
  O  O19  1  0.73014600  0.50000000  0.11908600  1
  O  O20  1  0.77356800  0.50000000  0.61821900  1
  O  O21  1  0.77493800  0.19961300  0.32887300  1
  O  O22  1  0.77493800  0.80038700  0.32887300  1
  O  O23  1  0.86075700  0.00000000  0.55486600  1
