# generated using pymatgen
data_V2O3F
_symmetry_space_group_name_H-M   'P 1'
_cell_length_a   6.02723000
_cell_length_b   6.41107000
_cell_length_c   6.90510800
_cell_angle_alpha   90.00000000
_cell_angle_beta   90.00000000
_cell_angle_gamma   90.00000000
_symmetry_Int_Tables_number   1
_chemical_formula_structural   V2O3F
_chemical_formula_sum   'V8 O12 F4'
_cell_volume   266.82023290
_cell_formula_units_Z   4
loop_
 _symmetry_equiv_pos_site_id
 _symmetry_equiv_pos_as_xyz
  1  'x, y, z'
loop_
 _atom_site_type_symbol
 _atom_site_label
 _atom_site_symmetry_multiplicity
 _atom_site_fract_x
 _atom_site_fract_y
 _atom_site_fract_z
 _atom_site_occupancy
  V  V0  1  0.50000000  0.25000000  0.20450000  1
  V  V1  1  0.00000000  0.25000000  0.29550000  1
  V  V2  1  0.25000000  0.25000000  0.75000000  1
  V  V3  1  0.25000000  0.75000000  0.25000000  1
  V  V4  1  0.00000000  0.75000000  0.70450000  1
  V  V5  1  0.50000000  0.75000000  0.79550000  1
  V  V6  1  0.75000000  0.75000000  0.25000000  1
  V  V7  1  0.75000000  0.25000000  0.75000000  1
  O  O8  1  0.50000000  0.25000000  0.94486100  1
  O  O9  1  0.75000000  0.44218500  0.25000000  1
  O  O10  1  0.25000000  0.44218500  0.25000000  1
  O  O11  1  0.25000000  0.05781500  0.25000000  1
  O  O12  1  0.25000000  0.55781500  0.75000000  1
  O  O13  1  0.00000000  0.25000000  0.55513900  1
  O  O14  1  0.00000000  0.75000000  0.44486100  1
  O  O15  1  0.25000000  0.94218500  0.75000000  1
  O  O16  1  0.75000000  0.94218500  0.75000000  1
  O  O17  1  0.75000000  0.55781500  0.75000000  1
  O  O18  1  0.75000000  0.05781500  0.25000000  1
  O  O19  1  0.50000000  0.75000000  0.05513900  1
  F  F20  1  0.50000000  0.75000000  0.45147600  1
  F  F21  1  0.00000000  0.75000000  0.04852400  1
  F  F22  1  0.00000000  0.25000000  0.95147600  1
  F  F23  1  0.50000000  0.25000000  0.54852400  1
