# generated using pymatgen
data_LiFeSiO4
_symmetry_space_group_name_H-M   'P 1'
_cell_length_a   8.43028700
_cell_length_b   5.21243000
_cell_length_c   8.55500264
_cell_angle_alpha   90.00000000
_cell_angle_beta   107.74073979
_cell_angle_gamma   90.00000000
_symmetry_Int_Tables_number   1
_chemical_formula_structural   LiFeSiO4
_chemical_formula_sum   'Li4 Fe4 Si4 O16'
_cell_volume   358.04917470
_cell_formula_units_Z   4
loop_
 _symmetry_equiv_pos_site_id
 _symmetry_equiv_pos_as_xyz
  1  'x, y, z'
loop_
 _atom_site_type_symbol
 _atom_site_label
 _atom_site_symmetry_multiplicity
 _atom_site_fract_x
 _atom_site_fract_y
 _atom_site_fract_z
 _atom_site_occupancy
  Li  Li0  1  0.90554600  0.33547900  0.01977600  1
  Li  Li1  1  0.73326100  0.82323700  0.49927700  1
  Li  Li2  1  0.40554600  0.66452100  0.01977600  1
  Li  Li3  1  0.23326100  0.17676300  0.49927700  1
  Fe  Fe4  1  0.99992500  0.17181000  0.74968900  1
  Fe  Fe5  1  0.66813700  0.32730000  0.26335500  1
  Fe  Fe6  1  0.49992500  0.82819000  0.74968900  1
  Fe  Fe7  1  0.16813700  0.67270000  0.26335500  1
  Si  Si8  1  0.77988700  0.82301200  0.13497700  1
  Si  Si9  1  0.62770800  0.31989700  0.63032200  1
  Si  Si10  1  0.27988700  0.17698800  0.13497700  1
  Si  Si11  1  0.12770800  0.68010300  0.63032200  1
  O  O12  1  0.94774200  0.68470600  0.11534800  1
  O  O13  1  0.96927400  0.83762700  0.65732400  1
  O  O14  1  0.80863600  0.13206100  0.17097900  1
  O  O15  1  0.73023700  0.68036400  0.28704400  1
  O  O16  1  0.79578700  0.26950200  0.78627900  1
  O  O17  1  0.67227500  0.19868300  0.47015000  1
  O  O18  1  0.44774200  0.31529400  0.11534800  1
  O  O19  1  0.58551600  0.62743500  0.60608700  1
  O  O20  1  0.62227900  0.77091400  0.97062000  1
  O  O21  1  0.46927400  0.16237300  0.65732400  1
  O  O22  1  0.30863600  0.86793900  0.17097900  1
  O  O23  1  0.23023700  0.31963600  0.28704400  1
  O  O24  1  0.29578700  0.73049800  0.78627900  1
  O  O25  1  0.17227500  0.80131700  0.47015000  1
  O  O26  1  0.08551600  0.37256500  0.60608700  1
  O  O27  1  0.12227900  0.22908600  0.97062000  1
