# generated using pymatgen
data_Li3VP2HO8
_symmetry_space_group_name_H-M   'P 1'
_cell_length_a   5.10279937
_cell_length_b   5.10652809
_cell_length_c   6.25876262
_cell_angle_alpha   90.49562996
_cell_angle_beta   90.55419605
_cell_angle_gamma   114.04515890
_symmetry_Int_Tables_number   1
_chemical_formula_structural   Li3VP2HO8
_chemical_formula_sum   'Li3 V1 P2 H1 O8'
_cell_volume   148.91508521
_cell_formula_units_Z   1
loop_
 _symmetry_equiv_pos_site_id
 _symmetry_equiv_pos_as_xyz
  1  'x, y, z'
loop_
 _atom_site_type_symbol
 _atom_site_label
 _atom_site_symmetry_multiplicity
 _atom_site_fract_x
 _atom_site_fract_y
 _atom_site_fract_z
 _atom_site_occupancy
  Li  Li0  1  0.00000000  0.00000000  0.50000000  1
  Li  Li1  1  0.62001075  0.24465250  0.76017050  1
  Li  Li2  1  0.37998925  0.75534750  0.23982950  1
  V  V3  1  0.00000000  0.00000000  0.00000000  1
  P  P4  1  0.64215600  0.36274650  0.24776700  1
  P  P5  1  0.35784400  0.63725350  0.75223300  1
  H  H6  1  0.00000000  0.50000000  0.50000000  1
  O  O7  1  0.75343425  0.25028375  0.05640100  1
  O  O8  1  0.24656575  0.74971625  0.94359900  1
  O  O9  1  0.77668050  0.29724250  0.46009800  1
  O  O10  1  0.22331950  0.70275750  0.53990200  1
  O  O11  1  0.31156350  0.20605775  0.26115750  1
  O  O12  1  0.68843650  0.79394225  0.73884250  1
  O  O13  1  0.26127350  0.30613275  0.76048850  1
  O  O14  1  0.73872650  0.69386725  0.23951150  1
