# generated using pymatgen
data_Li2Ti2VO6
_symmetry_space_group_name_H-M   'P 1'
_cell_length_a   5.14696235
_cell_length_b   9.02117793
_cell_length_c   10.41194100
_cell_angle_alpha   90.00000000
_cell_angle_beta   90.00000000
_cell_angle_gamma   90.00000000
_symmetry_Int_Tables_number   1
_chemical_formula_structural   Li2Ti2VO6
_chemical_formula_sum   'Li8 Ti8 V4 O24'
_cell_volume   483.44373745
_cell_formula_units_Z   4
loop_
 _symmetry_equiv_pos_site_id
 _symmetry_equiv_pos_as_xyz
  1  'x, y, z'
loop_
 _atom_site_type_symbol
 _atom_site_label
 _atom_site_symmetry_multiplicity
 _atom_site_fract_x
 _atom_site_fract_y
 _atom_site_fract_z
 _atom_site_occupancy
  Li  Li0  1  0.41244375  0.75000000  0.75000000  1
  Li  Li1  1  0.58755625  0.75000000  0.25000000  1
  Li  Li2  1  0.91244375  0.75000000  0.75000000  1
  Li  Li3  1  0.08755625  0.75000000  0.25000000  1
  Li  Li4  1  0.91244375  0.25000000  0.75000000  1
  Li  Li5  1  0.08755625  0.25000000  0.25000000  1
  Li  Li6  1  0.41244375  0.25000000  0.75000000  1
  Li  Li7  1  0.58755625  0.25000000  0.25000000  1
  Ti  Ti8  1  0.50000000  0.66070625  0.50000000  1
  Ti  Ti9  1  0.50000000  0.83929375  0.00000000  1
  Ti  Ti10  1  0.00000000  0.66070625  0.00000000  1
  Ti  Ti11  1  0.00000000  0.83929375  0.50000000  1
  Ti  Ti12  1  0.00000000  0.16070625  0.50000000  1
  Ti  Ti13  1  0.00000000  0.33929375  0.00000000  1
  Ti  Ti14  1  0.50000000  0.16070625  0.00000000  1
  Ti  Ti15  1  0.50000000  0.33929375  0.50000000  1
  V  V16  1  0.00000000  0.00000000  0.00000000  1
  V  V17  1  0.50000000  0.00000000  0.50000000  1
  V  V18  1  0.50000000  0.50000000  0.00000000  1
  V  V19  1  0.00000000  0.50000000  0.50000000  1
  O  O20  1  0.14581725  0.00000000  0.60124150  1
  O  O21  1  0.35418275  0.00000000  0.10124150  1
  O  O22  1  0.64581725  0.00000000  0.89875850  1
  O  O23  1  0.35418275  0.50000000  0.39875850  1
  O  O24  1  0.32244825  0.68193000  0.10715750  1
  O  O25  1  0.17755175  0.81807000  0.89284250  1
  O  O26  1  0.32244825  0.81807000  0.39284250  1
  O  O27  1  0.67755175  0.81807000  0.60715750  1
  O  O28  1  0.67755175  0.68193000  0.89284250  1
  O  O29  1  0.82244825  0.68193000  0.39284250  1
  O  O30  1  0.17755175  0.68193000  0.60715750  1
  O  O31  1  0.82244825  0.81807000  0.10715750  1
  O  O32  1  0.64581725  0.50000000  0.60124150  1
  O  O33  1  0.85418275  0.50000000  0.10124150  1
  O  O34  1  0.14581725  0.50000000  0.89875850  1
  O  O35  1  0.85418275  0.00000000  0.39875850  1
  O  O36  1  0.82244825  0.18193000  0.10715750  1
  O  O37  1  0.67755175  0.31807000  0.89284250  1
  O  O38  1  0.82244825  0.31807000  0.39284250  1
  O  O39  1  0.17755175  0.31807000  0.60715750  1
  O  O40  1  0.17755175  0.18193000  0.89284250  1
  O  O41  1  0.32244825  0.18193000  0.39284250  1
  O  O42  1  0.67755175  0.18193000  0.60715750  1
  O  O43  1  0.32244825  0.31807000  0.10715750  1
