# generated using pymatgen
data_Mn4CrO8
_symmetry_space_group_name_H-M   'P 1'
_cell_length_a   10.48108000
_cell_length_b   5.83495200
_cell_length_c   6.16614249
_cell_angle_alpha   90.00000000
_cell_angle_beta   123.56040395
_cell_angle_gamma   90.00000000
_symmetry_Int_Tables_number   1
_chemical_formula_structural   Mn4CrO8
_chemical_formula_sum   'Mn8 Cr2 O16'
_cell_volume   314.23899413
_cell_formula_units_Z   2
loop_
 _symmetry_equiv_pos_site_id
 _symmetry_equiv_pos_as_xyz
  1  'x, y, z'
loop_
 _atom_site_type_symbol
 _atom_site_label
 _atom_site_symmetry_multiplicity
 _atom_site_fract_x
 _atom_site_fract_y
 _atom_site_fract_z
 _atom_site_occupancy
  Mn  Mn0  1  0.00000000  0.50000000  0.50000000  1
  Mn  Mn1  1  0.00000000  0.00000000  0.00000000  1
  Mn  Mn2  1  0.25000000  0.75000000  0.00000000  1
  Mn  Mn3  1  0.25000000  0.25000000  0.00000000  1
  Mn  Mn4  1  0.50000000  0.00000000  0.50000000  1
  Mn  Mn5  1  0.50000000  0.50000000  0.00000000  1
  Mn  Mn6  1  0.75000000  0.25000000  0.00000000  1
  Mn  Mn7  1  0.75000000  0.75000000  0.00000000  1
  Cr  Cr8  1  0.00000000  0.50000000  0.00000000  1
  Cr  Cr9  1  0.50000000  0.00000000  0.00000000  1
  O  O10  1  0.26758900  0.00000000  0.80919500  1
  O  O11  1  0.02745350  0.25069750  0.80509400  1
  O  O12  1  0.02745350  0.74930250  0.80509400  1
  O  O13  1  0.24316200  0.50000000  0.78599800  1
  O  O14  1  0.25683800  0.00000000  0.21400200  1
  O  O15  1  0.47254650  0.75069750  0.19490600  1
  O  O16  1  0.47254650  0.24930250  0.19490600  1
  O  O17  1  0.23241100  0.50000000  0.19080500  1
  O  O18  1  0.76758900  0.50000000  0.80919500  1
  O  O19  1  0.52745350  0.75069750  0.80509400  1
  O  O20  1  0.52745350  0.24930250  0.80509400  1
  O  O21  1  0.74316200  0.00000000  0.78599800  1
  O  O22  1  0.75683800  0.50000000  0.21400200  1
  O  O23  1  0.97254650  0.25069750  0.19490600  1
  O  O24  1  0.97254650  0.74930250  0.19490600  1
  O  O25  1  0.73241100  0.00000000  0.19080500  1
