# generated using pymatgen
data_Li5Fe6(BO3)6
_symmetry_space_group_name_H-M   'P 1'
_cell_length_a   16.39362400
_cell_length_b   6.23560600
_cell_length_c   8.24783452
_cell_angle_alpha   90.00000000
_cell_angle_beta   119.75345979
_cell_angle_gamma   90.00000000
_symmetry_Int_Tables_number   1
_chemical_formula_structural   Li5Fe6(BO3)6
_chemical_formula_sum   'Li10 Fe12 B12 O36'
_cell_volume   731.97757107
_cell_formula_units_Z   2
loop_
 _symmetry_equiv_pos_site_id
 _symmetry_equiv_pos_as_xyz
  1  'x, y, z'
loop_
 _atom_site_type_symbol
 _atom_site_label
 _atom_site_symmetry_multiplicity
 _atom_site_fract_x
 _atom_site_fract_y
 _atom_site_fract_z
 _atom_site_occupancy
  Li  Li0  1  0.24157600  0.00000000  0.69882300  1
  Li  Li1  1  0.40011900  0.00000000  0.28376200  1
  Li  Li2  1  0.40067700  0.50000000  0.28575800  1
  Li  Li3  1  0.10778200  0.50000000  0.01894900  1
  Li  Li4  1  0.10877000  0.00000000  0.01485600  1
  Li  Li5  1  0.74157600  0.50000000  0.69882300  1
  Li  Li6  1  0.90011900  0.50000000  0.28376200  1
  Li  Li7  1  0.90067700  0.00000000  0.28575800  1
  Li  Li8  1  0.60778200  0.00000000  0.01894900  1
  Li  Li9  1  0.60877000  0.50000000  0.01485600  1
  Fe  Fe10  1  0.42565700  0.25636800  0.98545600  1
  Fe  Fe11  1  0.42565700  0.74363200  0.98545600  1
  Fe  Fe12  1  0.25465550  0.25666150  0.37650500  1
  Fe  Fe13  1  0.25465550  0.74333850  0.37650500  1
  Fe  Fe14  1  0.07023700  0.25558100  0.63964200  1
  Fe  Fe15  1  0.07023700  0.74441900  0.63964200  1
  Fe  Fe16  1  0.92565700  0.75636800  0.98545600  1
  Fe  Fe17  1  0.92565700  0.24363200  0.98545600  1
  Fe  Fe18  1  0.75465550  0.75666150  0.37650500  1
  Fe  Fe19  1  0.75465550  0.24333850  0.37650500  1
  Fe  Fe20  1  0.57023700  0.75558100  0.63964200  1
  Fe  Fe21  1  0.57023700  0.24441900  0.63964200  1
  B  B22  1  0.08343100  0.00000000  0.33219900  1
  B  B23  1  0.08014900  0.50000000  0.32558900  1
  B  B24  1  0.41638300  0.00000000  0.66362100  1
  B  B25  1  0.42136800  0.50000000  0.66888400  1
  B  B26  1  0.24876550  0.24601250  0.00305700  1
  B  B27  1  0.24876550  0.75398750  0.00305700  1
  B  B28  1  0.58343100  0.50000000  0.33219900  1
  B  B29  1  0.58014900  0.00000000  0.32558900  1
  B  B30  1  0.91638300  0.50000000  0.66362100  1
  B  B31  1  0.92136800  0.00000000  0.66888400  1
  B  B32  1  0.74876550  0.74601250  0.00305700  1
  B  B33  1  0.74876550  0.25398750  0.00305700  1
  O  O34  1  0.20489450  0.76758950  0.81330700  1
  O  O35  1  0.20489450  0.23241050  0.81330700  1
  O  O36  1  0.04170700  0.00000000  0.44248400  1
  O  O37  1  0.04033300  0.50000000  0.44022900  1
  O  O38  1  0.34708350  0.75047550  0.11038400  1
  O  O39  1  0.34708350  0.24952450  0.11038400  1
  O  O40  1  0.17644600  0.50000000  0.40003800  1
  O  O41  1  0.18102100  0.00000000  0.41740300  1
  O  O42  1  0.02224900  0.50000000  0.13248500  1
  O  O43  1  0.02899100  0.00000000  0.13873500  1
  O  O44  1  0.38510300  0.50000000  0.78776100  1
  O  O45  1  0.37670300  0.00000000  0.77871100  1
  O  O46  1  0.19664150  0.74982150  0.09586700  1
  O  O47  1  0.19664150  0.25017850  0.09586700  1
  O  O48  1  0.01364000  0.50000000  0.73956500  1
  O  O49  1  0.01789100  0.00000000  0.73995400  1
  O  O50  1  0.35810600  0.00000000  0.46964800  1
  O  O51  1  0.36025400  0.50000000  0.47493800  1
  O  O52  1  0.70489450  0.26758950  0.81330700  1
  O  O53  1  0.70489450  0.73241050  0.81330700  1
  O  O54  1  0.54170700  0.50000000  0.44248400  1
  O  O55  1  0.54033300  0.00000000  0.44022900  1
  O  O56  1  0.84708350  0.25047550  0.11038400  1
  O  O57  1  0.84708350  0.74952450  0.11038400  1
  O  O58  1  0.67644600  0.00000000  0.40003800  1
  O  O59  1  0.68102100  0.50000000  0.41740300  1
  O  O60  1  0.52224900  0.00000000  0.13248500  1
  O  O61  1  0.52899100  0.50000000  0.13873500  1
  O  O62  1  0.88510300  0.00000000  0.78776100  1
  O  O63  1  0.87670300  0.50000000  0.77871100  1
  O  O64  1  0.69664150  0.24982150  0.09586700  1
  O  O65  1  0.69664150  0.75017850  0.09586700  1
  O  O66  1  0.51364000  0.00000000  0.73956500  1
  O  O67  1  0.51789100  0.50000000  0.73995400  1
  O  O68  1  0.85810600  0.50000000  0.46964800  1
  O  O69  1  0.86025400  0.00000000  0.47493800  1
