# generated using pymatgen
data_Fe4O7F
_symmetry_space_group_name_H-M   'P 1'
_cell_length_a   11.01698000
_cell_length_b   9.26139400
_cell_length_c   5.51908117
_cell_angle_alpha   90.00000000
_cell_angle_beta   114.03082759
_cell_angle_gamma   90.00000000
_symmetry_Int_Tables_number   1
_chemical_formula_structural   Fe4O7F
_chemical_formula_sum   'Fe16 O28 F4'
_cell_volume   514.31803561
_cell_formula_units_Z   4
loop_
 _symmetry_equiv_pos_site_id
 _symmetry_equiv_pos_as_xyz
  1  'x, y, z'
loop_
 _atom_site_type_symbol
 _atom_site_label
 _atom_site_symmetry_multiplicity
 _atom_site_fract_x
 _atom_site_fract_y
 _atom_site_fract_z
 _atom_site_occupancy
  Fe  Fe0  1  0.88027800  0.12099700  0.50372300  1
  Fe  Fe1  1  0.62191100  0.61982800  0.01419700  1
  Fe  Fe2  1  0.12314450  0.38053950  0.47974100  1
  Fe  Fe3  1  0.62191100  0.38017200  0.51419700  1
  Fe  Fe4  1  0.87509550  0.37491650  0.00018500  1
  Fe  Fe5  1  0.88027800  0.87900300  0.00372300  1
  Fe  Fe6  1  0.87509550  0.62508350  0.50018500  1
  Fe  Fe7  1  0.12314450  0.61946050  0.97974100  1
  Fe  Fe8  1  0.38027800  0.62099700  0.50372300  1
  Fe  Fe9  1  0.12191100  0.11982800  0.01419700  1
  Fe  Fe10  1  0.62314450  0.88053950  0.47974100  1
  Fe  Fe11  1  0.12191100  0.88017200  0.51419700  1
  Fe  Fe12  1  0.37509550  0.87491650  0.00018500  1
  Fe  Fe13  1  0.38027800  0.37900300  0.00372300  1
  Fe  Fe14  1  0.37509550  0.12508350  0.50018500  1
  Fe  Fe15  1  0.62314450  0.11946050  0.97974100  1
  O  O16  1  0.29679000  0.47124800  0.65337600  1
  O  O17  1  0.29679000  0.52875200  0.15337600  1
  O  O18  1  0.95387700  0.21886700  0.85146000  1
  O  O19  1  0.20265150  0.22248650  0.34722400  1
  O  O20  1  0.95026750  0.27930150  0.34087700  1
  O  O21  1  0.20265150  0.77751350  0.84722400  1
  O  O22  1  0.55411650  0.46817050  0.17116100  1
  O  O23  1  0.04462100  0.47370900  0.13512800  1
  O  O24  1  0.79738000  0.46784900  0.65539900  1
  O  O25  1  0.55411650  0.53182950  0.67116100  1
  O  O26  1  0.04462100  0.52629100  0.63512800  1
  O  O27  1  0.79738000  0.53215100  0.15539900  1
  O  O28  1  0.95026750  0.72069850  0.84087700  1
  O  O29  1  0.95387700  0.78113300  0.35146000  1
  O  O30  1  0.79679000  0.97124800  0.65337600  1
  O  O31  1  0.79679000  0.02875200  0.15337600  1
  O  O32  1  0.45387700  0.71886700  0.85146000  1
  O  O33  1  0.70265150  0.72248650  0.34722400  1
  O  O34  1  0.45026750  0.77930150  0.34087700  1
  O  O35  1  0.70265150  0.27751350  0.84722400  1
  O  O36  1  0.05411650  0.96817050  0.17116100  1
  O  O37  1  0.54462100  0.97370900  0.13512800  1
  O  O38  1  0.29738000  0.96784900  0.65539900  1
  O  O39  1  0.05411650  0.03182950  0.67116100  1
  O  O40  1  0.54462100  0.02629100  0.63512800  1
  O  O41  1  0.29738000  0.03215100  0.15539900  1
  O  O42  1  0.45026750  0.22069850  0.84087700  1
  O  O43  1  0.45387700  0.28113300  0.35146000  1
  F  F44  1  0.19986800  0.72229600  0.34752900  1
  F  F45  1  0.19986800  0.27770400  0.84752900  1
  F  F46  1  0.69986800  0.22229600  0.34752900  1
  F  F47  1  0.69986800  0.77770400  0.84752900  1
