# generated using pymatgen
data_Cu3OF5
_symmetry_space_group_name_H-M   'P 1'
_cell_length_a   4.59455407
_cell_length_b   5.91396840
_cell_length_c   7.51255887
_cell_angle_alpha   90.76276281
_cell_angle_beta   90.70822080
_cell_angle_gamma   93.73918969
_symmetry_Int_Tables_number   1
_chemical_formula_structural   Cu3OF5
_chemical_formula_sum   'Cu6 O2 F10'
_cell_volume   203.66110898
_cell_formula_units_Z   2
loop_
 _symmetry_equiv_pos_site_id
 _symmetry_equiv_pos_as_xyz
  1  'x, y, z'
loop_
 _atom_site_type_symbol
 _atom_site_label
 _atom_site_symmetry_multiplicity
 _atom_site_fract_x
 _atom_site_fract_y
 _atom_site_fract_z
 _atom_site_occupancy
  Cu  Cu0  1  0.01835800  0.00956800  0.00742300  1
  Cu  Cu1  1  0.46969000  0.47564200  0.99285300  1
  Cu  Cu2  1  0.99507100  0.66800400  0.33068800  1
  Cu  Cu3  1  0.48696800  0.80837500  0.67687900  1
  Cu  Cu4  1  0.48904400  0.16415900  0.32449200  1
  Cu  Cu5  1  0.01326700  0.34119800  0.66871500  1
  O  O6  1  0.30383000  0.20051000  0.10651200  1
  O  O7  1  0.30105900  0.52803200  0.77239400  1
  F  F8  1  0.79970000  0.98845600  0.22311100  1
  F  F9  1  0.20112000  0.68582900  0.11374800  1
  F  F10  1  0.29787600  0.85321400  0.44436200  1
  F  F11  1  0.69646700  0.48120300  0.21950200  1
  F  F12  1  0.79198000  0.65302600  0.55113200  1
  F  F13  1  0.20458200  0.34969900  0.44518300  1
  F  F14  1  0.71370500  0.81209300  0.90181500  1
  F  F15  1  0.70283800  0.14657000  0.55599700  1
  F  F16  1  0.80518600  0.31922100  0.88279400  1
  F  F17  1  0.20925800  0.01520100  0.78240000  1
