# generated using pymatgen
data_KMn6O12
_symmetry_space_group_name_H-M   'P 1'
_cell_length_a   9.99384000
_cell_length_b   9.99384000
_cell_length_c   8.86156800
_cell_angle_alpha   90.00000000
_cell_angle_beta   90.00000000
_cell_angle_gamma   90.00000000
_symmetry_Int_Tables_number   1
_chemical_formula_structural   KMn6O12
_chemical_formula_sum   'K4 Mn24 O48'
_cell_volume   885.06539108
_cell_formula_units_Z   4
loop_
 _symmetry_equiv_pos_site_id
 _symmetry_equiv_pos_as_xyz
  1  'x, y, z'
loop_
 _atom_site_type_symbol
 _atom_site_label
 _atom_site_symmetry_multiplicity
 _atom_site_fract_x
 _atom_site_fract_y
 _atom_site_fract_z
 _atom_site_occupancy
  K  K0  1  0.00000000  0.00000000  0.28957700  1
  K  K1  1  0.00000000  0.00000000  0.71042300  1
  K  K2  1  0.50000000  0.50000000  0.78957700  1
  K  K3  1  0.50000000  0.50000000  0.21042300  1
  Mn  Mn4  1  0.16637600  0.34932600  0.50000000  1
  Mn  Mn5  1  0.15109100  0.66558600  0.33357300  1
  Mn  Mn6  1  0.65109100  0.16558600  0.16642700  1
  Mn  Mn7  1  0.34890900  0.83441400  0.16642700  1
  Mn  Mn8  1  0.33441400  0.15109100  0.33357300  1
  Mn  Mn9  1  0.33362400  0.15067400  0.00000000  1
  Mn  Mn10  1  0.16558600  0.34890900  0.16642700  1
  Mn  Mn11  1  0.66558600  0.84890900  0.33357300  1
  Mn  Mn12  1  0.15067400  0.66637600  0.00000000  1
  Mn  Mn13  1  0.84890900  0.33441400  0.33357300  1
  Mn  Mn14  1  0.34932600  0.83362400  0.50000000  1
  Mn  Mn15  1  0.83441400  0.65109100  0.16642700  1
  Mn  Mn16  1  0.66637600  0.84932600  0.00000000  1
  Mn  Mn17  1  0.65109100  0.16558600  0.83357300  1
  Mn  Mn18  1  0.15109100  0.66558600  0.66642700  1
  Mn  Mn19  1  0.84890900  0.33441400  0.66642700  1
  Mn  Mn20  1  0.83441400  0.65109100  0.83357300  1
  Mn  Mn21  1  0.83362400  0.65067400  0.50000000  1
  Mn  Mn22  1  0.66558600  0.84890900  0.66642700  1
  Mn  Mn23  1  0.16558600  0.34890900  0.83357300  1
  Mn  Mn24  1  0.65067400  0.16637600  0.50000000  1
  Mn  Mn25  1  0.34890900  0.83441400  0.83357300  1
  Mn  Mn26  1  0.84932600  0.33362400  0.00000000  1
  Mn  Mn27  1  0.33441400  0.15109100  0.66642700  1
  O  O28  1  0.66513100  0.04258300  0.00000000  1
  O  O29  1  0.15536000  0.79588100  0.16715600  1
  O  O30  1  0.65463100  0.29724400  0.00000000  1
  O  O31  1  0.04252200  0.33255800  0.66686900  1
  O  O32  1  0.45747800  0.16744200  0.16686900  1
  O  O33  1  0.45747800  0.16744200  0.83313100  1
  O  O34  1  0.34464000  0.70411900  0.33284400  1
  O  O35  1  0.83486900  0.45741700  0.50000000  1
  O  O36  1  0.33255800  0.95747800  0.33313100  1
  O  O37  1  0.29724400  0.34536900  0.00000000  1
  O  O38  1  0.79588100  0.84464000  0.16715600  1
  O  O39  1  0.29588100  0.34464000  0.33284400  1
  O  O40  1  0.70411900  0.65536000  0.33284400  1
  O  O41  1  0.20275600  0.15463100  0.50000000  1
  O  O42  1  0.20411900  0.15536000  0.16715600  1
  O  O43  1  0.16744200  0.54252200  0.83313100  1
  O  O44  1  0.16744200  0.54252200  0.16686900  1
  O  O45  1  0.65536000  0.29588100  0.33284400  1
  O  O46  1  0.04252200  0.33255800  0.33313100  1
  O  O47  1  0.04258300  0.33486900  0.00000000  1
  O  O48  1  0.45741700  0.16513100  0.50000000  1
  O  O49  1  0.84464000  0.20411900  0.16715600  1
  O  O50  1  0.84536900  0.20275600  0.50000000  1
  O  O51  1  0.33255800  0.95747800  0.66686900  1
  O  O52  1  0.16513100  0.54258300  0.50000000  1
  O  O53  1  0.65536000  0.29588100  0.66715600  1
  O  O54  1  0.15463100  0.79724400  0.50000000  1
  O  O55  1  0.54252200  0.83255800  0.16686900  1
  O  O56  1  0.95747800  0.66744200  0.66686900  1
  O  O57  1  0.95747800  0.66744200  0.33313100  1
  O  O58  1  0.84464000  0.20411900  0.83284400  1
  O  O59  1  0.33486900  0.95741700  0.00000000  1
  O  O60  1  0.83255800  0.45747800  0.83313100  1
  O  O61  1  0.79724400  0.84536900  0.50000000  1
  O  O62  1  0.29588100  0.34464000  0.66715600  1
  O  O63  1  0.79588100  0.84464000  0.83284400  1
  O  O64  1  0.20411900  0.15536000  0.83284400  1
  O  O65  1  0.70275600  0.65463100  0.00000000  1
  O  O66  1  0.70411900  0.65536000  0.66715600  1
  O  O67  1  0.66744200  0.04252200  0.33313100  1
  O  O68  1  0.66744200  0.04252200  0.66686900  1
  O  O69  1  0.15536000  0.79588100  0.83284400  1
  O  O70  1  0.54252200  0.83255800  0.83313100  1
  O  O71  1  0.54258300  0.83486900  0.50000000  1
  O  O72  1  0.95741700  0.66513100  0.00000000  1
  O  O73  1  0.34464000  0.70411900  0.66715600  1
  O  O74  1  0.34536900  0.70275600  0.00000000  1
  O  O75  1  0.83255800  0.45747800  0.16686900  1
