# generated using pymatgen
data_LiAlFeO3
_symmetry_space_group_name_H-M   'P 1'
_cell_length_a   5.32143751
_cell_length_b   5.46784387
_cell_length_c   5.50282416
_cell_angle_alpha   65.02883590
_cell_angle_beta   66.18982509
_cell_angle_gamma   67.02522787
_symmetry_Int_Tables_number   1
_chemical_formula_structural   LiAlFeO3
_chemical_formula_sum   'Li2 Al2 Fe2 O6'
_cell_volume   128.04071913
_cell_formula_units_Z   2
loop_
 _symmetry_equiv_pos_site_id
 _symmetry_equiv_pos_as_xyz
  1  'x, y, z'
loop_
 _atom_site_type_symbol
 _atom_site_label
 _atom_site_symmetry_multiplicity
 _atom_site_fract_x
 _atom_site_fract_y
 _atom_site_fract_z
 _atom_site_occupancy
  Li  Li0  1  0.06934950  0.42550950  0.24908950  1
  Li  Li1  1  0.93065050  0.57449050  0.75091050  1
  Al  Al2  1  0.75551900  0.08086600  0.91490500  1
  Al  Al3  1  0.24448100  0.91913400  0.08509500  1
  Fe  Fe4  1  0.43309700  0.73583600  0.58969600  1
  Fe  Fe5  1  0.56690300  0.26416400  0.41030400  1
  O  O6  1  0.75203900  0.38710700  0.61041450  1
  O  O7  1  0.24796100  0.61289300  0.38958550  1
  O  O8  1  0.42774750  0.08011950  0.21108200  1
  O  O9  1  0.57225250  0.91988050  0.78891800  1
  O  O10  1  0.07402000  0.78831600  0.92139100  1
  O  O11  1  0.92598000  0.21168400  0.07860900  1
