# generated using pymatgen
data_LiV(PO3)3
_symmetry_space_group_name_H-M   'P 1'
_cell_length_a   6.49722411
_cell_length_b   6.49722411
_cell_length_c   9.74288300
_cell_angle_alpha   90.00000000
_cell_angle_beta   90.00000000
_cell_angle_gamma   120.00000000
_symmetry_Int_Tables_number   1
_chemical_formula_structural   LiV(PO3)3
_chemical_formula_sum   'Li2 V2 P6 O18'
_cell_volume   356.18351317
_cell_formula_units_Z   2
loop_
 _symmetry_equiv_pos_site_id
 _symmetry_equiv_pos_as_xyz
  1  'x, y, z'
loop_
 _atom_site_type_symbol
 _atom_site_label
 _atom_site_symmetry_multiplicity
 _atom_site_fract_x
 _atom_site_fract_y
 _atom_site_fract_z
 _atom_site_occupancy
  Li  Li0  1  0.00000000  0.00000000  0.50000000  1
  Li  Li1  1  0.00000000  0.00000000  0.00000000  1
  V  V2  1  0.33333333  0.66666667  0.50000000  1
  V  V3  1  0.33333333  0.66666667  0.00000000  1
  P  P4  1  0.41350933  0.05938367  0.75000000  1
  P  P5  1  0.64587433  0.05938367  0.25000000  1
  P  P6  1  0.94061633  0.58649067  0.25000000  1
  P  P7  1  0.94061633  0.35412567  0.75000000  1
  P  P8  1  0.64587433  0.58649067  0.75000000  1
  P  P9  1  0.41350933  0.35412567  0.25000000  1
  O  O10  1  0.88040433  0.31509967  0.25000000  1
  O  O11  1  0.68490033  0.11959567  0.75000000  1
  O  O12  1  0.43469533  0.31509967  0.75000000  1
  O  O13  1  0.43469533  0.11959567  0.25000000  1
  O  O14  1  0.68490033  0.56530467  0.25000000  1
  O  O15  1  0.88040433  0.56530467  0.75000000  1
  O  O16  1  0.29968533  0.93970567  0.88337650  1
  O  O17  1  0.29968533  0.93970567  0.61662350  1
  O  O18  1  0.64002033  0.93970567  0.38337650  1
  O  O19  1  0.64002033  0.93970567  0.11662350  1
  O  O20  1  0.06029433  0.70031467  0.11662350  1
  O  O21  1  0.06029433  0.70031467  0.38337650  1
  O  O22  1  0.06029433  0.35997967  0.88337650  1
  O  O23  1  0.06029433  0.35997967  0.61662350  1
  O  O24  1  0.64002033  0.70031467  0.61662350  1
  O  O25  1  0.64002033  0.70031467  0.88337650  1
  O  O26  1  0.29968533  0.35997967  0.38337650  1
  O  O27  1  0.29968533  0.35997967  0.11662350  1
