# generated using pymatgen
data_Li4Cr3Ni3(TeO8)2
_symmetry_space_group_name_H-M   'P 1'
_cell_length_a   10.25774600
_cell_length_b   5.91706800
_cell_length_c   9.62855920
_cell_angle_alpha   90.00000000
_cell_angle_beta   90.92221146
_cell_angle_gamma   90.00000000
_symmetry_Int_Tables_number   1
_chemical_formula_structural   Li4Cr3Ni3(TeO8)2
_chemical_formula_sum   'Li8 Cr6 Ni6 Te4 O32'
_cell_volume   584.33721700
_cell_formula_units_Z   2
loop_
 _symmetry_equiv_pos_site_id
 _symmetry_equiv_pos_as_xyz
  1  'x, y, z'
loop_
 _atom_site_type_symbol
 _atom_site_label
 _atom_site_symmetry_multiplicity
 _atom_site_fract_x
 _atom_site_fract_y
 _atom_site_fract_z
 _atom_site_occupancy
  Li  Li0  1  0.66457800  0.00000000  0.90890300  1
  Li  Li1  1  0.99611600  0.00000000  0.98499200  1
  Li  Li2  1  0.99876600  0.00000000  0.48987800  1
  Li  Li3  1  0.83326400  0.50000000  0.41053700  1
  Li  Li4  1  0.16457800  0.50000000  0.90890300  1
  Li  Li5  1  0.49611600  0.50000000  0.98499200  1
  Li  Li6  1  0.49876600  0.50000000  0.48987800  1
  Li  Li7  1  0.33326400  0.00000000  0.41053700  1
  Cr  Cr8  1  0.58625500  0.24544200  0.21285300  1
  Cr  Cr9  1  0.58625500  0.75455800  0.21285300  1
  Cr  Cr10  1  0.67191600  0.50000000  0.71398300  1
  Cr  Cr11  1  0.08625500  0.74544200  0.21285300  1
  Cr  Cr12  1  0.08625500  0.25455800  0.21285300  1
  Cr  Cr13  1  0.17191600  0.00000000  0.71398300  1
  Ni  Ni14  1  0.82991100  0.00000000  0.21271900  1
  Ni  Ni15  1  0.91579250  0.74376050  0.71262400  1
  Ni  Ni16  1  0.91579250  0.25623950  0.71262400  1
  Ni  Ni17  1  0.32991100  0.50000000  0.21271900  1
  Ni  Ni18  1  0.41579250  0.24376050  0.71262400  1
  Ni  Ni19  1  0.41579250  0.75623950  0.71262400  1
  Te  Te20  1  0.66981000  0.00000000  0.48530700  1
  Te  Te21  1  0.83498900  0.50000000  0.98342100  1
  Te  Te22  1  0.16981000  0.50000000  0.48530700  1
  Te  Te23  1  0.33498900  0.00000000  0.98342100  1
  O  O24  1  0.58806900  0.24436100  0.59023400  1
  O  O25  1  0.51867400  0.00000000  0.34451200  1
  O  O26  1  0.66234700  0.00000000  0.10865800  1
  O  O27  1  0.50366600  0.50000000  0.30321800  1
  O  O28  1  0.50375500  0.50000000  0.79868700  1
  O  O29  1  0.58806900  0.75563900  0.59023400  1
  O  O30  1  0.73826250  0.22611450  0.35008800  1
  O  O31  1  0.73826250  0.77388550  0.35008800  1
  O  O32  1  0.67000100  0.50000000  0.09434300  1
  O  O33  1  0.83288900  0.00000000  0.58917300  1
  O  O34  1  0.75375050  0.72056350  0.85212100  1
  O  O35  1  0.75375050  0.27943650  0.85212100  1
  O  O36  1  0.82990500  0.50000000  0.61019500  1
  O  O37  1  0.91659300  0.74560000  0.09044000  1
  O  O38  1  0.98101700  0.50000000  0.85254400  1
  O  O39  1  0.91659300  0.25440000  0.09044000  1
  O  O40  1  0.08806900  0.74436100  0.59023400  1
  O  O41  1  0.01867400  0.50000000  0.34451200  1
  O  O42  1  0.16234700  0.50000000  0.10865800  1
  O  O43  1  0.00366600  0.00000000  0.30321800  1
  O  O44  1  0.00375500  0.00000000  0.79868700  1
  O  O45  1  0.08806900  0.25563900  0.59023400  1
  O  O46  1  0.23826250  0.72611450  0.35008800  1
  O  O47  1  0.23826250  0.27388550  0.35008800  1
  O  O48  1  0.17000100  0.00000000  0.09434300  1
  O  O49  1  0.33288900  0.50000000  0.58917300  1
  O  O50  1  0.25375050  0.22056350  0.85212100  1
  O  O51  1  0.25375050  0.77943650  0.85212100  1
  O  O52  1  0.32990500  0.00000000  0.61019500  1
  O  O53  1  0.41659300  0.24560000  0.09044000  1
  O  O54  1  0.48101700  0.00000000  0.85254400  1
  O  O55  1  0.41659300  0.75440000  0.09044000  1
