# generated using pymatgen
data_VO2F
_symmetry_space_group_name_H-M   'P 1'
_cell_length_a   9.19620000
_cell_length_b   5.16348800
_cell_length_c   13.08492725
_cell_angle_alpha   90.00000000
_cell_angle_beta   91.77354600
_cell_angle_gamma   90.00000000
_symmetry_Int_Tables_number   1
_chemical_formula_structural   VO2F
_chemical_formula_sum   'V12 O24 F12'
_cell_volume   621.03316929
_cell_formula_units_Z   12
loop_
 _symmetry_equiv_pos_site_id
 _symmetry_equiv_pos_as_xyz
  1  'x, y, z'
loop_
 _atom_site_type_symbol
 _atom_site_label
 _atom_site_symmetry_multiplicity
 _atom_site_fract_x
 _atom_site_fract_y
 _atom_site_fract_z
 _atom_site_occupancy
  V  V0  1  0.52790200  0.45818600  0.49493500  1
  V  V1  1  0.52790200  0.54181400  0.99493500  1
  V  V2  1  0.85608450  0.51482550  0.83005000  1
  V  V3  1  0.68765700  0.95980700  0.66152000  1
  V  V4  1  0.85608450  0.48517450  0.33005000  1
  V  V5  1  0.68765700  0.04019300  0.16152000  1
  V  V6  1  0.02790200  0.95818600  0.49493500  1
  V  V7  1  0.02790200  0.04181400  0.99493500  1
  V  V8  1  0.35608450  0.01482550  0.83005000  1
  V  V9  1  0.18765700  0.45980700  0.66152000  1
  V  V10  1  0.35608450  0.98517450  0.33005000  1
  V  V11  1  0.18765700  0.54019300  0.16152000  1
  O  O12  1  0.70745700  0.71696900  0.75144500  1
  O  O13  1  0.61609050  0.72646850  0.08393200  1
  O  O14  1  0.94484450  0.30273150  0.91736300  1
  O  O15  1  0.70745700  0.28303100  0.25144500  1
  O  O16  1  0.65711350  0.44030850  0.91870800  1
  O  O17  1  0.82598250  0.91204750  0.58730300  1
  O  O18  1  0.98926900  0.41723500  0.25356700  1
  O  O19  1  0.98926900  0.58276500  0.75356700  1
  O  O20  1  0.65711350  0.55969150  0.41870800  1
  O  O21  1  0.82598250  0.08795250  0.08730300  1
  O  O22  1  0.94484450  0.69726850  0.41736300  1
  O  O23  1  0.61609050  0.27353150  0.58393200  1
  O  O24  1  0.20745700  0.21696900  0.75144500  1
  O  O25  1  0.11609050  0.22646850  0.08393200  1
  O  O26  1  0.44484450  0.80273150  0.91736300  1
  O  O27  1  0.20745700  0.78303100  0.25144500  1
  O  O28  1  0.15711350  0.94030850  0.91870800  1
  O  O29  1  0.32598250  0.41204750  0.58730300  1
  O  O30  1  0.48926900  0.91723500  0.25356700  1
  O  O31  1  0.48926900  0.08276500  0.75356700  1
  O  O32  1  0.15711350  0.05969150  0.41870800  1
  O  O33  1  0.32598250  0.58795250  0.08730300  1
  O  O34  1  0.44484450  0.19726850  0.41736300  1
  O  O35  1  0.11609050  0.77353150  0.58393200  1
  F  F36  1  0.78145650  0.21474250  0.75114000  1
  F  F37  1  0.86965950  0.19526950  0.41721600  1
  F  F38  1  0.53648400  0.78254600  0.58282100  1
  F  F39  1  0.78145650  0.78525750  0.25114000  1
  F  F40  1  0.53648400  0.21745400  0.08282100  1
  F  F41  1  0.86965950  0.80473050  0.91721600  1
  F  F42  1  0.28145650  0.71474250  0.75114000  1
  F  F43  1  0.36965950  0.69526950  0.41721600  1
  F  F44  1  0.03648400  0.28254600  0.58282100  1
  F  F45  1  0.28145650  0.28525750  0.25114000  1
  F  F46  1  0.03648400  0.71745400  0.08282100  1
  F  F47  1  0.36965950  0.30473050  0.91721600  1
