# generated using pymatgen
data_Li2Ti2CoO6
_symmetry_space_group_name_H-M   'P 1'
_cell_length_a   5.12093096
_cell_length_b   9.05482617
_cell_length_c   10.42146500
_cell_angle_alpha   90.00000000
_cell_angle_beta   90.00000000
_cell_angle_gamma   90.00000000
_symmetry_Int_Tables_number   1
_chemical_formula_structural   Li2Ti2CoO6
_chemical_formula_sum   'Li8 Ti8 Co4 O24'
_cell_volume   483.23436556
_cell_formula_units_Z   4
loop_
 _symmetry_equiv_pos_site_id
 _symmetry_equiv_pos_as_xyz
  1  'x, y, z'
loop_
 _atom_site_type_symbol
 _atom_site_label
 _atom_site_symmetry_multiplicity
 _atom_site_fract_x
 _atom_site_fract_y
 _atom_site_fract_z
 _atom_site_occupancy
  Li  Li0  1  0.41797600  0.25000000  0.75000000  1
  Li  Li1  1  0.58202400  0.25000000  0.25000000  1
  Li  Li2  1  0.91797600  0.25000000  0.75000000  1
  Li  Li3  1  0.08202400  0.25000000  0.25000000  1
  Li  Li4  1  0.91797600  0.75000000  0.75000000  1
  Li  Li5  1  0.08202400  0.75000000  0.25000000  1
  Li  Li6  1  0.41797600  0.75000000  0.75000000  1
  Li  Li7  1  0.58202400  0.75000000  0.25000000  1
  Ti  Ti8  1  0.50000000  0.16127375  0.00000000  1
  Ti  Ti9  1  0.00000000  0.16127375  0.50000000  1
  Ti  Ti10  1  0.50000000  0.33872625  0.50000000  1
  Ti  Ti11  1  0.00000000  0.33872625  0.00000000  1
  Ti  Ti12  1  0.00000000  0.66127375  0.00000000  1
  Ti  Ti13  1  0.50000000  0.66127375  0.50000000  1
  Ti  Ti14  1  0.00000000  0.83872625  0.50000000  1
  Ti  Ti15  1  0.50000000  0.83872625  0.00000000  1
  Co  Co16  1  0.00000000  0.00000000  0.00000000  1
  Co  Co17  1  0.00000000  0.50000000  0.50000000  1
  Co  Co18  1  0.50000000  0.50000000  0.00000000  1
  Co  Co19  1  0.50000000  0.00000000  0.50000000  1
  O  O20  1  0.65434975  0.50000000  0.59703250  1
  O  O21  1  0.84565025  0.50000000  0.09703250  1
  O  O22  1  0.65434975  0.00000000  0.90296750  1
  O  O23  1  0.84565025  0.00000000  0.40296750  1
  O  O24  1  0.18062950  0.18464425  0.89241000  1
  O  O25  1  0.31937050  0.18464425  0.39241000  1
  O  O26  1  0.68062950  0.18464425  0.60759000  1
  O  O27  1  0.81937050  0.18464425  0.10759000  1
  O  O28  1  0.31937050  0.31535575  0.10759000  1
  O  O29  1  0.68062950  0.31535575  0.89241000  1
  O  O30  1  0.81937050  0.31535575  0.39241000  1
  O  O31  1  0.18062950  0.31535575  0.60759000  1
  O  O32  1  0.15434975  0.00000000  0.59703250  1
  O  O33  1  0.34565025  0.00000000  0.09703250  1
  O  O34  1  0.15434975  0.50000000  0.90296750  1
  O  O35  1  0.34565025  0.50000000  0.40296750  1
  O  O36  1  0.68062950  0.68464425  0.89241000  1
  O  O37  1  0.81937050  0.68464425  0.39241000  1
  O  O38  1  0.18062950  0.68464425  0.60759000  1
  O  O39  1  0.31937050  0.68464425  0.10759000  1
  O  O40  1  0.81937050  0.81535575  0.10759000  1
  O  O41  1  0.18062950  0.81535575  0.89241000  1
  O  O42  1  0.31937050  0.81535575  0.39241000  1
  O  O43  1  0.68062950  0.81535575  0.60759000  1
