# generated using pymatgen
data_NaSbAsCO7
_symmetry_space_group_name_H-M   'P 1'
_cell_length_a   5.67436300
_cell_length_b   6.91753600
_cell_length_c   9.40365650
_cell_angle_alpha   90.00000000
_cell_angle_beta   91.00323319
_cell_angle_gamma   90.00000000
_symmetry_Int_Tables_number   1
_chemical_formula_structural   NaSbAsCO7
_chemical_formula_sum   'Na2 Sb2 As2 C2 O14'
_cell_volume   369.06148163
_cell_formula_units_Z   2
loop_
 _symmetry_equiv_pos_site_id
 _symmetry_equiv_pos_as_xyz
  1  'x, y, z'
loop_
 _atom_site_type_symbol
 _atom_site_label
 _atom_site_symmetry_multiplicity
 _atom_site_fract_x
 _atom_site_fract_y
 _atom_site_fract_z
 _atom_site_occupancy
  Na  Na0  1  0.76358000  0.49135500  0.20869600  1
  Na  Na1  1  0.23642000  0.99135500  0.79130400  1
  Sb  Sb2  1  0.20627300  0.75961600  0.34264400  1
  Sb  Sb3  1  0.79372700  0.25961600  0.65735600  1
  As  As4  1  0.28305100  0.25320300  0.42834400  1
  As  As5  1  0.71694900  0.75320300  0.57165600  1
  C  C6  1  0.27684800  0.74274200  0.07460000  1
  C  C7  1  0.72315200  0.24274200  0.92540000  1
  O  O8  1  0.69044000  0.25574600  0.05348400  1
  O  O9  1  0.06261000  0.74445700  0.13544300  1
  O  O10  1  0.45130800  0.72970900  0.17406600  1
  O  O11  1  0.20540300  0.05962700  0.32086500  1
  O  O12  1  0.17948900  0.45157200  0.33425400  1
  O  O13  1  0.84485400  0.73639400  0.40587900  1
  O  O14  1  0.58579100  0.27342800  0.45835500  1
  O  O15  1  0.41420900  0.77342800  0.54164500  1
  O  O16  1  0.15514600  0.23639400  0.59412100  1
  O  O17  1  0.82051100  0.95157200  0.66574600  1
  O  O18  1  0.79459700  0.55962700  0.67913500  1
  O  O19  1  0.54869200  0.22970900  0.82593400  1
  O  O20  1  0.93739000  0.24445700  0.86455700  1
  O  O21  1  0.30956000  0.75574600  0.94651600  1
