# generated using pymatgen
data_VSb(PO4)2
_symmetry_space_group_name_H-M   'P 1'
_cell_length_a   5.06594231
_cell_length_b   5.93967300
_cell_length_c   10.99818434
_cell_angle_alpha   90.00000000
_cell_angle_beta   97.42734877
_cell_angle_gamma   90.00000000
_symmetry_Int_Tables_number   1
_chemical_formula_structural   VSb(PO4)2
_chemical_formula_sum   'V2 Sb2 P4 O16'
_cell_volume   328.15912198
_cell_formula_units_Z   2
loop_
 _symmetry_equiv_pos_site_id
 _symmetry_equiv_pos_as_xyz
  1  'x, y, z'
loop_
 _atom_site_type_symbol
 _atom_site_label
 _atom_site_symmetry_multiplicity
 _atom_site_fract_x
 _atom_site_fract_y
 _atom_site_fract_z
 _atom_site_occupancy
  V  V0  1  0.06584350  0.25000000  0.29837300  1
  V  V1  1  0.93415650  0.75000000  0.70162700  1
  Sb  Sb2  1  0.46778150  0.25000000  0.77164800  1
  Sb  Sb3  1  0.53221850  0.75000000  0.22835200  1
  P  P4  1  0.89790250  0.25000000  0.57645000  1
  P  P5  1  0.10209750  0.75000000  0.42355000  1
  P  P6  1  0.40738050  0.75000000  0.87797600  1
  P  P7  1  0.59261950  0.25000000  0.12202400  1
  O  O8  1  0.16495850  0.75000000  0.56224900  1
  O  O9  1  0.83504150  0.25000000  0.43775100  1
  O  O10  1  0.20409850  0.25000000  0.61349900  1
  O  O11  1  0.79590150  0.75000000  0.38650100  1
  O  O12  1  0.68002950  0.75000000  0.83252200  1
  O  O13  1  0.31997050  0.25000000  0.16747800  1
  O  O14  1  0.58788450  0.25000000  0.98529000  1
  O  O15  1  0.41211550  0.75000000  0.01471000  1
  O  O16  1  0.77196050  0.04245600  0.63714200  1
  O  O17  1  0.77196050  0.45754400  0.63714200  1
  O  O18  1  0.22803950  0.54245600  0.36285800  1
  O  O19  1  0.22803950  0.95754400  0.36285800  1
  O  O20  1  0.22995150  0.95129600  0.81279300  1
  O  O21  1  0.22995150  0.54870400  0.81279300  1
  O  O22  1  0.77004850  0.04870400  0.18720700  1
  O  O23  1  0.77004850  0.45129600  0.18720700  1
