# generated using pymatgen
data_Li8NbNi3(PO4)6
_symmetry_space_group_name_H-M   'P 1'
_cell_length_a   8.87873158
_cell_length_b   8.87873158
_cell_length_c   21.42551588
_cell_angle_alpha   90.00000000
_cell_angle_beta   90.00000000
_cell_angle_gamma   120.00000000
_symmetry_Int_Tables_number   1
_chemical_formula_structural   Li8NbNi3(PO4)6
_chemical_formula_sum   'Li24 Nb3 Ni9 P18 O72'
_cell_volume   1462.72866672
_cell_formula_units_Z   3
loop_
 _symmetry_equiv_pos_site_id
 _symmetry_equiv_pos_as_xyz
  1  'x, y, z'
loop_
 _atom_site_type_symbol
 _atom_site_label
 _atom_site_symmetry_multiplicity
 _atom_site_fract_x
 _atom_site_fract_y
 _atom_site_fract_z
 _atom_site_occupancy
  Li  Li0  1  0.04550400  0.61388700  0.26462600  1
  Li  Li1  1  0.56838300  0.95449600  0.26462600  1
  Li  Li2  1  0.38611300  0.43161700  0.26462600  1
  Li  Li3  1  0.33333333  0.66666667  0.64069267  1
  Li  Li4  1  0.26979667  0.90444033  0.06293233  1
  Li  Li5  1  0.33333333  0.66666667  0.14398767  1
  Li  Li6  1  0.09555967  0.36535633  0.06293233  1
  Li  Li7  1  0.63464367  0.73020333  0.06293233  1
  Li  Li8  1  0.71217067  0.94722033  0.59795933  1
  Li  Li9  1  0.23504967  0.28782933  0.59795933  1
  Li  Li10  1  0.05277967  0.76495033  0.59795933  1
  Li  Li11  1  0.00000000  0.00000000  0.97402600  1
  Li  Li12  1  0.93646333  0.23777367  0.39626567  1
  Li  Li13  1  0.00000000  0.00000000  0.47732100  1
  Li  Li14  1  0.76222633  0.69868967  0.39626567  1
  Li  Li15  1  0.30131033  0.06353667  0.39626567  1
  Li  Li16  1  0.37883733  0.28055367  0.93129267  1
  Li  Li17  1  0.90171633  0.62116267  0.93129267  1
  Li  Li18  1  0.71944633  0.09828367  0.93129267  1
  Li  Li19  1  0.66666667  0.33333333  0.30735933  1
  Li  Li20  1  0.60313000  0.57110700  0.72959900  1
  Li  Li21  1  0.66666667  0.33333333  0.81065433  1
  Li  Li22  1  0.42889300  0.03202300  0.72959900  1
  Li  Li23  1  0.96797700  0.39687000  0.72959900  1
  Nb  Nb24  1  0.33333333  0.66666667  0.81301167  1
  Nb  Nb25  1  0.00000000  0.00000000  0.14634500  1
  Nb  Nb26  1  0.66666667  0.33333333  0.47967833  1
  Ni  Ni27  1  0.33333333  0.66666667  0.31719367  1
  Ni  Ni28  1  0.33333333  0.66666667  0.51889267  1
  Ni  Ni29  1  0.33333333  0.66666667  0.01466067  1
  Ni  Ni30  1  0.00000000  0.00000000  0.65052700  1
  Ni  Ni31  1  0.00000000  0.00000000  0.85222600  1
  Ni  Ni32  1  0.00000000  0.00000000  0.34799400  1
  Ni  Ni33  1  0.66666667  0.33333333  0.98386033  1
  Ni  Ni34  1  0.66666667  0.33333333  0.18555933  1
  Ni  Ni35  1  0.66666667  0.33333333  0.68132733  1
  P  P36  1  0.30254900  0.00416800  0.25208100  1
  P  P37  1  0.99583200  0.29838100  0.25208100  1
  P  P38  1  0.70161900  0.69745100  0.25208100  1
  P  P39  1  0.96180967  0.62400133  0.08400433  1
  P  P40  1  0.66219167  0.03819033  0.08400433  1
  P  P41  1  0.37599867  0.33780833  0.08400433  1
  P  P42  1  0.96921567  0.33750133  0.58541433  1
  P  P43  1  0.66249867  0.63171433  0.58541433  1
  P  P44  1  0.36828567  0.03078433  0.58541433  1
  P  P45  1  0.62847633  0.95733467  0.41733767  1
  P  P46  1  0.32885833  0.37152367  0.41733767  1
  P  P47  1  0.04266533  0.67114167  0.41733767  1
  P  P48  1  0.63588233  0.67083467  0.91874767  1
  P  P49  1  0.32916533  0.96504767  0.91874767  1
  P  P50  1  0.03495233  0.36411767  0.91874767  1
  P  P51  1  0.29514300  0.29066800  0.75067100  1
  P  P52  1  0.99552500  0.70485700  0.75067100  1
  P  P53  1  0.70933200  0.00447500  0.75067100  1
  O  O54  1  0.29550200  0.85188000  0.97706200  1
  O  O55  1  0.14812000  0.44362200  0.97706200  1
  O  O56  1  0.55637800  0.70449800  0.97706200  1
  O  O57  1  0.31962700  0.85893100  0.85974000  1
  O  O58  1  0.14106900  0.46069600  0.85974000  1
  O  O59  1  0.49897967  0.14160533  0.25240633  1
  O  O60  1  0.53930400  0.68037300  0.85974000  1
  O  O61  1  0.28781033  0.82206467  0.25071967  1
  O  O62  1  0.85839467  0.35737433  0.25240633  1
  O  O63  1  0.17793533  0.46574567  0.25071967  1
  O  O64  1  0.53425433  0.71218967  0.25071967  1
  O  O65  1  0.86784333  0.52933767  0.14250567  1
  O  O66  1  0.01533667  0.82393333  0.08521233  1
  O  O67  1  0.66149433  0.13215667  0.14250567  1
  O  O68  1  0.64262567  0.50102033  0.25240633  1
  O  O69  1  0.14089233  0.62906067  0.08191367  1
  O  O70  1  0.48816833  0.85910767  0.08191367  1
  O  O71  1  0.80859667  0.98466333  0.08521233  1
  O  O72  1  0.37093933  0.51183167  0.08191367  1
  O  O73  1  0.47066233  0.33850567  0.14250567  1
  O  O74  1  0.17606667  0.19140333  0.08521233  1
  O  O75  1  0.11194533  0.63640467  0.35634467  1
  O  O76  1  0.52445933  0.88805467  0.35634467  1
  O  O77  1  0.36359533  0.47554067  0.35634467  1
  O  O78  1  0.96216867  0.18521333  0.31039533  1
  O  O79  1  0.81478667  0.77695533  0.31039533  1
  O  O80  1  0.22304467  0.03783133  0.31039533  1
  O  O81  1  0.98629367  0.19226433  0.19307333  1
  O  O82  1  0.80773567  0.79402933  0.19307333  1
  O  O83  1  0.16564633  0.47493867  0.58573967  1
  O  O84  1  0.20597067  0.01370633  0.19307333  1
  O  O85  1  0.95447700  0.15539800  0.58405300  1
  O  O86  1  0.52506133  0.69070767  0.58573967  1
  O  O87  1  0.84460200  0.79907900  0.58405300  1
  O  O88  1  0.20092100  0.04552300  0.58405300  1
  O  O89  1  0.53451000  0.86267100  0.47583900  1
  O  O90  1  0.68200333  0.15726667  0.41854567  1
  O  O91  1  0.32816100  0.46549000  0.47583900  1
  O  O92  1  0.30929233  0.83435367  0.58573967  1
  O  O93  1  0.80755900  0.96239400  0.41524700  1
  O  O94  1  0.15483500  0.19244100  0.41524700  1
  O  O95  1  0.47526333  0.31799667  0.41854567  1
  O  O96  1  0.03760600  0.84516500  0.41524700  1
  O  O97  1  0.13732900  0.67183900  0.47583900  1
  O  O98  1  0.84273333  0.52473667  0.41854567  1
  O  O99  1  0.77861200  0.96973800  0.68967800  1
  O  O100  1  0.19112600  0.22138800  0.68967800  1
  O  O101  1  0.03026200  0.80887400  0.68967800  1
  O  O102  1  0.62883533  0.51854667  0.64372867  1
  O  O103  1  0.48145333  0.11028867  0.64372867  1
  O  O104  1  0.88971133  0.37116467  0.64372867  1
  O  O105  1  0.65296033  0.52559767  0.52640667  1
  O  O106  1  0.47440233  0.12736267  0.52640667  1
  O  O107  1  0.83231300  0.80827200  0.91907300  1
  O  O108  1  0.87263733  0.34703967  0.52640667  1
  O  O109  1  0.62114367  0.48873133  0.91738633  1
  O  O110  1  0.19172800  0.02404100  0.91907300  1
  O  O111  1  0.51126867  0.13241233  0.91738633  1
  O  O112  1  0.86758767  0.37885633  0.91738633  1
  O  O113  1  0.20117667  0.19600433  0.80917233  1
  O  O114  1  0.34867000  0.49060000  0.75187900  1
  O  O115  1  0.99482767  0.79882333  0.80917233  1
  O  O116  1  0.97595900  0.16768700  0.91907300  1
  O  O117  1  0.47422567  0.29572733  0.74858033  1
  O  O118  1  0.82150167  0.52577433  0.74858033  1
  O  O119  1  0.14193000  0.65133000  0.75187900  1
  O  O120  1  0.70427267  0.17849833  0.74858033  1
  O  O121  1  0.80399567  0.00517233  0.80917233  1
  O  O122  1  0.50940000  0.85807000  0.75187900  1
  O  O123  1  0.44527867  0.30307133  0.02301133  1
  O  O124  1  0.85779267  0.55472133  0.02301133  1
  O  O125  1  0.69692867  0.14220733  0.02301133  1
