# generated using pymatgen
data_Mg4Sc3(SiO3)8
_symmetry_space_group_name_H-M   'P 1'
_cell_length_a   5.44018500
_cell_length_b   8.97921700
_cell_length_c   9.45088371
_cell_angle_alpha   90.00000000
_cell_angle_beta   90.15075583
_cell_angle_gamma   90.00000000
_symmetry_Int_Tables_number   1
_chemical_formula_structural   Mg4Sc3(SiO3)8
_chemical_formula_sum   'Mg4 Sc3 Si8 O24'
_cell_volume   461.66085561
_cell_formula_units_Z   1
loop_
 _symmetry_equiv_pos_site_id
 _symmetry_equiv_pos_as_xyz
  1  'x, y, z'
loop_
 _atom_site_type_symbol
 _atom_site_label
 _atom_site_symmetry_multiplicity
 _atom_site_fract_x
 _atom_site_fract_y
 _atom_site_fract_z
 _atom_site_occupancy
  Mg  Mg0  1  0.50000000  0.72887600  0.00000000  1
  Mg  Mg1  1  0.50000000  0.23632900  0.50000000  1
  Mg  Mg2  1  0.50000000  0.60270100  0.50000000  1
  Mg  Mg3  1  0.00000000  0.76435700  0.50000000  1
  Sc  Sc4  1  0.50000000  0.11692800  0.00000000  1
  Sc  Sc5  1  0.00000000  0.91176800  0.00000000  1
  Sc  Sc6  1  0.00000000  0.40507200  0.50000000  1
  Si  Si7  1  0.17697100  0.58894800  0.20570000  1
  Si  Si8  1  0.67773700  0.41079700  0.20805100  1
  Si  Si9  1  0.17938700  0.08650200  0.29481200  1
  Si  Si10  1  0.67489700  0.90908100  0.29715200  1
  Si  Si11  1  0.82061300  0.08650200  0.70518800  1
  Si  Si12  1  0.32510300  0.90908100  0.70284800  1
  Si  Si13  1  0.32226300  0.41079700  0.79194900  1
  Si  Si14  1  0.82302900  0.58894800  0.79430000  1
  O  O15  1  0.17857100  0.07985300  0.12416600  1
  O  O16  1  0.66142100  0.90048200  0.12366300  1
  O  O17  1  0.65544400  0.24751800  0.14459800  1
  O  O18  1  0.18565400  0.74584500  0.12043900  1
  O  O19  1  0.93466000  0.49305100  0.15782400  1
  O  O20  1  0.44846000  0.52134000  0.15076300  1
  O  O21  1  0.44794100  0.01694900  0.35514500  1
  O  O22  1  0.94579100  0.98123600  0.35078500  1
  O  O23  1  0.18330100  0.24271200  0.38141300  1
  O  O24  1  0.68558900  0.75368100  0.38259400  1
  O  O25  1  0.66031600  0.40922200  0.38377300  1
  O  O26  1  0.17629800  0.59781900  0.38062300  1
  O  O27  1  0.33968400  0.40922200  0.61622700  1
  O  O28  1  0.82370200  0.59781900  0.61937700  1
  O  O29  1  0.81669900  0.24271200  0.61858700  1
  O  O30  1  0.31441100  0.75368100  0.61740600  1
  O  O31  1  0.55205900  0.01694900  0.64485500  1
  O  O32  1  0.05420900  0.98123600  0.64921500  1
  O  O33  1  0.06534000  0.49305100  0.84217600  1
  O  O34  1  0.55154000  0.52134000  0.84923700  1
  O  O35  1  0.34455600  0.24751800  0.85540200  1
  O  O36  1  0.81434600  0.74584500  0.87956100  1
  O  O37  1  0.82142900  0.07985300  0.87583400  1
  O  O38  1  0.33857900  0.90048200  0.87633700  1
