# generated using pymatgen
data_Rb5FeO4
_symmetry_space_group_name_H-M   'P 1'
_cell_length_a   6.65806850
_cell_length_b   8.06386450
_cell_length_c   8.85079000
_cell_angle_alpha   90.00000000
_cell_angle_beta   90.00000000
_cell_angle_gamma   90.00000000
_symmetry_Int_Tables_number   1
_chemical_formula_structural   Rb5FeO4
_chemical_formula_sum   'Rb10 Fe2 O8'
_cell_volume   475.19681053
_cell_formula_units_Z   2
loop_
 _symmetry_equiv_pos_site_id
 _symmetry_equiv_pos_as_xyz
  1  'x, y, z'
loop_
 _atom_site_type_symbol
 _atom_site_label
 _atom_site_symmetry_multiplicity
 _atom_site_fract_x
 _atom_site_fract_y
 _atom_site_fract_z
 _atom_site_occupancy
  Rb  Rb0  1  0.85191750  0.00000000  0.50000000  1
  Rb  Rb1  1  0.14808250  0.50000000  0.00000000  1
  Rb  Rb2  1  0.26219150  0.73867100  0.69120050  1
  Rb  Rb3  1  0.26219150  0.26132900  0.69120050  1
  Rb  Rb4  1  0.26219150  0.73867100  0.30879950  1
  Rb  Rb5  1  0.26219150  0.26132900  0.30879950  1
  Rb  Rb6  1  0.73780850  0.76132900  0.19120050  1
  Rb  Rb7  1  0.73780850  0.23867100  0.19120050  1
  Rb  Rb8  1  0.73780850  0.76132900  0.80879950  1
  Rb  Rb9  1  0.73780850  0.23867100  0.80879950  1
  Fe  Fe10  1  0.79180500  0.50000000  0.50000000  1
  Fe  Fe11  1  0.20819500  0.00000000  0.00000000  1
  O  O12  1  0.95254900  0.50000000  0.68648350  1
  O  O13  1  0.95254900  0.50000000  0.31351650  1
  O  O14  1  0.04745100  0.00000000  0.18648350  1
  O  O15  1  0.04745100  0.00000000  0.81351650  1
  O  O16  1  0.63290550  0.70413550  0.50000000  1
  O  O17  1  0.63290550  0.29586450  0.50000000  1
  O  O18  1  0.36709450  0.79586450  0.00000000  1
  O  O19  1  0.36709450  0.20413550  0.00000000  1
