# generated using pymatgen
data_Li4Mn3Nb2Cu3O16
_symmetry_space_group_name_H-M   'P 1'
_cell_length_a   5.89346769
_cell_length_b   5.93680984
_cell_length_c   9.79279867
_cell_angle_alpha   92.41015635
_cell_angle_beta   89.71978510
_cell_angle_gamma   118.82839633
_symmetry_Int_Tables_number   1
_chemical_formula_structural   Li4Mn3Nb2Cu3O16
_chemical_formula_sum   'Li4 Mn3 Nb2 Cu3 O16'
_cell_volume   299.85902991
_cell_formula_units_Z   1
loop_
 _symmetry_equiv_pos_site_id
 _symmetry_equiv_pos_as_xyz
  1  'x, y, z'
loop_
 _atom_site_type_symbol
 _atom_site_label
 _atom_site_symmetry_multiplicity
 _atom_site_fract_x
 _atom_site_fract_y
 _atom_site_fract_z
 _atom_site_occupancy
  Li  Li0  1  0.67635900  0.34628300  0.09614000  1
  Li  Li1  1  0.99553400  0.98958700  0.00663100  1
  Li  Li2  1  0.99456800  0.99279000  0.51424500  1
  Li  Li3  1  0.33318700  0.67537500  0.59774900  1
  Mn  Mn4  1  0.83087100  0.65691000  0.77955400  1
  Mn  Mn5  1  0.66238200  0.82857700  0.28485000  1
  Mn  Mn6  1  0.16412300  0.82622900  0.28389600  1
  Nb  Nb7  1  0.64441300  0.30964800  0.51489500  1
  Nb  Nb8  1  0.33537100  0.65964700  0.00455300  1
  Cu  Cu9  1  0.83003300  0.16462300  0.78887000  1
  Cu  Cu10  1  0.33549900  0.16350300  0.79039800  1
  Cu  Cu11  1  0.16818300  0.33782900  0.28617800  1
  O  O12  1  0.81609000  0.14575800  0.41226300  1
  O  O13  1  0.49939900  0.04178600  0.64245100  1
  O  O14  1  0.67026900  0.34302200  0.87912600  1
  O  O15  1  0.99968400  0.99284700  0.70397500  1
  O  O16  1  0.99599600  0.99537900  0.19562800  1
  O  O17  1  0.32268800  0.15285500  0.40510500  1
  O  O18  1  0.96991700  0.50261200  0.65428400  1
  O  O19  1  0.55774400  0.53379200  0.64495000  1
  O  O20  1  0.18062600  0.32348600  0.92703400  1
  O  O21  1  0.84124900  0.67892300  0.39049700  1
  O  O22  1  0.51445900  0.54929400  0.15682600  1
  O  O23  1  0.04145000  0.53876000  0.15986300  1
  O  O24  1  0.33742500  0.67587500  0.38435800  1
  O  O25  1  0.66300600  0.81613800  0.90530900  1
  O  O26  1  0.48155300  0.96623800  0.17151200  1
  O  O27  1  0.13822000  0.79223300  0.91102500  1
