# generated using pymatgen
data_Mn3Cr2Co3O16
_symmetry_space_group_name_H-M   'P 1'
_cell_length_a   9.83054088
_cell_length_b   5.71105769
_cell_length_c   8.80085269
_cell_angle_alpha   90.00000000
_cell_angle_beta   90.80674131
_cell_angle_gamma   90.00000000
_symmetry_Int_Tables_number   1
_chemical_formula_structural   Mn3Cr2Co3O16
_chemical_formula_sum   'Mn6 Cr4 Co6 O32'
_cell_volume   494.05541119
_cell_formula_units_Z   2
loop_
 _symmetry_equiv_pos_site_id
 _symmetry_equiv_pos_as_xyz
  1  'x, y, z'
loop_
 _atom_site_type_symbol
 _atom_site_label
 _atom_site_symmetry_multiplicity
 _atom_site_fract_x
 _atom_site_fract_y
 _atom_site_fract_z
 _atom_site_occupancy
  Mn  Mn0  1  0.33210200  0.50000000  0.21210900  1
  Mn  Mn1  1  0.91675200  0.25259400  0.71221800  1
  Mn  Mn2  1  0.91675200  0.74740600  0.71221800  1
  Mn  Mn3  1  0.83210200  0.00000000  0.21210900  1
  Mn  Mn4  1  0.41675200  0.75259400  0.71221800  1
  Mn  Mn5  1  0.41675200  0.24740600  0.71221800  1
  Cr  Cr6  1  0.16745900  0.50000000  0.48776900  1
  Cr  Cr7  1  0.83234000  0.50000000  0.99024600  1
  Cr  Cr8  1  0.66745900  0.00000000  0.48776900  1
  Cr  Cr9  1  0.33234000  0.00000000  0.99024600  1
  Co  Co10  1  0.08396800  0.25165700  0.20899000  1
  Co  Co11  1  0.08396800  0.74834300  0.20899000  1
  Co  Co12  1  0.66704350  0.50000000  0.70777200  1
  Co  Co13  1  0.58396800  0.75165700  0.20899000  1
  Co  Co14  1  0.58396800  0.24834300  0.20899000  1
  Co  Co15  1  0.16704350  0.00000000  0.70777200  1
  O  O16  1  0.08527450  0.24635750  0.60334300  1
  O  O17  1  0.02270900  0.50000000  0.33105400  1
  O  O18  1  0.16421500  0.50000000  0.10034300  1
  O  O19  1  0.50338500  0.50000000  0.31644600  1
  O  O20  1  0.50199600  0.50000000  0.81862900  1
  O  O21  1  0.08527450  0.75364250  0.60334300  1
  O  O22  1  0.23713300  0.27812300  0.33743500  1
  O  O23  1  0.23713300  0.72187700  0.33743500  1
  O  O24  1  0.66526350  0.50000000  0.10672300  1
  O  O25  1  0.33113050  0.50000000  0.59946100  1
  O  O26  1  0.75767200  0.28494600  0.83666900  1
  O  O27  1  0.75767200  0.71505400  0.83666900  1
  O  O28  1  0.83285100  0.50000000  0.59972700  1
  O  O29  1  0.91855150  0.25218550  0.10349800  1
  O  O30  1  0.98085500  0.50000000  0.84117400  1
  O  O31  1  0.91855150  0.74781450  0.10349800  1
  O  O32  1  0.58527450  0.74635750  0.60334300  1
  O  O33  1  0.52270900  0.00000000  0.33105400  1
  O  O34  1  0.66421500  0.00000000  0.10034300  1
  O  O35  1  0.00338500  0.00000000  0.31644600  1
  O  O36  1  0.00199600  0.00000000  0.81862900  1
  O  O37  1  0.58527450  0.25364250  0.60334300  1
  O  O38  1  0.73713300  0.77812300  0.33743500  1
  O  O39  1  0.73713300  0.22187700  0.33743500  1
  O  O40  1  0.16526350  0.00000000  0.10672300  1
  O  O41  1  0.83113050  0.00000000  0.59946100  1
  O  O42  1  0.25767200  0.78494600  0.83666900  1
  O  O43  1  0.25767200  0.21505400  0.83666900  1
  O  O44  1  0.33285100  0.00000000  0.59972700  1
  O  O45  1  0.41855150  0.75218550  0.10349800  1
  O  O46  1  0.48085500  0.00000000  0.84117400  1
  O  O47  1  0.41855150  0.24781450  0.10349800  1
