# generated using pymatgen
data_W3O7F
_symmetry_space_group_name_H-M   'P 1'
_cell_length_a   6.37873400
_cell_length_b   11.12248400
_cell_length_c   3.88572900
_cell_angle_alpha   90.00000000
_cell_angle_beta   90.00000000
_cell_angle_gamma   90.00000000
_symmetry_Int_Tables_number   1
_chemical_formula_structural   W3O7F
_chemical_formula_sum   'W6 O14 F2'
_cell_volume   275.68224086
_cell_formula_units_Z   2
loop_
 _symmetry_equiv_pos_site_id
 _symmetry_equiv_pos_as_xyz
  1  'x, y, z'
loop_
 _atom_site_type_symbol
 _atom_site_label
 _atom_site_symmetry_multiplicity
 _atom_site_fract_x
 _atom_site_fract_y
 _atom_site_fract_z
 _atom_site_occupancy
  W  W0  1  0.00000000  0.00000000  0.00000000  1
  W  W1  1  0.00000000  0.30472300  0.00000000  1
  W  W2  1  0.50000000  0.19527700  0.00000000  1
  W  W3  1  0.50000000  0.50000000  0.00000000  1
  W  W4  1  0.50000000  0.80472300  0.00000000  1
  W  W5  1  0.00000000  0.69527700  0.00000000  1
  O  O6  1  0.69099950  0.34996450  0.00000000  1
  O  O7  1  0.19099950  0.15003550  0.00000000  1
  O  O8  1  0.00000000  0.00000000  0.50000000  1
  O  O9  1  0.00000000  0.30872600  0.50000000  1
  O  O10  1  0.50000000  0.19127400  0.50000000  1
  O  O11  1  0.80900050  0.15003550  0.00000000  1
  O  O12  1  0.30900050  0.34996450  0.00000000  1
  O  O13  1  0.19099950  0.84996450  0.00000000  1
  O  O14  1  0.69099950  0.65003550  0.00000000  1
  O  O15  1  0.50000000  0.50000000  0.50000000  1
  O  O16  1  0.50000000  0.80872600  0.50000000  1
  O  O17  1  0.00000000  0.69127400  0.50000000  1
  O  O18  1  0.30900050  0.65003550  0.00000000  1
  O  O19  1  0.80900050  0.84996450  0.00000000  1
  F  F20  1  0.50000000  0.00000000  0.00000000  1
  F  F21  1  0.00000000  0.50000000  0.00000000  1
