# generated using pymatgen
data_Mn5SbO12
_symmetry_space_group_name_H-M   'P 1'
_cell_length_a   5.16542000
_cell_length_b   9.07374400
_cell_length_c   9.72361746
_cell_angle_alpha   90.00000000
_cell_angle_beta   90.39361772
_cell_angle_gamma   90.00000000
_symmetry_Int_Tables_number   1
_chemical_formula_structural   Mn5SbO12
_chemical_formula_sum   'Mn10 Sb2 O24'
_cell_volume   455.73226622
_cell_formula_units_Z   2
loop_
 _symmetry_equiv_pos_site_id
 _symmetry_equiv_pos_as_xyz
  1  'x, y, z'
loop_
 _atom_site_type_symbol
 _atom_site_label
 _atom_site_symmetry_multiplicity
 _atom_site_fract_x
 _atom_site_fract_y
 _atom_site_fract_z
 _atom_site_occupancy
  Mn  Mn0  1  0.00000000  0.83323000  0.50000000  1
  Mn  Mn1  1  0.00000000  0.66627400  0.00000000  1
  Mn  Mn2  1  0.50000000  0.00000000  0.50000000  1
  Mn  Mn3  1  0.50000000  0.83372600  0.00000000  1
  Mn  Mn4  1  0.50000000  0.66677000  0.50000000  1
  Mn  Mn5  1  0.50000000  0.33323000  0.50000000  1
  Mn  Mn6  1  0.50000000  0.16627400  0.00000000  1
  Mn  Mn7  1  0.00000000  0.50000000  0.50000000  1
  Mn  Mn8  1  0.00000000  0.33372600  0.00000000  1
  Mn  Mn9  1  0.00000000  0.16677000  0.50000000  1
  Sb  Sb10  1  0.00000000  0.00000000  0.00000000  1
  Sb  Sb11  1  0.50000000  0.50000000  0.00000000  1
  O  O12  1  0.17292800  0.83395300  0.89785600  1
  O  O13  1  0.82707200  0.83395300  0.10214400  1
  O  O14  1  0.16782150  0.66656950  0.59529000  1
  O  O15  1  0.83217850  0.66656950  0.40471000  1
  O  O16  1  0.83258500  0.00000000  0.40450900  1
  O  O17  1  0.66413100  0.00000000  0.89582300  1
  O  O18  1  0.33586900  0.00000000  0.10417700  1
  O  O19  1  0.16741500  0.00000000  0.59549100  1
  O  O20  1  0.66782150  0.83343050  0.59529000  1
  O  O21  1  0.33217850  0.83343050  0.40471000  1
  O  O22  1  0.67292800  0.66604700  0.89785600  1
  O  O23  1  0.32707200  0.66604700  0.10214400  1
  O  O24  1  0.67292800  0.33395300  0.89785600  1
  O  O25  1  0.32707200  0.33395300  0.10214400  1
  O  O26  1  0.66782150  0.16656950  0.59529000  1
  O  O27  1  0.33217850  0.16656950  0.40471000  1
  O  O28  1  0.33258500  0.50000000  0.40450900  1
  O  O29  1  0.16413100  0.50000000  0.89582300  1
  O  O30  1  0.83586900  0.50000000  0.10417700  1
  O  O31  1  0.66741500  0.50000000  0.59549100  1
  O  O32  1  0.16782150  0.33343050  0.59529000  1
  O  O33  1  0.83217850  0.33343050  0.40471000  1
  O  O34  1  0.17292800  0.16604700  0.89785600  1
  O  O35  1  0.82707200  0.16604700  0.10214400  1
