# generated using pymatgen
data_LiCu3(CO3)3
_symmetry_space_group_name_H-M   'P 1'
_cell_length_a   8.05911800
_cell_length_b   6.17659900
_cell_length_c   8.07282688
_cell_angle_alpha   90.00000000
_cell_angle_beta   119.33051747
_cell_angle_gamma   90.00000000
_symmetry_Int_Tables_number   1
_chemical_formula_structural   LiCu3(CO3)3
_chemical_formula_sum   'Li2 Cu6 C6 O18'
_cell_volume   350.33510209
_cell_formula_units_Z   2
loop_
 _symmetry_equiv_pos_site_id
 _symmetry_equiv_pos_as_xyz
  1  'x, y, z'
loop_
 _atom_site_type_symbol
 _atom_site_label
 _atom_site_symmetry_multiplicity
 _atom_site_fract_x
 _atom_site_fract_y
 _atom_site_fract_z
 _atom_site_occupancy
  Li  Li0  1  0.03121000  0.00000000  0.65142800  1
  Li  Li1  1  0.34466800  0.50000000  0.38224300  1
  Cu  Cu2  1  0.70371200  0.25531500  0.68665400  1
  Cu  Cu3  1  0.70371200  0.74468500  0.68665400  1
  Cu  Cu4  1  0.33998000  0.75146900  0.02336700  1
  Cu  Cu5  1  0.33998000  0.24853100  0.02336700  1
  Cu  Cu6  1  0.95864200  0.25074300  0.28284700  1
  Cu  Cu7  1  0.95864200  0.74925700  0.28284700  1
  C  C8  1  0.32898400  0.24954100  0.66319700  1
  C  C9  1  0.32898400  0.75045900  0.66319700  1
  C  C10  1  0.99031900  0.00000000  0.99321400  1
  C  C11  1  0.00880300  0.50000000  0.00208000  1
  C  C12  1  0.66798500  0.00000000  0.33308800  1
  C  C13  1  0.67022900  0.50000000  0.34604000  1
  O  O14  1  0.10656100  0.00000000  0.92422100  1
  O  O15  1  0.12688700  0.50000000  0.93721300  1
  O  O16  1  0.43095100  0.75381100  0.84439700  1
  O  O17  1  0.43095100  0.24618900  0.84439700  1
  O  O18  1  0.14483000  0.23532600  0.58009600  1
  O  O19  1  0.14483000  0.76467400  0.58009600  1
  O  O20  1  0.80624700  0.00000000  0.87879600  1
  O  O21  1  0.82650100  0.50000000  0.89276300  1
  O  O22  1  0.41381400  0.26728600  0.56218000  1
  O  O23  1  0.41381400  0.73271400  0.56218000  1
  O  O24  1  0.05802800  0.00000000  0.17617500  1
  O  O25  1  0.07387100  0.50000000  0.18882600  1
  O  O26  1  0.73865500  0.00000000  0.51665300  1
  O  O27  1  0.74156800  0.50000000  0.52925300  1
  O  O28  1  0.48658300  0.00000000  0.21850600  1
  O  O29  1  0.48592600  0.50000000  0.23748200  1
  O  O30  1  0.78483200  0.00000000  0.26462100  1
  O  O31  1  0.78025000  0.50000000  0.27107800  1
