# generated using pymatgen
data_Li4Ti3Mn3(WO8)2
_symmetry_space_group_name_H-M   'P 1'
_cell_length_a   6.04086671
_cell_length_b   6.12359107
_cell_length_c   9.86907192
_cell_angle_alpha   91.78764038
_cell_angle_beta   89.76283664
_cell_angle_gamma   119.25026150
_symmetry_Int_Tables_number   1
_chemical_formula_structural   Li4Ti3Mn3(WO8)2
_chemical_formula_sum   'Li4 Ti3 Mn3 W2 O16'
_cell_volume   318.34458318
_cell_formula_units_Z   1
loop_
 _symmetry_equiv_pos_site_id
 _symmetry_equiv_pos_as_xyz
  1  'x, y, z'
loop_
 _atom_site_type_symbol
 _atom_site_label
 _atom_site_symmetry_multiplicity
 _atom_site_fract_x
 _atom_site_fract_y
 _atom_site_fract_z
 _atom_site_occupancy
  Li  Li0  1  0.65493400  0.31283000  0.90522200  1
  Li  Li1  1  0.00218300  0.00334300  0.98445500  1
  Li  Li2  1  0.01135300  0.02106600  0.49260300  1
  Li  Li3  1  0.32315400  0.65132800  0.40899500  1
  Ti  Ti4  1  0.33938800  0.19186700  0.21466500  1
  Ti  Ti5  1  0.82799600  0.16914500  0.21725300  1
  Ti  Ti6  1  0.15506600  0.34486200  0.72292500  1
  Mn  Mn7  1  0.83921900  0.66451900  0.20833400  1
  Mn  Mn8  1  0.18572800  0.84570200  0.70511400  1
  Mn  Mn9  1  0.66187900  0.83194200  0.70832800  1
  W  W10  1  0.66973300  0.34096500  0.48867800  1
  W  W11  1  0.34118200  0.68131500  0.98469200  1
  O  O12  1  0.34629800  0.18144800  0.58914300  1
  O  O13  1  0.52572400  0.04675600  0.34034900  1
  O  O14  1  0.65002700  0.30108000  0.10987600  1
  O  O15  1  0.01372100  0.02040400  0.30404500  1
  O  O16  1  0.01360100  0.02382800  0.79900400  1
  O  O17  1  0.84042000  0.18765400  0.59624900  1
  O  O18  1  0.49635800  0.45907600  0.34131200  1
  O  O19  1  0.95946300  0.45400300  0.34046800  1
  O  O20  1  0.16914400  0.33226900  0.10723500  1
  O  O21  1  0.83451800  0.66425400  0.56905400  1
  O  O22  1  0.03008500  0.49781000  0.85381800  1
  O  O23  1  0.45591400  0.49644400  0.86049300  1
  O  O24  1  0.31498600  0.62314800  0.60806100  1
  O  O25  1  0.18813200  0.84627400  0.09326200  1
  O  O26  1  0.47905200  0.95396200  0.85749000  1
  O  O27  1  0.67045000  0.85271100  0.09671600  1
