# generated using pymatgen
data_SrTiFe(PO4)3
_symmetry_space_group_name_H-M   'P 1'
_cell_length_a   8.59696529
_cell_length_b   8.59696529
_cell_length_c   22.82357747
_cell_angle_alpha   90.00000000
_cell_angle_beta   90.00000000
_cell_angle_gamma   120.00000000
_symmetry_Int_Tables_number   1
_chemical_formula_structural   SrTiFe(PO4)3
_chemical_formula_sum   'Sr6 Ti6 Fe6 P18 O72'
_cell_volume   1460.84687984
_cell_formula_units_Z   6
loop_
 _symmetry_equiv_pos_site_id
 _symmetry_equiv_pos_as_xyz
  1  'x, y, z'
loop_
 _atom_site_type_symbol
 _atom_site_label
 _atom_site_symmetry_multiplicity
 _atom_site_fract_x
 _atom_site_fract_y
 _atom_site_fract_z
 _atom_site_occupancy
  Sr  Sr0  1  0.66666667  0.33333333  0.33168133  1
  Sr  Sr1  1  0.33333333  0.66666667  0.16501467  1
  Sr  Sr2  1  0.33333333  0.66666667  0.66501467  1
  Sr  Sr3  1  0.00000000  0.00000000  0.49834800  1
  Sr  Sr4  1  0.00000000  0.00000000  0.99834800  1
  Sr  Sr5  1  0.66666667  0.33333333  0.83168133  1
  Ti  Ti6  1  0.00000000  0.00000000  0.14931300  1
  Ti  Ti7  1  0.33333333  0.66666667  0.31597967  1
  Ti  Ti8  1  0.66666667  0.33333333  0.48264633  1
  Ti  Ti9  1  0.00000000  0.00000000  0.64931300  1
  Ti  Ti10  1  0.33333333  0.66666667  0.81597967  1
  Ti  Ti11  1  0.66666667  0.33333333  0.98264633  1
  Fe  Fe12  1  0.33333333  0.66666667  0.01700667  1
  Fe  Fe13  1  0.66666667  0.33333333  0.18367333  1
  Fe  Fe14  1  0.00000000  0.00000000  0.35034000  1
  Fe  Fe15  1  0.33333333  0.66666667  0.51700667  1
  Fe  Fe16  1  0.66666667  0.33333333  0.68367333  1
  Fe  Fe17  1  0.00000000  0.00000000  0.85034000  1
  P  P18  1  0.95388800  0.33496700  0.08392600  1
  P  P19  1  0.38107900  0.04611200  0.08392600  1
  P  P20  1  0.66503300  0.61892100  0.08392600  1
  P  P21  1  0.99836633  0.71277867  0.25059267  1
  P  P22  1  0.28722133  0.28558767  0.25059267  1
  P  P23  1  0.71441233  0.00163367  0.25059267  1
  P  P24  1  0.62055467  0.66830033  0.41725933  1
  P  P25  1  0.04774567  0.37944533  0.41725933  1
  P  P26  1  0.33169967  0.95225433  0.41725933  1
  P  P27  1  0.66503300  0.04611200  0.58392600  1
  P  P28  1  0.95388800  0.61892100  0.58392600  1
  P  P29  1  0.38107900  0.33496700  0.58392600  1
  P  P30  1  0.28722133  0.00163367  0.75059267  1
  P  P31  1  0.71441233  0.71277867  0.75059267  1
  P  P32  1  0.99836633  0.28558767  0.75059267  1
  P  P33  1  0.33169967  0.37944533  0.91725933  1
  P  P34  1  0.62055467  0.95225433  0.91725933  1
  P  P35  1  0.04774567  0.66830033  0.91725933  1
  O  O36  1  0.82819867  0.03748333  0.30539033  1
  O  O37  1  0.96251667  0.79071533  0.30539033  1
  O  O38  1  0.97039533  0.16285867  0.09092267  1
  O  O39  1  0.20928467  0.17180133  0.30539033  1
  O  O40  1  0.14148433  0.49999667  0.07558567  1
  O  O41  1  0.87595133  0.37081667  0.13872367  1
  O  O42  1  0.19246333  0.02960467  0.09092267  1
  O  O43  1  0.35851233  0.85851567  0.07558567  1
  O  O44  1  0.50000333  0.64148767  0.07558567  1
  O  O45  1  0.03414200  0.83183400  0.19484100  1
  O  O46  1  0.83333667  0.52518233  0.24225233  1
  O  O47  1  0.16816600  0.20230800  0.19484100  1
  O  O48  1  0.49486533  0.12404867  0.13872367  1
  O  O49  1  0.83714133  0.80753667  0.09092267  1
  O  O50  1  0.62918333  0.50513467  0.13872367  1
  O  O51  1  0.17047467  0.69627133  0.25758933  1
  O  O52  1  0.30372867  0.47420333  0.25758933  1
  O  O53  1  0.47481767  0.30815433  0.24225233  1
  O  O54  1  0.79769200  0.96585800  0.19484100  1
  O  O55  1  0.52579667  0.82952533  0.25758933  1
  O  O56  1  0.46435867  0.16516733  0.02817433  1
  O  O57  1  0.69184567  0.16666333  0.24225233  1
  O  O58  1  0.70080867  0.53564133  0.02817433  1
  O  O59  1  0.83483267  0.29919133  0.02817433  1
  O  O60  1  0.49486533  0.37081667  0.63872367  1
  O  O61  1  0.62918333  0.12404867  0.63872367  1
  O  O62  1  0.63706200  0.49619200  0.42425600  1
  O  O63  1  0.87595133  0.50513467  0.63872367  1
  O  O64  1  0.80815100  0.83333000  0.40891900  1
  O  O65  1  0.54261800  0.70415000  0.47205700  1
  O  O66  1  0.85913000  0.36293800  0.42425600  1
  O  O67  1  0.02517900  0.19184900  0.40891900  1
  O  O68  1  0.16667000  0.97482100  0.40891900  1
  O  O69  1  0.70080867  0.16516733  0.52817433  1
  O  O70  1  0.50000333  0.85851567  0.57558567  1
  O  O71  1  0.83483267  0.53564133  0.52817433  1
  O  O72  1  0.16153200  0.45738200  0.47205700  1
  O  O73  1  0.50380800  0.14087000  0.42425600  1
  O  O74  1  0.29585000  0.83846800  0.47205700  1
  O  O75  1  0.83714133  0.02960467  0.59092267  1
  O  O76  1  0.97039533  0.80753667  0.59092267  1
  O  O77  1  0.14148433  0.64148767  0.57558567  1
  O  O78  1  0.46435867  0.29919133  0.52817433  1
  O  O79  1  0.19246333  0.16285867  0.59092267  1
  O  O80  1  0.13102533  0.49850067  0.36150767  1
  O  O81  1  0.35851233  0.49999667  0.57558567  1
  O  O82  1  0.36747533  0.86897467  0.36150767  1
  O  O83  1  0.50149933  0.63252467  0.36150767  1
  O  O84  1  0.16153200  0.70415000  0.97205700  1
  O  O85  1  0.29585000  0.45738200  0.97205700  1
  O  O86  1  0.30372867  0.82952533  0.75758933  1
  O  O87  1  0.54261800  0.83846800  0.97205700  1
  O  O88  1  0.47481767  0.16666333  0.74225233  1
  O  O89  1  0.20928467  0.03748333  0.80539033  1
  O  O90  1  0.52579667  0.69627133  0.75758933  1
  O  O91  1  0.69184567  0.52518233  0.74225233  1
  O  O92  1  0.83333667  0.30815433  0.74225233  1
  O  O93  1  0.36747533  0.49850067  0.86150767  1
  O  O94  1  0.16667000  0.19184900  0.90891900  1
  O  O95  1  0.50149933  0.86897467  0.86150767  1
  O  O96  1  0.82819867  0.79071533  0.80539033  1
  O  O97  1  0.17047467  0.47420333  0.75758933  1
  O  O98  1  0.96251667  0.17180133  0.80539033  1
  O  O99  1  0.50380800  0.36293800  0.92425600  1
  O  O100  1  0.63706200  0.14087000  0.92425600  1
  O  O101  1  0.80815100  0.97482100  0.90891900  1
  O  O102  1  0.13102533  0.63252467  0.86150767  1
  O  O103  1  0.85913000  0.49619200  0.92425600  1
  O  O104  1  0.79769200  0.83183400  0.69484100  1
  O  O105  1  0.02517900  0.83333000  0.90891900  1
  O  O106  1  0.03414200  0.20230800  0.69484100  1
  O  O107  1  0.16816600  0.96585800  0.69484100  1
