# generated using pymatgen
data_Mn6OF11
_symmetry_space_group_name_H-M   'P 1'
_cell_length_a   7.56742600
_cell_length_b   7.37681200
_cell_length_c   15.57780259
_cell_angle_alpha   90.00000000
_cell_angle_beta   92.94623120
_cell_angle_gamma   90.00000000
_symmetry_Int_Tables_number   1
_chemical_formula_structural   Mn6OF11
_chemical_formula_sum   'Mn24 O4 F44'
_cell_volume   868.45769623
_cell_formula_units_Z   4
loop_
 _symmetry_equiv_pos_site_id
 _symmetry_equiv_pos_as_xyz
  1  'x, y, z'
loop_
 _atom_site_type_symbol
 _atom_site_label
 _atom_site_symmetry_multiplicity
 _atom_site_fract_x
 _atom_site_fract_y
 _atom_site_fract_z
 _atom_site_occupancy
  Mn  Mn0  1  0.19348800  0.50000000  0.99970000  1
  Mn  Mn1  1  0.01592250  0.74836450  0.83681000  1
  Mn  Mn2  1  0.25035000  0.50000000  0.66952200  1
  Mn  Mn3  1  0.00000000  0.75108000  0.50000000  1
  Mn  Mn4  1  0.24187200  0.50000000  0.33281500  1
  Mn  Mn5  1  0.98407750  0.74836450  0.16319000  1
  Mn  Mn6  1  0.01592250  0.25163550  0.83681000  1
  Mn  Mn7  1  0.80651200  0.50000000  0.00030000  1
  Mn  Mn8  1  0.74965000  0.50000000  0.33047800  1
  Mn  Mn9  1  0.00000000  0.24892000  0.50000000  1
  Mn  Mn10  1  0.75812800  0.50000000  0.66718500  1
  Mn  Mn11  1  0.98407750  0.25163550  0.16319000  1
  Mn  Mn12  1  0.69348800  0.00000000  0.99970000  1
  Mn  Mn13  1  0.51592250  0.24836450  0.83681000  1
  Mn  Mn14  1  0.75035000  0.00000000  0.66952200  1
  Mn  Mn15  1  0.50000000  0.25108000  0.50000000  1
  Mn  Mn16  1  0.74187200  0.00000000  0.33281500  1
  Mn  Mn17  1  0.48407750  0.24836450  0.16319000  1
  Mn  Mn18  1  0.51592250  0.75163550  0.83681000  1
  Mn  Mn19  1  0.30651200  0.00000000  0.00030000  1
  Mn  Mn20  1  0.24965000  0.00000000  0.33047800  1
  Mn  Mn21  1  0.50000000  0.74892000  0.50000000  1
  Mn  Mn22  1  0.25812800  0.00000000  0.66718500  1
  Mn  Mn23  1  0.48407750  0.75163550  0.16319000  1
  O  O24  1  0.00654600  0.50000000  0.08099700  1
  O  O25  1  0.99345400  0.50000000  0.91900300  1
  O  O26  1  0.50654600  0.00000000  0.08099700  1
  O  O27  1  0.49345400  0.00000000  0.91900300  1
  F  F28  1  0.02305600  0.50000000  0.74985700  1
  F  F29  1  0.29353350  0.31081850  0.91874900  1
  F  F30  1  0.01708300  0.50000000  0.41788300  1
  F  F31  1  0.25149050  0.26807450  0.58307300  1
  F  F32  1  0.25060200  0.27433600  0.24492600  1
  F  F33  1  0.74939800  0.72566400  0.75507400  1
  F  F34  1  0.74850950  0.73192550  0.41692700  1
  F  F35  1  0.70646650  0.68918150  0.08125100  1
  F  F36  1  0.97694400  0.50000000  0.25014300  1
  F  F37  1  0.98291700  0.50000000  0.58211700  1
  F  F38  1  0.70646650  0.31081850  0.08125100  1
  F  F39  1  0.74850950  0.26807450  0.41692700  1
  F  F40  1  0.74939800  0.27433600  0.75507400  1
  F  F41  1  0.61080000  0.50000000  0.91592100  1
  F  F42  1  0.51848000  0.50000000  0.58544100  1
  F  F43  1  0.52508300  0.50000000  0.24221200  1
  F  F44  1  0.25149050  0.73192550  0.58307300  1
  F  F45  1  0.29353350  0.68918150  0.91874900  1
  F  F46  1  0.25060200  0.72566400  0.24492600  1
  F  F47  1  0.48152000  0.50000000  0.41455900  1
  F  F48  1  0.38920000  0.50000000  0.08407900  1
  F  F49  1  0.47491700  0.50000000  0.75778800  1
  F  F50  1  0.52305600  0.00000000  0.74985700  1
  F  F51  1  0.79353350  0.81081850  0.91874900  1
  F  F52  1  0.51708300  0.00000000  0.41788300  1
  F  F53  1  0.75149050  0.76807450  0.58307300  1
  F  F54  1  0.75060200  0.77433600  0.24492600  1
  F  F55  1  0.24939800  0.22566400  0.75507400  1
  F  F56  1  0.24850950  0.23192550  0.41692700  1
  F  F57  1  0.20646650  0.18918150  0.08125100  1
  F  F58  1  0.47694400  0.00000000  0.25014300  1
  F  F59  1  0.48291700  0.00000000  0.58211700  1
  F  F60  1  0.20646650  0.81081850  0.08125100  1
  F  F61  1  0.24850950  0.76807450  0.41692700  1
  F  F62  1  0.24939800  0.77433600  0.75507400  1
  F  F63  1  0.11080000  0.00000000  0.91592100  1
  F  F64  1  0.01848000  0.00000000  0.58544100  1
  F  F65  1  0.02508300  0.00000000  0.24221200  1
  F  F66  1  0.75149050  0.23192550  0.58307300  1
  F  F67  1  0.79353350  0.18918150  0.91874900  1
  F  F68  1  0.75060200  0.22566400  0.24492600  1
  F  F69  1  0.98152000  0.00000000  0.41455900  1
  F  F70  1  0.88920000  0.00000000  0.08407900  1
  F  F71  1  0.97491700  0.00000000  0.75778800  1
