# generated using pymatgen
data_Li4Cr3FeO8
_symmetry_space_group_name_H-M   'P 1'
_cell_length_a   5.87888364
_cell_length_b   5.87888364
_cell_length_c   14.46686770
_cell_angle_alpha   90.00000000
_cell_angle_beta   90.00000000
_cell_angle_gamma   120.00000000
_symmetry_Int_Tables_number   1
_chemical_formula_structural   Li4Cr3FeO8
_chemical_formula_sum   'Li12 Cr9 Fe3 O24'
_cell_volume   433.00695243
_cell_formula_units_Z   3
loop_
 _symmetry_equiv_pos_site_id
 _symmetry_equiv_pos_as_xyz
  1  'x, y, z'
loop_
 _atom_site_type_symbol
 _atom_site_label
 _atom_site_symmetry_multiplicity
 _atom_site_fract_x
 _atom_site_fract_y
 _atom_site_fract_z
 _atom_site_occupancy
  Li  Li0  1  0.33333333  0.16666667  0.16666667  1
  Li  Li1  1  0.83333333  0.66666667  0.16666667  1
  Li  Li2  1  0.83333333  0.16666667  0.16666667  1
  Li  Li3  1  0.33333333  0.66666667  0.16666667  1
  Li  Li4  1  0.00000000  0.50000000  0.50000000  1
  Li  Li5  1  0.50000000  0.00000000  0.50000000  1
  Li  Li6  1  0.50000000  0.50000000  0.50000000  1
  Li  Li7  1  1.00000000  1.00000000  0.50000000  1
  Li  Li8  1  0.66666667  0.83333333  0.83333333  1
  Li  Li9  1  0.16666667  0.33333333  0.83333333  1
  Li  Li10  1  0.16666667  0.83333333  0.83333333  1
  Li  Li11  1  0.66666667  0.33333333  0.83333333  1
  Cr  Cr12  1  0.50000000  0.00000000  0.00000000  1
  Cr  Cr13  1  0.00000000  0.50000000  0.00000000  1
  Cr  Cr14  1  0.50000000  0.50000000  0.00000000  1
  Cr  Cr15  1  0.16666667  0.33333333  0.33333333  1
  Cr  Cr16  1  0.66666667  0.83333333  0.33333333  1
  Cr  Cr17  1  0.16666667  0.83333333  0.33333333  1
  Cr  Cr18  1  0.83333333  0.66666667  0.66666667  1
  Cr  Cr19  1  0.33333333  0.16666667  0.66666667  1
  Cr  Cr20  1  0.83333333  0.16666667  0.66666667  1
  Fe  Fe21  1  0.00000000  0.00000000  0.00000000  1
  Fe  Fe22  1  0.66666667  0.33333333  0.33333333  1
  Fe  Fe23  1  0.33333333  0.66666667  0.66666667  1
  O  O24  1  0.66666667  0.33333333  0.07542033  1
  O  O25  1  0.99640933  0.49820467  0.25851867  1
  O  O26  1  0.16487133  0.83512867  0.07481467  1
  O  O27  1  0.16487133  0.32974267  0.07481467  1
  O  O28  1  0.50179533  0.00359067  0.25851867  1
  O  O29  1  0.50179533  0.49820467  0.25851867  1
  O  O30  1  0.67025733  0.83512867  0.07481467  1
  O  O31  1  0.00000000  0.00000000  0.25791300  1
  O  O32  1  0.33333333  0.66666667  0.40875367  1
  O  O33  1  0.66307600  0.83153800  0.59185200  1
  O  O34  1  0.83153800  0.16846200  0.40814800  1
  O  O35  1  0.83153800  0.66307600  0.40814800  1
  O  O36  1  0.16846200  0.33692400  0.59185200  1
  O  O37  1  0.16846200  0.83153800  0.59185200  1
  O  O38  1  0.33692400  0.16846200  0.40814800  1
  O  O39  1  0.66666667  0.33333333  0.59124633  1
  O  O40  1  0.00000000  0.00000000  0.74208700  1
  O  O41  1  0.32974267  0.16487133  0.92518533  1
  O  O42  1  0.49820467  0.50179533  0.74148133  1
  O  O43  1  0.49820467  0.99640933  0.74148133  1
  O  O44  1  0.83512867  0.67025733  0.92518533  1
  O  O45  1  0.83512867  0.16487133  0.92518533  1
  O  O46  1  0.00359067  0.50179533  0.74148133  1
  O  O47  1  0.33333333  0.66666667  0.92457967  1
