# generated using pymatgen
data_Ni5O6
_symmetry_space_group_name_H-M   'P 1'
_cell_length_a   5.23754000
_cell_length_b   8.74708000
_cell_length_c   5.20180964
_cell_angle_alpha   90.00000000
_cell_angle_beta   111.60703881
_cell_angle_gamma   90.00000000
_symmetry_Int_Tables_number   1
_chemical_formula_structural   Ni5O6
_chemical_formula_sum   'Ni10 O12'
_cell_volume   221.56560193
_cell_formula_units_Z   2
loop_
 _symmetry_equiv_pos_site_id
 _symmetry_equiv_pos_as_xyz
  1  'x, y, z'
loop_
 _atom_site_type_symbol
 _atom_site_label
 _atom_site_symmetry_multiplicity
 _atom_site_fract_x
 _atom_site_fract_y
 _atom_site_fract_z
 _atom_site_occupancy
  Ni  Ni0  1  0.00000000  0.00000000  0.00000000  1
  Ni  Ni1  1  0.50000000  0.83897000  0.00000000  1
  Ni  Ni2  1  0.50000000  0.66985300  0.50000000  1
  Ni  Ni3  1  0.50000000  0.33014700  0.50000000  1
  Ni  Ni4  1  0.50000000  0.16103000  0.00000000  1
  Ni  Ni5  1  0.50000000  0.50000000  0.00000000  1
  Ni  Ni6  1  0.00000000  0.33897000  0.00000000  1
  Ni  Ni7  1  0.00000000  0.16985300  0.50000000  1
  Ni  Ni8  1  0.00000000  0.83014700  0.50000000  1
  Ni  Ni9  1  0.00000000  0.66103000  0.00000000  1
  O  O10  1  0.78152750  0.81562250  0.76651300  1
  O  O11  1  0.25623000  0.00000000  0.78520000  1
  O  O12  1  0.78152750  0.18437750  0.76651300  1
  O  O13  1  0.21847250  0.18437750  0.23348700  1
  O  O14  1  0.74377000  0.00000000  0.21480000  1
  O  O15  1  0.21847250  0.81562250  0.23348700  1
  O  O16  1  0.28152750  0.31562250  0.76651300  1
  O  O17  1  0.75623000  0.50000000  0.78520000  1
  O  O18  1  0.28152750  0.68437750  0.76651300  1
  O  O19  1  0.71847250  0.68437750  0.23348700  1
  O  O20  1  0.24377000  0.50000000  0.21480000  1
  O  O21  1  0.71847250  0.31562250  0.23348700  1
