# generated using pymatgen
data_Li3Co2(PO4)3
_symmetry_space_group_name_H-M   'P 1'
_cell_length_a   14.53143800
_cell_length_b   8.77835600
_cell_length_c   8.41007114
_cell_angle_alpha   90.00000000
_cell_angle_beta   122.78253890
_cell_angle_gamma   90.00000000
_symmetry_Int_Tables_number   1
_chemical_formula_structural   Li3Co2(PO4)3
_chemical_formula_sum   'Li12 Co8 P12 O48'
_cell_volume   901.94249680
_cell_formula_units_Z   4
loop_
 _symmetry_equiv_pos_site_id
 _symmetry_equiv_pos_as_xyz
  1  'x, y, z'
loop_
 _atom_site_type_symbol
 _atom_site_label
 _atom_site_symmetry_multiplicity
 _atom_site_fract_x
 _atom_site_fract_y
 _atom_site_fract_z
 _atom_site_occupancy
  Li  Li0  1  0.25106050  0.75613850  0.77163500  1
  Li  Li1  1  0.50000000  0.14999800  0.50000000  1
  Li  Li2  1  0.74893950  0.75613850  0.22836500  1
  Li  Li3  1  0.50000000  0.84728600  0.00000000  1
  Li  Li4  1  0.20146850  0.95398950  0.40515800  1
  Li  Li5  1  0.79853150  0.95398950  0.59484200  1
  Li  Li6  1  0.75106050  0.25613850  0.77163500  1
  Li  Li7  1  0.00000000  0.64999800  0.50000000  1
  Li  Li8  1  0.24893950  0.25613850  0.22836500  1
  Li  Li9  1  0.00000000  0.34728600  0.00000000  1
  Li  Li10  1  0.70146850  0.45398950  0.40515800  1
  Li  Li11  1  0.29853150  0.45398950  0.59484200  1
  Co  Co12  1  0.60803550  0.25489250  0.89518900  1
  Co  Co13  1  0.39196450  0.25489250  0.10481100  1
  Co  Co14  1  0.60195900  0.75029000  0.39704300  1
  Co  Co15  1  0.39804100  0.75029000  0.60295700  1
  Co  Co16  1  0.10803550  0.75489250  0.89518900  1
  Co  Co17  1  0.89196450  0.75489250  0.10481100  1
  Co  Co18  1  0.10195900  0.25029000  0.39704300  1
  Co  Co19  1  0.89804100  0.25029000  0.60295700  1
  P  P20  1  0.64932800  0.90085600  0.79960100  1
  P  P21  1  0.35067200  0.90085600  0.20039900  1
  P  P22  1  0.50000000  0.45321500  0.50000000  1
  P  P23  1  0.50000000  0.54321700  0.00000000  1
  P  P24  1  0.64483200  0.10469500  0.29471900  1
  P  P25  1  0.35516800  0.10469500  0.70528100  1
  P  P26  1  0.14932800  0.40085600  0.79960100  1
  P  P27  1  0.85067200  0.40085600  0.20039900  1
  P  P28  1  0.00000000  0.95321500  0.50000000  1
  P  P29  1  0.00000000  0.04321700  0.00000000  1
  P  P30  1  0.14483200  0.60469500  0.29471900  1
  P  P31  1  0.85516800  0.60469500  0.70528100  1
  O  O32  1  0.35303350  0.15246650  0.87799600  1
  O  O33  1  0.93787800  0.94422400  0.06114300  1
  O  O34  1  0.65595450  0.07674750  0.79515500  1
  O  O35  1  0.53960550  0.15749050  0.28005100  1
  O  O36  1  0.73711300  0.83212100  0.99068700  1
  O  O37  1  0.53799850  0.84854450  0.76674800  1
  O  O38  1  0.26288700  0.83212100  0.00931300  1
  O  O39  1  0.34404550  0.07674750  0.20484500  1
  O  O40  1  0.41279450  0.34609450  0.34434800  1
  O  O41  1  0.06212200  0.94422400  0.93885700  1
  O  O42  1  0.41293050  0.65026050  0.84124300  1
  O  O43  1  0.64696650  0.15246650  0.12200400  1
  O  O44  1  0.33683150  0.84961350  0.36317400  1
  O  O45  1  0.58720550  0.34609450  0.65565200  1
  O  O46  1  0.93687600  0.04949600  0.56380100  1
  O  O47  1  0.58706950  0.65026050  0.15875700  1
  O  O48  1  0.66183500  0.92808900  0.31096600  1
  O  O49  1  0.73936850  0.17163550  0.48661100  1
  O  O50  1  0.46039450  0.15749050  0.71994900  1
  O  O51  1  0.26063150  0.17163550  0.51338900  1
  O  O52  1  0.46200150  0.84854450  0.23325200  1
  O  O53  1  0.33816500  0.92808900  0.68903400  1
  O  O54  1  0.06312400  0.04949600  0.43619900  1
  O  O55  1  0.66316850  0.84961350  0.63682600  1
  O  O56  1  0.85303350  0.65246650  0.87799600  1
  O  O57  1  0.43787800  0.44422400  0.06114300  1
  O  O58  1  0.15595450  0.57674750  0.79515500  1
  O  O59  1  0.03960550  0.65749050  0.28005100  1
  O  O60  1  0.23711300  0.33212100  0.99068700  1
  O  O61  1  0.03799850  0.34854450  0.76674800  1
  O  O62  1  0.76288700  0.33212100  0.00931300  1
  O  O63  1  0.84404550  0.57674750  0.20484500  1
  O  O64  1  0.91279450  0.84609450  0.34434800  1
  O  O65  1  0.56212200  0.44422400  0.93885700  1
  O  O66  1  0.91293050  0.15026050  0.84124300  1
  O  O67  1  0.14696650  0.65246650  0.12200400  1
  O  O68  1  0.83683150  0.34961350  0.36317400  1
  O  O69  1  0.08720550  0.84609450  0.65565200  1
  O  O70  1  0.43687600  0.54949600  0.56380100  1
  O  O71  1  0.08706950  0.15026050  0.15875700  1
  O  O72  1  0.16183500  0.42808900  0.31096600  1
  O  O73  1  0.23936850  0.67163550  0.48661100  1
  O  O74  1  0.96039450  0.65749050  0.71994900  1
  O  O75  1  0.76063150  0.67163550  0.51338900  1
  O  O76  1  0.96200150  0.34854450  0.23325200  1
  O  O77  1  0.83816500  0.42808900  0.68903400  1
  O  O78  1  0.56312400  0.54949600  0.43619900  1
  O  O79  1  0.16316850  0.34961350  0.63682600  1
