# generated using pymatgen
data_LiMn5(CuO6)2
_symmetry_space_group_name_H-M   'P 1'
_cell_length_a   5.38713274
_cell_length_b   8.66805409
_cell_length_c   9.64478303
_cell_angle_alpha   90.00000000
_cell_angle_beta   97.21484162
_cell_angle_gamma   90.00000000
_symmetry_Int_Tables_number   1
_chemical_formula_structural   LiMn5(CuO6)2
_chemical_formula_sum   'Li2 Mn10 Cu4 O24'
_cell_volume   446.80642585
_cell_formula_units_Z   2
loop_
 _symmetry_equiv_pos_site_id
 _symmetry_equiv_pos_as_xyz
  1  'x, y, z'
loop_
 _atom_site_type_symbol
 _atom_site_label
 _atom_site_symmetry_multiplicity
 _atom_site_fract_x
 _atom_site_fract_y
 _atom_site_fract_z
 _atom_site_occupancy
  Li  Li0  1  0.50000000  0.57471300  0.50000000  1
  Li  Li1  1  0.00000000  0.07471300  0.50000000  1
  Mn  Mn2  1  0.50000000  0.42271600  0.00000000  1
  Mn  Mn3  1  0.50000000  0.08507300  0.00000000  1
  Mn  Mn4  1  0.50000000  0.91364100  0.50000000  1
  Mn  Mn5  1  0.74243500  0.74699500  0.74186900  1
  Mn  Mn6  1  0.25756500  0.74699500  0.25813100  1
  Mn  Mn7  1  0.00000000  0.92271600  0.00000000  1
  Mn  Mn8  1  0.00000000  0.58507300  0.00000000  1
  Mn  Mn9  1  0.00000000  0.41364100  0.50000000  1
  Mn  Mn10  1  0.24243500  0.24699500  0.74186900  1
  Mn  Mn11  1  0.75756500  0.24699500  0.25813100  1
  Cu  Cu12  1  0.50000000  0.24366900  0.50000000  1
  Cu  Cu13  1  0.50000000  0.75480000  0.00000000  1
  Cu  Cu14  1  0.00000000  0.74366900  0.50000000  1
  Cu  Cu15  1  0.00000000  0.25480000  0.00000000  1
  O  O16  1  0.56503100  0.25575800  0.87622200  1
  O  O17  1  0.84199250  0.09303450  0.10189500  1
  O  O18  1  0.43496900  0.25575800  0.12377800  1
  O  O19  1  0.62143650  0.08938150  0.39710100  1
  O  O20  1  0.84315750  0.89260350  0.59963900  1
  O  O21  1  0.37856350  0.08938150  0.60289900  1
  O  O22  1  0.65767750  0.91757050  0.90046800  1
  O  O23  1  0.15800750  0.09303450  0.89810500  1
  O  O24  1  0.34232250  0.91757050  0.09953200  1
  O  O25  1  0.56535100  0.75900500  0.36872500  1
  O  O26  1  0.15684250  0.89260350  0.40036100  1
  O  O27  1  0.43464900  0.75900500  0.63127500  1
  O  O28  1  0.06503100  0.75575800  0.87622200  1
  O  O29  1  0.34199250  0.59303450  0.10189500  1
  O  O30  1  0.93496900  0.75575800  0.12377800  1
  O  O31  1  0.12143650  0.58938150  0.39710100  1
  O  O32  1  0.34315750  0.39260350  0.59963900  1
  O  O33  1  0.87856350  0.58938150  0.60289900  1
  O  O34  1  0.15767750  0.41757050  0.90046800  1
  O  O35  1  0.65800750  0.59303450  0.89810500  1
  O  O36  1  0.84232250  0.41757050  0.09953200  1
  O  O37  1  0.06535100  0.25900500  0.36872500  1
  O  O38  1  0.65684250  0.39260350  0.40036100  1
  O  O39  1  0.93464900  0.25900500  0.63127500  1
