# generated using pymatgen
data_LiMnBO3
_symmetry_space_group_name_H-M   'P 1'
_cell_length_a   8.29287868
_cell_length_b   8.29287868
_cell_length_c   3.22020400
_cell_angle_alpha   90.00000000
_cell_angle_beta   90.00000000
_cell_angle_gamma   120.00000000
_symmetry_Int_Tables_number   1
_chemical_formula_structural   LiMnBO3
_chemical_formula_sum   'Li3 Mn3 B3 O9'
_cell_volume   191.78941795
_cell_formula_units_Z   3
loop_
 _symmetry_equiv_pos_site_id
 _symmetry_equiv_pos_as_xyz
  1  'x, y, z'
loop_
 _atom_site_type_symbol
 _atom_site_label
 _atom_site_symmetry_multiplicity
 _atom_site_fract_x
 _atom_site_fract_y
 _atom_site_fract_z
 _atom_site_occupancy
  Li  Li0  1  0.34428167  0.37543183  0.50000000  1
  Li  Li1  1  0.03115017  0.65571833  0.50000000  1
  Li  Li2  1  0.62456817  0.96884983  0.50000000  1
  Mn  Mn3  1  0.96177667  0.29019233  0.00000000  1
  Mn  Mn4  1  0.32841567  0.03822333  0.00000000  1
  Mn  Mn5  1  0.70980767  0.67158433  0.00000000  1
  B  B6  1  0.66666667  0.33333333  0.00000000  1
  B  B7  1  0.00000000  0.00000000  0.50000000  1
  B  B8  1  0.33333333  0.66666667  0.00000000  1
  O  O9  1  0.91006967  0.10340833  0.50000000  1
  O  O10  1  0.19333867  0.08993033  0.50000000  1
  O  O11  1  0.89659167  0.80666133  0.50000000  1
  O  O12  1  0.62021467  0.14759283  0.00000000  1
  O  O13  1  0.85240717  0.47262183  0.00000000  1
  O  O14  1  0.52737817  0.37978533  0.00000000  1
  O  O15  1  0.24277317  0.47266033  0.00000000  1
  O  O16  1  0.52733967  0.77011283  0.00000000  1
  O  O17  1  0.22988717  0.75722683  0.00000000  1
