# generated using pymatgen
data_LiMn2OF5
_symmetry_space_group_name_H-M   'P 1'
_cell_length_a   5.12000657
_cell_length_b   4.73219700
_cell_length_c   17.29305697
_cell_angle_alpha   90.00000000
_cell_angle_beta   91.45296853
_cell_angle_gamma   90.00000000
_symmetry_Int_Tables_number   1
_chemical_formula_structural   LiMn2OF5
_chemical_formula_sum   'Li4 Mn8 O4 F20'
_cell_volume   418.85668146
_cell_formula_units_Z   4
loop_
 _symmetry_equiv_pos_site_id
 _symmetry_equiv_pos_as_xyz
  1  'x, y, z'
loop_
 _atom_site_type_symbol
 _atom_site_label
 _atom_site_symmetry_multiplicity
 _atom_site_fract_x
 _atom_site_fract_y
 _atom_site_fract_z
 _atom_site_occupancy
  Li  Li0  1  0.74875300  0.26035000  0.38179500  1
  Li  Li1  1  0.25359600  0.23923300  0.61082300  1
  Li  Li2  1  0.74875300  0.73965000  0.88179500  1
  Li  Li3  1  0.25359600  0.76076700  0.11082300  1
  Mn  Mn4  1  0.23563500  0.26003400  0.28161600  1
  Mn  Mn5  1  0.75058900  0.26797800  0.05521100  1
  Mn  Mn6  1  0.77498800  0.29448100  0.70996400  1
  Mn  Mn7  1  0.24256100  0.24948000  0.94578000  1
  Mn  Mn8  1  0.77498800  0.70551900  0.20996400  1
  Mn  Mn9  1  0.75058900  0.73202200  0.55521100  1
  Mn  Mn10  1  0.23563500  0.73996600  0.78161600  1
  Mn  Mn11  1  0.24256100  0.75052000  0.44578000  1
  O  O12  1  0.93222200  0.51234400  0.78498000  1
  O  O13  1  0.91567800  0.49389300  0.62823700  1
  O  O14  1  0.91567800  0.50610700  0.12823700  1
  O  O15  1  0.93222200  0.48765600  0.28498000  1
  F  F16  1  0.91576500  0.48701600  0.95943400  1
  F  F17  1  0.43088900  0.48234000  0.04452700  1
  F  F18  1  0.43760900  0.51295200  0.20943600  1
  F  F19  1  0.41716900  0.47655200  0.37125500  1
  F  F20  1  0.41716900  0.52344800  0.87125500  1
  F  F21  1  0.43760900  0.48704800  0.70943600  1
  F  F22  1  0.91576500  0.51298400  0.45943400  1
  F  F23  1  0.43088900  0.51766000  0.54452700  1
  F  F24  1  0.59064200  0.96075500  0.47276800  1
  F  F25  1  0.06947100  0.96128300  0.54274300  1
  F  F26  1  0.54759400  0.02139400  0.29103600  1
  F  F27  1  0.06422900  0.03619800  0.70683800  1
  F  F28  1  0.59449800  0.96339800  0.13578300  1
  F  F29  1  0.07811400  0.96415200  0.86777500  1
  F  F30  1  0.07811400  0.03584800  0.36777500  1
  F  F31  1  0.59449800  0.03660200  0.63578300  1
  F  F32  1  0.54759400  0.97860600  0.79103600  1
  F  F33  1  0.06422900  0.96380200  0.20683800  1
  F  F34  1  0.06947100  0.03871700  0.04274300  1
  F  F35  1  0.59064200  0.03924500  0.97276800  1
