# generated using pymatgen
data_Li3Cu(NiO3)2
_symmetry_space_group_name_H-M   'P 1'
_cell_length_a   12.38788800
_cell_length_b   2.93664200
_cell_length_c   5.87514440
_cell_angle_alpha   90.00000000
_cell_angle_beta   104.51308857
_cell_angle_gamma   90.00000000
_symmetry_Int_Tables_number   1
_chemical_formula_structural   Li3Cu(NiO3)2
_chemical_formula_sum   'Li6 Cu2 Ni4 O12'
_cell_volume   206.91060137
_cell_formula_units_Z   2
loop_
 _symmetry_equiv_pos_site_id
 _symmetry_equiv_pos_as_xyz
  1  'x, y, z'
loop_
 _atom_site_type_symbol
 _atom_site_label
 _atom_site_symmetry_multiplicity
 _atom_site_fract_x
 _atom_site_fract_y
 _atom_site_fract_z
 _atom_site_occupancy
  Li  Li0  1  0.00000000  0.50000000  0.50000000  1
  Li  Li1  1  0.16838700  0.00000000  0.83592400  1
  Li  Li2  1  0.33161300  0.50000000  0.16407600  1
  Li  Li3  1  0.50000000  0.00000000  0.50000000  1
  Li  Li4  1  0.66838700  0.50000000  0.83592400  1
  Li  Li5  1  0.83161300  0.00000000  0.16407600  1
  Cu  Cu6  1  0.00000000  0.50000000  0.00000000  1
  Cu  Cu7  1  0.50000000  0.00000000  0.00000000  1
  Ni  Ni8  1  0.16807700  0.00000000  0.33186700  1
  Ni  Ni9  1  0.33192300  0.50000000  0.66813300  1
  Ni  Ni10  1  0.66807700  0.50000000  0.33186700  1
  Ni  Ni11  1  0.83192300  0.00000000  0.66813300  1
  O  O12  1  0.16247100  0.50000000  0.09544700  1
  O  O13  1  0.32480100  0.00000000  0.42349000  1
  O  O14  1  0.33752900  0.00000000  0.90455300  1
  O  O15  1  0.48924000  0.50000000  0.75639300  1
  O  O16  1  0.01076000  0.00000000  0.24360700  1
  O  O17  1  0.17519900  0.50000000  0.57651000  1
  O  O18  1  0.66247100  0.00000000  0.09544700  1
  O  O19  1  0.82480100  0.50000000  0.42349000  1
  O  O20  1  0.83752900  0.50000000  0.90455300  1
  O  O21  1  0.98924000  0.00000000  0.75639300  1
  O  O22  1  0.51076000  0.50000000  0.24360700  1
  O  O23  1  0.67519900  0.00000000  0.57651000  1
