# generated using pymatgen
data_ScCrO4
_symmetry_space_group_name_H-M   'P 1'
_cell_length_a   5.69104481
_cell_length_b   8.57374850
_cell_length_c   6.63242010
_cell_angle_alpha   90.00000000
_cell_angle_beta   90.00000000
_cell_angle_gamma   90.00000000
_symmetry_Int_Tables_number   1
_chemical_formula_structural   ScCrO4
_chemical_formula_sum   'Sc4 Cr4 O16'
_cell_volume   323.61956593
_cell_formula_units_Z   4
loop_
 _symmetry_equiv_pos_site_id
 _symmetry_equiv_pos_as_xyz
  1  'x, y, z'
loop_
 _atom_site_type_symbol
 _atom_site_label
 _atom_site_symmetry_multiplicity
 _atom_site_fract_x
 _atom_site_fract_y
 _atom_site_fract_z
 _atom_site_occupancy
  Sc  Sc0  1  0.50000000  0.50000000  0.00000000  1
  Sc  Sc1  1  0.50000000  0.50000000  0.50000000  1
  Sc  Sc2  1  0.00000000  0.00000000  0.00000000  1
  Sc  Sc3  1  0.00000000  0.00000000  0.50000000  1
  Cr  Cr4  1  0.00000000  0.35767150  0.25000000  1
  Cr  Cr5  1  0.00000000  0.64232850  0.75000000  1
  Cr  Cr6  1  0.50000000  0.85767150  0.25000000  1
  Cr  Cr7  1  0.50000000  0.14232850  0.75000000  1
  O  O8  1  0.73970025  0.52740500  0.75000000  1
  O  O9  1  0.73970025  0.47259500  0.25000000  1
  O  O10  1  0.26029975  0.47259500  0.25000000  1
  O  O11  1  0.26029975  0.52740500  0.75000000  1
  O  O12  1  0.00000000  0.23984450  0.04782550  1
  O  O13  1  0.00000000  0.23984450  0.45217450  1
  O  O14  1  0.00000000  0.76015550  0.54782550  1
  O  O15  1  0.00000000  0.76015550  0.95217450  1
  O  O16  1  0.23970025  0.02740500  0.75000000  1
  O  O17  1  0.23970025  0.97259500  0.25000000  1
  O  O18  1  0.76029975  0.97259500  0.25000000  1
  O  O19  1  0.76029975  0.02740500  0.75000000  1
  O  O20  1  0.50000000  0.73984450  0.04782550  1
  O  O21  1  0.50000000  0.73984450  0.45217450  1
  O  O22  1  0.50000000  0.26015550  0.54782550  1
  O  O23  1  0.50000000  0.26015550  0.95217450  1
