# generated using pymatgen
data_Li3CoBO4
_symmetry_space_group_name_H-M   'P 1'
_cell_length_a   10.08376200
_cell_length_b   10.08376200
_cell_length_c   12.75266400
_cell_angle_alpha   90.00000000
_cell_angle_beta   90.00000000
_cell_angle_gamma   90.00000000
_symmetry_Int_Tables_number   1
_chemical_formula_structural   Li3CoBO4
_chemical_formula_sum   'Li48 Co16 B16 O64'
_cell_volume   1296.71964646
_cell_formula_units_Z   16
loop_
 _symmetry_equiv_pos_site_id
 _symmetry_equiv_pos_as_xyz
  1  'x, y, z'
loop_
 _atom_site_type_symbol
 _atom_site_label
 _atom_site_symmetry_multiplicity
 _atom_site_fract_x
 _atom_site_fract_y
 _atom_site_fract_z
 _atom_site_occupancy
  Li  Li0  1  0.65885000  0.47729200  0.43820200  1
  Li  Li1  1  0.84115000  0.52270800  0.31179800  1
  Li  Li2  1  0.97729200  0.84115000  0.06179800  1
  Li  Li3  1  0.97729200  0.34115000  0.18820200  1
  Li  Li4  1  0.97880200  0.12624500  0.29114100  1
  Li  Li5  1  0.99247100  0.15012400  0.57143000  1
  Li  Li6  1  0.02270800  0.15885000  0.06179800  1
  Li  Li7  1  0.02270800  0.65885000  0.18820200  1
  Li  Li8  1  0.12624500  0.02119800  0.70885900  1
  Li  Li9  1  0.15012400  0.00752900  0.42857000  1
  Li  Li10  1  0.15885000  0.47729200  0.31179800  1
  Li  Li11  1  0.34115000  0.52270800  0.43820200  1
  Li  Li12  1  0.34987600  0.49247100  0.92857000  1
  Li  Li13  1  0.34987600  0.99247100  0.32143000  1
  Li  Li14  1  0.37375500  0.97880200  0.04114100  1
  Li  Li15  1  0.37375500  0.47880200  0.20885900  1
  Li  Li16  1  0.50752900  0.84987600  0.17857000  1
  Li  Li17  1  0.50752900  0.34987600  0.07143000  1
  Li  Li18  1  0.47880200  0.12624500  0.45885900  1
  Li  Li19  1  0.52119800  0.87375500  0.45885900  1
  Li  Li20  1  0.52119800  0.37375500  0.79114100  1
  Li  Li21  1  0.49247100  0.15012400  0.17857000  1
  Li  Li22  1  0.62624500  0.02119800  0.04114100  1
  Li  Li23  1  0.65012400  0.00752900  0.32143000  1
  Li  Li24  1  0.15885000  0.97729200  0.93820200  1
  Li  Li25  1  0.34115000  0.02270800  0.81179800  1
  Li  Li26  1  0.47729200  0.34115000  0.56179800  1
  Li  Li27  1  0.47729200  0.84115000  0.68820200  1
  Li  Li28  1  0.47880200  0.62624500  0.79114100  1
  Li  Li29  1  0.49247100  0.65012400  0.07143000  1
  Li  Li30  1  0.52270800  0.65885000  0.56179800  1
  Li  Li31  1  0.52270800  0.15885000  0.68820200  1
  Li  Li32  1  0.62624500  0.52119800  0.20885900  1
  Li  Li33  1  0.65012400  0.50752900  0.92857000  1
  Li  Li34  1  0.65885000  0.97729200  0.81179800  1
  Li  Li35  1  0.84115000  0.02270800  0.93820200  1
  Li  Li36  1  0.84987600  0.99247100  0.42857000  1
  Li  Li37  1  0.84987600  0.49247100  0.82143000  1
  Li  Li38  1  0.87375500  0.47880200  0.54114100  1
  Li  Li39  1  0.87375500  0.97880200  0.70885900  1
  Li  Li40  1  0.00752900  0.34987600  0.67857000  1
  Li  Li41  1  0.00752900  0.84987600  0.57143000  1
  Li  Li42  1  0.97880200  0.62624500  0.95885900  1
  Li  Li43  1  0.02119800  0.37375500  0.95885900  1
  Li  Li44  1  0.02119800  0.87375500  0.29114100  1
  Li  Li45  1  0.99247100  0.65012400  0.67857000  1
  Li  Li46  1  0.12624500  0.52119800  0.54114100  1
  Li  Li47  1  0.15012400  0.50752900  0.82143000  1
  Co  Co48  1  0.72606500  0.27013400  0.19086600  1
  Co  Co49  1  0.22986600  0.22606500  0.30913400  1
  Co  Co50  1  0.22986600  0.72606500  0.94086600  1
  Co  Co51  1  0.22606500  0.27013400  0.55913400  1
  Co  Co52  1  0.27393500  0.22986600  0.05913400  1
  Co  Co53  1  0.27013400  0.27393500  0.80913400  1
  Co  Co54  1  0.27013400  0.77393500  0.44086600  1
  Co  Co55  1  0.77393500  0.22986600  0.69086600  1
  Co  Co56  1  0.22606500  0.77013400  0.69086600  1
  Co  Co57  1  0.72986600  0.72606500  0.80913400  1
  Co  Co58  1  0.72986600  0.22606500  0.44086600  1
  Co  Co59  1  0.72606500  0.77013400  0.05913400  1
  Co  Co60  1  0.77393500  0.72986600  0.55913400  1
  Co  Co61  1  0.77013400  0.77393500  0.30913400  1
  Co  Co62  1  0.77013400  0.27393500  0.94086600  1
  Co  Co63  1  0.27393500  0.72986600  0.19086600  1
  B  B64  1  0.97064150  0.30428450  0.42410250  1
  B  B65  1  0.19571550  0.97064150  0.17410250  1
  B  B66  1  0.19571550  0.47064150  0.07589750  1
  B  B67  1  0.30428450  0.02935850  0.57589750  1
  B  B68  1  0.47064150  0.30428450  0.32589750  1
  B  B69  1  0.52935850  0.69571550  0.32589750  1
  B  B70  1  0.52935850  0.19571550  0.92410250  1
  B  B71  1  0.80428450  0.02935850  0.17410250  1
  B  B72  1  0.47064150  0.80428450  0.92410250  1
  B  B73  1  0.69571550  0.47064150  0.67410250  1
  B  B74  1  0.69571550  0.97064150  0.57589750  1
  B  B75  1  0.80428450  0.52935850  0.07589750  1
  B  B76  1  0.97064150  0.80428450  0.82589750  1
  B  B77  1  0.02935850  0.19571550  0.82589750  1
  B  B78  1  0.02935850  0.69571550  0.42410250  1
  B  B79  1  0.30428450  0.52935850  0.67410250  1
  O  O80  1  0.84465750  0.38432850  0.41516250  1
  O  O81  1  0.88432850  0.15534250  0.16516250  1
  O  O82  1  0.92073250  0.16431650  0.43483150  1
  O  O83  1  0.95526250  0.15705350  0.72596850  1
  O  O84  1  0.04473750  0.34294650  0.52403150  1
  O  O85  1  0.05472800  0.31520900  0.32890500  1
  O  O86  1  0.11567150  0.34465750  0.08483750  1
  O  O87  1  0.15705350  0.04473750  0.27403150  1
  O  O88  1  0.15705350  0.54473750  0.97596850  1
  O  O89  1  0.15534250  0.11567150  0.83483750  1
  O  O90  1  0.18479100  0.05472800  0.07890500  1
  O  O91  1  0.18479100  0.55472800  0.17109500  1
  O  O92  1  0.16431650  0.07926750  0.56516850  1
  O  O93  1  0.33568350  0.92073250  0.18483150  1
  O  O94  1  0.33568350  0.42073250  0.06516850  1
  O  O95  1  0.31520900  0.94527200  0.67109500  1
  O  O96  1  0.34465750  0.38432850  0.33483750  1
  O  O97  1  0.34294650  0.45526250  0.77403150  1
  O  O98  1  0.34294650  0.95526250  0.47596850  1
  O  O99  1  0.38432850  0.15534250  0.58483750  1
  O  O100  1  0.42073250  0.16431650  0.31516850  1
  O  O101  1  0.44527200  0.68479100  0.42109500  1
  O  O102  1  0.44527200  0.18479100  0.82890500  1
  O  O103  1  0.45526250  0.15705350  0.02403150  1
  O  O104  1  0.54473750  0.34294650  0.22596850  1
  O  O105  1  0.55472800  0.31520900  0.42109500  1
  O  O106  1  0.57926750  0.33568350  0.93483150  1
  O  O107  1  0.57926750  0.83568350  0.31516850  1
  O  O108  1  0.61567150  0.34465750  0.66516250  1
  O  O109  1  0.65534250  0.11567150  0.91516250  1
  O  O110  1  0.66431650  0.07926750  0.18483150  1
  O  O111  1  0.81520900  0.94527200  0.07890500  1
  O  O112  1  0.34465750  0.88432850  0.91516250  1
  O  O113  1  0.38432850  0.65534250  0.66516250  1
  O  O114  1  0.42073250  0.66431650  0.93483150  1
  O  O115  1  0.45526250  0.65705350  0.22596850  1
  O  O116  1  0.54473750  0.84294650  0.02403150  1
  O  O117  1  0.55472800  0.81520900  0.82890500  1
  O  O118  1  0.61567150  0.84465750  0.58483750  1
  O  O119  1  0.65705350  0.54473750  0.77403150  1
  O  O120  1  0.65705350  0.04473750  0.47596850  1
  O  O121  1  0.65534250  0.61567150  0.33483750  1
  O  O122  1  0.68479100  0.55472800  0.57890500  1
  O  O123  1  0.68479100  0.05472800  0.67109500  1
  O  O124  1  0.66431650  0.57926750  0.06516850  1
  O  O125  1  0.83568350  0.42073250  0.68483150  1
  O  O126  1  0.83568350  0.92073250  0.56516850  1
  O  O127  1  0.81520900  0.44527200  0.17109500  1
  O  O128  1  0.84465750  0.88432850  0.83483750  1
  O  O129  1  0.84294650  0.95526250  0.27403150  1
  O  O130  1  0.84294650  0.45526250  0.97596850  1
  O  O131  1  0.88432850  0.65534250  0.08483750  1
  O  O132  1  0.92073250  0.66431650  0.81516850  1
  O  O133  1  0.94527200  0.18479100  0.92109500  1
  O  O134  1  0.94527200  0.68479100  0.32890500  1
  O  O135  1  0.95526250  0.65705350  0.52403150  1
  O  O136  1  0.04473750  0.84294650  0.72596850  1
  O  O137  1  0.05472800  0.81520900  0.92109500  1
  O  O138  1  0.07926750  0.83568350  0.43483150  1
  O  O139  1  0.07926750  0.33568350  0.81516850  1
  O  O140  1  0.11567150  0.84465750  0.16516250  1
  O  O141  1  0.15534250  0.61567150  0.41516250  1
  O  O142  1  0.16431650  0.57926750  0.68483150  1
  O  O143  1  0.31520900  0.44527200  0.57890500  1
