# generated using pymatgen
data_Fe5(O4F)2
_symmetry_space_group_name_H-M   'P 1'
_cell_length_a   7.64973775
_cell_length_b   4.59761100
_cell_length_c   10.26283261
_cell_angle_alpha   90.00000000
_cell_angle_beta   116.42542374
_cell_angle_gamma   90.00000000
_symmetry_Int_Tables_number   1
_chemical_formula_structural   Fe5(O4F)2
_chemical_formula_sum   'Fe10 O16 F4'
_cell_volume   323.23514676
_cell_formula_units_Z   2
loop_
 _symmetry_equiv_pos_site_id
 _symmetry_equiv_pos_as_xyz
  1  'x, y, z'
loop_
 _atom_site_type_symbol
 _atom_site_label
 _atom_site_symmetry_multiplicity
 _atom_site_fract_x
 _atom_site_fract_y
 _atom_site_fract_z
 _atom_site_occupancy
  Fe  Fe0  1  0.69737700  0.48146700  0.30804100  1
  Fe  Fe1  1  0.30262300  0.51853300  0.69195900  1
  Fe  Fe2  1  0.91302600  0.48015900  0.10310700  1
  Fe  Fe3  1  0.50000000  0.50000000  0.50000000  1
  Fe  Fe4  1  0.08697400  0.51984100  0.89689300  1
  Fe  Fe5  1  0.30262300  0.98146700  0.19195900  1
  Fe  Fe6  1  0.50000000  0.00000000  0.00000000  1
  Fe  Fe7  1  0.69737700  0.01853300  0.80804100  1
  Fe  Fe8  1  0.91302600  0.01984100  0.60310700  1
  Fe  Fe9  1  0.08697400  0.98015900  0.39689300  1
  O  O10  1  0.71916200  0.19952800  0.98426900  1
  O  O11  1  0.91360700  0.19969600  0.77838200  1
  O  O12  1  0.51442000  0.19226000  0.17757800  1
  O  O13  1  0.12278900  0.19924300  0.57507500  1
  O  O14  1  0.91360700  0.30030400  0.27838200  1
  O  O15  1  0.12278900  0.30075700  0.07507500  1
  O  O16  1  0.71916200  0.30047200  0.48426900  1
  O  O17  1  0.51442000  0.30774000  0.67757800  1
  O  O18  1  0.87721100  0.69924300  0.92492500  1
  O  O19  1  0.08639300  0.69969600  0.72161800  1
  O  O20  1  0.28083800  0.69952800  0.51573100  1
  O  O21  1  0.48558000  0.69226000  0.32242200  1
  O  O22  1  0.28083800  0.80047200  0.01573100  1
  O  O23  1  0.48558000  0.80774000  0.82242200  1
  O  O24  1  0.08639300  0.80030400  0.22161800  1
  O  O25  1  0.87721100  0.80075700  0.42492500  1
  F  F26  1  0.31623400  0.19193000  0.37512500  1
  F  F27  1  0.31623400  0.30807000  0.87512500  1
  F  F28  1  0.68376600  0.69193000  0.12487500  1
  F  F29  1  0.68376600  0.80807000  0.62487500  1
