# generated using pymatgen
data_FeO2F
_symmetry_space_group_name_H-M   'P 1'
_cell_length_a   8.79192200
_cell_length_b   4.88887200
_cell_length_c   4.86860581
_cell_angle_alpha   90.00000000
_cell_angle_beta   117.16787004
_cell_angle_gamma   90.00000000
_symmetry_Int_Tables_number   1
_chemical_formula_structural   FeO2F
_chemical_formula_sum   'Fe4 O8 F4'
_cell_volume   186.17754648
_cell_formula_units_Z   4
loop_
 _symmetry_equiv_pos_site_id
 _symmetry_equiv_pos_as_xyz
  1  'x, y, z'
loop_
 _atom_site_type_symbol
 _atom_site_label
 _atom_site_symmetry_multiplicity
 _atom_site_fract_x
 _atom_site_fract_y
 _atom_site_fract_z
 _atom_site_occupancy
  Fe  Fe0  1  0.25000000  0.25000000  0.50000000  1
  Fe  Fe1  1  0.25000000  0.75000000  0.00000000  1
  Fe  Fe2  1  0.75000000  0.75000000  0.50000000  1
  Fe  Fe3  1  0.75000000  0.25000000  0.00000000  1
  O  O4  1  0.28795100  0.34736900  0.12610000  1
  O  O5  1  0.21204900  0.84736900  0.37390000  1
  O  O6  1  0.28795100  0.65263100  0.62610000  1
  O  O7  1  0.21204900  0.15263100  0.87390000  1
  O  O8  1  0.78795100  0.84736900  0.12610000  1
  O  O9  1  0.71204900  0.34736900  0.37390000  1
  O  O10  1  0.78795100  0.15263100  0.62610000  1
  O  O11  1  0.71204900  0.65263100  0.87390000  1
  F  F12  1  0.00000000  0.70284100  0.75000000  1
  F  F13  1  0.00000000  0.29715900  0.25000000  1
  F  F14  1  0.50000000  0.20284100  0.75000000  1
  F  F15  1  0.50000000  0.79715900  0.25000000  1
