# generated using pymatgen
data_Li3Co3NiO8
_symmetry_space_group_name_H-M   'P 1'
_cell_length_a   9.94414317
_cell_length_b   5.85754854
_cell_length_c   5.89830048
_cell_angle_alpha   90.00000000
_cell_angle_beta   124.36710303
_cell_angle_gamma   90.00000000
_symmetry_Int_Tables_number   1
_chemical_formula_structural   Li3Co3NiO8
_chemical_formula_sum   'Li6 Co6 Ni2 O16'
_cell_volume   283.59233039
_cell_formula_units_Z   2
loop_
 _symmetry_equiv_pos_site_id
 _symmetry_equiv_pos_as_xyz
  1  'x, y, z'
loop_
 _atom_site_type_symbol
 _atom_site_label
 _atom_site_symmetry_multiplicity
 _atom_site_fract_x
 _atom_site_fract_y
 _atom_site_fract_z
 _atom_site_occupancy
  Li  Li0  1  0.25000000  0.25000000  0.50000000  1
  Li  Li1  1  0.00000000  0.50000000  0.50000000  1
  Li  Li2  1  0.75000000  0.25000000  0.50000000  1
  Li  Li3  1  0.75000000  0.75000000  0.50000000  1
  Li  Li4  1  0.50000000  0.00000000  0.50000000  1
  Li  Li5  1  0.25000000  0.75000000  0.50000000  1
  Co  Co6  1  0.25000000  0.25000000  0.00000000  1
  Co  Co7  1  0.00000000  0.50000000  0.00000000  1
  Co  Co8  1  0.75000000  0.25000000  0.00000000  1
  Co  Co9  1  0.75000000  0.75000000  0.00000000  1
  Co  Co10  1  0.50000000  0.00000000  0.00000000  1
  Co  Co11  1  0.25000000  0.75000000  0.00000000  1
  Ni  Ni12  1  0.00000000  0.00000000  0.00000000  1
  Ni  Ni13  1  0.50000000  0.50000000  0.00000000  1
  O  O14  1  0.01199150  0.73025150  0.78789100  1
  O  O15  1  0.76987450  0.50000000  0.78037600  1
  O  O16  1  0.01199150  0.26974850  0.78789100  1
  O  O17  1  0.25228400  0.50000000  0.77260000  1
  O  O18  1  0.74771600  0.50000000  0.22740000  1
  O  O19  1  0.98800850  0.73025150  0.21210900  1
  O  O20  1  0.23012550  0.50000000  0.21962400  1
  O  O21  1  0.98800850  0.26974850  0.21210900  1
  O  O22  1  0.51199150  0.23025150  0.78789100  1
  O  O23  1  0.26987450  0.00000000  0.78037600  1
  O  O24  1  0.51199150  0.76974850  0.78789100  1
  O  O25  1  0.75228400  0.00000000  0.77260000  1
  O  O26  1  0.24771600  0.00000000  0.22740000  1
  O  O27  1  0.48800850  0.23025150  0.21210900  1
  O  O28  1  0.73012550  0.00000000  0.21962400  1
  O  O29  1  0.48800850  0.76974850  0.21210900  1
