# generated using pymatgen
data_Li2V5CuO12
_symmetry_space_group_name_H-M   'P 1'
_cell_length_a   10.36028200
_cell_length_b   9.06702200
_cell_length_c   5.85434801
_cell_angle_alpha   90.00000000
_cell_angle_beta   111.00496185
_cell_angle_gamma   90.00000000
_symmetry_Int_Tables_number   1
_chemical_formula_structural   Li2V5CuO12
_chemical_formula_sum   'Li4 V10 Cu2 O24'
_cell_volume   513.39552646
_cell_formula_units_Z   2
loop_
 _symmetry_equiv_pos_site_id
 _symmetry_equiv_pos_as_xyz
  1  'x, y, z'
loop_
 _atom_site_type_symbol
 _atom_site_label
 _atom_site_symmetry_multiplicity
 _atom_site_fract_x
 _atom_site_fract_y
 _atom_site_fract_z
 _atom_site_occupancy
  Li  Li0  1  0.00000000  0.25078100  0.00000000  1
  Li  Li1  1  0.00000000  0.76241700  0.50000000  1
  Li  Li2  1  0.50000000  0.75078100  0.00000000  1
  Li  Li3  1  0.50000000  0.26241700  0.50000000  1
  V  V4  1  0.00000000  0.91479200  0.00000000  1
  V  V5  1  0.20382600  0.40657300  0.48464100  1
  V  V6  1  0.20711750  0.59894250  0.98062200  1
  V  V7  1  0.79617400  0.40657300  0.51535900  1
  V  V8  1  0.79288250  0.59894250  0.01937800  1
  V  V9  1  0.50000000  0.41479200  0.00000000  1
  V  V10  1  0.70382600  0.90657300  0.48464100  1
  V  V11  1  0.70711750  0.09894250  0.98062200  1
  V  V12  1  0.29617400  0.90657300  0.51535900  1
  V  V13  1  0.29288250  0.09894250  0.01937800  1
  Cu  Cu14  1  0.00000000  0.09852300  0.50000000  1
  Cu  Cu15  1  0.50000000  0.59852300  0.50000000  1
  O  O16  1  0.38567400  0.40387400  0.61292400  1
  O  O17  1  0.13760950  0.23213050  0.43644800  1
  O  O18  1  0.39107700  0.58423900  0.07744900  1
  O  O19  1  0.13500000  0.50537400  0.67709100  1
  O  O20  1  0.86239050  0.23213050  0.56355200  1
  O  O21  1  0.14706800  0.48425200  0.18728000  1
  O  O22  1  0.86500000  0.50537400  0.32290900  1
  O  O23  1  0.12398900  0.77135700  0.92945200  1
  O  O24  1  0.85293200  0.48425200  0.81272000  1
  O  O25  1  0.61432600  0.40387400  0.38707600  1
  O  O26  1  0.87601100  0.77135700  0.07054800  1
  O  O27  1  0.60892300  0.58423900  0.92255100  1
  O  O28  1  0.88567400  0.90387400  0.61292400  1
  O  O29  1  0.63760950  0.73213050  0.43644800  1
  O  O30  1  0.89107700  0.08423900  0.07744900  1
  O  O31  1  0.63500000  0.00537400  0.67709100  1
  O  O32  1  0.36239050  0.73213050  0.56355200  1
  O  O33  1  0.64706800  0.98425200  0.18728000  1
  O  O34  1  0.36500000  0.00537400  0.32290900  1
  O  O35  1  0.62398900  0.27135700  0.92945200  1
  O  O36  1  0.35293200  0.98425200  0.81272000  1
  O  O37  1  0.11432600  0.90387400  0.38707600  1
  O  O38  1  0.37601100  0.27135700  0.07054800  1
  O  O39  1  0.10892300  0.08423900  0.92255100  1
