# generated using pymatgen
data_LiMn2O2F3
_symmetry_space_group_name_H-M   'P 1'
_cell_length_a   9.82482400
_cell_length_b   4.04974200
_cell_length_c   9.99362393
_cell_angle_alpha   90.00000000
_cell_angle_beta   90.67666341
_cell_angle_gamma   90.00000000
_symmetry_Int_Tables_number   1
_chemical_formula_structural   LiMn2O2F3
_chemical_formula_sum   'Li4 Mn8 O8 F12'
_cell_volume   397.59860341
_cell_formula_units_Z   4
loop_
 _symmetry_equiv_pos_site_id
 _symmetry_equiv_pos_as_xyz
  1  'x, y, z'
loop_
 _atom_site_type_symbol
 _atom_site_label
 _atom_site_symmetry_multiplicity
 _atom_site_fract_x
 _atom_site_fract_y
 _atom_site_fract_z
 _atom_site_occupancy
  Li  Li0  1  0.86334100  0.00000000  0.93985500  1
  Li  Li1  1  0.63665900  0.50000000  0.06014500  1
  Li  Li2  1  0.36334100  0.50000000  0.93985500  1
  Li  Li3  1  0.13665900  0.00000000  0.06014500  1
  Mn  Mn4  1  0.85960400  0.00000000  0.55770100  1
  Mn  Mn5  1  0.81599000  0.00000000  0.25062000  1
  Mn  Mn6  1  0.68401000  0.50000000  0.74938000  1
  Mn  Mn7  1  0.64039600  0.50000000  0.44229900  1
  Mn  Mn8  1  0.35960400  0.50000000  0.55770100  1
  Mn  Mn9  1  0.31599000  0.50000000  0.25062000  1
  Mn  Mn10  1  0.18401000  0.00000000  0.74938000  1
  Mn  Mn11  1  0.14039600  0.00000000  0.44229900  1
  O  O12  1  0.95268100  0.00000000  0.38583200  1
  O  O13  1  0.81061200  0.50000000  0.57541800  1
  O  O14  1  0.68938800  0.00000000  0.42458200  1
  O  O15  1  0.54731900  0.50000000  0.61416800  1
  O  O16  1  0.45268100  0.50000000  0.38583200  1
  O  O17  1  0.31061200  0.00000000  0.57541800  1
  O  O18  1  0.18938800  0.50000000  0.42458200  1
  O  O19  1  0.04731900  0.00000000  0.61416800  1
  F  F20  1  0.95346800  0.00000000  0.11862200  1
  F  F21  1  0.81296900  0.50000000  0.90615500  1
  F  F22  1  0.76338800  0.00000000  0.73917700  1
  F  F23  1  0.73661200  0.50000000  0.26082300  1
  F  F24  1  0.68703100  0.00000000  0.09384500  1
  F  F25  1  0.54653200  0.50000000  0.88137800  1
  F  F26  1  0.45346800  0.50000000  0.11862200  1
  F  F27  1  0.31296900  0.00000000  0.90615500  1
  F  F28  1  0.26338800  0.50000000  0.73917700  1
  F  F29  1  0.23661200  0.00000000  0.26082300  1
  F  F30  1  0.18703100  0.50000000  0.09384500  1
  F  F31  1  0.04653200  0.00000000  0.88137800  1
