# generated using pymatgen
data_Na2CrAsCO7
_symmetry_space_group_name_H-M   'P 1'
_cell_length_a   5.35750483
_cell_length_b   6.74195500
_cell_length_c   9.12710451
_cell_angle_alpha   90.00000000
_cell_angle_beta   92.22889418
_cell_angle_gamma   90.00000000
_symmetry_Int_Tables_number   1
_chemical_formula_structural   Na2CrAsCO7
_chemical_formula_sum   'Na4 Cr2 As2 C2 O14'
_cell_volume   329.42211121
_cell_formula_units_Z   2
loop_
 _symmetry_equiv_pos_site_id
 _symmetry_equiv_pos_as_xyz
  1  'x, y, z'
loop_
 _atom_site_type_symbol
 _atom_site_label
 _atom_site_symmetry_multiplicity
 _atom_site_fract_x
 _atom_site_fract_y
 _atom_site_fract_z
 _atom_site_occupancy
  Na  Na0  1  0.76446150  0.99780300  0.22244000  1
  Na  Na1  1  0.76446150  0.50219700  0.22244000  1
  Na  Na2  1  0.23553850  0.49780300  0.77756000  1
  Na  Na3  1  0.23553850  0.00219700  0.77756000  1
  Cr  Cr4  1  0.21110250  0.25000000  0.34457600  1
  Cr  Cr5  1  0.78889750  0.75000000  0.65542400  1
  As  As6  1  0.28525250  0.75000000  0.42466900  1
  As  As7  1  0.71474750  0.25000000  0.57533100  1
  C  C8  1  0.27779250  0.25000000  0.07879800  1
  C  C9  1  0.72220750  0.75000000  0.92120200  1
  O  O10  1  0.68880450  0.75000000  0.05653200  1
  O  O11  1  0.05620250  0.25000000  0.13701300  1
  O  O12  1  0.46261850  0.25000000  0.17995400  1
  O  O13  1  0.19640250  0.95163200  0.32114700  1
  O  O14  1  0.19640250  0.54836800  0.32114700  1
  O  O15  1  0.85385850  0.25000000  0.40862800  1
  O  O16  1  0.60768650  0.75000000  0.45517500  1
  O  O17  1  0.39231350  0.25000000  0.54482500  1
  O  O18  1  0.14614150  0.75000000  0.59137200  1
  O  O19  1  0.80359750  0.45163200  0.67885300  1
  O  O20  1  0.80359750  0.04836800  0.67885300  1
  O  O21  1  0.53738150  0.75000000  0.82004600  1
  O  O22  1  0.94379750  0.75000000  0.86298700  1
  O  O23  1  0.31119550  0.25000000  0.94346800  1
