# generated using pymatgen
data_AgBiO3
_symmetry_space_group_name_H-M   'P 1'
_cell_length_a   8.06027200
_cell_length_b   10.88733200
_cell_length_c   3.52090400
_cell_angle_alpha   90.00000000
_cell_angle_beta   90.00000000
_cell_angle_gamma   90.00000000
_symmetry_Int_Tables_number   1
_chemical_formula_structural   AgBiO3
_chemical_formula_sum   'Ag4 Bi4 O12'
_cell_volume   308.97642800
_cell_formula_units_Z   4
loop_
 _symmetry_equiv_pos_site_id
 _symmetry_equiv_pos_as_xyz
  1  'x, y, z'
loop_
 _atom_site_type_symbol
 _atom_site_label
 _atom_site_symmetry_multiplicity
 _atom_site_fract_x
 _atom_site_fract_y
 _atom_site_fract_z
 _atom_site_occupancy
  Ag  Ag0  1  0.00000000  0.00000000  0.00000000  1
  Ag  Ag1  1  0.50000000  0.00000000  0.00000000  1
  Ag  Ag2  1  0.50000000  0.50000000  0.00000000  1
  Ag  Ag3  1  0.00000000  0.50000000  0.00000000  1
  Bi  Bi4  1  0.25000000  0.25000000  0.50000000  1
  Bi  Bi5  1  0.25000000  0.75000000  0.50000000  1
  Bi  Bi6  1  0.75000000  0.75000000  0.50000000  1
  Bi  Bi7  1  0.75000000  0.25000000  0.50000000  1
  O  O8  1  0.17919500  0.13244400  0.00000000  1
  O  O9  1  0.17919500  0.86755600  0.00000000  1
  O  O10  1  0.50000000  0.14251200  0.50000000  1
  O  O11  1  0.50000000  0.85748800  0.50000000  1
  O  O12  1  0.82080500  0.86755600  0.00000000  1
  O  O13  1  0.82080500  0.13244400  0.00000000  1
  O  O14  1  0.67919500  0.63244400  0.00000000  1
  O  O15  1  0.67919500  0.36755600  0.00000000  1
  O  O16  1  0.00000000  0.64251200  0.50000000  1
  O  O17  1  0.00000000  0.35748800  0.50000000  1
  O  O18  1  0.32080500  0.36755600  0.00000000  1
  O  O19  1  0.32080500  0.63244400  0.00000000  1
