# generated using pymatgen
data_LiFe(PO3)4
_symmetry_space_group_name_H-M   'P 1'
_cell_length_a   7.22158500
_cell_length_b   9.51162000
_cell_length_c   7.22300599
_cell_angle_alpha   90.00000000
_cell_angle_beta   95.56423876
_cell_angle_gamma   90.00000000
_symmetry_Int_Tables_number   1
_chemical_formula_structural   LiFe(PO3)4
_chemical_formula_sum   'Li2 Fe2 P8 O24'
_cell_volume   493.80309870
_cell_formula_units_Z   2
loop_
 _symmetry_equiv_pos_site_id
 _symmetry_equiv_pos_as_xyz
  1  'x, y, z'
loop_
 _atom_site_type_symbol
 _atom_site_label
 _atom_site_symmetry_multiplicity
 _atom_site_fract_x
 _atom_site_fract_y
 _atom_site_fract_z
 _atom_site_occupancy
  Li  Li0  1  0.72604400  0.98297300  0.74772300  1
  Li  Li1  1  0.27395600  0.48297300  0.25227700  1
  Fe  Fe2  1  0.28794600  0.23967700  0.78628400  1
  Fe  Fe3  1  0.71205400  0.73967700  0.21371600  1
  P  P4  1  0.61377200  0.61633700  0.89646100  1
  P  P5  1  0.21012800  0.58273200  0.84628700  1
  P  P6  1  0.60997800  0.40242300  0.59072400  1
  P  P7  1  0.98453300  0.27953100  0.45768100  1
  P  P8  1  0.01546700  0.77953100  0.54231900  1
  P  P9  1  0.39002200  0.90242300  0.40927600  1
  P  P10  1  0.78987200  0.08273200  0.15371300  1
  P  P11  1  0.38622800  0.11633700  0.10353900  1
  O  O12  1  0.83598900  0.10307800  0.95979400  1
  O  O13  1  0.38685000  0.05167300  0.91000200  1
  O  O14  1  0.72074500  0.75428800  0.92210800  1
  O  O15  1  0.40886800  0.65379200  0.80785300  1
  O  O16  1  0.69797700  0.51404500  0.75176100  1
  O  O17  1  0.90647400  0.89253100  0.61908300  1
  O  O18  1  0.07846000  0.66670800  0.69866400  1
  O  O19  1  0.07765000  0.18942300  0.61707600  1
  O  O20  1  0.52511500  0.28149600  0.69389700  1
  O  O21  1  0.21543500  0.43365700  0.77460700  1
  O  O22  1  0.50461500  0.97892500  0.55615700  1
  O  O23  1  0.79388300  0.33944000  0.52120200  1
  O  O24  1  0.20611700  0.83944000  0.47879800  1
  O  O25  1  0.49538500  0.47892500  0.44384300  1
  O  O26  1  0.78456500  0.93365700  0.22539300  1
  O  O27  1  0.47488500  0.78149600  0.30610300  1
  O  O28  1  0.92235000  0.68942300  0.38292400  1
  O  O29  1  0.92154000  0.16670800  0.30133600  1
  O  O30  1  0.09352600  0.39253100  0.38091700  1
  O  O31  1  0.30202300  0.01404500  0.24823900  1
  O  O32  1  0.59113200  0.15379200  0.19214700  1
  O  O33  1  0.27925500  0.25428800  0.07789200  1
  O  O34  1  0.61315000  0.55167300  0.08999800  1
  O  O35  1  0.16401100  0.60307800  0.04020600  1
