# generated using pymatgen
data_Cr3Sn2Sb3O16
_symmetry_space_group_name_H-M   'P 1'
_cell_length_a   10.60240800
_cell_length_b   6.15508600
_cell_length_c   9.47758800
_cell_angle_alpha   90.00000000
_cell_angle_beta   90.05885195
_cell_angle_gamma   90.00000000
_symmetry_Int_Tables_number   1
_chemical_formula_structural   Cr3Sn2Sb3O16
_chemical_formula_sum   'Cr6 Sn4 Sb6 O32'
_cell_volume   618.49505893
_cell_formula_units_Z   2
loop_
 _symmetry_equiv_pos_site_id
 _symmetry_equiv_pos_as_xyz
  1  'x, y, z'
loop_
 _atom_site_type_symbol
 _atom_site_label
 _atom_site_symmetry_multiplicity
 _atom_site_fract_x
 _atom_site_fract_y
 _atom_site_fract_z
 _atom_site_occupancy
  Cr  Cr0  1  0.41502500  0.24708300  0.78962100  1
  Cr  Cr1  1  0.41502500  0.75291700  0.78962100  1
  Cr  Cr2  1  0.82909700  0.00000000  0.28858400  1
  Cr  Cr3  1  0.91502500  0.74708300  0.78962100  1
  Cr  Cr4  1  0.91502500  0.25291700  0.78962100  1
  Cr  Cr5  1  0.32909700  0.50000000  0.28858400  1
  Sn  Sn6  1  0.34364800  0.00000000  0.52055500  1
  Sn  Sn7  1  0.67464700  0.00000000  0.99384300  1
  Sn  Sn8  1  0.84364800  0.50000000  0.52055500  1
  Sn  Sn9  1  0.17464700  0.50000000  0.99384300  1
  Sb  Sb10  1  0.16609600  0.00000000  0.78770800  1
  Sb  Sb11  1  0.58220350  0.75226650  0.28599600  1
  Sb  Sb12  1  0.58220350  0.24773350  0.28599600  1
  Sb  Sb13  1  0.66609600  0.50000000  0.78770800  1
  Sb  Sb14  1  0.08220350  0.25226650  0.28599600  1
  Sb  Sb15  1  0.08220350  0.74773350  0.28599600  1
  O  O16  1  0.42020950  0.25219950  0.39362900  1
  O  O17  1  0.48145900  0.00000000  0.67035700  1
  O  O18  1  0.32857700  0.00000000  0.89445200  1
  O  O19  1  0.00110600  0.00000000  0.69081100  1
  O  O20  1  0.99889200  0.00000000  0.18532900  1
  O  O21  1  0.42020950  0.74780050  0.39362900  1
  O  O22  1  0.25832250  0.22026050  0.66148100  1
  O  O23  1  0.25832250  0.77973950  0.66148100  1
  O  O24  1  0.84036100  0.00000000  0.89784800  1
  O  O25  1  0.16509700  0.00000000  0.39491600  1
  O  O26  1  0.73660950  0.21725950  0.16732700  1
  O  O27  1  0.73660950  0.78274050  0.16732700  1
  O  O28  1  0.66333700  0.00000000  0.39945200  1
  O  O29  1  0.58318550  0.25635950  0.90133900  1
  O  O30  1  0.51699000  0.00000000  0.16162600  1
  O  O31  1  0.58318550  0.74364050  0.90133900  1
  O  O32  1  0.92020950  0.75219950  0.39362900  1
  O  O33  1  0.98145900  0.50000000  0.67035700  1
  O  O34  1  0.82857700  0.50000000  0.89445200  1
  O  O35  1  0.50110600  0.50000000  0.69081100  1
  O  O36  1  0.49889200  0.50000000  0.18532900  1
  O  O37  1  0.92020950  0.24780050  0.39362900  1
  O  O38  1  0.75832250  0.72026050  0.66148100  1
  O  O39  1  0.75832250  0.27973950  0.66148100  1
  O  O40  1  0.34036100  0.50000000  0.89784800  1
  O  O41  1  0.66509700  0.50000000  0.39491600  1
  O  O42  1  0.23660950  0.71725950  0.16732700  1
  O  O43  1  0.23660950  0.28274050  0.16732700  1
  O  O44  1  0.16333700  0.50000000  0.39945200  1
  O  O45  1  0.08318550  0.75635950  0.90133900  1
  O  O46  1  0.01699000  0.50000000  0.16162600  1
  O  O47  1  0.08318550  0.24364050  0.90133900  1
