# generated using pymatgen
data_FeNiO3
_symmetry_space_group_name_H-M   'P 1'
_cell_length_a   5.05590057
_cell_length_b   5.05590057
_cell_length_c   13.81167500
_cell_angle_alpha   90.00000000
_cell_angle_beta   90.00000000
_cell_angle_gamma   120.00000000
_symmetry_Int_Tables_number   1
_chemical_formula_structural   FeNiO3
_chemical_formula_sum   'Fe6 Ni6 O18'
_cell_volume   305.75532651
_cell_formula_units_Z   6
loop_
 _symmetry_equiv_pos_site_id
 _symmetry_equiv_pos_as_xyz
  1  'x, y, z'
loop_
 _atom_site_type_symbol
 _atom_site_label
 _atom_site_symmetry_multiplicity
 _atom_site_fract_x
 _atom_site_fract_y
 _atom_site_fract_z
 _atom_site_occupancy
  Fe  Fe0  1  0.00000000  0.00000000  0.84848400  1
  Fe  Fe1  1  0.33333333  0.66666667  0.81818267  1
  Fe  Fe2  1  0.66666667  0.33333333  0.18181733  1
  Fe  Fe3  1  0.00000000  0.00000000  0.15151600  1
  Fe  Fe4  1  0.33333333  0.66666667  0.51515067  1
  Fe  Fe5  1  0.66666667  0.33333333  0.48484933  1
  Ni  Ni6  1  0.66666667  0.33333333  0.97819300  1
  Ni  Ni7  1  0.66666667  0.33333333  0.68847367  1
  Ni  Ni8  1  0.33333333  0.66666667  0.31152633  1
  Ni  Ni9  1  0.33333333  0.66666667  0.02180700  1
  Ni  Ni10  1  0.00000000  0.00000000  0.64485967  1
  Ni  Ni11  1  0.00000000  0.00000000  0.35514033  1
  O  O12  1  0.03758400  0.68200700  0.91402300  1
  O  O13  1  0.68891033  0.70425067  0.75264367  1
  O  O14  1  0.01534033  0.31108967  0.75264367  1
  O  O15  1  0.31799300  0.35557700  0.91402300  1
  O  O16  1  0.64442300  0.96241600  0.91402300  1
  O  O17  1  0.29574933  0.98465967  0.75264367  1
  O  O18  1  0.70425067  0.01534033  0.24735633  1
  O  O19  1  0.35557700  0.03758400  0.08597700  1
  O  O20  1  0.68200700  0.64442300  0.08597700  1
  O  O21  1  0.98465967  0.68891033  0.24735633  1
  O  O22  1  0.31108967  0.29574933  0.24735633  1
  O  O23  1  0.96241600  0.31799300  0.08597700  1
  O  O24  1  0.37091733  0.34867367  0.58068967  1
  O  O25  1  0.02224367  0.37091733  0.41931033  1
  O  O26  1  0.34867367  0.97775633  0.41931033  1
  O  O27  1  0.65132633  0.02224367  0.58068967  1
  O  O28  1  0.97775633  0.62908267  0.58068967  1
  O  O29  1  0.62908267  0.65132633  0.41931033  1
