# generated using pymatgen
data_Li4(FeO2)9
_symmetry_space_group_name_H-M   'P 1'
_cell_length_a   9.24308658
_cell_length_b   2.94812200
_cell_length_c   24.86314734
_cell_angle_alpha   90.00000000
_cell_angle_beta   90.37964701
_cell_angle_gamma   90.00000000
_symmetry_Int_Tables_number   1
_chemical_formula_structural   Li4(FeO2)9
_chemical_formula_sum   'Li8 Fe18 O36'
_cell_volume   677.49959925
_cell_formula_units_Z   2
loop_
 _symmetry_equiv_pos_site_id
 _symmetry_equiv_pos_as_xyz
  1  'x, y, z'
loop_
 _atom_site_type_symbol
 _atom_site_label
 _atom_site_symmetry_multiplicity
 _atom_site_fract_x
 _atom_site_fract_y
 _atom_site_fract_z
 _atom_site_occupancy
  Li  Li0  1  0.81033100  0.50000000  0.98371600  1
  Li  Li1  1  0.81184900  0.50000000  0.19473100  1
  Li  Li2  1  0.68518900  0.50000000  0.69607800  1
  Li  Li3  1  0.68895900  0.50000000  0.48659900  1
  Li  Li4  1  0.31163500  0.50000000  0.51590200  1
  Li  Li5  1  0.31166800  0.50000000  0.30495900  1
  Li  Li6  1  0.18732500  0.50000000  0.80297000  1
  Li  Li7  1  0.18975500  0.50000000  0.01488600  1
  Fe  Fe8  1  0.00105800  0.50000000  0.50155400  1
  Fe  Fe9  1  0.00640200  0.50000000  0.10460600  1
  Fe  Fe10  1  0.00812700  0.50000000  0.30999200  1
  Fe  Fe11  1  0.84025200  0.00000000  0.58738900  1
  Fe  Fe12  1  0.82813000  0.00000000  0.80489700  1
  Fe  Fe13  1  0.66634100  0.00000000  0.30694900  1
  Fe  Fe14  1  0.65948300  0.00000000  0.08452300  1
  Fe  Fe15  1  0.49977200  0.50000000  0.81294300  1
  Fe  Fe16  1  0.49172200  0.50000000  0.60609100  1
  Fe  Fe17  1  0.50208000  0.50000000  0.99738400  1
  Fe  Fe18  1  0.50677400  0.50000000  0.39532500  1
  Fe  Fe19  1  0.50755700  0.50000000  0.19082000  1
  Fe  Fe20  1  0.33896500  0.00000000  0.91137600  1
  Fe  Fe21  1  0.33680600  0.00000000  0.69675700  1
  Fe  Fe22  1  0.16573400  0.00000000  0.19369800  1
  Fe  Fe23  1  0.16024500  0.00000000  0.41526700  1
  Fe  Fe24  1  0.99427300  0.50000000  0.69089800  1
  Fe  Fe25  1  0.98970400  0.50000000  0.89324700  1
  O  O26  1  0.01817900  0.50000000  0.41899900  1
  O  O27  1  0.98400400  0.50000000  0.58507200  1
  O  O28  1  0.93956700  0.00000000  0.94118400  1
  O  O29  1  0.96276500  0.00000000  0.16165300  1
  O  O30  1  0.86310400  0.00000000  0.66459400  1
  O  O31  1  0.86521700  0.50000000  0.75431400  1
  O  O32  1  0.85061900  0.00000000  0.50654200  1
  O  O33  1  0.87752500  0.00000000  0.29055400  1
  O  O34  1  0.79755400  0.50000000  0.85724600  1
  O  O35  1  0.80175000  0.50000000  0.08405500  1
  O  O36  1  0.69655100  0.50000000  0.58462100  1
  O  O37  1  0.69591700  0.50000000  0.35824000  1
  O  O38  1  0.62403700  0.00000000  0.78827100  1
  O  O39  1  0.65126100  0.00000000  0.00207800  1
  O  O40  1  0.63089300  0.50000000  0.25582300  1
  O  O41  1  0.63518900  0.00000000  0.16393900  1
  O  O42  1  0.53861600  0.00000000  0.66228500  1
  O  O43  1  0.56381300  0.00000000  0.44210900  1
  O  O44  1  0.51753300  0.50000000  0.07950900  1
  O  O45  1  0.48495500  0.50000000  0.91425700  1
  O  O46  1  0.43786100  0.00000000  0.55836700  1
  O  O47  1  0.46308600  0.00000000  0.33801100  1
  O  O48  1  0.36185200  0.00000000  0.83589900  1
  O  O49  1  0.37436000  0.50000000  0.74762700  1
  O  O50  1  0.34852200  0.00000000  0.99153600  1
  O  O51  1  0.37729800  0.00000000  0.21009600  1
  O  O52  1  0.30611900  0.50000000  0.64448500  1
  O  O53  1  0.30270200  0.50000000  0.41570900  1
  O  O54  1  0.19727600  0.50000000  0.91059000  1
  O  O55  1  0.19543500  0.50000000  0.14232800  1
  O  O56  1  0.12331800  0.00000000  0.71396400  1
  O  O57  1  0.15118100  0.00000000  0.49686700  1
  O  O58  1  0.13023600  0.50000000  0.24471800  1
  O  O59  1  0.13735800  0.00000000  0.33597200  1
  O  O60  1  0.03079800  0.00000000  0.83733900  1
  O  O61  1  0.06341200  0.00000000  0.05758600  1
