# generated using pymatgen
data_Li2FeSiO4
_symmetry_space_group_name_H-M   'P 1'
_cell_length_a   5.06910972
_cell_length_b   5.06910972
_cell_length_c   11.63816300
_cell_angle_alpha   90.00000000
_cell_angle_beta   90.00000000
_cell_angle_gamma   120.00000000
_symmetry_Int_Tables_number   1
_chemical_formula_structural   Li2FeSiO4
_chemical_formula_sum   'Li6 Fe3 Si3 O12'
_cell_volume   258.98728912
_cell_formula_units_Z   3
loop_
 _symmetry_equiv_pos_site_id
 _symmetry_equiv_pos_as_xyz
  1  'x, y, z'
loop_
 _atom_site_type_symbol
 _atom_site_label
 _atom_site_symmetry_multiplicity
 _atom_site_fract_x
 _atom_site_fract_y
 _atom_site_fract_z
 _atom_site_occupancy
  Li  Li0  1  0.88778250  0.55888200  0.41914800  1
  Li  Li1  1  0.44111800  0.32890050  0.75248133  1
  Li  Li2  1  0.67109950  0.11221750  0.08581467  1
  Li  Li3  1  0.11221750  0.67109950  0.91418533  1
  Li  Li4  1  0.55888200  0.88778250  0.58085200  1
  Li  Li5  1  0.32890050  0.44111800  0.24751867  1
  Fe  Fe6  1  0.45370250  0.45370250  0.00000000  1
  Fe  Fe7  1  0.54629750  0.00000000  0.33333333  1
  Fe  Fe8  1  0.00000000  0.54629750  0.66666667  1
  Si  Si9  1  0.19396300  0.19396300  0.50000000  1
  Si  Si10  1  0.00000000  0.80603700  0.16666667  1
  Si  Si11  1  0.80603700  0.00000000  0.83333333  1
  O  O12  1  0.85187150  0.71100150  0.79524700  1
  O  O13  1  0.28899850  0.14087000  0.12858033  1
  O  O14  1  0.14812850  0.85913000  0.53808633  1
  O  O15  1  0.85913000  0.14812850  0.46191367  1
  O  O16  1  0.71100150  0.85187150  0.20475300  1
  O  O17  1  0.14087000  0.28899850  0.87141967  1
  O  O18  1  0.43723750  0.32240550  0.39173900  1
  O  O19  1  0.88516800  0.56276250  0.05840567  1
  O  O20  1  0.67759450  0.11483200  0.72507233  1
  O  O21  1  0.56276250  0.88516800  0.94159433  1
  O  O22  1  0.11483200  0.67759450  0.27492767  1
  O  O23  1  0.32240550  0.43723750  0.60826100  1
