# generated using pymatgen
data_Na2CoO3
_symmetry_space_group_name_H-M   'P 1'
_cell_length_a   6.31734200
_cell_length_b   8.77396400
_cell_length_c   17.85924800
_cell_angle_alpha   90.00000000
_cell_angle_beta   90.00000000
_cell_angle_gamma   90.00000000
_symmetry_Int_Tables_number   1
_chemical_formula_structural   Na2CoO3
_chemical_formula_sum   'Na32 Co16 O48'
_cell_volume   989.90474277
_cell_formula_units_Z   16
loop_
 _symmetry_equiv_pos_site_id
 _symmetry_equiv_pos_as_xyz
  1  'x, y, z'
loop_
 _atom_site_type_symbol
 _atom_site_label
 _atom_site_symmetry_multiplicity
 _atom_site_fract_x
 _atom_site_fract_y
 _atom_site_fract_z
 _atom_site_occupancy
  Na  Na0  1  0.75000000  0.25000000  0.49270100  1
  Na  Na1  1  0.00000000  0.00000000  0.42096300  1
  Na  Na2  1  0.75000000  0.25000000  0.32903700  1
  Na  Na3  1  0.00000000  0.00000000  0.25729900  1
  Na  Na4  1  0.50000000  0.00000000  0.24270100  1
  Na  Na5  1  0.75000000  0.25000000  0.17096300  1
  Na  Na6  1  0.50000000  0.00000000  0.07903700  1
  Na  Na7  1  0.75000000  0.25000000  0.00729900  1
  Na  Na8  1  0.75000000  0.75000000  0.99270100  1
  Na  Na9  1  0.00000000  0.50000000  0.92096300  1
  Na  Na10  1  0.75000000  0.75000000  0.82903700  1
  Na  Na11  1  0.00000000  0.50000000  0.75729900  1
  Na  Na12  1  0.50000000  0.50000000  0.74270100  1
  Na  Na13  1  0.75000000  0.75000000  0.67096300  1
  Na  Na14  1  0.50000000  0.50000000  0.57903700  1
  Na  Na15  1  0.75000000  0.75000000  0.50729900  1
  Na  Na16  1  0.25000000  0.25000000  0.99270100  1
  Na  Na17  1  0.50000000  0.00000000  0.92096300  1
  Na  Na18  1  0.25000000  0.25000000  0.82903700  1
  Na  Na19  1  0.50000000  0.00000000  0.75729900  1
  Na  Na20  1  0.00000000  0.00000000  0.74270100  1
  Na  Na21  1  0.25000000  0.25000000  0.67096300  1
  Na  Na22  1  0.00000000  0.00000000  0.57903700  1
  Na  Na23  1  0.25000000  0.25000000  0.50729900  1
  Na  Na24  1  0.25000000  0.75000000  0.49270100  1
  Na  Na25  1  0.50000000  0.50000000  0.42096300  1
  Na  Na26  1  0.25000000  0.75000000  0.32903700  1
  Na  Na27  1  0.50000000  0.50000000  0.25729900  1
  Na  Na28  1  0.00000000  0.50000000  0.24270100  1
  Na  Na29  1  0.25000000  0.75000000  0.17096300  1
  Na  Na30  1  0.00000000  0.50000000  0.07903700  1
  Na  Na31  1  0.25000000  0.75000000  0.00729900  1
  Co  Co32  1  0.50000000  0.00000000  0.41243500  1
  Co  Co33  1  0.75000000  0.75000000  0.33756500  1
  Co  Co34  1  0.75000000  0.75000000  0.16243500  1
  Co  Co35  1  0.00000000  0.00000000  0.08756500  1
  Co  Co36  1  0.50000000  0.50000000  0.91243500  1
  Co  Co37  1  0.75000000  0.25000000  0.83756500  1
  Co  Co38  1  0.75000000  0.25000000  0.66243500  1
  Co  Co39  1  0.00000000  0.50000000  0.58756500  1
  Co  Co40  1  0.00000000  0.00000000  0.91243500  1
  Co  Co41  1  0.25000000  0.75000000  0.83756500  1
  Co  Co42  1  0.25000000  0.75000000  0.66243500  1
  Co  Co43  1  0.50000000  0.00000000  0.58756500  1
  Co  Co44  1  0.00000000  0.50000000  0.41243500  1
  Co  Co45  1  0.25000000  0.25000000  0.33756500  1
  Co  Co46  1  0.25000000  0.25000000  0.16243500  1
  Co  Co47  1  0.50000000  0.50000000  0.08756500  1
  O  O48  1  0.02552550  0.27211700  0.40360950  1
  O  O49  1  0.97447450  0.72788300  0.40360950  1
  O  O50  1  0.72447450  0.97788300  0.34639050  1
  O  O51  1  0.27552550  0.02211700  0.34639050  1
  O  O52  1  0.55814700  0.75000000  0.25000000  1
  O  O53  1  0.94185300  0.75000000  0.25000000  1
  O  O54  1  0.22447450  0.02211700  0.15360950  1
  O  O55  1  0.77552550  0.97788300  0.15360950  1
  O  O56  1  0.52552550  0.72788300  0.09639050  1
  O  O57  1  0.47447450  0.27211700  0.09639050  1
  O  O58  1  0.19185300  0.00000000  0.00000000  1
  O  O59  1  0.80814700  0.00000000  0.00000000  1
  O  O60  1  0.02552550  0.77211700  0.90360950  1
  O  O61  1  0.97447450  0.22788300  0.90360950  1
  O  O62  1  0.72447450  0.47788300  0.84639050  1
  O  O63  1  0.27552550  0.52211700  0.84639050  1
  O  O64  1  0.55814700  0.25000000  0.75000000  1
  O  O65  1  0.94185300  0.25000000  0.75000000  1
  O  O66  1  0.22447450  0.52211700  0.65360950  1
  O  O67  1  0.77552550  0.47788300  0.65360950  1
  O  O68  1  0.52552550  0.22788300  0.59639050  1
  O  O69  1  0.47447450  0.77211700  0.59639050  1
  O  O70  1  0.19185300  0.50000000  0.50000000  1
  O  O71  1  0.80814700  0.50000000  0.50000000  1
  O  O72  1  0.52552550  0.27211700  0.90360950  1
  O  O73  1  0.47447450  0.72788300  0.90360950  1
  O  O74  1  0.22447450  0.97788300  0.84639050  1
  O  O75  1  0.77552550  0.02211700  0.84639050  1
  O  O76  1  0.05814700  0.75000000  0.75000000  1
  O  O77  1  0.44185300  0.75000000  0.75000000  1
  O  O78  1  0.72447450  0.02211700  0.65360950  1
  O  O79  1  0.27552550  0.97788300  0.65360950  1
  O  O80  1  0.02552550  0.72788300  0.59639050  1
  O  O81  1  0.97447450  0.27211700  0.59639050  1
  O  O82  1  0.69185300  0.00000000  0.50000000  1
  O  O83  1  0.30814700  0.00000000  0.50000000  1
  O  O84  1  0.52552550  0.77211700  0.40360950  1
  O  O85  1  0.47447450  0.22788300  0.40360950  1
  O  O86  1  0.22447450  0.47788300  0.34639050  1
  O  O87  1  0.77552550  0.52211700  0.34639050  1
  O  O88  1  0.05814700  0.25000000  0.25000000  1
  O  O89  1  0.44185300  0.25000000  0.25000000  1
  O  O90  1  0.72447450  0.52211700  0.15360950  1
  O  O91  1  0.27552550  0.47788300  0.15360950  1
  O  O92  1  0.02552550  0.22788300  0.09639050  1
  O  O93  1  0.97447450  0.77211700  0.09639050  1
  O  O94  1  0.69185300  0.50000000  0.00000000  1
  O  O95  1  0.30814700  0.50000000  0.00000000  1
