# generated using pymatgen
data_Al(CoO2)2
_symmetry_space_group_name_H-M   'P 1'
_cell_length_a   5.84865400
_cell_length_b   5.91563200
_cell_length_c   8.12165400
_cell_angle_alpha   90.00000000
_cell_angle_beta   90.00000000
_cell_angle_gamma   90.00000000
_symmetry_Int_Tables_number   1
_chemical_formula_structural   Al(CoO2)2
_chemical_formula_sum   'Al4 Co8 O16'
_cell_volume   280.99692214
_cell_formula_units_Z   4
loop_
 _symmetry_equiv_pos_site_id
 _symmetry_equiv_pos_as_xyz
  1  'x, y, z'
loop_
 _atom_site_type_symbol
 _atom_site_label
 _atom_site_symmetry_multiplicity
 _atom_site_fract_x
 _atom_site_fract_y
 _atom_site_fract_z
 _atom_site_occupancy
  Al  Al0  1  0.25000000  0.25000000  0.25000000  1
  Al  Al1  1  0.75000000  0.25000000  0.25000000  1
  Al  Al2  1  0.75000000  0.75000000  0.75000000  1
  Al  Al3  1  0.25000000  0.75000000  0.75000000  1
  Co  Co4  1  0.00000000  0.50000000  0.00000000  1
  Co  Co5  1  0.50000000  0.25000000  0.87172800  1
  Co  Co6  1  0.00000000  0.00000000  0.00000000  1
  Co  Co7  1  0.00000000  0.25000000  0.62827200  1
  Co  Co8  1  0.50000000  0.00000000  0.50000000  1
  Co  Co9  1  0.00000000  0.75000000  0.37172800  1
  Co  Co10  1  0.50000000  0.50000000  0.50000000  1
  Co  Co11  1  0.50000000  0.75000000  0.12827200  1
  O  O12  1  0.50000000  0.03170400  0.26152900  1
  O  O13  1  0.50000000  0.46829600  0.26152900  1
  O  O14  1  0.23433900  0.75000000  0.98176800  1
  O  O15  1  0.26566100  0.25000000  0.48176800  1
  O  O16  1  0.23433900  0.25000000  0.01823200  1
  O  O17  1  0.26566100  0.75000000  0.51823200  1
  O  O18  1  0.00000000  0.46829600  0.23847100  1
  O  O19  1  0.00000000  0.03170400  0.23847100  1
  O  O20  1  0.00000000  0.53170400  0.76152900  1
  O  O21  1  0.00000000  0.96829600  0.76152900  1
  O  O22  1  0.73433900  0.25000000  0.48176800  1
  O  O23  1  0.76566100  0.75000000  0.98176800  1
  O  O24  1  0.73433900  0.75000000  0.51823200  1
  O  O25  1  0.76566100  0.25000000  0.01823200  1
  O  O26  1  0.50000000  0.96829600  0.73847100  1
  O  O27  1  0.50000000  0.53170400  0.73847100  1
