# generated using pymatgen
data_Sr18Ni13O42
_symmetry_space_group_name_H-M   'P 1'
_cell_length_a   9.47652749
_cell_length_b   9.47652749
_cell_length_c   36.17412614
_cell_angle_alpha   90.00000000
_cell_angle_beta   90.00000000
_cell_angle_gamma   120.00000000
_symmetry_Int_Tables_number   1
_chemical_formula_structural   Sr18Ni13O42
_chemical_formula_sum   'Sr54 Ni39 O126'
_cell_volume   2813.37182366
_cell_formula_units_Z   3
loop_
 _symmetry_equiv_pos_site_id
 _symmetry_equiv_pos_as_xyz
  1  'x, y, z'
loop_
 _atom_site_type_symbol
 _atom_site_label
 _atom_site_symmetry_multiplicity
 _atom_site_fract_x
 _atom_site_fract_y
 _atom_site_fract_z
 _atom_site_occupancy
  Sr  Sr0  1  0.69206267  0.66710633  0.02920533  1
  Sr  Sr1  1  0.97504367  0.30793733  0.02920533  1
  Sr  Sr2  1  0.32749600  0.32593900  0.08415300  1
  Sr  Sr3  1  0.33289367  0.02495633  0.02920533  1
  Sr  Sr4  1  0.67406100  0.00155700  0.08415300  1
  Sr  Sr5  1  0.65485833  0.64981667  0.13950667  1
  Sr  Sr6  1  0.99844300  0.67250400  0.08415300  1
  Sr  Sr7  1  0.99495833  0.34514167  0.13950667  1
  Sr  Sr8  1  0.30220000  0.32065600  0.19376500  1
  Sr  Sr9  1  0.35018333  0.00504167  0.13950667  1
  Sr  Sr10  1  0.67934400  0.98154400  0.19376500  1
  Sr  Sr11  1  0.67160367  0.67094633  0.24918233  1
  Sr  Sr12  1  0.01845600  0.69780000  0.19376500  1
  Sr  Sr13  1  0.99934267  0.32839633  0.24918233  1
  Sr  Sr14  1  0.32989133  0.30838367  0.30565867  1
  Sr  Sr15  1  0.32905367  0.00065733  0.24918233  1
  Sr  Sr16  1  0.69161633  0.02150767  0.30565867  1
  Sr  Sr17  1  0.97849233  0.67010867  0.30565867  1
  Sr  Sr18  1  0.35872933  0.00043967  0.36253867  1
  Sr  Sr19  1  0.64171033  0.64127067  0.36253867  1
  Sr  Sr20  1  0.99416267  0.65927233  0.41748633  1
  Sr  Sr21  1  0.99956033  0.35828967  0.36253867  1
  Sr  Sr22  1  0.34072767  0.33489033  0.41748633  1
  Sr  Sr23  1  0.32152500  0.98315000  0.47284000  1
  Sr  Sr24  1  0.66510967  0.00583733  0.41748633  1
  Sr  Sr25  1  0.66162500  0.67847500  0.47284000  1
  Sr  Sr26  1  0.96886667  0.65398933  0.52709833  1
  Sr  Sr27  1  0.01685000  0.33837500  0.47284000  1
  Sr  Sr28  1  0.34601067  0.31487733  0.52709833  1
  Sr  Sr29  1  0.33827033  0.00427967  0.58251567  1
  Sr  Sr30  1  0.68512267  0.03113333  0.52709833  1
  Sr  Sr31  1  0.66600933  0.66172967  0.58251567  1
  Sr  Sr32  1  0.99655800  0.64171700  0.63899200  1
  Sr  Sr33  1  0.99572033  0.33399067  0.58251567  1
  Sr  Sr34  1  0.35828300  0.35484100  0.63899200  1
  Sr  Sr35  1  0.64515900  0.00344200  0.63899200  1
  Sr  Sr36  1  0.02539600  0.33377300  0.69587200  1
  Sr  Sr37  1  0.30837700  0.97460400  0.69587200  1
  Sr  Sr38  1  0.66082933  0.99260567  0.75081967  1
  Sr  Sr39  1  0.66622700  0.69162300  0.69587200  1
  Sr  Sr40  1  0.00739433  0.66822367  0.75081967  1
  Sr  Sr41  1  0.98819167  0.31648333  0.80617333  1
  Sr  Sr42  1  0.33177633  0.33917067  0.75081967  1
  Sr  Sr43  1  0.32829167  0.01180833  0.80617333  1
  Sr  Sr44  1  0.63553333  0.98732267  0.86043167  1
  Sr  Sr45  1  0.68351667  0.67170833  0.80617333  1
  Sr  Sr46  1  0.01267733  0.64821067  0.86043167  1
  Sr  Sr47  1  0.00493700  0.33761300  0.91584900  1
  Sr  Sr48  1  0.35178933  0.36446667  0.86043167  1
  Sr  Sr49  1  0.33267600  0.99506300  0.91584900  1
  Sr  Sr50  1  0.66322467  0.97505033  0.97232533  1
  Sr  Sr51  1  0.66238700  0.66732400  0.91584900  1
  Sr  Sr52  1  0.02494967  0.68817433  0.97232533  1
  Sr  Sr53  1  0.31182567  0.33677533  0.97232533  1
  Ni  Ni54  1  0.66666667  0.33333333  0.33267033  1
  Ni  Ni55  1  0.00000000  0.00000000  0.06811300  1
  Ni  Ni56  1  0.00000000  0.00000000  0.21608500  1
  Ni  Ni57  1  0.00000000  0.00000000  0.28514600  1
  Ni  Ni58  1  0.33333333  0.66666667  0.02438167  1
  Ni  Ni59  1  0.33333333  0.66666667  0.09796367  1
  Ni  Ni60  1  0.33333333  0.66666667  0.16668267  1
  Ni  Ni61  1  0.33333333  0.66666667  0.23538767  1
  Ni  Ni62  1  0.33333333  0.66666667  0.30869567  1
  Ni  Ni63  1  0.66666667  0.33333333  0.04870433  1
  Ni  Ni64  1  0.66666667  0.33333333  0.11793033  1
  Ni  Ni65  1  0.66666667  0.33333333  0.19138733  1
  Ni  Ni66  1  0.66666667  0.33333333  0.26436433  1
  Ni  Ni67  1  0.33333333  0.66666667  0.66600367  1
  Ni  Ni68  1  0.66666667  0.33333333  0.40144633  1
  Ni  Ni69  1  0.66666667  0.33333333  0.54941833  1
  Ni  Ni70  1  0.66666667  0.33333333  0.61847933  1
  Ni  Ni71  1  0.00000000  0.00000000  0.35771500  1
  Ni  Ni72  1  0.00000000  0.00000000  0.43129700  1
  Ni  Ni73  1  0.00000000  0.00000000  0.50001600  1
  Ni  Ni74  1  0.00000000  0.00000000  0.56872100  1
  Ni  Ni75  1  0.00000000  0.00000000  0.64202900  1
  Ni  Ni76  1  0.33333333  0.66666667  0.38203767  1
  Ni  Ni77  1  0.33333333  0.66666667  0.45126367  1
  Ni  Ni78  1  0.33333333  0.66666667  0.52472067  1
  Ni  Ni79  1  0.33333333  0.66666667  0.59769767  1
  Ni  Ni80  1  0.00000000  0.00000000  0.99933700  1
  Ni  Ni81  1  0.33333333  0.66666667  0.73477967  1
  Ni  Ni82  1  0.33333333  0.66666667  0.88275167  1
  Ni  Ni83  1  0.33333333  0.66666667  0.95181267  1
  Ni  Ni84  1  0.66666667  0.33333333  0.69104833  1
  Ni  Ni85  1  0.66666667  0.33333333  0.76463033  1
  Ni  Ni86  1  0.66666667  0.33333333  0.83334933  1
  Ni  Ni87  1  0.66666667  0.33333333  0.90205433  1
  Ni  Ni88  1  0.66666667  0.33333333  0.97536233  1
  Ni  Ni89  1  0.00000000  0.00000000  0.71537100  1
  Ni  Ni90  1  0.00000000  0.00000000  0.78459700  1
  Ni  Ni91  1  0.00000000  0.00000000  0.85805400  1
  Ni  Ni92  1  0.00000000  0.00000000  0.93103100  1
  O  O93  1  0.17640967  0.00867533  0.19010233  1
  O  O94  1  0.83226567  0.82359033  0.19010233  1
  O  O95  1  0.99132467  0.16773433  0.19010233  1
  O  O96  1  0.99986933  0.84810767  0.25129567  1
  O  O97  1  0.15189233  0.15176167  0.25129567  1
  O  O98  1  0.84823833  0.00013067  0.25129567  1
  O  O99  1  0.15372433  0.99149167  0.31629567  1
  O  O100  1  0.83776733  0.84627567  0.31629567  1
  O  O101  1  0.00850833  0.16223267  0.31629567  1
  O  O102  1  0.14992500  0.15993200  0.03129000  1
  O  O103  1  0.84006800  0.98999300  0.03129000  1
  O  O104  1  0.48411467  0.66602833  0.06661633  1
  O  O105  1  0.18191367  0.51588533  0.06661633  1
  O  O106  1  0.83675567  0.83340533  0.09386433  1
  O  O107  1  0.33397167  0.81808633  0.06661633  1
  O  O108  1  0.99664967  0.16324433  0.09386433  1
  O  O109  1  0.01000700  0.85007500  0.03129000  1
  O  O110  1  0.32537667  0.50945733  0.13366333  1
  O  O111  1  0.49054267  0.81591933  0.13366333  1
  O  O112  1  0.18408067  0.67462333  0.13366333  1
  O  O113  1  0.16659467  0.00335033  0.09386433  1
  O  O114  1  0.51392667  0.33372233  0.23339633  1
  O  O115  1  0.48017700  0.65732600  0.19955100  1
  O  O116  1  0.17714900  0.51982300  0.19955100  1
  O  O117  1  0.34267400  0.82285100  0.19955100  1
  O  O118  1  0.65806967  0.48223533  0.30001233  1
  O  O119  1  0.66627767  0.18020433  0.23339633  1
  O  O120  1  0.33165233  0.51372767  0.26668467  1
  O  O121  1  0.81979567  0.48607333  0.23339633  1
  O  O122  1  0.48627233  0.81792467  0.26668467  1
  O  O123  1  0.18207533  0.66834767  0.26668467  1
  O  O124  1  0.82416567  0.34193033  0.30001233  1
  O  O125  1  0.51776467  0.17583433  0.30001233  1
  O  O126  1  0.65821100  0.17185900  0.01744300  1
  O  O127  1  0.82814100  0.48635200  0.01744300  1
  O  O128  1  0.51364800  0.34178900  0.01744300  1
  O  O129  1  0.81726967  0.33410633  0.08346133  1
  O  O130  1  0.51683667  0.18273033  0.08346133  1
  O  O131  1  0.66589367  0.48316333  0.08346133  1
  O  O132  1  0.67426533  0.17908167  0.14901467  1
  O  O133  1  0.82091833  0.49518367  0.14901467  1
  O  O134  1  0.50481633  0.32573467  0.14901467  1
  O  O135  1  0.84307633  0.34200867  0.52343567  1
  O  O136  1  0.49893233  0.15692367  0.52343567  1
  O  O137  1  0.65799133  0.50106767  0.52343567  1
  O  O138  1  0.66653600  0.18144100  0.58462900  1
  O  O139  1  0.81855900  0.48509500  0.58462900  1
  O  O140  1  0.51490500  0.33346400  0.58462900  1
  O  O141  1  0.82039100  0.32482500  0.64962900  1
  O  O142  1  0.50443400  0.17960900  0.64962900  1
  O  O143  1  0.67517500  0.49556600  0.64962900  1
  O  O144  1  0.81659167  0.49326533  0.36462333  1
  O  O145  1  0.50673467  0.32332633  0.36462333  1
  O  O146  1  0.15078133  0.99936167  0.39994967  1
  O  O147  1  0.84858033  0.84921867  0.39994967  1
  O  O148  1  0.50342233  0.16673867  0.42719767  1
  O  O149  1  0.00063833  0.15141967  0.39994967  1
  O  O150  1  0.66331633  0.49657767  0.42719767  1
  O  O151  1  0.67667367  0.18340833  0.36462333  1
  O  O152  1  0.99204333  0.84279067  0.46699667  1
  O  O153  1  0.15720933  0.14925267  0.46699667  1
  O  O154  1  0.85074733  0.00795667  0.46699667  1
  O  O155  1  0.83326133  0.33668367  0.42719767  1
  O  O156  1  0.18059333  0.66705567  0.56672967  1
  O  O157  1  0.14684367  0.99065933  0.53288433  1
  O  O158  1  0.84381567  0.85315633  0.53288433  1
  O  O159  1  0.00934067  0.15618433  0.53288433  1
  O  O160  1  0.32473633  0.81556867  0.63334567  1
  O  O161  1  0.33294433  0.51353767  0.56672967  1
  O  O162  1  0.99831900  0.84706100  0.60001800  1
  O  O163  1  0.48646233  0.81940667  0.56672967  1
  O  O164  1  0.15293900  0.15125800  0.60001800  1
  O  O165  1  0.84874200  0.00168100  0.60001800  1
  O  O166  1  0.49083233  0.67526367  0.63334567  1
  O  O167  1  0.18443133  0.50916767  0.63334567  1
  O  O168  1  0.32487767  0.50519233  0.35077633  1
  O  O169  1  0.49480767  0.81968533  0.35077633  1
  O  O170  1  0.18031467  0.67512233  0.35077633  1
  O  O171  1  0.48393633  0.66743967  0.41679467  1
  O  O172  1  0.18350333  0.51606367  0.41679467  1
  O  O173  1  0.33256033  0.81649667  0.41679467  1
  O  O174  1  0.34093200  0.51241500  0.48234800  1
  O  O175  1  0.48758500  0.82851700  0.48234800  1
  O  O176  1  0.17148300  0.65906800  0.48234800  1
  O  O177  1  0.50974300  0.67534200  0.85676900  1
  O  O178  1  0.16559900  0.49025700  0.85676900  1
  O  O179  1  0.32465800  0.83440100  0.85676900  1
  O  O180  1  0.33320267  0.51477433  0.91796233  1
  O  O181  1  0.48522567  0.81842833  0.91796233  1
  O  O182  1  0.18157167  0.66679733  0.91796233  1
  O  O183  1  0.48705767  0.65815833  0.98296233  1
  O  O184  1  0.17110067  0.51294233  0.98296233  1
  O  O185  1  0.34184167  0.82889933  0.98296233  1
  O  O186  1  0.48325833  0.82659867  0.69795667  1
  O  O187  1  0.17340133  0.65665967  0.69795667  1
  O  O188  1  0.81744800  0.33269500  0.73328300  1
  O  O189  1  0.51524700  0.18255200  0.73328300  1
  O  O190  1  0.17008900  0.50007200  0.76053100  1
  O  O191  1  0.66730500  0.48475300  0.73328300  1
  O  O192  1  0.32998300  0.82991100  0.76053100  1
  O  O193  1  0.34334033  0.51674167  0.69795667  1
  O  O194  1  0.65871000  0.17612400  0.80033000  1
  O  O195  1  0.82387600  0.48258600  0.80033000  1
  O  O196  1  0.51741400  0.34129000  0.80033000  1
  O  O197  1  0.49992800  0.67001700  0.76053100  1
  O  O198  1  0.84726000  0.00038900  0.90006300  1
  O  O199  1  0.81351033  0.32399267  0.86621767  1
  O  O200  1  0.51048233  0.18648967  0.86621767  1
  O  O201  1  0.67600733  0.48951767  0.86621767  1
  O  O202  1  0.99140300  0.14890200  0.96667900  1
  O  O203  1  0.99961100  0.84687100  0.90006300  1
  O  O204  1  0.66498567  0.18039433  0.93335133  1
  O  O205  1  0.15312900  0.15274000  0.90006300  1
  O  O206  1  0.81960567  0.48459133  0.93335133  1
  O  O207  1  0.51540867  0.33501433  0.93335133  1
  O  O208  1  0.15749900  0.00859700  0.96667900  1
  O  O209  1  0.85109800  0.84250100  0.96667900  1
  O  O210  1  0.99154433  0.83852567  0.68410967  1
  O  O211  1  0.16147433  0.15301867  0.68410967  1
  O  O212  1  0.84698133  0.00845567  0.68410967  1
  O  O213  1  0.15060300  0.00077300  0.75012800  1
  O  O214  1  0.85017000  0.84939700  0.75012800  1
  O  O215  1  0.99922700  0.14983000  0.75012800  1
  O  O216  1  0.00759867  0.84574833  0.81568133  1
  O  O217  1  0.15425167  0.16185033  0.81568133  1
  O  O218  1  0.83814967  0.99240133  0.81568133  1
