# generated using pymatgen
data_Li5Co2Cu5O12
_symmetry_space_group_name_H-M   'P 1'
_cell_length_a   5.34460400
_cell_length_b   8.44287800
_cell_length_c   9.52181787
_cell_angle_alpha   90.00000000
_cell_angle_beta   93.28217632
_cell_angle_gamma   90.00000000
_symmetry_Int_Tables_number   1
_chemical_formula_structural   Li5Co2Cu5O12
_chemical_formula_sum   'Li10 Co4 Cu10 O24'
_cell_volume   428.95619822
_cell_formula_units_Z   2
loop_
 _symmetry_equiv_pos_site_id
 _symmetry_equiv_pos_as_xyz
  1  'x, y, z'
loop_
 _atom_site_type_symbol
 _atom_site_label
 _atom_site_symmetry_multiplicity
 _atom_site_fract_x
 _atom_site_fract_y
 _atom_site_fract_z
 _atom_site_occupancy
  Li  Li0  1  0.25339200  0.91329900  0.25766600  1
  Li  Li1  1  0.23849550  0.08667450  0.74512400  1
  Li  Li2  1  0.74660800  0.91329900  0.74233400  1
  Li  Li3  1  0.76150450  0.08667450  0.25487600  1
  Li  Li4  1  0.50000000  0.41651200  0.50000000  1
  Li  Li5  1  0.75339200  0.41329900  0.25766600  1
  Li  Li6  1  0.73849550  0.58667450  0.74512400  1
  Li  Li7  1  0.24660800  0.41329900  0.74233400  1
  Li  Li8  1  0.26150450  0.58667450  0.25487600  1
  Li  Li9  1  0.00000000  0.91651200  0.50000000  1
  Co  Co10  1  0.50000000  0.74648300  0.50000000  1
  Co  Co11  1  0.50000000  0.25006700  0.00000000  1
  Co  Co12  1  0.00000000  0.24648300  0.50000000  1
  Co  Co13  1  0.00000000  0.75006700  0.00000000  1
  Cu  Cu14  1  0.50000000  0.58010500  0.00000000  1
  Cu  Cu15  1  0.74183500  0.25275400  0.74842000  1
  Cu  Cu16  1  0.25816500  0.25275400  0.25158000  1
  Cu  Cu17  1  0.50000000  0.91970900  0.00000000  1
  Cu  Cu18  1  0.50000000  0.08248800  0.50000000  1
  Cu  Cu19  1  0.00000000  0.08010500  0.00000000  1
  Cu  Cu20  1  0.24183500  0.75275400  0.74842000  1
  Cu  Cu21  1  0.75816500  0.75275400  0.25158000  1
  Cu  Cu22  1  0.00000000  0.41970900  0.00000000  1
  Cu  Cu23  1  0.00000000  0.58248800  0.50000000  1
  O  O24  1  0.88465100  0.09939500  0.62967200  1
  O  O25  1  0.11534900  0.09939500  0.37032800  1
  O  O26  1  0.32637400  0.75087500  0.09633000  1
  O  O27  1  0.67362600  0.75087500  0.90367000  1
  O  O28  1  0.39173550  0.90877250  0.62204200  1
  O  O29  1  0.60826450  0.90877250  0.37795800  1
  O  O30  1  0.39125100  0.09097500  0.12565900  1
  O  O31  1  0.60874900  0.09097500  0.87434100  1
  O  O32  1  0.32374100  0.24307400  0.59918200  1
  O  O33  1  0.67625900  0.24307400  0.40081800  1
  O  O34  1  0.89756150  0.90649850  0.13017800  1
  O  O35  1  0.10243850  0.90649850  0.86982200  1
  O  O36  1  0.38465100  0.59939500  0.62967200  1
  O  O37  1  0.61534900  0.59939500  0.37032800  1
  O  O38  1  0.82637400  0.25087500  0.09633000  1
  O  O39  1  0.17362600  0.25087500  0.90367000  1
  O  O40  1  0.89173550  0.40877250  0.62204200  1
  O  O41  1  0.10826450  0.40877250  0.37795800  1
  O  O42  1  0.89125100  0.59097500  0.12565900  1
  O  O43  1  0.10874900  0.59097500  0.87434100  1
  O  O44  1  0.82374100  0.74307400  0.59918200  1
  O  O45  1  0.17625900  0.74307400  0.40081800  1
  O  O46  1  0.39756150  0.40649850  0.13017800  1
  O  O47  1  0.60243850  0.40649850  0.86982200  1
