# generated using pymatgen
data_Li3Y(NiO3)2
_symmetry_space_group_name_H-M   'P 1'
_cell_length_a   5.25657966
_cell_length_b   9.23844505
_cell_length_c   5.22494478
_cell_angle_alpha   90.00000000
_cell_angle_beta   107.60458440
_cell_angle_gamma   90.00000000
_symmetry_Int_Tables_number   1
_chemical_formula_structural   Li3Y(NiO3)2
_chemical_formula_sum   'Li6 Y2 Ni4 O12'
_cell_volume   241.85361990
_cell_formula_units_Z   2
loop_
 _symmetry_equiv_pos_site_id
 _symmetry_equiv_pos_as_xyz
  1  'x, y, z'
loop_
 _atom_site_type_symbol
 _atom_site_label
 _atom_site_symmetry_multiplicity
 _atom_site_fract_x
 _atom_site_fract_y
 _atom_site_fract_z
 _atom_site_occupancy
  Li  Li0  1  0.00000000  0.80798050  0.00000000  1
  Li  Li1  1  0.00000000  0.50000000  0.00000000  1
  Li  Li2  1  0.50000000  0.69201950  0.00000000  1
  Li  Li3  1  0.50000000  0.30798050  0.00000000  1
  Li  Li4  1  0.50000000  0.00000000  0.00000000  1
  Li  Li5  1  0.00000000  0.19201950  0.00000000  1
  Y  Y6  1  0.50000000  0.50000000  0.50000000  1
  Y  Y7  1  0.00000000  0.00000000  0.50000000  1
  Ni  Ni8  1  0.00000000  0.66611800  0.50000000  1
  Ni  Ni9  1  0.50000000  0.83388200  0.50000000  1
  Ni  Ni10  1  0.50000000  0.16611800  0.50000000  1
  Ni  Ni11  1  0.00000000  0.33388200  0.50000000  1
  O  O12  1  0.70632900  0.00000000  0.73695700  1
  O  O13  1  0.24402050  0.68130150  0.26845500  1
  O  O14  1  0.74402050  0.81869850  0.26845500  1
  O  O15  1  0.25597950  0.81869850  0.73154500  1
  O  O16  1  0.75597950  0.68130150  0.73154500  1
  O  O17  1  0.79367100  0.50000000  0.26304300  1
  O  O18  1  0.20632900  0.50000000  0.73695700  1
  O  O19  1  0.74402050  0.18130150  0.26845500  1
  O  O20  1  0.24402050  0.31869850  0.26845500  1
  O  O21  1  0.75597950  0.31869850  0.73154500  1
  O  O22  1  0.25597950  0.18130150  0.73154500  1
  O  O23  1  0.29367100  0.00000000  0.26304300  1
