# generated using pymatgen
data_Li2Mn3FeO8
_symmetry_space_group_name_H-M   'P 1'
_cell_length_a   5.95394798
_cell_length_b   5.95394798
_cell_length_c   14.50686815
_cell_angle_alpha   90.00000000
_cell_angle_beta   90.00000000
_cell_angle_gamma   120.00000000
_symmetry_Int_Tables_number   1
_chemical_formula_structural   Li2Mn3FeO8
_chemical_formula_sum   'Li6 Mn9 Fe3 O24'
_cell_volume   445.36323935
_cell_formula_units_Z   3
loop_
 _symmetry_equiv_pos_site_id
 _symmetry_equiv_pos_as_xyz
  1  'x, y, z'
loop_
 _atom_site_type_symbol
 _atom_site_label
 _atom_site_symmetry_multiplicity
 _atom_site_fract_x
 _atom_site_fract_y
 _atom_site_fract_z
 _atom_site_occupancy
  Li  Li0  1  0.33333333  0.66666667  0.78755767  1
  Li  Li1  1  0.33333333  0.66666667  0.54577567  1
  Li  Li2  1  0.00000000  0.00000000  0.12089100  1
  Li  Li3  1  0.00000000  0.00000000  0.87910900  1
  Li  Li4  1  0.66666667  0.33333333  0.45422433  1
  Li  Li5  1  0.66666667  0.33333333  0.21244233  1
  Mn  Mn6  1  0.50000000  0.50000000  0.00000000  1
  Mn  Mn7  1  0.16666667  0.33333333  0.33333333  1
  Mn  Mn8  1  0.00000000  0.50000000  0.00000000  1
  Mn  Mn9  1  0.16666667  0.83333333  0.33333333  1
  Mn  Mn10  1  0.83333333  0.66666667  0.66666667  1
  Mn  Mn11  1  0.66666667  0.83333333  0.33333333  1
  Mn  Mn12  1  0.83333333  0.16666667  0.66666667  1
  Mn  Mn13  1  0.50000000  0.00000000  0.00000000  1
  Mn  Mn14  1  0.33333333  0.16666667  0.66666667  1
  Fe  Fe15  1  0.33333333  0.66666667  0.16666667  1
  Fe  Fe16  1  1.00000000  1.00000000  0.50000000  1
  Fe  Fe17  1  0.66666667  0.33333333  0.83333333  1
  O  O18  1  0.33333333  0.66666667  0.92715767  1
  O  O19  1  0.63257733  0.81628867  0.07529667  1
  O  O20  1  0.18371133  0.36742267  0.07529667  1
  O  O21  1  0.18371133  0.81628867  0.07529667  1
  O  O22  1  0.48295533  0.51704467  0.25803667  1
  O  O23  1  0.48295533  0.96591067  0.25803667  1
  O  O24  1  0.03408933  0.51704467  0.25803667  1
  O  O25  1  0.33333333  0.66666667  0.40617567  1
  O  O26  1  0.00000000  0.00000000  0.26049100  1
  O  O27  1  0.29924400  0.14962200  0.40863000  1
  O  O28  1  0.85037800  0.70075600  0.40863000  1
  O  O29  1  0.85037800  0.14962200  0.40863000  1
  O  O30  1  0.14962200  0.85037800  0.59137000  1
  O  O31  1  0.14962200  0.29924400  0.59137000  1
  O  O32  1  0.70075600  0.85037800  0.59137000  1
  O  O33  1  0.00000000  0.00000000  0.73950900  1
  O  O34  1  0.66666667  0.33333333  0.59382433  1
  O  O35  1  0.96591067  0.48295533  0.74196333  1
  O  O36  1  0.51704467  0.03408933  0.74196333  1
  O  O37  1  0.51704467  0.48295533  0.74196333  1
  O  O38  1  0.81628867  0.18371133  0.92470333  1
  O  O39  1  0.81628867  0.63257733  0.92470333  1
  O  O40  1  0.36742267  0.18371133  0.92470333  1
  O  O41  1  0.66666667  0.33333333  0.07284233  1
