# generated using pymatgen
data_Li3V4FeO8
_symmetry_space_group_name_H-M   'P 1'
_cell_length_a   10.45021400
_cell_length_b   6.03496800
_cell_length_c   6.08541907
_cell_angle_alpha   90.00000000
_cell_angle_beta   125.25497681
_cell_angle_gamma   90.00000000
_symmetry_Int_Tables_number   1
_chemical_formula_structural   Li3V4FeO8
_chemical_formula_sum   'Li6 V8 Fe2 O16'
_cell_volume   313.39745058
_cell_formula_units_Z   2
loop_
 _symmetry_equiv_pos_site_id
 _symmetry_equiv_pos_as_xyz
  1  'x, y, z'
loop_
 _atom_site_type_symbol
 _atom_site_label
 _atom_site_symmetry_multiplicity
 _atom_site_fract_x
 _atom_site_fract_y
 _atom_site_fract_z
 _atom_site_occupancy
  Li  Li0  1  0.25000000  0.75000000  0.00000000  1
  Li  Li1  1  0.75000000  0.75000000  0.00000000  1
  Li  Li2  1  0.00000000  0.00000000  0.50000000  1
  Li  Li3  1  0.75000000  0.25000000  0.00000000  1
  Li  Li4  1  0.25000000  0.25000000  0.00000000  1
  Li  Li5  1  0.50000000  0.50000000  0.50000000  1
  V  V6  1  0.50000000  0.00000000  0.50000000  1
  V  V7  1  0.00000000  0.00000000  0.00000000  1
  V  V8  1  0.25000000  0.25000000  0.50000000  1
  V  V9  1  0.25000000  0.75000000  0.50000000  1
  V  V10  1  0.00000000  0.50000000  0.50000000  1
  V  V11  1  0.50000000  0.50000000  0.00000000  1
  V  V12  1  0.75000000  0.75000000  0.50000000  1
  V  V13  1  0.75000000  0.25000000  0.50000000  1
  Fe  Fe14  1  0.00000000  0.50000000  0.00000000  1
  Fe  Fe15  1  0.50000000  0.00000000  0.00000000  1
  O  O16  1  0.25485700  0.00000000  0.73486700  1
  O  O17  1  0.00778450  0.74766550  0.26843000  1
  O  O18  1  0.50778450  0.75233450  0.26843000  1
  O  O19  1  0.24514300  0.50000000  0.26513300  1
  O  O20  1  0.24193200  0.50000000  0.72987700  1
  O  O21  1  0.49221550  0.75233450  0.73157000  1
  O  O22  1  0.99221550  0.74766550  0.73157000  1
  O  O23  1  0.25806800  0.00000000  0.27012300  1
  O  O24  1  0.75485700  0.50000000  0.73486700  1
  O  O25  1  0.50778450  0.24766550  0.26843000  1
  O  O26  1  0.00778450  0.25233450  0.26843000  1
  O  O27  1  0.74514300  0.00000000  0.26513300  1
  O  O28  1  0.74193200  0.00000000  0.72987700  1
  O  O29  1  0.99221550  0.25233450  0.73157000  1
  O  O30  1  0.49221550  0.24766550  0.73157000  1
  O  O31  1  0.75806800  0.50000000  0.27012300  1
