# generated using pymatgen
data_MnAgO3
_symmetry_space_group_name_H-M   'P 1'
_cell_length_a   5.14777613
_cell_length_b   5.14777613
_cell_length_c   15.37910236
_cell_angle_alpha   90.00000000
_cell_angle_beta   90.00000000
_cell_angle_gamma   120.00000000
_symmetry_Int_Tables_number   1
_chemical_formula_structural   MnAgO3
_chemical_formula_sum   'Mn6 Ag6 O18'
_cell_volume   352.94003412
_cell_formula_units_Z   6
loop_
 _symmetry_equiv_pos_site_id
 _symmetry_equiv_pos_as_xyz
  1  'x, y, z'
loop_
 _atom_site_type_symbol
 _atom_site_label
 _atom_site_symmetry_multiplicity
 _atom_site_fract_x
 _atom_site_fract_y
 _atom_site_fract_z
 _atom_site_occupancy
  Mn  Mn0  1  0.33333333  0.66666667  0.00481167  1
  Mn  Mn1  1  0.33333333  0.66666667  0.32852167  1
  Mn  Mn2  1  0.00000000  0.00000000  0.33814500  1
  Mn  Mn3  1  0.00000000  0.00000000  0.66185500  1
  Mn  Mn4  1  0.66666667  0.33333333  0.67147833  1
  Mn  Mn5  1  0.66666667  0.33333333  0.99518833  1
  Ag  Ag6  1  0.00000000  0.00000000  0.13824900  1
  Ag  Ag7  1  0.66666667  0.33333333  0.19508433  1
  Ag  Ag8  1  0.66666667  0.33333333  0.47158233  1
  Ag  Ag9  1  0.33333333  0.66666667  0.52841767  1
  Ag  Ag10  1  0.33333333  0.66666667  0.80491567  1
  Ag  Ag11  1  0.00000000  1.00000000  0.86175100  1
  O  O12  1  0.99027767  0.61578433  0.06968433  1
  O  O13  1  0.28245100  0.95884000  0.26364900  1
  O  O14  1  0.04116000  0.32361100  0.26364900  1
  O  O15  1  0.62550667  0.00972233  0.06968433  1
  O  O16  1  0.38421567  0.37449333  0.06968433  1
  O  O17  1  0.67638900  0.71754900  0.26364900  1
  O  O18  1  0.65694433  0.94911767  0.40301767  1
  O  O19  1  0.94911767  0.29217333  0.59698233  1
  O  O20  1  0.70782667  0.65694433  0.59698233  1
  O  O21  1  0.29217333  0.34305567  0.40301767  1
  O  O22  1  0.05088233  0.70782667  0.40301767  1
  O  O23  1  0.34305567  0.05088233  0.59698233  1
  O  O24  1  0.32361100  0.28245100  0.73635100  1
  O  O25  1  0.61578433  0.62550667  0.93031567  1
  O  O26  1  0.37449333  0.99027767  0.93031567  1
  O  O27  1  0.95884000  0.67638900  0.73635100  1
  O  O28  1  0.71754900  0.04116000  0.73635100  1
  O  O29  1  0.00972233  0.38421567  0.93031567  1
