# generated using pymatgen
data_Li4Cr3Cu2Sb3O16
_symmetry_space_group_name_H-M   'P 1'
_cell_length_a   10.48737619
_cell_length_b   6.11288482
_cell_length_c   9.92030362
_cell_angle_alpha   90.00000000
_cell_angle_beta   90.46284312
_cell_angle_gamma   90.00000000
_symmetry_Int_Tables_number   1
_chemical_formula_structural   Li4Cr3Cu2Sb3O16
_chemical_formula_sum   'Li8 Cr6 Cu4 Sb6 O32'
_cell_volume   635.95129131
_cell_formula_units_Z   2
loop_
 _symmetry_equiv_pos_site_id
 _symmetry_equiv_pos_as_xyz
  1  'x, y, z'
loop_
 _atom_site_type_symbol
 _atom_site_label
 _atom_site_symmetry_multiplicity
 _atom_site_fract_x
 _atom_site_fract_y
 _atom_site_fract_z
 _atom_site_occupancy
  Li  Li0  1  0.66910700  0.00000000  0.10137100  1
  Li  Li1  1  0.01121800  0.00000000  0.99702800  1
  Li  Li2  1  0.00977550  0.00000000  0.50758400  1
  Li  Li3  1  0.33692700  0.00000000  0.62332800  1
  Li  Li4  1  0.16910700  0.50000000  0.10137100  1
  Li  Li5  1  0.51121800  0.50000000  0.99702800  1
  Li  Li6  1  0.50977550  0.50000000  0.50758400  1
  Li  Li7  1  0.83692700  0.50000000  0.62332800  1
  Cr  Cr8  1  0.58682200  0.24695700  0.78481400  1
  Cr  Cr9  1  0.58682200  0.75304300  0.78481400  1
  Cr  Cr10  1  0.16563200  0.00000000  0.28460100  1
  Cr  Cr11  1  0.08682200  0.74695700  0.78481400  1
  Cr  Cr12  1  0.08682200  0.25304300  0.78481400  1
  Cr  Cr13  1  0.66563200  0.50000000  0.28460100  1
  Cu  Cu14  1  0.65460900  0.00000000  0.52244300  1
  Cu  Cu15  1  0.32729400  0.00000000  0.97233000  1
  Cu  Cu16  1  0.15460900  0.50000000  0.52244300  1
  Cu  Cu17  1  0.82729400  0.50000000  0.97233000  1
  Sb  Sb18  1  0.83265400  0.00000000  0.78441800  1
  Sb  Sb19  1  0.41218600  0.24733500  0.28419900  1
  Sb  Sb20  1  0.41218600  0.75266500  0.28419900  1
  Sb  Sb21  1  0.33265400  0.50000000  0.78441800  1
  Sb  Sb22  1  0.91218600  0.74733500  0.28419900  1
  Sb  Sb23  1  0.91218600  0.25266500  0.28419900  1
  O  O24  1  0.57131150  0.26504850  0.39376400  1
  O  O25  1  0.52006350  0.00000000  0.67162800  1
  O  O26  1  0.67031550  0.00000000  0.89405800  1
  O  O27  1  0.00088250  0.00000000  0.68685800  1
  O  O28  1  0.99686500  0.00000000  0.18023800  1
  O  O29  1  0.57131150  0.73495150  0.39376400  1
  O  O30  1  0.74509400  0.22510000  0.66835400  1
  O  O31  1  0.74509400  0.77490000  0.66835400  1
  O  O32  1  0.15949400  0.00000000  0.89240000  1
  O  O33  1  0.84274100  0.00000000  0.39795200  1
  O  O34  1  0.25527500  0.23139300  0.17589300  1
  O  O35  1  0.25527500  0.76860700  0.17589300  1
  O  O36  1  0.33143000  0.00000000  0.39703400  1
  O  O37  1  0.42238550  0.26927550  0.89687700  1
  O  O38  1  0.48474900  0.00000000  0.17099900  1
  O  O39  1  0.42238550  0.73072450  0.89687700  1
  O  O40  1  0.07131150  0.76504850  0.39376400  1
  O  O41  1  0.02006350  0.50000000  0.67162800  1
  O  O42  1  0.17031550  0.50000000  0.89405800  1
  O  O43  1  0.50088250  0.50000000  0.68685800  1
  O  O44  1  0.49686500  0.50000000  0.18023800  1
  O  O45  1  0.07131150  0.23495150  0.39376400  1
  O  O46  1  0.24509400  0.72510000  0.66835400  1
  O  O47  1  0.24509400  0.27490000  0.66835400  1
  O  O48  1  0.65949400  0.50000000  0.89240000  1
  O  O49  1  0.34274100  0.50000000  0.39795200  1
  O  O50  1  0.75527500  0.73139300  0.17589300  1
  O  O51  1  0.75527500  0.26860700  0.17589300  1
  O  O52  1  0.83143000  0.50000000  0.39703400  1
  O  O53  1  0.92238550  0.76927550  0.89687700  1
  O  O54  1  0.98474900  0.50000000  0.17099900  1
  O  O55  1  0.92238550  0.23072450  0.89687700  1
