# generated using pymatgen
data_CoAgO3
_symmetry_space_group_name_H-M   'P 1'
_cell_length_a   4.99765147
_cell_length_b   4.99765147
_cell_length_c   15.63388802
_cell_angle_alpha   90.00000000
_cell_angle_beta   90.00000000
_cell_angle_gamma   120.00000000
_symmetry_Int_Tables_number   1
_chemical_formula_structural   CoAgO3
_chemical_formula_sum   'Co6 Ag6 O18'
_cell_volume   338.16570368
_cell_formula_units_Z   6
loop_
 _symmetry_equiv_pos_site_id
 _symmetry_equiv_pos_as_xyz
  1  'x, y, z'
loop_
 _atom_site_type_symbol
 _atom_site_label
 _atom_site_symmetry_multiplicity
 _atom_site_fract_x
 _atom_site_fract_y
 _atom_site_fract_z
 _atom_site_occupancy
  Co  Co0  1  0.00000000  0.00000000  0.16307000  1
  Co  Co1  1  0.66666667  0.33333333  0.17026333  1
  Co  Co2  1  0.66666667  0.33333333  0.49640333  1
  Co  Co3  1  0.33333333  0.66666667  0.50359667  1
  Co  Co4  1  0.33333333  0.66666667  0.82973667  1
  Co  Co5  1  0.00000000  0.00000000  0.83693000  1
  Ag  Ag6  1  0.33333333  0.66666667  0.02890867  1
  Ag  Ag7  1  0.33333333  0.66666667  0.30442467  1
  Ag  Ag8  1  0.00000000  0.00000000  0.36224200  1
  Ag  Ag9  1  0.00000000  0.00000000  0.63775800  1
  Ag  Ag10  1  0.66666667  0.33333333  0.69557533  1
  Ag  Ag11  1  0.66666667  0.33333333  0.97109133  1
  O  O12  1  0.93994567  0.65847333  0.09928933  1
  O  O13  1  0.32514000  0.05186100  0.23404400  1
  O  O14  1  0.94813900  0.27327900  0.23404400  1
  O  O15  1  0.71852767  0.06005433  0.09928933  1
  O  O16  1  0.34152667  0.28147233  0.09928933  1
  O  O17  1  0.72672100  0.67486000  0.23404400  1
  O  O18  1  0.60661233  0.99180667  0.43262267  1
  O  O19  1  0.99180667  0.38519433  0.56737733  1
  O  O20  1  0.61480567  0.60661233  0.56737733  1
  O  O21  1  0.38519433  0.39338767  0.43262267  1
  O  O22  1  0.00819333  0.61480567  0.43262267  1
  O  O23  1  0.39338767  0.00819333  0.56737733  1
  O  O24  1  0.27327900  0.32514000  0.76595600  1
  O  O25  1  0.65847333  0.71852767  0.90071067  1
  O  O26  1  0.28147233  0.93994567  0.90071067  1
  O  O27  1  0.05186100  0.72672100  0.76595600  1
  O  O28  1  0.67486000  0.94813900  0.76595600  1
  O  O29  1  0.06005433  0.34152667  0.90071067  1
