# generated using pymatgen
data_Li4Nb2Cr3Fe3O16
_symmetry_space_group_name_H-M   'P 1'
_cell_length_a   10.39020200
_cell_length_b   5.99304200
_cell_length_c   9.70454648
_cell_angle_alpha   90.00000000
_cell_angle_beta   90.56597981
_cell_angle_gamma   90.00000000
_symmetry_Int_Tables_number   1
_chemical_formula_structural   Li4Nb2Cr3Fe3O16
_chemical_formula_sum   'Li8 Nb4 Cr6 Fe6 O32'
_cell_volume   604.26211595
_cell_formula_units_Z   2
loop_
 _symmetry_equiv_pos_site_id
 _symmetry_equiv_pos_as_xyz
  1  'x, y, z'
loop_
 _atom_site_type_symbol
 _atom_site_label
 _atom_site_symmetry_multiplicity
 _atom_site_fract_x
 _atom_site_fract_y
 _atom_site_fract_z
 _atom_site_occupancy
  Li  Li0  1  0.66617500  0.00000000  0.90300100  1
  Li  Li1  1  0.50007600  0.50000000  0.99136100  1
  Li  Li2  1  0.50033900  0.50000000  0.49128600  1
  Li  Li3  1  0.83281700  0.50000000  0.40049800  1
  Li  Li4  1  0.16617500  0.50000000  0.90300100  1
  Li  Li5  1  0.00007600  0.00000000  0.99136100  1
  Li  Li6  1  0.00033900  0.00000000  0.49128600  1
  Li  Li7  1  0.33281700  0.00000000  0.40049800  1
  Nb  Nb8  1  0.66550700  0.00000000  0.49234600  1
  Nb  Nb9  1  0.83171700  0.50000000  0.99460200  1
  Nb  Nb10  1  0.16550700  0.50000000  0.49234600  1
  Nb  Nb11  1  0.33171700  0.00000000  0.99460200  1
  Cr  Cr12  1  0.58532900  0.24470500  0.21437300  1
  Cr  Cr13  1  0.58532900  0.75529500  0.21437300  1
  Cr  Cr14  1  0.67080800  0.50000000  0.71361600  1
  Cr  Cr15  1  0.08532900  0.74470500  0.21437300  1
  Cr  Cr16  1  0.08532900  0.25529500  0.21437300  1
  Cr  Cr17  1  0.17080800  0.00000000  0.71361600  1
  Fe  Fe18  1  0.82903500  0.00000000  0.21905100  1
  Fe  Fe19  1  0.91477600  0.74317600  0.71779600  1
  Fe  Fe20  1  0.91477600  0.25682400  0.71779600  1
  Fe  Fe21  1  0.32903500  0.50000000  0.21905100  1
  Fe  Fe22  1  0.41477600  0.24317600  0.71779600  1
  Fe  Fe23  1  0.41477600  0.75682400  0.71779600  1
  O  O24  1  0.58505000  0.24996600  0.59289100  1
  O  O25  1  0.51989100  0.00000000  0.33894900  1
  O  O26  1  0.66893300  0.00000000  0.10859800  1
  O  O27  1  0.99922700  0.00000000  0.30581000  1
  O  O28  1  0.99990700  0.00000000  0.80497900  1
  O  O29  1  0.58505000  0.75003400  0.59289100  1
  O  O30  1  0.73880200  0.22317700  0.34297300  1
  O  O31  1  0.73880200  0.77682300  0.34297300  1
  O  O32  1  0.66680700  0.50000000  0.09528000  1
  O  O33  1  0.83234300  0.00000000  0.58950700  1
  O  O34  1  0.75818350  0.71981550  0.84256100  1
  O  O35  1  0.75818350  0.28018450  0.84256100  1
  O  O36  1  0.83545200  0.50000000  0.60779700  1
  O  O37  1  0.91745900  0.74743800  0.09193200  1
  O  O38  1  0.98108500  0.50000000  0.84608000  1
  O  O39  1  0.91745900  0.25256200  0.09193200  1
  O  O40  1  0.08505000  0.74996600  0.59289100  1
  O  O41  1  0.01989100  0.50000000  0.33894900  1
  O  O42  1  0.16893300  0.50000000  0.10859800  1
  O  O43  1  0.49922700  0.50000000  0.30581000  1
  O  O44  1  0.49990700  0.50000000  0.80497900  1
  O  O45  1  0.08505000  0.25003400  0.59289100  1
  O  O46  1  0.23880200  0.72317700  0.34297300  1
  O  O47  1  0.23880200  0.27682300  0.34297300  1
  O  O48  1  0.16680700  0.00000000  0.09528000  1
  O  O49  1  0.33234300  0.50000000  0.58950700  1
  O  O50  1  0.25818350  0.21981550  0.84256100  1
  O  O51  1  0.25818350  0.78018450  0.84256100  1
  O  O52  1  0.33545200  0.00000000  0.60779700  1
  O  O53  1  0.41745900  0.24743800  0.09193200  1
  O  O54  1  0.48108500  0.00000000  0.84608000  1
  O  O55  1  0.41745900  0.75256200  0.09193200  1
