# generated using pymatgen
data_LiVH2OF5
_symmetry_space_group_name_H-M   'P 1'
_cell_length_a   9.42043600
_cell_length_b   6.46347200
_cell_length_c   7.77117083
_cell_angle_alpha   90.00000000
_cell_angle_beta   94.49961516
_cell_angle_gamma   90.00000000
_symmetry_Int_Tables_number   1
_chemical_formula_structural   LiVH2OF5
_chemical_formula_sum   'Li4 V4 H8 O4 F20'
_cell_volume   471.71828189
_cell_formula_units_Z   4
loop_
 _symmetry_equiv_pos_site_id
 _symmetry_equiv_pos_as_xyz
  1  'x, y, z'
loop_
 _atom_site_type_symbol
 _atom_site_label
 _atom_site_symmetry_multiplicity
 _atom_site_fract_x
 _atom_site_fract_y
 _atom_site_fract_z
 _atom_site_occupancy
  Li  Li0  1  0.27374150  0.98592250  0.74454300  1
  Li  Li1  1  0.72625850  0.98592250  0.25545700  1
  Li  Li2  1  0.77374150  0.48592250  0.74454300  1
  Li  Li3  1  0.22625850  0.48592250  0.25545700  1
  V  V4  1  0.50000000  0.73349700  0.50000000  1
  V  V5  1  0.50000000  0.26815500  0.00000000  1
  V  V6  1  0.00000000  0.23349700  0.50000000  1
  V  V7  1  0.00000000  0.76815500  0.00000000  1
  H  H8  1  0.46510000  0.66921000  0.09260400  1
  H  H9  1  0.53490000  0.66921000  0.90739600  1
  H  H10  1  0.46247550  0.33175450  0.59154300  1
  H  H11  1  0.53752450  0.33175450  0.40845700  1
  H  H12  1  0.96510000  0.16921000  0.09260400  1
  H  H13  1  0.03490000  0.16921000  0.90739600  1
  H  H14  1  0.96247550  0.83175450  0.59154300  1
  H  H15  1  0.03752450  0.83175450  0.40845700  1
  O  O16  1  0.50000000  0.58285800  0.00000000  1
  O  O17  1  0.50000000  0.41859200  0.50000000  1
  O  O18  1  0.00000000  0.08285800  0.00000000  1
  O  O19  1  0.00000000  0.91859200  0.50000000  1
  F  F20  1  0.33120250  0.74366250  0.61313400  1
  F  F21  1  0.39058200  0.70343300  0.28945900  1
  F  F22  1  0.33333350  0.30074750  0.10519700  1
  F  F23  1  0.50000000  0.98313300  0.00000000  1
  F  F24  1  0.60941800  0.70343300  0.71054100  1
  F  F25  1  0.39358250  0.24897950  0.78085700  1
  F  F26  1  0.50000000  0.01586700  0.50000000  1
  F  F27  1  0.66879750  0.74366250  0.38686600  1
  F  F28  1  0.60641750  0.24897950  0.21914300  1
  F  F29  1  0.66666650  0.30074750  0.89480300  1
  F  F30  1  0.83120250  0.24366250  0.61313400  1
  F  F31  1  0.89058200  0.20343300  0.28945900  1
  F  F32  1  0.83333350  0.80074750  0.10519700  1
  F  F33  1  0.00000000  0.48313300  0.00000000  1
  F  F34  1  0.10941800  0.20343300  0.71054100  1
  F  F35  1  0.89358250  0.74897950  0.78085700  1
  F  F36  1  0.00000000  0.51586700  0.50000000  1
  F  F37  1  0.16879750  0.24366250  0.38686600  1
  F  F38  1  0.10641750  0.74897950  0.21914300  1
  F  F39  1  0.16666650  0.80074750  0.89480300  1
