# generated using pymatgen
data_V3OF7
_symmetry_space_group_name_H-M   'P 1'
_cell_length_a   4.01253296
_cell_length_b   15.45108227
_cell_length_c   9.95568300
_cell_angle_alpha   90.00000000
_cell_angle_beta   90.00000000
_cell_angle_gamma   90.00000000
_symmetry_Int_Tables_number   1
_chemical_formula_structural   V3OF7
_chemical_formula_sum   'V12 O4 F28'
_cell_volume   617.23220405
_cell_formula_units_Z   4
loop_
 _symmetry_equiv_pos_site_id
 _symmetry_equiv_pos_as_xyz
  1  'x, y, z'
loop_
 _atom_site_type_symbol
 _atom_site_label
 _atom_site_symmetry_multiplicity
 _atom_site_fract_x
 _atom_site_fract_y
 _atom_site_fract_z
 _atom_site_occupancy
  V  V0  1  0.00000000  0.03907300  0.25000000  1
  V  V1  1  0.00000000  0.17804850  0.57295100  1
  V  V2  1  0.00000000  0.17804850  0.92704900  1
  V  V3  1  0.50000000  0.32195150  0.07295100  1
  V  V4  1  0.50000000  0.32195150  0.42704900  1
  V  V5  1  0.50000000  0.46092700  0.75000000  1
  V  V6  1  0.50000000  0.53907300  0.25000000  1
  V  V7  1  0.50000000  0.67804850  0.57295100  1
  V  V8  1  0.50000000  0.67804850  0.92704900  1
  V  V9  1  0.00000000  0.82195150  0.07295100  1
  V  V10  1  0.00000000  0.82195150  0.42704900  1
  V  V11  1  0.00000000  0.96092700  0.75000000  1
  O  O12  1  0.00000000  0.20560800  0.75000000  1
  O  O13  1  0.50000000  0.29439200  0.25000000  1
  O  O14  1  0.50000000  0.70560800  0.75000000  1
  O  O15  1  0.00000000  0.79439200  0.25000000  1
  F  F16  1  0.50000000  0.03656200  0.25000000  1
  F  F17  1  0.00000000  0.05214550  0.61399400  1
  F  F18  1  0.00000000  0.05214550  0.88600600  1
  F  F19  1  0.00000000  0.13287050  0.11653500  1
  F  F20  1  0.00000000  0.13287050  0.38346500  1
  F  F21  1  0.50000000  0.19816250  0.96494700  1
  F  F22  1  0.50000000  0.19816250  0.53505300  1
  F  F23  1  0.00000000  0.30183750  0.03505300  1
  F  F24  1  0.00000000  0.30183750  0.46494700  1
  F  F25  1  0.50000000  0.36712950  0.61653500  1
  F  F26  1  0.50000000  0.36712950  0.88346500  1
  F  F27  1  0.50000000  0.44785450  0.11399400  1
  F  F28  1  0.50000000  0.44785450  0.38600600  1
  F  F29  1  0.00000000  0.46343800  0.75000000  1
  F  F30  1  0.00000000  0.53656200  0.25000000  1
  F  F31  1  0.50000000  0.55214550  0.61399400  1
  F  F32  1  0.50000000  0.55214550  0.88600600  1
  F  F33  1  0.50000000  0.63287050  0.11653500  1
  F  F34  1  0.50000000  0.63287050  0.38346500  1
  F  F35  1  0.00000000  0.69816250  0.96494700  1
  F  F36  1  0.00000000  0.69816250  0.53505300  1
  F  F37  1  0.50000000  0.80183750  0.03505300  1
  F  F38  1  0.50000000  0.80183750  0.46494700  1
  F  F39  1  0.00000000  0.86712950  0.61653500  1
  F  F40  1  0.00000000  0.86712950  0.88346500  1
  F  F41  1  0.00000000  0.94785450  0.11399400  1
  F  F42  1  0.00000000  0.94785450  0.38600600  1
  F  F43  1  0.50000000  0.96343800  0.75000000  1
