# generated using pymatgen
data_Li5V2Ni5O12
_symmetry_space_group_name_H-M   'P 1'
_cell_length_a   5.03304020
_cell_length_b   8.94393226
_cell_length_c   9.78248367
_cell_angle_alpha   90.00000000
_cell_angle_beta   101.04610757
_cell_angle_gamma   90.00000000
_symmetry_Int_Tables_number   1
_chemical_formula_structural   Li5V2Ni5O12
_chemical_formula_sum   'Li10 V4 Ni10 O24'
_cell_volume   432.20175771
_cell_formula_units_Z   2
loop_
 _symmetry_equiv_pos_site_id
 _symmetry_equiv_pos_as_xyz
  1  'x, y, z'
loop_
 _atom_site_type_symbol
 _atom_site_label
 _atom_site_symmetry_multiplicity
 _atom_site_fract_x
 _atom_site_fract_y
 _atom_site_fract_z
 _atom_site_occupancy
  Li  Li0  1  0.25355900  0.57898800  0.24732100  1
  Li  Li1  1  0.75278500  0.92141500  0.75454000  1
  Li  Li2  1  0.74644100  0.57898800  0.75267900  1
  Li  Li3  1  0.24721500  0.92141500  0.24546000  1
  Li  Li4  1  0.50000000  0.57939100  0.00000000  1
  Li  Li5  1  0.75355900  0.07898800  0.24732100  1
  Li  Li6  1  0.25278500  0.42141500  0.75454000  1
  Li  Li7  1  0.24644100  0.07898800  0.75267900  1
  Li  Li8  1  0.74721500  0.42141500  0.24546000  1
  Li  Li9  1  0.00000000  0.07939100  0.00000000  1
  V  V10  1  0.00000000  0.74724900  0.00000000  1
  V  V11  1  0.50000000  0.75213100  0.50000000  1
  V  V12  1  0.50000000  0.24724900  0.00000000  1
  V  V13  1  0.00000000  0.25213100  0.50000000  1
  Ni  Ni14  1  0.00000000  0.92125600  0.50000000  1
  Ni  Ni15  1  0.25520700  0.74851800  0.75317800  1
  Ni  Ni16  1  0.74479300  0.74851800  0.24682200  1
  Ni  Ni17  1  0.00000000  0.58144800  0.50000000  1
  Ni  Ni18  1  0.50000000  0.91821400  0.00000000  1
  Ni  Ni19  1  0.50000000  0.42125600  0.50000000  1
  Ni  Ni20  1  0.75520700  0.24851800  0.75317800  1
  Ni  Ni21  1  0.24479300  0.24851800  0.24682200  1
  Ni  Ni22  1  0.50000000  0.08144800  0.50000000  1
  Ni  Ni23  1  0.00000000  0.41821400  0.00000000  1
  O  O24  1  0.11840850  0.89935450  0.88367200  1
  O  O25  1  0.88159150  0.89935450  0.11632800  1
  O  O26  1  0.14379800  0.75121900  0.38490700  1
  O  O27  1  0.85620200  0.75121900  0.61509300  1
  O  O28  1  0.11178050  0.59632550  0.88440400  1
  O  O29  1  0.88821950  0.59632550  0.11559600  1
  O  O30  1  0.61904050  0.90829050  0.37812300  1
  O  O31  1  0.38095950  0.90829050  0.62187700  1
  O  O32  1  0.64875100  0.75198000  0.88504000  1
  O  O33  1  0.35124900  0.75198000  0.11496000  1
  O  O34  1  0.61905400  0.59406700  0.37839200  1
  O  O35  1  0.38094600  0.59406700  0.62160800  1
  O  O36  1  0.61840850  0.39935450  0.88367200  1
  O  O37  1  0.38159150  0.39935450  0.11632800  1
  O  O38  1  0.64379800  0.25121900  0.38490700  1
  O  O39  1  0.35620200  0.25121900  0.61509300  1
  O  O40  1  0.61178050  0.09632550  0.88440400  1
  O  O41  1  0.38821950  0.09632550  0.11559600  1
  O  O42  1  0.11904050  0.40829050  0.37812300  1
  O  O43  1  0.88095950  0.40829050  0.62187700  1
  O  O44  1  0.14875100  0.25198000  0.88504000  1
  O  O45  1  0.85124900  0.25198000  0.11496000  1
  O  O46  1  0.11905400  0.09406700  0.37839200  1
  O  O47  1  0.88094600  0.09406700  0.62160800  1
