# generated using pymatgen
data_Li2MnV4FeO12
_symmetry_space_group_name_H-M   'P 1'
_cell_length_a   10.46057600
_cell_length_b   9.28318800
_cell_length_c   5.82796424
_cell_angle_alpha   90.00000000
_cell_angle_beta   110.89226216
_cell_angle_gamma   90.00000000
_symmetry_Int_Tables_number   1
_chemical_formula_structural   Li2MnV4FeO12
_chemical_formula_sum   'Li4 Mn2 V8 Fe2 O24'
_cell_volume   528.73000717
_cell_formula_units_Z   2
loop_
 _symmetry_equiv_pos_site_id
 _symmetry_equiv_pos_as_xyz
  1  'x, y, z'
loop_
 _atom_site_type_symbol
 _atom_site_label
 _atom_site_symmetry_multiplicity
 _atom_site_fract_x
 _atom_site_fract_y
 _atom_site_fract_z
 _atom_site_occupancy
  Li  Li0  1  0.00000000  0.24336900  0.00000000  1
  Li  Li1  1  0.00000000  0.75458900  0.50000000  1
  Li  Li2  1  0.50000000  0.74336900  0.00000000  1
  Li  Li3  1  0.50000000  0.25458900  0.50000000  1
  Mn  Mn4  1  0.00000000  0.91198300  0.00000000  1
  Mn  Mn5  1  0.50000000  0.41198300  0.00000000  1
  V  V6  1  0.20751350  0.39788150  0.48114100  1
  V  V7  1  0.20216800  0.59253100  0.97757200  1
  V  V8  1  0.79248650  0.39788150  0.51885900  1
  V  V9  1  0.79783200  0.59253100  0.02242800  1
  V  V10  1  0.70751350  0.89788150  0.48114100  1
  V  V11  1  0.70216800  0.09253100  0.97757200  1
  V  V12  1  0.29248650  0.89788150  0.51885900  1
  V  V13  1  0.29783200  0.09253100  0.02242800  1
  Fe  Fe14  1  0.00000000  0.08511800  0.50000000  1
  Fe  Fe15  1  0.50000000  0.58511800  0.50000000  1
  O  O16  1  0.39063050  0.40931550  0.59835500  1
  O  O17  1  0.12483800  0.23372500  0.40822700  1
  O  O18  1  0.38156400  0.59439000  0.09245800  1
  O  O19  1  0.14192700  0.50723100  0.68928300  1
  O  O20  1  0.87516200  0.23372500  0.59177300  1
  O  O21  1  0.14134550  0.50287450  0.18471900  1
  O  O22  1  0.85807300  0.50723100  0.31071700  1
  O  O23  1  0.13759200  0.76452200  0.92493700  1
  O  O24  1  0.85865450  0.50287450  0.81528100  1
  O  O25  1  0.60936950  0.40931550  0.40164500  1
  O  O26  1  0.86240800  0.76452200  0.07506300  1
  O  O27  1  0.61843600  0.59439000  0.90754200  1
  O  O28  1  0.89063050  0.90931550  0.59835500  1
  O  O29  1  0.62483800  0.73372500  0.40822700  1
  O  O30  1  0.88156400  0.09439000  0.09245800  1
  O  O31  1  0.64192700  0.00723100  0.68928300  1
  O  O32  1  0.37516200  0.73372500  0.59177300  1
  O  O33  1  0.64134550  0.00287450  0.18471900  1
  O  O34  1  0.35807300  0.00723100  0.31071700  1
  O  O35  1  0.63759200  0.26452200  0.92493700  1
  O  O36  1  0.35865450  0.00287450  0.81528100  1
  O  O37  1  0.10936950  0.90931550  0.40164500  1
  O  O38  1  0.36240800  0.26452200  0.07506300  1
  O  O39  1  0.11843600  0.09439000  0.90754200  1
