# generated using pymatgen
data_Rb2PrO3
_symmetry_space_group_name_H-M   'P 1'
_cell_length_a   7.94218800
_cell_length_b   11.03726800
_cell_length_c   23.05595400
_cell_angle_alpha   90.00000000
_cell_angle_beta   90.00000000
_cell_angle_gamma   90.00000000
_symmetry_Int_Tables_number   1
_chemical_formula_structural   Rb2PrO3
_chemical_formula_sum   'Rb32 Pr16 O48'
_cell_volume   2021.08625249
_cell_formula_units_Z   16
loop_
 _symmetry_equiv_pos_site_id
 _symmetry_equiv_pos_as_xyz
  1  'x, y, z'
loop_
 _atom_site_type_symbol
 _atom_site_label
 _atom_site_symmetry_multiplicity
 _atom_site_fract_x
 _atom_site_fract_y
 _atom_site_fract_z
 _atom_site_occupancy
  Rb  Rb0  1  0.75000000  0.25000000  0.49594000  1
  Rb  Rb1  1  0.50000000  0.00000000  0.24594000  1
  Rb  Rb2  1  0.00000000  0.00000000  0.42195600  1
  Rb  Rb3  1  0.50000000  0.00000000  0.07804400  1
  Rb  Rb4  1  0.75000000  0.25000000  0.17195600  1
  Rb  Rb5  1  0.75000000  0.25000000  0.32804400  1
  Rb  Rb6  1  0.75000000  0.25000000  0.00406000  1
  Rb  Rb7  1  0.00000000  0.00000000  0.25406000  1
  Rb  Rb8  1  0.75000000  0.75000000  0.99594000  1
  Rb  Rb9  1  0.50000000  0.50000000  0.74594000  1
  Rb  Rb10  1  0.00000000  0.50000000  0.92195600  1
  Rb  Rb11  1  0.50000000  0.50000000  0.57804400  1
  Rb  Rb12  1  0.75000000  0.75000000  0.67195600  1
  Rb  Rb13  1  0.75000000  0.75000000  0.82804400  1
  Rb  Rb14  1  0.75000000  0.75000000  0.50406000  1
  Rb  Rb15  1  0.00000000  0.50000000  0.75406000  1
  Rb  Rb16  1  0.25000000  0.25000000  0.99594000  1
  Rb  Rb17  1  0.00000000  0.00000000  0.74594000  1
  Rb  Rb18  1  0.50000000  0.00000000  0.92195600  1
  Rb  Rb19  1  0.00000000  0.00000000  0.57804400  1
  Rb  Rb20  1  0.25000000  0.25000000  0.67195600  1
  Rb  Rb21  1  0.25000000  0.25000000  0.82804400  1
  Rb  Rb22  1  0.25000000  0.25000000  0.50406000  1
  Rb  Rb23  1  0.50000000  0.00000000  0.75406000  1
  Rb  Rb24  1  0.25000000  0.75000000  0.49594000  1
  Rb  Rb25  1  0.00000000  0.50000000  0.24594000  1
  Rb  Rb26  1  0.50000000  0.50000000  0.42195600  1
  Rb  Rb27  1  0.00000000  0.50000000  0.07804400  1
  Rb  Rb28  1  0.25000000  0.75000000  0.17195600  1
  Rb  Rb29  1  0.25000000  0.75000000  0.32804400  1
  Rb  Rb30  1  0.25000000  0.75000000  0.00406000  1
  Rb  Rb31  1  0.50000000  0.50000000  0.25406000  1
  Pr  Pr32  1  0.00000000  0.00000000  0.08568000  1
  Pr  Pr33  1  0.50000000  0.00000000  0.41432000  1
  Pr  Pr34  1  0.75000000  0.75000000  0.33568000  1
  Pr  Pr35  1  0.75000000  0.75000000  0.16432000  1
  Pr  Pr36  1  0.00000000  0.50000000  0.58568000  1
  Pr  Pr37  1  0.50000000  0.50000000  0.91432000  1
  Pr  Pr38  1  0.75000000  0.25000000  0.83568000  1
  Pr  Pr39  1  0.75000000  0.25000000  0.66432000  1
  Pr  Pr40  1  0.50000000  0.00000000  0.58568000  1
  Pr  Pr41  1  0.00000000  0.00000000  0.91432000  1
  Pr  Pr42  1  0.25000000  0.75000000  0.83568000  1
  Pr  Pr43  1  0.25000000  0.75000000  0.66432000  1
  Pr  Pr44  1  0.50000000  0.50000000  0.08568000  1
  Pr  Pr45  1  0.00000000  0.50000000  0.41432000  1
  Pr  Pr46  1  0.25000000  0.25000000  0.33568000  1
  Pr  Pr47  1  0.25000000  0.25000000  0.16432000  1
  O  O48  1  0.82139000  0.00000000  0.00000000  1
  O  O49  1  0.97979150  0.71986400  0.40152650  1
  O  O50  1  0.47979150  0.28013600  0.09847350  1
  O  O51  1  0.02020850  0.28013600  0.40152650  1
  O  O52  1  0.52020850  0.71986400  0.09847350  1
  O  O53  1  0.57139000  0.75000000  0.25000000  1
  O  O54  1  0.17861000  0.00000000  0.00000000  1
  O  O55  1  0.22979150  0.03013600  0.15152650  1
  O  O56  1  0.72979150  0.96986400  0.34847350  1
  O  O57  1  0.77020850  0.96986400  0.15152650  1
  O  O58  1  0.27020850  0.03013600  0.34847350  1
  O  O59  1  0.92861000  0.75000000  0.25000000  1
  O  O60  1  0.82139000  0.50000000  0.50000000  1
  O  O61  1  0.97979150  0.21986400  0.90152650  1
  O  O62  1  0.47979150  0.78013600  0.59847350  1
  O  O63  1  0.02020850  0.78013600  0.90152650  1
  O  O64  1  0.52020850  0.21986400  0.59847350  1
  O  O65  1  0.57139000  0.25000000  0.75000000  1
  O  O66  1  0.17861000  0.50000000  0.50000000  1
  O  O67  1  0.22979150  0.53013600  0.65152650  1
  O  O68  1  0.72979150  0.46986400  0.84847350  1
  O  O69  1  0.77020850  0.46986400  0.65152650  1
  O  O70  1  0.27020850  0.53013600  0.84847350  1
  O  O71  1  0.92861000  0.25000000  0.75000000  1
  O  O72  1  0.32139000  0.00000000  0.50000000  1
  O  O73  1  0.47979150  0.71986400  0.90152650  1
  O  O74  1  0.97979150  0.28013600  0.59847350  1
  O  O75  1  0.52020850  0.28013600  0.90152650  1
  O  O76  1  0.02020850  0.71986400  0.59847350  1
  O  O77  1  0.07139000  0.75000000  0.75000000  1
  O  O78  1  0.67861000  0.00000000  0.50000000  1
  O  O79  1  0.72979150  0.03013600  0.65152650  1
  O  O80  1  0.22979150  0.96986400  0.84847350  1
  O  O81  1  0.27020850  0.96986400  0.65152650  1
  O  O82  1  0.77020850  0.03013600  0.84847350  1
  O  O83  1  0.42861000  0.75000000  0.75000000  1
  O  O84  1  0.32139000  0.50000000  0.00000000  1
  O  O85  1  0.47979150  0.21986400  0.40152650  1
  O  O86  1  0.97979150  0.78013600  0.09847350  1
  O  O87  1  0.52020850  0.78013600  0.40152650  1
  O  O88  1  0.02020850  0.21986400  0.09847350  1
  O  O89  1  0.07139000  0.25000000  0.25000000  1
  O  O90  1  0.67861000  0.50000000  0.00000000  1
  O  O91  1  0.72979150  0.53013600  0.15152650  1
  O  O92  1  0.22979150  0.46986400  0.34847350  1
  O  O93  1  0.27020850  0.46986400  0.15152650  1
  O  O94  1  0.77020850  0.53013600  0.34847350  1
  O  O95  1  0.42861000  0.25000000  0.25000000  1
