# generated using pymatgen
data_Mn3NbCr2(PO4)6
_symmetry_space_group_name_H-M   'P 1'
_cell_length_a   8.76447798
_cell_length_b   8.76447798
_cell_length_c   20.71914584
_cell_angle_alpha   90.00000000
_cell_angle_beta   90.00000000
_cell_angle_gamma   120.00000000
_symmetry_Int_Tables_number   1
_chemical_formula_structural   Mn3NbCr2(PO4)6
_chemical_formula_sum   'Mn9 Nb3 Cr6 P18 O72'
_cell_volume   1378.33437426
_cell_formula_units_Z   3
loop_
 _symmetry_equiv_pos_site_id
 _symmetry_equiv_pos_as_xyz
  1  'x, y, z'
loop_
 _atom_site_type_symbol
 _atom_site_label
 _atom_site_symmetry_multiplicity
 _atom_site_fract_x
 _atom_site_fract_y
 _atom_site_fract_z
 _atom_site_occupancy
  Mn  Mn0  1  0.33333333  0.66666667  0.81584467  1
  Mn  Mn1  1  0.33333333  0.66666667  0.01948367  1
  Mn  Mn2  1  0.33333333  0.66666667  0.31321167  1
  Mn  Mn3  1  0.00000000  0.00000000  0.14917800  1
  Mn  Mn4  1  0.00000000  0.00000000  0.35281700  1
  Mn  Mn5  1  0.00000000  0.00000000  0.64654500  1
  Mn  Mn6  1  0.66666667  0.33333333  0.48251133  1
  Mn  Mn7  1  0.66666667  0.33333333  0.68615033  1
  Mn  Mn8  1  0.66666667  0.33333333  0.97987833  1
  Nb  Nb9  1  0.33333333  0.66666667  0.52011167  1
  Nb  Nb10  1  0.00000000  0.00000000  0.85344500  1
  Nb  Nb11  1  0.66666667  0.33333333  0.18677833  1
  Cr  Cr12  1  0.33333333  0.66666667  0.66942267  1
  Cr  Cr13  1  0.33333333  0.66666667  0.16816667  1
  Cr  Cr14  1  0.00000000  0.00000000  0.00275600  1
  Cr  Cr15  1  0.00000000  0.00000000  0.50150000  1
  Cr  Cr16  1  0.66666667  0.33333333  0.33608933  1
  Cr  Cr17  1  0.66666667  0.33333333  0.83483333  1
  P  P18  1  0.36111800  0.02755000  0.08160400  1
  P  P19  1  0.29833767  0.30311733  0.24965733  1
  P  P20  1  0.69688267  0.99522033  0.24965733  1
  P  P21  1  0.00477967  0.70166233  0.24965733  1
  P  P22  1  0.66643200  0.63888200  0.08160400  1
  P  P23  1  0.97245000  0.33356800  0.08160400  1
  P  P24  1  0.02778467  0.36088333  0.41493733  1
  P  P25  1  0.96500433  0.63645067  0.58299067  1
  P  P26  1  0.36354933  0.32855367  0.58299067  1
  P  P27  1  0.67144633  0.03499567  0.58299067  1
  P  P28  1  0.33309867  0.97221533  0.41493733  1
  P  P29  1  0.63911667  0.66690133  0.41493733  1
  P  P30  1  0.69445133  0.69421667  0.74827067  1
  P  P31  1  0.63167100  0.96978400  0.91632400  1
  P  P32  1  0.03021600  0.66188700  0.91632400  1
  P  P33  1  0.33811300  0.36832900  0.91632400  1
  P  P34  1  0.99976533  0.30554867  0.74827067  1
  P  P35  1  0.30578333  0.00023467  0.74827067  1
  O  O36  1  0.34313300  0.45968300  0.97809200  1
  O  O37  1  0.54031700  0.88345000  0.97809200  1
  O  O38  1  0.83050767  0.82686833  0.07364533  1
  O  O39  1  0.11655000  0.65686700  0.97809200  1
  O  O40  1  0.35411767  0.86704333  0.47425933  1
  O  O41  1  0.50346333  0.65362967  0.10018067  1
  O  O42  1  0.99636067  0.16949233  0.07364533  1
  O  O43  1  0.15016633  0.49653667  0.10018067  1
  O  O44  1  0.21384900  0.20004300  0.18872700  1
  O  O45  1  0.34637033  0.84983367  0.10018067  1
  O  O46  1  0.49620033  0.33145267  0.25875167  1
  O  O47  1  0.79995700  0.01380600  0.18872700  1
  O  O48  1  0.51292567  0.64588233  0.47425933  1
  O  O49  1  0.17313167  0.00363933  0.07364533  1
  O  O50  1  0.32957167  0.49341733  0.23761633  1
  O  O51  1  0.13295667  0.48707433  0.47425933  1
  O  O52  1  0.50658267  0.83615433  0.23761633  1
  O  O53  1  0.66854733  0.16474767  0.25875167  1
  O  O54  1  0.16384567  0.67042833  0.23761633  1
  O  O55  1  0.98619400  0.78615100  0.18872700  1
  O  O56  1  0.54742467  0.67773333  0.35538533  1
  O  O57  1  0.83525233  0.50379967  0.25875167  1
  O  O58  1  0.13030867  0.45257533  0.35538533  1
  O  O59  1  0.32226667  0.86969133  0.35538533  1
  O  O60  1  0.00979967  0.79301633  0.31142533  1
  O  O61  1  0.20698367  0.21678333  0.31142533  1
  O  O62  1  0.49717433  0.16020167  0.40697867  1
  O  O63  1  0.78321667  0.99020033  0.31142533  1
  O  O64  1  0.02078433  0.20037667  0.80759267  1
  O  O65  1  0.17013000  0.98696300  0.43351400  1
  O  O66  1  0.66302733  0.50282567  0.40697867  1
  O  O67  1  0.81683300  0.82987000  0.43351400  1
  O  O68  1  0.88051567  0.53337633  0.52206033  1
  O  O69  1  0.01303700  0.18316700  0.43351400  1
  O  O70  1  0.16286700  0.66478600  0.59208500  1
  O  O71  1  0.46662367  0.34713933  0.52206033  1
  O  O72  1  0.17959233  0.97921567  0.80759267  1
  O  O73  1  0.83979833  0.33697267  0.40697867  1
  O  O74  1  0.99623833  0.82675067  0.57094967  1
  O  O75  1  0.79962333  0.82040767  0.80759267  1
  O  O76  1  0.17324933  0.16948767  0.57094967  1
  O  O77  1  0.33521400  0.49808100  0.59208500  1
  O  O78  1  0.83051233  0.00376167  0.57094967  1
  O  O79  1  0.65286067  0.11948433  0.52206033  1
  O  O80  1  0.21409133  0.01106667  0.68871867  1
  O  O81  1  0.50191900  0.83713300  0.59208500  1
  O  O82  1  0.79697533  0.78590867  0.68871867  1
  O  O83  1  0.98893333  0.20302467  0.68871867  1
  O  O84  1  0.67646633  0.12634967  0.64475867  1
  O  O85  1  0.87365033  0.55011667  0.64475867  1
  O  O86  1  0.16384100  0.49353500  0.74031200  1
  O  O87  1  0.44988333  0.32353367  0.64475867  1
  O  O88  1  0.68745100  0.53371000  0.14092600  1
  O  O89  1  0.83679667  0.32029633  0.76684733  1
  O  O90  1  0.32969400  0.83615900  0.74031200  1
  O  O91  1  0.48349967  0.16320333  0.76684733  1
  O  O92  1  0.54718233  0.86670967  0.85539367  1
  O  O93  1  0.67970367  0.51650033  0.76684733  1
  O  O94  1  0.82953367  0.99811933  0.92541833  1
  O  O95  1  0.13329033  0.68047267  0.85539367  1
  O  O96  1  0.84625900  0.31254900  0.14092600  1
  O  O97  1  0.50646500  0.67030600  0.74031200  1
  O  O98  1  0.66290500  0.16008400  0.90428300  1
  O  O99  1  0.46629000  0.15374100  0.14092600  1
  O  O100  1  0.83991600  0.50282100  0.90428300  1
  O  O101  1  0.00188067  0.83141433  0.92541833  1
  O  O102  1  0.49717900  0.33709500  0.90428300  1
  O  O103  1  0.31952733  0.45281767  0.85539367  1
  O  O104  1  0.88075800  0.34440000  0.02205200  1
  O  O105  1  0.16858567  0.17046633  0.92541833  1
  O  O106  1  0.46364200  0.11924200  0.02205200  1
  O  O107  1  0.65560000  0.53635800  0.02205200  1
