# generated using pymatgen
data_CeBrO
_symmetry_space_group_name_H-M   'P 1'
_cell_length_a   3.99548812
_cell_length_b   3.99548812
_cell_length_c   30.36988412
_cell_angle_alpha   90.00000000
_cell_angle_beta   90.00000000
_cell_angle_gamma   120.00000000
_symmetry_Int_Tables_number   1
_chemical_formula_structural   CeBrO
_chemical_formula_sum   'Ce6 Br6 O6'
_cell_volume   419.86865511
_cell_formula_units_Z   6
loop_
 _symmetry_equiv_pos_site_id
 _symmetry_equiv_pos_as_xyz
  1  'x, y, z'
loop_
 _atom_site_type_symbol
 _atom_site_label
 _atom_site_symmetry_multiplicity
 _atom_site_fract_x
 _atom_site_fract_y
 _atom_site_fract_z
 _atom_site_occupancy
  Ce  Ce0  1  0.66666667  0.33333333  0.11825833  1
  Ce  Ce1  1  0.00000000  0.00000000  0.21507500  1
  Ce  Ce2  1  0.33333333  0.66666667  0.45159167  1
  Ce  Ce3  1  0.66666667  0.33333333  0.54840833  1
  Ce  Ce4  1  0.00000000  0.00000000  0.78492500  1
  Ce  Ce5  1  0.33333333  0.66666667  0.88174167  1
  Br  Br6  1  0.33333333  0.66666667  0.28043167  1
  Br  Br7  1  0.33333333  0.66666667  0.05290167  1
  Br  Br8  1  0.00000000  0.00000000  0.61376500  1
  Br  Br9  1  0.00000000  0.00000000  0.38623500  1
  Br  Br10  1  0.66666667  0.33333333  0.94709833  1
  Br  Br11  1  0.66666667  0.33333333  0.71956833  1
  O  O12  1  0.66666667  0.33333333  0.19600233  1
  O  O13  1  0.00000000  0.00000000  0.13733100  1
  O  O14  1  0.33333333  0.66666667  0.52933567  1
  O  O15  1  0.66666667  0.33333333  0.47066433  1
  O  O16  1  0.00000000  0.00000000  0.86266900  1
  O  O17  1  0.33333333  0.66666667  0.80399767  1
