# generated using pymatgen
data_LiMnF4
_symmetry_space_group_name_H-M   'P 1'
_cell_length_a   6.35598000
_cell_length_b   6.41979000
_cell_length_c   6.65174600
_cell_angle_alpha   90.00000000
_cell_angle_beta   90.00000000
_cell_angle_gamma   90.00000000
_symmetry_Int_Tables_number   1
_chemical_formula_structural   LiMnF4
_chemical_formula_sum   'Li4 Mn4 F16'
_cell_volume   271.41822190
_cell_formula_units_Z   4
loop_
 _symmetry_equiv_pos_site_id
 _symmetry_equiv_pos_as_xyz
  1  'x, y, z'
loop_
 _atom_site_type_symbol
 _atom_site_label
 _atom_site_symmetry_multiplicity
 _atom_site_fract_x
 _atom_site_fract_y
 _atom_site_fract_z
 _atom_site_occupancy
  Li  Li0  1  0.50000000  0.23749900  0.25000000  1
  Li  Li1  1  0.00000000  0.26250100  0.25000000  1
  Li  Li2  1  0.00000000  0.73749900  0.75000000  1
  Li  Li3  1  0.50000000  0.76250100  0.75000000  1
  Mn  Mn4  1  0.25000000  0.75000000  0.25000000  1
  Mn  Mn5  1  0.75000000  0.75000000  0.25000000  1
  Mn  Mn6  1  0.75000000  0.25000000  0.75000000  1
  Mn  Mn7  1  0.25000000  0.25000000  0.75000000  1
  F  F8  1  0.50000000  0.74701350  0.44496450  1
  F  F9  1  0.50000000  0.74701350  0.05503550  1
  F  F10  1  0.74388300  0.03766400  0.25000000  1
  F  F11  1  0.75611700  0.46233600  0.25000000  1
  F  F12  1  0.25611700  0.03766400  0.25000000  1
  F  F13  1  0.24388300  0.46233600  0.25000000  1
  F  F14  1  0.00000000  0.75298650  0.05503550  1
  F  F15  1  0.00000000  0.75298650  0.44496450  1
  F  F16  1  0.00000000  0.24701350  0.94496450  1
  F  F17  1  0.00000000  0.24701350  0.55503550  1
  F  F18  1  0.24388300  0.53766400  0.75000000  1
  F  F19  1  0.25611700  0.96233600  0.75000000  1
  F  F20  1  0.75611700  0.53766400  0.75000000  1
  F  F21  1  0.74388300  0.96233600  0.75000000  1
  F  F22  1  0.50000000  0.25298650  0.55503550  1
  F  F23  1  0.50000000  0.25298650  0.94496450  1
