# generated using pymatgen
data_Lu(CuO2)2
_symmetry_space_group_name_H-M   'P 1'
_cell_length_a   5.59423200
_cell_length_b   5.59423200
_cell_length_c   9.51901600
_cell_angle_alpha   90.00000000
_cell_angle_beta   90.00000000
_cell_angle_gamma   90.00000000
_symmetry_Int_Tables_number   1
_chemical_formula_structural   Lu(CuO2)2
_chemical_formula_sum   'Lu4 Cu8 O16'
_cell_volume   297.90171479
_cell_formula_units_Z   4
loop_
 _symmetry_equiv_pos_site_id
 _symmetry_equiv_pos_as_xyz
  1  'x, y, z'
loop_
 _atom_site_type_symbol
 _atom_site_label
 _atom_site_symmetry_multiplicity
 _atom_site_fract_x
 _atom_site_fract_y
 _atom_site_fract_z
 _atom_site_occupancy
  Lu  Lu0  1  0.00000000  0.00000000  0.00000000  1
  Lu  Lu1  1  0.00000000  0.50000000  0.25000000  1
  Lu  Lu2  1  0.50000000  0.50000000  0.50000000  1
  Lu  Lu3  1  0.50000000  0.00000000  0.75000000  1
  Cu  Cu4  1  0.50000000  0.75000000  0.12500000  1
  Cu  Cu5  1  0.50000000  0.25000000  0.12500000  1
  Cu  Cu6  1  0.75000000  0.00000000  0.37500000  1
  Cu  Cu7  1  0.25000000  0.00000000  0.37500000  1
  Cu  Cu8  1  0.00000000  0.25000000  0.62500000  1
  Cu  Cu9  1  0.00000000  0.75000000  0.62500000  1
  Cu  Cu10  1  0.25000000  0.50000000  0.87500000  1
  Cu  Cu11  1  0.75000000  0.50000000  0.87500000  1
  O  O12  1  0.20277650  0.35165350  0.05324950  1
  O  O13  1  0.20277650  0.85165350  0.19675050  1
  O  O14  1  0.64834650  0.70277650  0.30324950  1
  O  O15  1  0.14834650  0.70277650  0.44675050  1
  O  O16  1  0.35165350  0.29722350  0.30324950  1
  O  O17  1  0.85165350  0.29722350  0.44675050  1
  O  O18  1  0.79722350  0.64834650  0.05324950  1
  O  O19  1  0.79722350  0.14834650  0.19675050  1
  O  O20  1  0.70277650  0.85165350  0.55324950  1
  O  O21  1  0.70277650  0.35165350  0.69675050  1
  O  O22  1  0.14834650  0.20277650  0.80324950  1
  O  O23  1  0.64834650  0.20277650  0.94675050  1
  O  O24  1  0.85165350  0.79722350  0.80324950  1
  O  O25  1  0.35165350  0.79722350  0.94675050  1
  O  O26  1  0.29722350  0.14834650  0.55324950  1
  O  O27  1  0.29722350  0.64834650  0.69675050  1
