# generated using pymatgen
data_Li2MnSiO4
_symmetry_space_group_name_H-M   'P 1'
_cell_length_a   5.09301182
_cell_length_b   6.37467076
_cell_length_c   10.89745515
_cell_angle_alpha   90.00000000
_cell_angle_beta   90.00000000
_cell_angle_gamma   90.00000000
_symmetry_Int_Tables_number   1
_chemical_formula_structural   Li2MnSiO4
_chemical_formula_sum   'Li8 Mn4 Si4 O16'
_cell_volume   353.79975962
_cell_formula_units_Z   4
loop_
 _symmetry_equiv_pos_site_id
 _symmetry_equiv_pos_as_xyz
  1  'x, y, z'
loop_
 _atom_site_type_symbol
 _atom_site_label
 _atom_site_symmetry_multiplicity
 _atom_site_fract_x
 _atom_site_fract_y
 _atom_site_fract_z
 _atom_site_occupancy
  Li  Li0  1  0.68139100  0.50152150  0.91255700  1
  Li  Li1  1  0.81860900  0.99847850  0.41255700  1
  Li  Li2  1  0.68139100  0.99847850  0.91255700  1
  Li  Li3  1  0.18139100  0.00152150  0.58744300  1
  Li  Li4  1  0.31860900  0.00152150  0.08744300  1
  Li  Li5  1  0.18139100  0.49847850  0.58744300  1
  Li  Li6  1  0.31860900  0.49847850  0.08744300  1
  Li  Li7  1  0.81860900  0.50152150  0.41255700  1
  Mn  Mn8  1  0.68104600  0.25000000  0.66677700  1
  Mn  Mn9  1  0.31895400  0.75000000  0.33322300  1
  Mn  Mn10  1  0.81895400  0.25000000  0.16677700  1
  Mn  Mn11  1  0.18104600  0.75000000  0.83322300  1
  Si  Si12  1  0.32545300  0.25000000  0.33870800  1
  Si  Si13  1  0.17454700  0.25000000  0.83870800  1
  Si  Si14  1  0.82545300  0.75000000  0.16129200  1
  Si  Si15  1  0.67454700  0.75000000  0.66129200  1
  O  O16  1  0.65014900  0.25000000  0.34267600  1
  O  O17  1  0.84985100  0.25000000  0.84267600  1
  O  O18  1  0.15014900  0.75000000  0.15732400  1
  O  O19  1  0.34985100  0.75000000  0.65732400  1
  O  O20  1  0.27003200  0.25000000  0.69254400  1
  O  O21  1  0.22996800  0.25000000  0.19254400  1
  O  O22  1  0.77003200  0.75000000  0.80745600  1
  O  O23  1  0.72996800  0.75000000  0.30745600  1
  O  O24  1  0.21211000  0.46426350  0.40801100  1
  O  O25  1  0.28789000  0.46426350  0.90801100  1
  O  O26  1  0.21211000  0.03573650  0.40801100  1
  O  O27  1  0.28789000  0.03573650  0.90801100  1
  O  O28  1  0.71211000  0.96426350  0.09198900  1
  O  O29  1  0.78789000  0.96426350  0.59198900  1
  O  O30  1  0.71211000  0.53573650  0.09198900  1
  O  O31  1  0.78789000  0.53573650  0.59198900  1
