# generated using pymatgen
data_MnCo3O8
_symmetry_space_group_name_H-M   'P 1'
_cell_length_a   5.62633876
_cell_length_b   5.62633876
_cell_length_c   8.70885511
_cell_angle_alpha   90.00000000
_cell_angle_beta   90.00000000
_cell_angle_gamma   120.00000000
_symmetry_Int_Tables_number   1
_chemical_formula_structural   MnCo3O8
_chemical_formula_sum   'Mn2 Co6 O16'
_cell_volume   238.75003934
_cell_formula_units_Z   2
loop_
 _symmetry_equiv_pos_site_id
 _symmetry_equiv_pos_as_xyz
  1  'x, y, z'
loop_
 _atom_site_type_symbol
 _atom_site_label
 _atom_site_symmetry_multiplicity
 _atom_site_fract_x
 _atom_site_fract_y
 _atom_site_fract_z
 _atom_site_occupancy
  Mn  Mn0  1  0.33333333  0.66666667  0.48537200  1
  Mn  Mn1  1  0.66666667  0.33333333  0.98537200  1
  Co  Co2  1  0.16741450  0.83258550  0.20926600  1
  Co  Co3  1  0.16741450  0.33482900  0.20926600  1
  Co  Co4  1  0.66517100  0.83258550  0.20926600  1
  Co  Co5  1  0.33482900  0.16741450  0.70926600  1
  Co  Co6  1  0.83258550  0.66517100  0.70926600  1
  Co  Co7  1  0.83258550  0.16741450  0.70926600  1
  O  O8  1  0.16404050  0.83595950  0.60501000  1
  O  O9  1  0.03822500  0.51911250  0.33727500  1
  O  O10  1  0.33333333  0.66666667  0.09836400  1
  O  O11  1  0.00000000  0.00000000  0.32044200  1
  O  O12  1  0.00000000  0.00000000  0.82044200  1
  O  O13  1  0.16404050  0.32808100  0.60501000  1
  O  O14  1  0.48088750  0.96177500  0.33727500  1
  O  O15  1  0.48088750  0.51911250  0.33727500  1
  O  O16  1  0.32808100  0.16404050  0.10501000  1
  O  O17  1  0.67191900  0.83595950  0.60501000  1
  O  O18  1  0.51911250  0.48088750  0.83727500  1
  O  O19  1  0.51911250  0.03822500  0.83727500  1
  O  O20  1  0.66666667  0.33333333  0.59836400  1
  O  O21  1  0.83595950  0.67191900  0.10501000  1
  O  O22  1  0.96177500  0.48088750  0.83727500  1
  O  O23  1  0.83595950  0.16404050  0.10501000  1
