# generated using pymatgen
data_Li3SiNiO5
_symmetry_space_group_name_H-M   'P 1'
_cell_length_a   5.01652879
_cell_length_b   5.76481707
_cell_length_c   6.33996050
_cell_angle_alpha   105.41368725
_cell_angle_beta   96.48682761
_cell_angle_gamma   108.10953688
_symmetry_Int_Tables_number   1
_chemical_formula_structural   Li3SiNiO5
_chemical_formula_sum   'Li6 Si2 Ni2 O10'
_cell_volume   164.12526481
_cell_formula_units_Z   2
loop_
 _symmetry_equiv_pos_site_id
 _symmetry_equiv_pos_as_xyz
  1  'x, y, z'
loop_
 _atom_site_type_symbol
 _atom_site_label
 _atom_site_symmetry_multiplicity
 _atom_site_fract_x
 _atom_site_fract_y
 _atom_site_fract_z
 _atom_site_occupancy
  Li  Li0  1  0.00000000  0.00000000  0.50000000  1
  Li  Li1  1  0.00000000  0.50000000  0.50000000  1
  Li  Li2  1  0.39530425  0.29918750  0.30059900  1
  Li  Li3  1  0.60469575  0.70081250  0.69940100  1
  Li  Li4  1  0.19405475  0.89551700  0.89524000  1
  Li  Li5  1  0.80594525  0.10448300  0.10476000  1
  Si  Si6  1  0.40140325  0.80262200  0.30211800  1
  Si  Si7  1  0.59859675  0.19737800  0.69788200  1
  Ni  Ni8  1  0.20030175  0.39913450  0.90086400  1
  Ni  Ni9  1  0.79969825  0.60086550  0.09913600  1
  O  O10  1  0.51610975  0.25388550  0.97359900  1
  O  O11  1  0.48389025  0.74611450  0.02640100  1
  O  O12  1  0.34058475  0.86800800  0.58633400  1
  O  O13  1  0.65941525  0.13199200  0.41366600  1
  O  O14  1  0.33030225  0.33304300  0.62672100  1
  O  O15  1  0.66969775  0.66695700  0.37327900  1
  O  O16  1  0.12777575  0.48012950  0.20397900  1
  O  O17  1  0.87222425  0.51987050  0.79602100  1
  O  O18  1  0.12219775  0.91735250  0.20690600  1
  O  O19  1  0.87780225  0.08264750  0.79309400  1
