# generated using pymatgen
data_Sb9PO25
_symmetry_space_group_name_H-M   'P 1'
_cell_length_a   15.46545400
_cell_length_b   15.46545400
_cell_length_c   3.96101000
_cell_angle_alpha   90.00000000
_cell_angle_beta   90.00000000
_cell_angle_gamma   90.00000000
_symmetry_Int_Tables_number   1
_chemical_formula_structural   Sb9PO25
_chemical_formula_sum   'Sb18 P2 O50'
_cell_volume   947.39543108
_cell_formula_units_Z   2
loop_
 _symmetry_equiv_pos_site_id
 _symmetry_equiv_pos_as_xyz
  1  'x, y, z'
loop_
 _atom_site_type_symbol
 _atom_site_label
 _atom_site_symmetry_multiplicity
 _atom_site_fract_x
 _atom_site_fract_y
 _atom_site_fract_z
 _atom_site_occupancy
  Sb  Sb0  1  0.00000000  0.00000000  0.00000000  1
  Sb  Sb1  1  0.60368500  0.72201600  0.48309700  1
  Sb  Sb2  1  0.37941200  0.82721300  0.52015700  1
  Sb  Sb3  1  0.67278700  0.87941200  0.97984300  1
  Sb  Sb4  1  0.22201600  0.89631500  0.01690300  1
  Sb  Sb5  1  0.77798400  0.10368500  0.01690300  1
  Sb  Sb6  1  0.32721300  0.12058800  0.97984300  1
  Sb  Sb7  1  0.62058800  0.17278700  0.52015700  1
  Sb  Sb8  1  0.39631500  0.27798400  0.48309700  1
  Sb  Sb9  1  0.50000000  0.50000000  0.50000000  1
  Sb  Sb10  1  0.10368500  0.22201600  0.98309700  1
  Sb  Sb11  1  0.87941200  0.32721300  0.02015700  1
  Sb  Sb12  1  0.17278700  0.37941200  0.47984300  1
  Sb  Sb13  1  0.72201600  0.39631500  0.51690300  1
  Sb  Sb14  1  0.27798400  0.60368500  0.51690300  1
  Sb  Sb15  1  0.82721300  0.62058800  0.47984300  1
  Sb  Sb16  1  0.12058800  0.67278700  0.02015700  1
  Sb  Sb17  1  0.89631500  0.77798400  0.98309700  1
  P  P18  1  0.50000000  0.00000000  0.75000000  1
  P  P19  1  0.00000000  0.50000000  0.25000000  1
  O  O20  1  0.00000000  0.00000000  0.50000000  1
  O  O21  1  0.57652600  0.60340800  0.50395700  1
  O  O22  1  0.30948600  0.72470400  0.52669500  1
  O  O23  1  0.60924300  0.76030900  0.98192500  1
  O  O24  1  0.48509400  0.76623400  0.47643200  1
  O  O25  1  0.77529600  0.80948600  0.97330500  1
  O  O26  1  0.64997700  0.85391700  0.47852300  1
  O  O27  1  0.35391700  0.85002300  0.02147700  1
  O  O28  1  0.26030900  0.89075700  0.51807500  1
  O  O29  1  0.55175300  0.93542400  0.97346300  1
  O  O30  1  0.10340800  0.92347400  0.99604300  1
  O  O31  1  0.43542400  0.94824700  0.52653700  1
  O  O32  1  0.73376600  0.98509400  0.02356800  1
  O  O33  1  0.26623400  0.01490600  0.02356800  1
  O  O34  1  0.56457600  0.05175300  0.52653700  1
  O  O35  1  0.89659200  0.07652600  0.99604300  1
  O  O36  1  0.44824700  0.06457600  0.97346300  1
  O  O37  1  0.73969100  0.10924300  0.51807500  1
  O  O38  1  0.64608300  0.14997700  0.02147700  1
  O  O39  1  0.35002300  0.14608300  0.47852300  1
  O  O40  1  0.22470400  0.19051400  0.97330500  1
  O  O41  1  0.51490600  0.23376600  0.47643200  1
  O  O42  1  0.39075700  0.23969100  0.98192500  1
  O  O43  1  0.69051400  0.27529600  0.52669500  1
  O  O44  1  0.42347400  0.39659200  0.50395700  1
  O  O45  1  0.50000000  0.50000000  0.00000000  1
  O  O46  1  0.07652600  0.10340800  0.00395700  1
  O  O47  1  0.80948600  0.22470400  0.02669500  1
  O  O48  1  0.10924300  0.26030900  0.48192500  1
  O  O49  1  0.98509400  0.26623400  0.97643200  1
  O  O50  1  0.27529600  0.30948600  0.47330500  1
  O  O51  1  0.14997700  0.35391700  0.97852300  1
  O  O52  1  0.85391700  0.35002300  0.52147700  1
  O  O53  1  0.76030900  0.39075700  0.01807500  1
  O  O54  1  0.05175300  0.43542400  0.47346300  1
  O  O55  1  0.60340800  0.42347400  0.49604300  1
  O  O56  1  0.93542400  0.44824700  0.02653700  1
  O  O57  1  0.23376600  0.48509400  0.52356800  1
  O  O58  1  0.76623400  0.51490600  0.52356800  1
  O  O59  1  0.06457600  0.55175300  0.02653700  1
  O  O60  1  0.39659200  0.57652600  0.49604300  1
  O  O61  1  0.94824700  0.56457600  0.47346300  1
  O  O62  1  0.23969100  0.60924300  0.01807500  1
  O  O63  1  0.14608300  0.64997700  0.52147700  1
  O  O64  1  0.85002300  0.64608300  0.97852300  1
  O  O65  1  0.72470400  0.69051400  0.47330500  1
  O  O66  1  0.01490600  0.73376600  0.97643200  1
  O  O67  1  0.89075700  0.73969100  0.48192500  1
  O  O68  1  0.19051400  0.77529600  0.02669500  1
  O  O69  1  0.92347400  0.89659200  0.00395700  1
