# generated using pymatgen
data_Y3ReB7
_symmetry_space_group_name_H-M   'P 1'
_cell_length_a   3.54412400
_cell_length_b   15.83052600
_cell_length_c   9.37083100
_cell_angle_alpha   90.00000000
_cell_angle_beta   90.00000000
_cell_angle_gamma   90.00000000
_symmetry_Int_Tables_number   1
_chemical_formula_structural   Y3ReB7
_chemical_formula_sum   'Y12 Re4 B28'
_cell_volume   525.75372614
_cell_formula_units_Z   4
loop_
 _symmetry_equiv_pos_site_id
 _symmetry_equiv_pos_as_xyz
  1  'x, y, z'
loop_
 _atom_site_type_symbol
 _atom_site_label
 _atom_site_symmetry_multiplicity
 _atom_site_fract_x
 _atom_site_fract_y
 _atom_site_fract_z
 _atom_site_occupancy
  Y  Y0  1  0.00000000  0.10515200  0.43993800  1
  Y  Y1  1  0.50000000  0.39484800  0.56006200  1
  Y  Y2  1  0.00000000  0.24196400  0.75000000  1
  Y  Y3  1  0.50000000  0.25803600  0.25000000  1
  Y  Y4  1  0.00000000  0.10515200  0.06006200  1
  Y  Y5  1  0.50000000  0.39484800  0.93993800  1
  Y  Y6  1  0.50000000  0.60515200  0.43993800  1
  Y  Y7  1  0.00000000  0.89484800  0.56006200  1
  Y  Y8  1  0.50000000  0.74196400  0.75000000  1
  Y  Y9  1  0.00000000  0.75803600  0.25000000  1
  Y  Y10  1  0.50000000  0.60515200  0.06006200  1
  Y  Y11  1  0.00000000  0.89484800  0.93993800  1
  Re  Re12  1  0.50000000  0.44698500  0.25000000  1
  Re  Re13  1  0.00000000  0.05301500  0.75000000  1
  Re  Re14  1  0.00000000  0.94698500  0.25000000  1
  Re  Re15  1  0.50000000  0.55301500  0.75000000  1
  B  B16  1  0.00000000  0.45768800  0.75000000  1
  B  B17  1  0.50000000  0.04231200  0.25000000  1
  B  B18  1  0.00000000  0.47936500  0.40450900  1
  B  B19  1  0.50000000  0.02063500  0.59549100  1
  B  B20  1  0.50000000  0.02063500  0.90450900  1
  B  B21  1  0.00000000  0.47936500  0.09549100  1
  B  B22  1  0.00000000  0.36820500  0.34922400  1
  B  B23  1  0.50000000  0.13179500  0.65077600  1
  B  B24  1  0.00000000  0.27300500  0.46627300  1
  B  B25  1  0.50000000  0.22699500  0.53372700  1
  B  B26  1  0.50000000  0.22699500  0.96627300  1
  B  B27  1  0.00000000  0.27300500  0.03372700  1
  B  B28  1  0.00000000  0.36820500  0.15077600  1
  B  B29  1  0.50000000  0.13179500  0.84922400  1
  B  B30  1  0.50000000  0.95768800  0.75000000  1
  B  B31  1  0.00000000  0.54231200  0.25000000  1
  B  B32  1  0.50000000  0.97936500  0.40450900  1
  B  B33  1  0.00000000  0.52063500  0.59549100  1
  B  B34  1  0.00000000  0.52063500  0.90450900  1
  B  B35  1  0.50000000  0.97936500  0.09549100  1
  B  B36  1  0.50000000  0.86820500  0.34922400  1
  B  B37  1  0.00000000  0.63179500  0.65077600  1
  B  B38  1  0.50000000  0.77300500  0.46627300  1
  B  B39  1  0.00000000  0.72699500  0.53372700  1
  B  B40  1  0.00000000  0.72699500  0.96627300  1
  B  B41  1  0.50000000  0.77300500  0.03372700  1
  B  B42  1  0.50000000  0.86820500  0.15077600  1
  B  B43  1  0.00000000  0.63179500  0.84922400  1
