# generated using pymatgen
data_Li2V(CO3)2
_symmetry_space_group_name_H-M   'P 1'
_cell_length_a   14.60476800
_cell_length_b   10.58334000
_cell_length_c   9.86215051
_cell_angle_alpha   90.00000000
_cell_angle_beta   132.52599869
_cell_angle_gamma   90.00000000
_symmetry_Int_Tables_number   1
_chemical_formula_structural   Li2V(CO3)2
_chemical_formula_sum   'Li16 V8 C16 O48'
_cell_volume   1123.41252375
_cell_formula_units_Z   8
loop_
 _symmetry_equiv_pos_site_id
 _symmetry_equiv_pos_as_xyz
  1  'x, y, z'
loop_
 _atom_site_type_symbol
 _atom_site_label
 _atom_site_symmetry_multiplicity
 _atom_site_fract_x
 _atom_site_fract_y
 _atom_site_fract_z
 _atom_site_occupancy
  Li  Li0  1  0.00000000  0.37429600  0.00000000  1
  Li  Li1  1  0.00000000  0.31652300  0.50000000  1
  Li  Li2  1  0.74611000  0.96530800  0.00104100  1
  Li  Li3  1  0.82350850  0.00158950  0.57391400  1
  Li  Li4  1  0.75389000  0.46530800  0.99895900  1
  Li  Li5  1  0.00000000  0.67941600  0.00000000  1
  Li  Li6  1  0.67649150  0.50158950  0.42608600  1
  Li  Li7  1  0.50000000  0.12469500  0.50000000  1
  Li  Li8  1  0.50000000  0.87429600  0.00000000  1
  Li  Li9  1  0.50000000  0.81652300  0.50000000  1
  Li  Li10  1  0.24611000  0.46530800  0.00104100  1
  Li  Li11  1  0.32350850  0.50158950  0.57391400  1
  Li  Li12  1  0.25389000  0.96530800  0.99895900  1
  Li  Li13  1  0.50000000  0.17941600  0.00000000  1
  Li  Li14  1  0.17649150  0.00158950  0.42608600  1
  Li  Li15  1  0.00000000  0.62469500  0.50000000  1
  V  V16  1  0.03387800  0.50053100  0.28417900  1
  V  V17  1  0.46612200  0.00053100  0.71582100  1
  V  V18  1  0.00000000  0.02695700  0.50000000  1
  V  V19  1  0.00000000  0.97029000  0.00000000  1
  V  V20  1  0.53387800  0.00053100  0.28417900  1
  V  V21  1  0.96612200  0.50053100  0.71582100  1
  V  V22  1  0.50000000  0.52695700  0.50000000  1
  V  V23  1  0.50000000  0.47029000  0.00000000  1
  C  C24  1  0.70375750  0.03155150  0.19050700  1
  C  C25  1  0.96346950  0.20118750  0.73287100  1
  C  C26  1  0.03653050  0.20118750  0.26712900  1
  C  C27  1  0.20430650  0.46427050  0.71903400  1
  C  C28  1  0.46289550  0.29797850  0.69388800  1
  C  C29  1  0.79624250  0.53155150  0.80949300  1
  C  C30  1  0.79569350  0.46427050  0.28096600  1
  C  C31  1  0.53710450  0.29797850  0.30611200  1
  C  C32  1  0.20375750  0.53155150  0.19050700  1
  C  C33  1  0.46346950  0.70118750  0.73287100  1
  C  C34  1  0.53653050  0.70118750  0.26712900  1
  C  C35  1  0.70430650  0.96427050  0.71903400  1
  C  C36  1  0.96289550  0.79797850  0.69388800  1
  C  C37  1  0.29624250  0.03155150  0.80949300  1
  C  C38  1  0.29569350  0.96427050  0.28096600  1
  C  C39  1  0.03710450  0.79797850  0.30611200  1
  O  O40  1  0.60372450  0.03159950  0.01316000  1
  O  O41  1  0.81029200  0.02278500  0.23740300  1
  O  O42  1  0.60533850  0.95768550  0.69896200  1
  O  O43  1  0.69108200  0.03877000  0.30720500  1
  O  O44  1  0.02027000  0.31286800  0.19794100  1
  O  O45  1  0.96425950  0.18816950  0.60245400  1
  O  O46  1  0.47973000  0.81286800  0.80205900  1
  O  O47  1  0.19036450  0.46853950  0.57590800  1
  O  O48  1  0.94328600  0.10623400  0.79111600  1
  O  O49  1  0.44322950  0.39459650  0.59784500  1
  O  O50  1  0.03574050  0.18816950  0.39754600  1
  O  O51  1  0.68970800  0.52278500  0.76259700  1
  O  O52  1  0.81155400  0.96455900  0.88515400  1
  O  O53  1  0.46448150  0.30910750  0.82680900  1
  O  O54  1  0.05671400  0.10623400  0.20888400  1
  O  O55  1  0.68844600  0.46455900  0.11484600  1
  O  O56  1  0.80891800  0.53877000  0.69279500  1
  O  O57  1  0.03551850  0.80910750  0.17319100  1
  O  O58  1  0.89466150  0.45768550  0.30103800  1
  O  O59  1  0.47854050  0.18726150  0.65460800  1
  O  O60  1  0.89627550  0.53159950  0.98684000  1
  O  O61  1  0.30963550  0.96853950  0.42409200  1
  O  O62  1  0.55677050  0.39459650  0.40215500  1
  O  O63  1  0.52145950  0.18726150  0.34539200  1
  O  O64  1  0.10372450  0.53159950  0.01316000  1
  O  O65  1  0.31029200  0.52278500  0.23740300  1
  O  O66  1  0.10533850  0.45768550  0.69896200  1
  O  O67  1  0.19108200  0.53877000  0.30720500  1
  O  O68  1  0.52027000  0.81286800  0.19794100  1
  O  O69  1  0.46425950  0.68816950  0.60245400  1
  O  O70  1  0.97973000  0.31286800  0.80205900  1
  O  O71  1  0.69036450  0.96853950  0.57590800  1
  O  O72  1  0.44328600  0.60623400  0.79111600  1
  O  O73  1  0.94322950  0.89459650  0.59784500  1
  O  O74  1  0.53574050  0.68816950  0.39754600  1
  O  O75  1  0.18970800  0.02278500  0.76259700  1
  O  O76  1  0.31155400  0.46455900  0.88515400  1
  O  O77  1  0.96448150  0.80910750  0.82680900  1
  O  O78  1  0.55671400  0.60623400  0.20888400  1
  O  O79  1  0.18844600  0.96455900  0.11484600  1
  O  O80  1  0.30891800  0.03877000  0.69279500  1
  O  O81  1  0.53551850  0.30910750  0.17319100  1
  O  O82  1  0.39466150  0.95768550  0.30103800  1
  O  O83  1  0.97854050  0.68726150  0.65460800  1
  O  O84  1  0.39627550  0.03159950  0.98684000  1
  O  O85  1  0.80963550  0.46853950  0.42409200  1
  O  O86  1  0.05677050  0.89459650  0.40215500  1
  O  O87  1  0.02145950  0.68726150  0.34539200  1
