# generated using pymatgen
data_Li12Fe3NiP4(CO7)4
_symmetry_space_group_name_H-M   'P 1'
_cell_length_a   8.47152825
_cell_length_b   6.43878900
_cell_length_c   9.99761636
_cell_angle_alpha   90.00000000
_cell_angle_beta   94.73591083
_cell_angle_gamma   90.00000000
_symmetry_Int_Tables_number   1
_chemical_formula_structural   Li12Fe3NiP4(CO7)4
_chemical_formula_sum   'Li12 Fe3 Ni1 P4 C4 O28'
_cell_volume   543.47195059
_cell_formula_units_Z   1
loop_
 _symmetry_equiv_pos_site_id
 _symmetry_equiv_pos_as_xyz
  1  'x, y, z'
loop_
 _atom_site_type_symbol
 _atom_site_label
 _atom_site_symmetry_multiplicity
 _atom_site_fract_x
 _atom_site_fract_y
 _atom_site_fract_z
 _atom_site_occupancy
  Li  Li0  1  0.90688600  0.00000000  0.38124200  1
  Li  Li1  1  0.90373800  0.00000000  0.88172900  1
  Li  Li2  1  0.72490300  0.22756800  0.12246100  1
  Li  Li3  1  0.72490300  0.77243200  0.12246100  1
  Li  Li4  1  0.72433600  0.22701500  0.62518800  1
  Li  Li5  1  0.72433600  0.77298500  0.62518800  1
  Li  Li6  1  0.27463700  0.72784300  0.37798200  1
  Li  Li7  1  0.27463700  0.27215700  0.37798200  1
  Li  Li8  1  0.27494200  0.72925600  0.87428000  1
  Li  Li9  1  0.27494200  0.27074400  0.87428000  1
  Li  Li10  1  0.09405300  0.50000000  0.11933800  1
  Li  Li11  1  0.09526600  0.50000000  0.61840400  1
  Fe  Fe12  1  0.66616200  0.50000000  0.39527100  1
  Fe  Fe13  1  0.66377300  0.50000000  0.89147600  1
  Fe  Fe14  1  0.33319100  0.00000000  0.10616400  1
  Ni  Ni15  1  0.33288700  0.00000000  0.60416400  1
  P  P16  1  0.58701000  0.00000000  0.36128000  1
  P  P17  1  0.58664500  0.00000000  0.85851600  1
  P  P18  1  0.41247500  0.50000000  0.14005300  1
  P  P19  1  0.41169100  0.50000000  0.64096100  1
  C  C20  1  0.96549000  0.50000000  0.35001000  1
  C  C21  1  0.96519300  0.50000000  0.85121600  1
  C  C22  1  0.03408700  0.00000000  0.14945600  1
  C  C23  1  0.03856100  0.00000000  0.64866300  1
  O  O24  1  0.92902700  0.50000000  0.47345800  1
  O  O25  1  0.88755400  0.00000000  0.17909100  1
  O  O26  1  0.92901400  0.50000000  0.97433900  1
  O  O27  1  0.85207500  0.50000000  0.25369100  1
  O  O28  1  0.89295800  0.00000000  0.67958300  1
  O  O29  1  0.85140000  0.50000000  0.75491800  1
  O  O30  1  0.69041600  0.18699000  0.41420600  1
  O  O31  1  0.69041600  0.81301000  0.41420600  1
  O  O32  1  0.69040300  0.18699300  0.91093700  1
  O  O33  1  0.69040300  0.81300700  0.91093700  1
  O  O34  1  0.57875700  0.50000000  0.08837100  1
  O  O35  1  0.56864100  0.00000000  0.20501200  1
  O  O36  1  0.57963600  0.50000000  0.59230400  1
  O  O37  1  0.56721800  0.00000000  0.70142200  1
  O  O38  1  0.43019500  0.50000000  0.29675100  1
  O  O39  1  0.41982900  0.00000000  0.41343500  1
  O  O40  1  0.42822800  0.50000000  0.79759800  1
  O  O41  1  0.42111100  0.00000000  0.91114100  1
  O  O42  1  0.30920500  0.31271100  0.08714900  1
  O  O43  1  0.30920500  0.68728900  0.08714900  1
  O  O44  1  0.30898500  0.68799100  0.58728800  1
  O  O45  1  0.30898500  0.31200900  0.58728800  1
  O  O46  1  0.14784600  0.00000000  0.24592500  1
  O  O47  1  0.11226300  0.50000000  0.32075300  1
  O  O48  1  0.15465600  0.00000000  0.74320400  1
  O  O49  1  0.07067300  0.00000000  0.02618100  1
  O  O50  1  0.11174700  0.50000000  0.82099000  1
  O  O51  1  0.07441200  0.00000000  0.52491400  1
