# generated using pymatgen
data_Li4MnCr3O8
_symmetry_space_group_name_H-M   'P 1'
_cell_length_a   10.35722000
_cell_length_b   5.89211000
_cell_length_c   5.90544564
_cell_angle_alpha   90.00000000
_cell_angle_beta   124.47106484
_cell_angle_gamma   90.00000000
_symmetry_Int_Tables_number   1
_chemical_formula_structural   Li4MnCr3O8
_chemical_formula_sum   'Li8 Mn2 Cr6 O16'
_cell_volume   297.10577606
_cell_formula_units_Z   2
loop_
 _symmetry_equiv_pos_site_id
 _symmetry_equiv_pos_as_xyz
  1  'x, y, z'
loop_
 _atom_site_type_symbol
 _atom_site_label
 _atom_site_symmetry_multiplicity
 _atom_site_fract_x
 _atom_site_fract_y
 _atom_site_fract_z
 _atom_site_occupancy
  Li  Li0  1  0.00000000  0.50000000  0.00000000  1
  Li  Li1  1  0.25000000  0.25000000  0.50000000  1
  Li  Li2  1  0.25000000  0.75000000  0.50000000  1
  Li  Li3  1  0.00000000  0.00000000  0.00000000  1
  Li  Li4  1  0.50000000  0.00000000  0.00000000  1
  Li  Li5  1  0.75000000  0.75000000  0.50000000  1
  Li  Li6  1  0.75000000  0.25000000  0.50000000  1
  Li  Li7  1  0.50000000  0.50000000  0.00000000  1
  Mn  Mn8  1  0.00000000  0.00000000  0.50000000  1
  Mn  Mn9  1  0.50000000  0.50000000  0.50000000  1
  Cr  Cr10  1  0.25000000  0.75000000  0.00000000  1
  Cr  Cr11  1  0.25000000  0.25000000  0.00000000  1
  Cr  Cr12  1  0.00000000  0.50000000  0.50000000  1
  Cr  Cr13  1  0.75000000  0.25000000  0.00000000  1
  Cr  Cr14  1  0.75000000  0.75000000  0.00000000  1
  Cr  Cr15  1  0.50000000  0.00000000  0.50000000  1
  O  O16  1  0.23826500  0.50000000  0.75231500  1
  O  O17  1  0.48851450  0.25630950  0.25837200  1
  O  O18  1  0.48851450  0.74369050  0.25837200  1
  O  O19  1  0.26173500  0.00000000  0.24768500  1
  O  O20  1  0.25836650  0.00000000  0.77479900  1
  O  O21  1  0.01148550  0.24369050  0.74162800  1
  O  O22  1  0.01148550  0.75630950  0.74162800  1
  O  O23  1  0.24163350  0.50000000  0.22520100  1
  O  O24  1  0.73826500  0.00000000  0.75231500  1
  O  O25  1  0.98851450  0.75630950  0.25837200  1
  O  O26  1  0.98851450  0.24369050  0.25837200  1
  O  O27  1  0.76173500  0.50000000  0.24768500  1
  O  O28  1  0.75836650  0.50000000  0.77479900  1
  O  O29  1  0.51148550  0.74369050  0.74162800  1
  O  O30  1  0.51148550  0.25630950  0.74162800  1
  O  O31  1  0.74163350  0.00000000  0.22520100  1
