# generated using pymatgen
data_LiMn3CrO8
_symmetry_space_group_name_H-M   'P 1'
_cell_length_a   5.83362974
_cell_length_b   5.83362974
_cell_length_c   14.54921022
_cell_angle_alpha   90.00000000
_cell_angle_beta   90.00000000
_cell_angle_gamma   120.00000000
_symmetry_Int_Tables_number   1
_chemical_formula_structural   LiMn3CrO8
_chemical_formula_sum   'Li3 Mn9 Cr3 O24'
_cell_volume   428.79308529
_cell_formula_units_Z   3
loop_
 _symmetry_equiv_pos_site_id
 _symmetry_equiv_pos_as_xyz
  1  'x, y, z'
loop_
 _atom_site_type_symbol
 _atom_site_label
 _atom_site_symmetry_multiplicity
 _atom_site_fract_x
 _atom_site_fract_y
 _atom_site_fract_z
 _atom_site_occupancy
  Li  Li0  1  0.00000000  0.00000000  0.12303400  1
  Li  Li1  1  0.66666667  0.33333333  0.45636733  1
  Li  Li2  1  0.33333333  0.66666667  0.78970067  1
  Mn  Mn3  1  0.66418067  0.83209033  0.33298833  1
  Mn  Mn4  1  0.16790967  0.83209033  0.33298833  1
  Mn  Mn5  1  0.16790967  0.33581933  0.33298833  1
  Mn  Mn6  1  0.33084733  0.16542367  0.66632167  1
  Mn  Mn7  1  0.83457633  0.16542367  0.66632167  1
  Mn  Mn8  1  0.83457633  0.66915267  0.66632167  1
  Mn  Mn9  1  0.99751400  0.49875700  0.99965500  1
  Mn  Mn10  1  0.50124300  0.49875700  0.99965500  1
  Mn  Mn11  1  0.50124300  0.00248600  0.99965500  1
  Cr  Cr12  1  0.33333333  0.66666667  0.16740167  1
  Cr  Cr13  1  0.00000000  0.00000000  0.50073500  1
  Cr  Cr14  1  0.66666667  0.33333333  0.83406833  1
  O  O15  1  0.66666667  0.33333333  0.06846333  1
  O  O16  1  0.48167767  0.96335533  0.25865233  1
  O  O17  1  0.03664467  0.51832233  0.25865233  1
  O  O18  1  0.48167767  0.51832233  0.25865233  1
  O  O19  1  0.63313600  0.81656800  0.07599800  1
  O  O20  1  0.18343200  0.81656800  0.07599800  1
  O  O21  1  0.18343200  0.36686400  0.07599800  1
  O  O22  1  0.00000000  0.00000000  0.26318500  1
  O  O23  1  0.33333333  0.66666667  0.40179667  1
  O  O24  1  0.14834433  0.29668867  0.59198567  1
  O  O25  1  0.70331133  0.85165567  0.59198567  1
  O  O26  1  0.14834433  0.85165567  0.59198567  1
  O  O27  1  0.29980267  0.14990133  0.40933133  1
  O  O28  1  0.85009867  0.14990133  0.40933133  1
  O  O29  1  0.85009867  0.70019733  0.40933133  1
  O  O30  1  0.66666667  0.33333333  0.59651833  1
  O  O31  1  0.00000000  0.00000000  0.73513000  1
  O  O32  1  0.81501100  0.63002200  0.92531900  1
  O  O33  1  0.36997800  0.18498900  0.92531900  1
  O  O34  1  0.81501100  0.18498900  0.92531900  1
  O  O35  1  0.96646933  0.48323467  0.74266467  1
  O  O36  1  0.51676533  0.48323467  0.74266467  1
  O  O37  1  0.51676533  0.03353067  0.74266467  1
  O  O38  1  0.33333333  0.66666667  0.92985167  1
