# generated using pymatgen
data_LiMn2(PO4)2
_symmetry_space_group_name_H-M   'P 1'
_cell_length_a   8.00503800
_cell_length_b   5.40213100
_cell_length_c   8.62656659
_cell_angle_alpha   90.00000000
_cell_angle_beta   103.78452506
_cell_angle_gamma   90.00000000
_symmetry_Int_Tables_number   1
_chemical_formula_structural   LiMn2(PO4)2
_chemical_formula_sum   'Li2 Mn4 P4 O16'
_cell_volume   362.30520012
_cell_formula_units_Z   2
loop_
 _symmetry_equiv_pos_site_id
 _symmetry_equiv_pos_as_xyz
  1  'x, y, z'
loop_
 _atom_site_type_symbol
 _atom_site_label
 _atom_site_symmetry_multiplicity
 _atom_site_fract_x
 _atom_site_fract_y
 _atom_site_fract_z
 _atom_site_occupancy
  Li  Li0  1  0.36126500  0.17456500  0.38315000  1
  Li  Li1  1  0.36126500  0.82543500  0.88315000  1
  Mn  Mn2  1  0.95205900  0.17504900  0.05460900  1
  Mn  Mn3  1  0.49340400  0.66336600  0.26411700  1
  Mn  Mn4  1  0.95205900  0.82495100  0.55460900  1
  Mn  Mn5  1  0.49340400  0.33663400  0.76411700  1
  P  P6  1  0.25203000  0.32382000  0.01183200  1
  P  P7  1  0.74390800  0.16001200  0.33515900  1
  P  P8  1  0.25203000  0.67618000  0.51183200  1
  P  P9  1  0.74390800  0.83998800  0.83515900  1
  O  O10  1  0.88377400  0.83004000  0.99479700  1
  O  O11  1  0.31804600  0.59257200  0.04492200  1
  O  O12  1  0.81749400  0.26558400  0.19714700  1
  O  O13  1  0.21531900  0.20867400  0.16758200  1
  O  O14  1  0.70080300  0.88231700  0.30726900  1
  O  O15  1  0.58318100  0.31411400  0.34283900  1
  O  O16  1  0.88377400  0.16996000  0.49479700  1
  O  O17  1  0.38023000  0.82407500  0.44005000  1
  O  O18  1  0.06731400  0.69700600  0.39815600  1
  O  O19  1  0.31804600  0.40742800  0.54492200  1
  O  O20  1  0.81749400  0.73441600  0.69714700  1
  O  O21  1  0.21531900  0.79132600  0.66758200  1
  O  O22  1  0.70080300  0.11768300  0.80726900  1
  O  O23  1  0.58318100  0.68588600  0.84283900  1
  O  O24  1  0.38023000  0.17592500  0.94005000  1
  O  O25  1  0.06731400  0.30299400  0.89815600  1
