# generated using pymatgen
data_Mn2O3F
_symmetry_space_group_name_H-M   'P 1'
_cell_length_a   8.72761995
_cell_length_b   6.68112812
_cell_length_c   8.74623826
_cell_angle_alpha   90.00000000
_cell_angle_beta   92.79643900
_cell_angle_gamma   90.00000000
_symmetry_Int_Tables_number   1
_chemical_formula_structural   Mn2O3F
_chemical_formula_sum   'Mn16 O24 F8'
_cell_volume   509.38887054
_cell_formula_units_Z   8
loop_
 _symmetry_equiv_pos_site_id
 _symmetry_equiv_pos_as_xyz
  1  'x, y, z'
loop_
 _atom_site_type_symbol
 _atom_site_label
 _atom_site_symmetry_multiplicity
 _atom_site_fract_x
 _atom_site_fract_y
 _atom_site_fract_z
 _atom_site_occupancy
  Mn  Mn0  1  0.12506250  0.49835350  0.12445500  1
  Mn  Mn1  1  0.37460350  0.51725750  0.37413200  1
  Mn  Mn2  1  0.75037300  0.48068300  0.25072300  1
  Mn  Mn3  1  0.00000000  0.48535800  0.50000000  1
  Mn  Mn4  1  0.24962700  0.48068300  0.74927700  1
  Mn  Mn5  1  0.62539650  0.51725750  0.62586800  1
  Mn  Mn6  1  0.87493750  0.49835350  0.87554500  1
  Mn  Mn7  1  0.00000000  0.02753600  0.00000000  1
  Mn  Mn8  1  0.62506250  0.99835350  0.12445500  1
  Mn  Mn9  1  0.87460350  0.01725750  0.37413200  1
  Mn  Mn10  1  0.25037300  0.98068300  0.25072300  1
  Mn  Mn11  1  0.50000000  0.98535800  0.50000000  1
  Mn  Mn12  1  0.74962700  0.98068300  0.74927700  1
  Mn  Mn13  1  0.12539650  0.01725750  0.62586800  1
  Mn  Mn14  1  0.37493750  0.99835350  0.87554500  1
  Mn  Mn15  1  0.50000000  0.52753600  0.00000000  1
  O  O16  1  0.24853500  0.69057400  0.24997200  1
  O  O17  1  0.22254750  0.49453850  0.52587000  1
  O  O18  1  0.97159450  0.49741050  0.27938200  1
  O  O19  1  0.72215000  0.50392200  0.02969200  1
  O  O20  1  0.47313600  0.50038800  0.77807500  1
  O  O21  1  0.52686400  0.50038800  0.22192500  1
  O  O22  1  0.02840550  0.49741050  0.72061800  1
  O  O23  1  0.77745250  0.49453850  0.47413000  1
  O  O24  1  0.27785000  0.50392200  0.97030800  1
  O  O25  1  0.00000000  0.19816200  0.50000000  1
  O  O26  1  0.75146500  0.69057400  0.75002800  1
  O  O27  1  0.00000000  0.31265700  0.00000000  1
  O  O28  1  0.74853500  0.19057400  0.24997200  1
  O  O29  1  0.72254750  0.99453850  0.52587000  1
  O  O30  1  0.47159450  0.99741050  0.27938200  1
  O  O31  1  0.22215000  0.00392200  0.02969200  1
  O  O32  1  0.97313600  0.00038800  0.77807500  1
  O  O33  1  0.02686400  0.00038800  0.22192500  1
  O  O34  1  0.52840550  0.99741050  0.72061800  1
  O  O35  1  0.27745250  0.99453850  0.47413000  1
  O  O36  1  0.77785000  0.00392200  0.97030800  1
  O  O37  1  0.50000000  0.69816200  0.50000000  1
  O  O38  1  0.25146500  0.19057400  0.75002800  1
  O  O39  1  0.50000000  0.81265700  0.00000000  1
  F  F40  1  0.25598750  0.29006050  0.25601500  1
  F  F41  1  0.00000000  0.81017600  0.50000000  1
  F  F42  1  0.00000000  0.71973500  0.00000000  1
  F  F43  1  0.74401250  0.29006050  0.74398500  1
  F  F44  1  0.75598750  0.79006050  0.25601500  1
  F  F45  1  0.50000000  0.31017600  0.50000000  1
  F  F46  1  0.50000000  0.21973500  0.00000000  1
  F  F47  1  0.24401250  0.79006050  0.74398500  1
