# generated using pymatgen
data_Li2V2F7
_symmetry_space_group_name_H-M   'P 1'
_cell_length_a   7.61466600
_cell_length_b   6.70744800
_cell_length_c   10.44717806
_cell_angle_alpha   90.00000000
_cell_angle_beta   100.56678391
_cell_angle_gamma   90.00000000
_symmetry_Int_Tables_number   1
_chemical_formula_structural   Li2V2F7
_chemical_formula_sum   'Li8 V8 F28'
_cell_volume   524.54066988
_cell_formula_units_Z   4
loop_
 _symmetry_equiv_pos_site_id
 _symmetry_equiv_pos_as_xyz
  1  'x, y, z'
loop_
 _atom_site_type_symbol
 _atom_site_label
 _atom_site_symmetry_multiplicity
 _atom_site_fract_x
 _atom_site_fract_y
 _atom_site_fract_z
 _atom_site_occupancy
  Li  Li0  1  0.04539300  0.69555300  0.48051400  1
  Li  Li1  1  0.95460700  0.69555300  0.01948600  1
  Li  Li2  1  0.04539300  0.30444700  0.98051400  1
  Li  Li3  1  0.95460700  0.30444700  0.51948600  1
  Li  Li4  1  0.54539300  0.19555300  0.48051400  1
  Li  Li5  1  0.45460700  0.19555300  0.01948600  1
  Li  Li6  1  0.54539300  0.80444700  0.98051400  1
  Li  Li7  1  0.45460700  0.80444700  0.51948600  1
  V  V8  1  0.76462150  0.49542450  0.25131300  1
  V  V9  1  0.23537850  0.49542450  0.24868700  1
  V  V10  1  0.76462150  0.50457550  0.75131300  1
  V  V11  1  0.23537850  0.50457550  0.74868700  1
  V  V12  1  0.26462150  0.99542450  0.25131300  1
  V  V13  1  0.73537850  0.99542450  0.24868700  1
  V  V14  1  0.26462150  0.00457550  0.75131300  1
  V  V15  1  0.73537850  0.00457550  0.74868700  1
  F  F16  1  0.02241050  0.45945550  0.36945600  1
  F  F17  1  0.75151050  0.74616250  0.12457400  1
  F  F18  1  0.97758950  0.45945550  0.13054400  1
  F  F19  1  0.81720000  0.75704200  0.37079600  1
  F  F20  1  0.00000000  0.95926300  0.75000000  1
  F  F21  1  0.81720000  0.24295800  0.87079600  1
  F  F22  1  0.24848950  0.74616250  0.37542600  1
  F  F23  1  0.75151050  0.25383750  0.62457400  1
  F  F24  1  0.18280000  0.75704200  0.12920400  1
  F  F25  1  0.00000000  0.04073700  0.25000000  1
  F  F26  1  0.18280000  0.24295800  0.62920400  1
  F  F27  1  0.02241050  0.54054450  0.86945600  1
  F  F28  1  0.24848950  0.25383750  0.87542600  1
  F  F29  1  0.97758950  0.54054450  0.63054400  1
  F  F30  1  0.52241050  0.95945550  0.36945600  1
  F  F31  1  0.25151050  0.24616250  0.12457400  1
  F  F32  1  0.47758950  0.95945550  0.13054400  1
  F  F33  1  0.31720000  0.25704200  0.37079600  1
  F  F34  1  0.50000000  0.45926300  0.75000000  1
  F  F35  1  0.31720000  0.74295800  0.87079600  1
  F  F36  1  0.74848950  0.24616250  0.37542600  1
  F  F37  1  0.25151050  0.75383750  0.62457400  1
  F  F38  1  0.68280000  0.25704200  0.12920400  1
  F  F39  1  0.50000000  0.54073700  0.25000000  1
  F  F40  1  0.68280000  0.74295800  0.62920400  1
  F  F41  1  0.52241050  0.04054450  0.86945600  1
  F  F42  1  0.74848950  0.75383750  0.87542600  1
  F  F43  1  0.47758950  0.04054450  0.63054400  1
