# generated using pymatgen
data_Li6Mn(OF)3
_symmetry_space_group_name_H-M   'P 1'
_cell_length_a   5.14892206
_cell_length_b   5.17000343
_cell_length_c   10.44862258
_cell_angle_alpha   98.16828009
_cell_angle_beta   102.06483984
_cell_angle_gamma   99.84113760
_symmetry_Int_Tables_number   1
_chemical_formula_structural   Li6Mn(OF)3
_chemical_formula_sum   'Li12 Mn2 O6 F6'
_cell_volume   263.39305123
_cell_formula_units_Z   2
loop_
 _symmetry_equiv_pos_site_id
 _symmetry_equiv_pos_as_xyz
  1  'x, y, z'
loop_
 _atom_site_type_symbol
 _atom_site_label
 _atom_site_symmetry_multiplicity
 _atom_site_fract_x
 _atom_site_fract_y
 _atom_site_fract_z
 _atom_site_occupancy
  Li  Li0  1  0.08847800  0.62904550  0.65689300  1
  Li  Li1  1  0.11163400  0.54300700  0.13235000  1
  Li  Li2  1  0.38554200  0.69151800  0.95549600  1
  Li  Li3  1  0.39781550  0.69698200  0.46642350  1
  Li  Li4  1  0.69998650  0.92496750  0.71146650  1
  Li  Li5  1  0.74183650  0.91127150  0.21953150  1
  Li  Li6  1  0.26500300  0.09856350  0.79069100  1
  Li  Li7  1  0.30842400  0.08434650  0.29789300  1
  Li  Li8  1  0.55874050  0.23685400  0.54087750  1
  Li  Li9  1  0.59614300  0.28567150  0.04258400  1
  Li  Li10  1  0.91334950  0.44110600  0.86113750  1
  Li  Li11  1  0.92452400  0.37310550  0.33384000  1
  Mn  Mn12  1  0.01387150  0.03172350  0.49976750  1
  Mn  Mn13  1  0.01533350  0.01821050  0.99806150  1
  O  O14  1  0.05764850  0.79972500  0.84140650  1
  O  O15  1  0.32237000  0.94037050  0.61106300  1
  O  O16  1  0.22899550  0.32540550  0.45827550  1
  O  O17  1  0.22762750  0.33653500  0.97245250  1
  O  O18  1  0.68589750  0.07831250  0.38946050  1
  O  O19  1  0.93209300  0.19778250  0.15248400  1
  F  F20  1  0.05926200  0.74042550  0.30936100  1
  F  F21  1  0.36187600  0.87919300  0.12435500  1
  F  F22  1  0.77527000  0.70633450  0.55045900  1
  F  F23  1  0.77414000  0.65915400  0.02486900  1
  F  F24  1  0.64009250  0.10784400  0.87630750  1
  F  F25  1  0.91404550  0.26254500  0.68249450  1
