# generated using pymatgen
data_CaMn7O8
_symmetry_space_group_name_H-M   'P 1'
_cell_length_a   11.14276400
_cell_length_b   6.42338800
_cell_length_c   5.56749340
_cell_angle_alpha   90.00000000
_cell_angle_beta   109.64650622
_cell_angle_gamma   90.00000000
_symmetry_Int_Tables_number   1
_chemical_formula_structural   CaMn7O8
_chemical_formula_sum   'Ca2 Mn14 O16'
_cell_volume   375.29130669
_cell_formula_units_Z   2
loop_
 _symmetry_equiv_pos_site_id
 _symmetry_equiv_pos_as_xyz
  1  'x, y, z'
loop_
 _atom_site_type_symbol
 _atom_site_label
 _atom_site_symmetry_multiplicity
 _atom_site_fract_x
 _atom_site_fract_y
 _atom_site_fract_z
 _atom_site_occupancy
  Ca  Ca0  1  0.00000000  0.50000000  0.50000000  1
  Ca  Ca1  1  0.50000000  0.00000000  0.50000000  1
  Mn  Mn2  1  0.00000000  0.24725800  0.00000000  1
  Mn  Mn3  1  0.24916300  0.00000000  0.99811500  1
  Mn  Mn4  1  0.25083700  0.50000000  0.00188500  1
  Mn  Mn5  1  0.25000000  0.75000000  0.50000000  1
  Mn  Mn6  1  0.25000000  0.25000000  0.50000000  1
  Mn  Mn7  1  0.00000000  0.75274200  0.00000000  1
  Mn  Mn8  1  0.00000000  0.00000000  0.50000000  1
  Mn  Mn9  1  0.50000000  0.74725800  0.00000000  1
  Mn  Mn10  1  0.74916300  0.50000000  0.99811500  1
  Mn  Mn11  1  0.75083700  0.00000000  0.00188500  1
  Mn  Mn12  1  0.75000000  0.25000000  0.50000000  1
  Mn  Mn13  1  0.75000000  0.75000000  0.50000000  1
  Mn  Mn14  1  0.50000000  0.25274200  0.00000000  1
  Mn  Mn15  1  0.50000000  0.50000000  0.50000000  1
  O  O16  1  0.12699200  0.50000000  0.24227200  1
  O  O17  1  0.37267900  0.74303200  0.24520700  1
  O  O18  1  0.37267900  0.25696800  0.24520700  1
  O  O19  1  0.12500700  0.00000000  0.25362000  1
  O  O20  1  0.37300800  0.00000000  0.75772800  1
  O  O21  1  0.12732100  0.24303200  0.75479300  1
  O  O22  1  0.12732100  0.75696800  0.75479300  1
  O  O23  1  0.37499300  0.50000000  0.74638000  1
  O  O24  1  0.62699200  0.00000000  0.24227200  1
  O  O25  1  0.87267900  0.24303200  0.24520700  1
  O  O26  1  0.87267900  0.75696800  0.24520700  1
  O  O27  1  0.62500700  0.50000000  0.25362000  1
  O  O28  1  0.87300800  0.50000000  0.75772800  1
  O  O29  1  0.62732100  0.74303200  0.75479300  1
  O  O30  1  0.62732100  0.25696800  0.75479300  1
  O  O31  1  0.87499300  0.00000000  0.74638000  1
