# generated using pymatgen
data_Li2Cr2(PO4)3
_symmetry_space_group_name_H-M   'P 1'
_cell_length_a   14.90594800
_cell_length_b   8.67650800
_cell_length_c   8.69399125
_cell_angle_alpha   90.00000000
_cell_angle_beta   125.57347629
_cell_angle_gamma   90.00000000
_symmetry_Int_Tables_number   1
_chemical_formula_structural   Li2Cr2(PO4)3
_chemical_formula_sum   'Li8 Cr8 P12 O48'
_cell_volume   914.55958203
_cell_formula_units_Z   4
loop_
 _symmetry_equiv_pos_site_id
 _symmetry_equiv_pos_as_xyz
  1  'x, y, z'
loop_
 _atom_site_type_symbol
 _atom_site_label
 _atom_site_symmetry_multiplicity
 _atom_site_fract_x
 _atom_site_fract_y
 _atom_site_fract_z
 _atom_site_occupancy
  Li  Li0  1  0.25064850  0.57434650  0.55285900  1
  Li  Li1  1  0.24935150  0.07434650  0.94714100  1
  Li  Li2  1  0.25064850  0.42565350  0.05285900  1
  Li  Li3  1  0.24935150  0.92565350  0.44714100  1
  Li  Li4  1  0.75064850  0.07434650  0.55285900  1
  Li  Li5  1  0.74935150  0.57434650  0.94714100  1
  Li  Li6  1  0.75064850  0.92565350  0.05285900  1
  Li  Li7  1  0.74935150  0.42565350  0.44714100  1
  Cr  Cr8  1  0.61107650  0.75002950  0.57877500  1
  Cr  Cr9  1  0.38892350  0.75002950  0.92122500  1
  Cr  Cr10  1  0.11107650  0.74997050  0.07877500  1
  Cr  Cr11  1  0.88892350  0.74997050  0.42122500  1
  Cr  Cr12  1  0.11107650  0.25002950  0.57877500  1
  Cr  Cr13  1  0.88892350  0.25002950  0.92122500  1
  Cr  Cr14  1  0.61107650  0.24997050  0.07877500  1
  Cr  Cr15  1  0.38892350  0.24997050  0.42122500  1
  P  P16  1  0.50000000  0.53418400  0.75000000  1
  P  P17  1  0.00000000  0.96581600  0.25000000  1
  P  P18  1  0.64271300  0.10420400  0.75202500  1
  P  P19  1  0.35728700  0.10420400  0.74797500  1
  P  P20  1  0.14271300  0.39579600  0.25202500  1
  P  P21  1  0.85728700  0.39579600  0.24797500  1
  P  P22  1  0.00000000  0.03418400  0.75000000  1
  P  P23  1  0.50000000  0.46581600  0.25000000  1
  P  P24  1  0.14271300  0.60420400  0.75202500  1
  P  P25  1  0.85728700  0.60420400  0.74797500  1
  P  P26  1  0.64271300  0.89579600  0.25202500  1
  P  P27  1  0.35728700  0.89579600  0.24797500  1
  O  O28  1  0.42878500  0.56303000  0.06977500  1
  O  O29  1  0.03585950  0.33579950  0.07777800  1
  O  O30  1  0.58682950  0.63546750  0.75257800  1
  O  O31  1  0.83802050  0.36555150  0.05642700  1
  O  O32  1  0.42878500  0.43697000  0.56977500  1
  O  O33  1  0.41317050  0.63546750  0.74742200  1
  O  O34  1  0.65586100  0.92565000  0.75640900  1
  O  O35  1  0.23551000  0.67348300  0.74148400  1
  O  O36  1  0.34413900  0.92565000  0.74359100  1
  O  O37  1  0.16197950  0.36555150  0.44357300  1
  O  O38  1  0.23551000  0.32651700  0.24148400  1
  O  O39  1  0.46414050  0.83579950  0.42222200  1
  O  O40  1  0.03585950  0.66420050  0.57777800  1
  O  O41  1  0.26449000  0.17348300  0.75851600  1
  O  O42  1  0.33802050  0.13444850  0.55642700  1
  O  O43  1  0.15586100  0.57435000  0.25640900  1
  O  O44  1  0.26449000  0.82651700  0.25851600  1
  O  O45  1  0.84413900  0.57435000  0.24359100  1
  O  O46  1  0.08682950  0.86453250  0.25257800  1
  O  O47  1  0.07121500  0.06303000  0.43022500  1
  O  O48  1  0.66197950  0.13444850  0.94357300  1
  O  O49  1  0.91317050  0.86453250  0.24742200  1
  O  O50  1  0.46414050  0.16420050  0.92222200  1
  O  O51  1  0.07121500  0.93697000  0.93022500  1
  O  O52  1  0.92878500  0.06303000  0.06977500  1
  O  O53  1  0.53585950  0.83579950  0.07777800  1
  O  O54  1  0.08682950  0.13546750  0.75257800  1
  O  O55  1  0.33802050  0.86555150  0.05642700  1
  O  O56  1  0.92878500  0.93697000  0.56977500  1
  O  O57  1  0.91317050  0.13546750  0.74742200  1
  O  O58  1  0.15586100  0.42565000  0.75640900  1
  O  O59  1  0.73551000  0.17348300  0.74148400  1
  O  O60  1  0.84413900  0.42565000  0.74359100  1
  O  O61  1  0.66197950  0.86555150  0.44357300  1
  O  O62  1  0.73551000  0.82651700  0.24148400  1
  O  O63  1  0.96414050  0.33579950  0.42222200  1
  O  O64  1  0.53585950  0.16420050  0.57777800  1
  O  O65  1  0.76449000  0.67348300  0.75851600  1
  O  O66  1  0.83802050  0.63444850  0.55642700  1
  O  O67  1  0.65586100  0.07435000  0.25640900  1
  O  O68  1  0.76449000  0.32651700  0.25851600  1
  O  O69  1  0.34413900  0.07435000  0.24359100  1
  O  O70  1  0.58682950  0.36453250  0.25257800  1
  O  O71  1  0.57121500  0.56303000  0.43022500  1
  O  O72  1  0.16197950  0.63444850  0.94357300  1
  O  O73  1  0.41317050  0.36453250  0.24742200  1
  O  O74  1  0.96414050  0.66420050  0.92222200  1
  O  O75  1  0.57121500  0.43697000  0.93022500  1
