# generated using pymatgen
data_Li5Mn5(FeO6)2
_symmetry_space_group_name_H-M   'P 1'
_cell_length_a   5.24372875
_cell_length_b   9.07992639
_cell_length_c   9.92287081
_cell_angle_alpha   90.00000000
_cell_angle_beta   99.69761812
_cell_angle_gamma   90.00000000
_symmetry_Int_Tables_number   1
_chemical_formula_structural   Li5Mn5(FeO6)2
_chemical_formula_sum   'Li10 Mn10 Fe4 O24'
_cell_volume   465.70323441
_cell_formula_units_Z   2
loop_
 _symmetry_equiv_pos_site_id
 _symmetry_equiv_pos_as_xyz
  1  'x, y, z'
loop_
 _atom_site_type_symbol
 _atom_site_label
 _atom_site_symmetry_multiplicity
 _atom_site_fract_x
 _atom_site_fract_y
 _atom_site_fract_z
 _atom_site_occupancy
  Li  Li0  1  0.75729850  0.92169950  0.75917900  1
  Li  Li1  1  0.74785000  0.08469400  0.24669500  1
  Li  Li2  1  0.24270150  0.92169950  0.24082100  1
  Li  Li3  1  0.25215000  0.08469400  0.75330500  1
  Li  Li4  1  0.50000000  0.58412250  0.00000000  1
  Li  Li5  1  0.25729850  0.42169950  0.75917900  1
  Li  Li6  1  0.24785000  0.58469400  0.24669500  1
  Li  Li7  1  0.74270150  0.42169950  0.24082100  1
  Li  Li8  1  0.75215000  0.58469400  0.75330500  1
  Li  Li9  1  0.00000000  0.08412250  0.00000000  1
  Mn  Mn10  1  0.25843850  0.74754450  0.75546500  1
  Mn  Mn11  1  0.74156150  0.74754450  0.24453500  1
  Mn  Mn12  1  0.50000000  0.42715800  0.50000000  1
  Mn  Mn13  1  0.50000000  0.92329100  0.00000000  1
  Mn  Mn14  1  0.50000000  0.08687100  0.50000000  1
  Mn  Mn15  1  0.75843850  0.24754450  0.75546500  1
  Mn  Mn16  1  0.24156150  0.24754450  0.24453500  1
  Mn  Mn17  1  0.00000000  0.92715800  0.50000000  1
  Mn  Mn18  1  0.00000000  0.42329100  0.00000000  1
  Mn  Mn19  1  0.00000000  0.58687100  0.50000000  1
  Fe  Fe20  1  0.50000000  0.24965800  0.00000000  1
  Fe  Fe21  1  0.50000000  0.75641900  0.50000000  1
  Fe  Fe22  1  0.00000000  0.74965800  0.00000000  1
  Fe  Fe23  1  0.00000000  0.25641900  0.50000000  1
  O  O24  1  0.87843650  0.89634050  0.12759400  1
  O  O25  1  0.62246400  0.93078200  0.38705900  1
  O  O26  1  0.59042050  0.24370650  0.37413500  1
  O  O27  1  0.61021150  0.76324250  0.87787600  1
  O  O28  1  0.61426450  0.08301750  0.88747100  1
  O  O29  1  0.37753600  0.93078200  0.61294100  1
  O  O30  1  0.12156350  0.89634050  0.87240600  1
  O  O31  1  0.88577000  0.09681400  0.63436800  1
  O  O32  1  0.40957950  0.24370650  0.62586500  1
  O  O33  1  0.38978850  0.76324250  0.12212400  1
  O  O34  1  0.38573550  0.08301750  0.11252900  1
  O  O35  1  0.11423000  0.09681400  0.36563200  1
  O  O36  1  0.37843650  0.39634050  0.12759400  1
  O  O37  1  0.12246400  0.43078200  0.38705900  1
  O  O38  1  0.09042050  0.74370650  0.37413500  1
  O  O39  1  0.11021150  0.26324250  0.87787600  1
  O  O40  1  0.11426450  0.58301750  0.88747100  1
  O  O41  1  0.87753600  0.43078200  0.61294100  1
  O  O42  1  0.62156350  0.39634050  0.87240600  1
  O  O43  1  0.38577000  0.59681400  0.63436800  1
  O  O44  1  0.90957950  0.74370650  0.62586500  1
  O  O45  1  0.88978850  0.26324250  0.12212400  1
  O  O46  1  0.88573550  0.58301750  0.11252900  1
  O  O47  1  0.61423000  0.59681400  0.36563200  1
