# generated using pymatgen
data_Na2Fe2O5
_symmetry_space_group_name_H-M   'P 1'
_cell_length_a   5.45352000
_cell_length_b   5.53814400
_cell_length_c   14.66507200
_cell_angle_alpha   90.00000000
_cell_angle_beta   90.00000000
_cell_angle_gamma   90.00000000
_symmetry_Int_Tables_number   1
_chemical_formula_structural   Na2Fe2O5
_chemical_formula_sum   'Na8 Fe8 O20'
_cell_volume   442.92006359
_cell_formula_units_Z   4
loop_
 _symmetry_equiv_pos_site_id
 _symmetry_equiv_pos_as_xyz
  1  'x, y, z'
loop_
 _atom_site_type_symbol
 _atom_site_label
 _atom_site_symmetry_multiplicity
 _atom_site_fract_x
 _atom_site_fract_y
 _atom_site_fract_z
 _atom_site_occupancy
  Na  Na0  1  0.50158100  0.97806700  0.89325700  1
  Na  Na1  1  0.50158100  0.97806700  0.60674300  1
  Na  Na2  1  0.00158100  0.52193300  0.60674300  1
  Na  Na3  1  0.00158100  0.52193300  0.89325700  1
  Na  Na4  1  0.00158100  0.47806700  0.39325700  1
  Na  Na5  1  0.00158100  0.47806700  0.10674300  1
  Na  Na6  1  0.50158100  0.02193300  0.10674300  1
  Na  Na7  1  0.50158100  0.02193300  0.39325700  1
  Fe  Fe8  1  0.00901500  0.00000000  0.00000000  1
  Fe  Fe9  1  0.96106450  0.07034350  0.75000000  1
  Fe  Fe10  1  0.50901500  0.50000000  0.00000000  1
  Fe  Fe11  1  0.46106450  0.42965650  0.75000000  1
  Fe  Fe12  1  0.50901500  0.50000000  0.50000000  1
  Fe  Fe13  1  0.46106450  0.57034350  0.25000000  1
  Fe  Fe14  1  0.00901500  0.00000000  0.50000000  1
  Fe  Fe15  1  0.96106450  0.92965650  0.25000000  1
  O  O16  1  0.25929850  0.25149050  0.50937750  1
  O  O17  1  0.75929850  0.24850950  0.50937750  1
  O  O18  1  0.62428600  0.13106400  0.75000000  1
  O  O19  1  0.02393850  0.94940750  0.86085650  1
  O  O20  1  0.02393850  0.94940750  0.63914350  1
  O  O21  1  0.52393850  0.55059250  0.63914350  1
  O  O22  1  0.52393850  0.55059250  0.86085650  1
  O  O23  1  0.12428600  0.36893600  0.75000000  1
  O  O24  1  0.25929850  0.25149050  0.99062250  1
  O  O25  1  0.75929850  0.24850950  0.99062250  1
  O  O26  1  0.75929850  0.75149050  0.00937750  1
  O  O27  1  0.25929850  0.74850950  0.00937750  1
  O  O28  1  0.12428600  0.63106400  0.25000000  1
  O  O29  1  0.52393850  0.44940750  0.36085650  1
  O  O30  1  0.52393850  0.44940750  0.13914350  1
  O  O31  1  0.02393850  0.05059250  0.13914350  1
  O  O32  1  0.02393850  0.05059250  0.36085650  1
  O  O33  1  0.62428600  0.86893600  0.25000000  1
  O  O34  1  0.75929850  0.75149050  0.49062250  1
  O  O35  1  0.25929850  0.74850950  0.49062250  1
