# generated using pymatgen
data_TiCo3O8
_symmetry_space_group_name_H-M   'P 1'
_cell_length_a   5.75345506
_cell_length_b   5.75345506
_cell_length_c   15.32927381
_cell_angle_alpha   90.00000000
_cell_angle_beta   90.00000000
_cell_angle_gamma   120.00000000
_symmetry_Int_Tables_number   1
_chemical_formula_structural   TiCo3O8
_chemical_formula_sum   'Ti3 Co9 O24'
_cell_volume   439.45019681
_cell_formula_units_Z   3
loop_
 _symmetry_equiv_pos_site_id
 _symmetry_equiv_pos_as_xyz
  1  'x, y, z'
loop_
 _atom_site_type_symbol
 _atom_site_label
 _atom_site_symmetry_multiplicity
 _atom_site_fract_x
 _atom_site_fract_y
 _atom_site_fract_z
 _atom_site_occupancy
  Ti  Ti0  1  0.00000000  0.00000000  0.00000000  1
  Ti  Ti1  1  0.66666667  0.33333333  0.33333333  1
  Ti  Ti2  1  0.33333333  0.66666667  0.66666667  1
  Co  Co3  1  0.16666667  0.33333333  0.33333333  1
  Co  Co4  1  0.16666667  0.83333333  0.33333333  1
  Co  Co5  1  0.66666667  0.83333333  0.33333333  1
  Co  Co6  1  0.83333333  0.66666667  0.66666667  1
  Co  Co7  1  0.83333333  0.16666667  0.66666667  1
  Co  Co8  1  0.33333333  0.16666667  0.66666667  1
  Co  Co9  1  0.50000000  0.00000000  0.00000000  1
  Co  Co10  1  0.50000000  0.50000000  0.00000000  1
  Co  Co11  1  0.00000000  0.50000000  0.00000000  1
  O  O12  1  0.00000000  0.00000000  0.27144117  1
  O  O13  1  0.66666667  0.33333333  0.06189217  1
  O  O14  1  0.49363000  0.50637000  0.27122950  1
  O  O15  1  0.49363000  0.98726000  0.27122950  1
  O  O16  1  0.01274000  0.50637000  0.27122950  1
  O  O17  1  0.65392667  0.82696333  0.06210383  1
  O  O18  1  0.17303667  0.34607333  0.06210383  1
  O  O19  1  0.17303667  0.82696333  0.06210383  1
  O  O20  1  0.66666667  0.33333333  0.60477450  1
  O  O21  1  0.33333333  0.66666667  0.39522550  1
  O  O22  1  0.16029667  0.83970333  0.60456283  1
  O  O23  1  0.16029667  0.32059333  0.60456283  1
  O  O24  1  0.67940667  0.83970333  0.60456283  1
  O  O25  1  0.32059333  0.16029667  0.39543717  1
  O  O26  1  0.83970333  0.67940667  0.39543717  1
  O  O27  1  0.83970333  0.16029667  0.39543717  1
  O  O28  1  0.33333333  0.66666667  0.93810783  1
  O  O29  1  0.00000000  0.00000000  0.72855883  1
  O  O30  1  0.82696333  0.17303667  0.93789617  1
  O  O31  1  0.82696333  0.65392667  0.93789617  1
  O  O32  1  0.34607333  0.17303667  0.93789617  1
  O  O33  1  0.98726000  0.49363000  0.72877050  1
  O  O34  1  0.50637000  0.01274000  0.72877050  1
  O  O35  1  0.50637000  0.49363000  0.72877050  1
