# generated using pymatgen
data_Li4TiCrO6
_symmetry_space_group_name_H-M   'P 1'
_cell_length_a   5.05663800
_cell_length_b   8.78373000
_cell_length_c   19.40442188
_cell_angle_alpha   90.00000000
_cell_angle_beta   94.95792208
_cell_angle_gamma   90.00000000
_symmetry_Int_Tables_number   1
_chemical_formula_structural   Li4TiCrO6
_chemical_formula_sum   'Li32 Ti8 Cr8 O48'
_cell_volume   858.64483522
_cell_formula_units_Z   8
loop_
 _symmetry_equiv_pos_site_id
 _symmetry_equiv_pos_as_xyz
  1  'x, y, z'
loop_
 _atom_site_type_symbol
 _atom_site_label
 _atom_site_symmetry_multiplicity
 _atom_site_fract_x
 _atom_site_fract_y
 _atom_site_fract_z
 _atom_site_occupancy
  Li  Li0  1  0.37583950  0.87184950  0.62494600  1
  Li  Li1  1  0.25174700  0.87506400  0.25001100  1
  Li  Li2  1  0.12486500  0.71397300  0.37528500  1
  Li  Li3  1  0.87396650  0.87429250  0.12501900  1
  Li  Li4  1  0.74825300  0.87506400  0.74998900  1
  Li  Li5  1  0.62416050  0.87184950  0.37505400  1
  Li  Li6  1  0.61687750  0.71426050  0.87533800  1
  Li  Li7  1  0.12603350  0.87429250  0.87498100  1
  Li  Li8  1  0.86850200  0.53653300  0.12530600  1
  Li  Li9  1  0.87513500  0.71397300  0.62471500  1
  Li  Li10  1  0.37479750  0.53826750  0.62522800  1
  Li  Li11  1  0.38312250  0.71426050  0.12466200  1
  Li  Li12  1  0.62520250  0.53826750  0.37477200  1
  Li  Li13  1  0.00000000  0.87603100  0.50000000  1
  Li  Li14  1  0.13149800  0.53653300  0.87469400  1
  Li  Li15  1  0.50000000  0.87428100  0.00000000  1
  Li  Li16  1  0.87583950  0.37184950  0.62494600  1
  Li  Li17  1  0.75174700  0.37506400  0.25001100  1
  Li  Li18  1  0.62486500  0.21397300  0.37528500  1
  Li  Li19  1  0.37396650  0.37429250  0.12501900  1
  Li  Li20  1  0.24825300  0.37506400  0.74998900  1
  Li  Li21  1  0.12416050  0.37184950  0.37505400  1
  Li  Li22  1  0.11687750  0.21426050  0.87533800  1
  Li  Li23  1  0.62603350  0.37429250  0.87498100  1
  Li  Li24  1  0.36850200  0.03653300  0.12530600  1
  Li  Li25  1  0.37513500  0.21397300  0.62471500  1
  Li  Li26  1  0.87479750  0.03826750  0.62522800  1
  Li  Li27  1  0.88312250  0.21426050  0.12466200  1
  Li  Li28  1  0.12520250  0.03826750  0.37477200  1
  Li  Li29  1  0.50000000  0.37603100  0.50000000  1
  Li  Li30  1  0.63149800  0.03653300  0.87469400  1
  Li  Li31  1  0.00000000  0.37428100  0.00000000  1
  Ti  Ti32  1  0.00000000  0.54122500  0.50000000  1
  Ti  Ti33  1  0.00000000  0.70818700  0.00000000  1
  Ti  Ti34  1  0.24718200  0.54132500  0.25007100  1
  Ti  Ti35  1  0.75281800  0.54132500  0.74992900  1
  Ti  Ti36  1  0.50000000  0.04122500  0.50000000  1
  Ti  Ti37  1  0.50000000  0.20818700  0.00000000  1
  Ti  Ti38  1  0.74718200  0.04132500  0.25007100  1
  Ti  Ti39  1  0.25281800  0.04132500  0.74992900  1
  Cr  Cr40  1  0.50000000  0.54032100  0.00000000  1
  Cr  Cr41  1  0.50000000  0.70917500  0.50000000  1
  Cr  Cr42  1  0.75288100  0.70860100  0.24983800  1
  Cr  Cr43  1  0.24711900  0.70860100  0.75016200  1
  Cr  Cr44  1  0.00000000  0.04032100  0.00000000  1
  Cr  Cr45  1  0.00000000  0.20917500  0.50000000  1
  Cr  Cr46  1  0.25288100  0.20860100  0.24983800  1
  Cr  Cr47  1  0.74711900  0.20860100  0.75016200  1
  O  O48  1  0.33754000  0.87383100  0.44251900  1
  O  O49  1  0.66246000  0.87383100  0.55748100  1
  O  O50  1  0.83783500  0.87611200  0.94251700  1
  O  O51  1  0.04655650  0.69817850  0.19370700  1
  O  O52  1  0.20403850  0.69758650  0.55586000  1
  O  O53  1  0.16216500  0.87611200  0.05748300  1
  O  O54  1  0.94853300  0.55223800  0.30719900  1
  O  O55  1  0.55024750  0.69763250  0.69408100  1
  O  O56  1  0.69643450  0.69700250  0.05648500  1
  O  O57  1  0.44975250  0.69763250  0.30591900  1
  O  O58  1  0.30359600  0.55286100  0.44336100  1
  O  O59  1  0.44255850  0.55584050  0.80573400  1
  O  O60  1  0.79596150  0.69758650  0.44414000  1
  O  O61  1  0.95344350  0.69817850  0.80629300  1
  O  O62  1  0.79568950  0.55263550  0.94387800  1
  O  O63  1  0.55744150  0.55584050  0.19426600  1
  O  O64  1  0.69640400  0.55286100  0.55663900  1
  O  O65  1  0.30356550  0.69700250  0.94351500  1
  O  O66  1  0.58628250  0.87686650  0.19203000  1
  O  O67  1  0.05146700  0.55223800  0.69280100  1
  O  O68  1  0.20431050  0.55263550  0.05612200  1
  O  O69  1  0.90966050  0.87043950  0.30713400  1
  O  O70  1  0.09033950  0.87043950  0.69286600  1
  O  O71  1  0.41371750  0.87686650  0.80797000  1
  O  O72  1  0.83754000  0.37383100  0.44251900  1
  O  O73  1  0.16246000  0.37383100  0.55748100  1
  O  O74  1  0.33783500  0.37611200  0.94251700  1
  O  O75  1  0.54655650  0.19817850  0.19370700  1
  O  O76  1  0.70403850  0.19758650  0.55586000  1
  O  O77  1  0.66216500  0.37611200  0.05748300  1
  O  O78  1  0.44853300  0.05223800  0.30719900  1
  O  O79  1  0.05024750  0.19763250  0.69408100  1
  O  O80  1  0.19643450  0.19700250  0.05648500  1
  O  O81  1  0.94975250  0.19763250  0.30591900  1
  O  O82  1  0.80359600  0.05286100  0.44336100  1
  O  O83  1  0.94255850  0.05584050  0.80573400  1
  O  O84  1  0.29596150  0.19758650  0.44414000  1
  O  O85  1  0.45344350  0.19817850  0.80629300  1
  O  O86  1  0.29568950  0.05263550  0.94387800  1
  O  O87  1  0.05744150  0.05584050  0.19426600  1
  O  O88  1  0.19640400  0.05286100  0.55663900  1
  O  O89  1  0.80356550  0.19700250  0.94351500  1
  O  O90  1  0.08628250  0.37686650  0.19203000  1
  O  O91  1  0.55146700  0.05223800  0.69280100  1
  O  O92  1  0.70431050  0.05263550  0.05612200  1
  O  O93  1  0.40966050  0.37043950  0.30713400  1
  O  O94  1  0.59033950  0.37043950  0.69286600  1
  O  O95  1  0.91371750  0.37686650  0.80797000  1
