# generated using pymatgen
data_Li3MnFe3O8
_symmetry_space_group_name_H-M   'P 1'
_cell_length_a   10.29865000
_cell_length_b   5.93241200
_cell_length_c   6.00651567
_cell_angle_alpha   90.00000000
_cell_angle_beta   124.94146050
_cell_angle_gamma   90.00000000
_symmetry_Int_Tables_number   1
_chemical_formula_structural   Li3MnFe3O8
_chemical_formula_sum   'Li6 Mn2 Fe6 O16'
_cell_volume   300.82165544
_cell_formula_units_Z   2
loop_
 _symmetry_equiv_pos_site_id
 _symmetry_equiv_pos_as_xyz
  1  'x, y, z'
loop_
 _atom_site_type_symbol
 _atom_site_label
 _atom_site_symmetry_multiplicity
 _atom_site_fract_x
 _atom_site_fract_y
 _atom_site_fract_z
 _atom_site_occupancy
  Li  Li0  1  0.00000000  0.50000000  0.50000000  1
  Li  Li1  1  0.25000000  0.25000000  0.50000000  1
  Li  Li2  1  0.25000000  0.75000000  0.50000000  1
  Li  Li3  1  0.50000000  0.00000000  0.50000000  1
  Li  Li4  1  0.75000000  0.75000000  0.50000000  1
  Li  Li5  1  0.75000000  0.25000000  0.50000000  1
  Mn  Mn6  1  0.00000000  0.00000000  0.00000000  1
  Mn  Mn7  1  0.50000000  0.50000000  0.00000000  1
  Fe  Fe8  1  0.75000000  0.25000000  0.00000000  1
  Fe  Fe9  1  0.75000000  0.75000000  0.00000000  1
  Fe  Fe10  1  0.00000000  0.50000000  0.00000000  1
  Fe  Fe11  1  0.25000000  0.75000000  0.00000000  1
  Fe  Fe12  1  0.25000000  0.25000000  0.00000000  1
  Fe  Fe13  1  0.50000000  0.00000000  0.00000000  1
  O  O14  1  0.73440900  0.50000000  0.22556000  1
  O  O15  1  0.73707600  0.00000000  0.21641600  1
  O  O16  1  0.99314100  0.75787300  0.21661100  1
  O  O17  1  0.99314100  0.24212700  0.21661100  1
  O  O18  1  0.00685900  0.75787300  0.78338900  1
  O  O19  1  0.00685900  0.24212700  0.78338900  1
  O  O20  1  0.26292400  0.00000000  0.78358400  1
  O  O21  1  0.26559100  0.50000000  0.77444000  1
  O  O22  1  0.23440900  0.00000000  0.22556000  1
  O  O23  1  0.23707600  0.50000000  0.21641600  1
  O  O24  1  0.49314100  0.25787300  0.21661100  1
  O  O25  1  0.49314100  0.74212700  0.21661100  1
  O  O26  1  0.50685900  0.25787300  0.78338900  1
  O  O27  1  0.50685900  0.74212700  0.78338900  1
  O  O28  1  0.76292400  0.50000000  0.78358400  1
  O  O29  1  0.76559100  0.00000000  0.77444000  1
