# generated using pymatgen
data_Ho(Bi3O5)4
_symmetry_space_group_name_H-M   'P 1'
_cell_length_a   10.34916600
_cell_length_b   10.34916600
_cell_length_c   10.34916600
_cell_angle_alpha   90.00000000
_cell_angle_beta   90.00000000
_cell_angle_gamma   90.00000000
_symmetry_Int_Tables_number   1
_chemical_formula_structural   Ho(Bi3O5)4
_chemical_formula_sum   'Ho2 Bi24 O40'
_cell_volume   1108.44987610
_cell_formula_units_Z   2
loop_
 _symmetry_equiv_pos_site_id
 _symmetry_equiv_pos_as_xyz
  1  'x, y, z'
loop_
 _atom_site_type_symbol
 _atom_site_label
 _atom_site_symmetry_multiplicity
 _atom_site_fract_x
 _atom_site_fract_y
 _atom_site_fract_z
 _atom_site_occupancy
  Ho  Ho0  1  0.00000000  0.00000000  0.00000000  1
  Ho  Ho1  1  0.50000000  0.50000000  0.50000000  1
  Bi  Bi2  1  0.81767650  0.32332950  0.50743350  1
  Bi  Bi3  1  0.99256650  0.31767650  0.17667050  1
  Bi  Bi4  1  0.00743350  0.68232350  0.17667050  1
  Bi  Bi5  1  0.17667050  0.99256650  0.31767650  1
  Bi  Bi6  1  0.17667050  0.00743350  0.68232350  1
  Bi  Bi7  1  0.18232350  0.32332950  0.49256650  1
  Bi  Bi8  1  0.31767650  0.17667050  0.99256650  1
  Bi  Bi9  1  0.32332950  0.49256650  0.18232350  1
  Bi  Bi10  1  0.32332950  0.50743350  0.81767650  1
  Bi  Bi11  1  0.49256650  0.18232350  0.32332950  1
  Bi  Bi12  1  0.50743350  0.81767650  0.32332950  1
  Bi  Bi13  1  0.68232350  0.17667050  0.00743350  1
  Bi  Bi14  1  0.31767650  0.82332950  0.00743350  1
  Bi  Bi15  1  0.49256650  0.81767650  0.67667050  1
  Bi  Bi16  1  0.50743350  0.18232350  0.67667050  1
  Bi  Bi17  1  0.67667050  0.49256650  0.81767650  1
  Bi  Bi18  1  0.67667050  0.50743350  0.18232350  1
  Bi  Bi19  1  0.68232350  0.82332950  0.99256650  1
  Bi  Bi20  1  0.81767650  0.67667050  0.49256650  1
  Bi  Bi21  1  0.82332950  0.99256650  0.68232350  1
  Bi  Bi22  1  0.82332950  0.00743350  0.31767650  1
  Bi  Bi23  1  0.99256650  0.68232350  0.82332950  1
  Bi  Bi24  1  0.00743350  0.31767650  0.82332950  1
  Bi  Bi25  1  0.18232350  0.67667050  0.50743350  1
  O  O26  1  0.82255050  0.17744950  0.17744950  1
  O  O27  1  0.86908050  0.49065250  0.24516050  1
  O  O28  1  0.99065250  0.25483950  0.63091950  1
  O  O29  1  0.00934750  0.25483950  0.36908050  1
  O  O30  1  0.12086800  0.12086800  0.12086800  1
  O  O31  1  0.62086800  0.37913200  0.37913200  1
  O  O32  1  0.13091950  0.50934750  0.24516050  1
  O  O33  1  0.17744950  0.82255050  0.17744950  1
  O  O34  1  0.25483950  0.36908050  0.00934750  1
  O  O35  1  0.25483950  0.63091950  0.99065250  1
  O  O36  1  0.24516050  0.13091950  0.50934750  1
  O  O37  1  0.24516050  0.86908050  0.49065250  1
  O  O38  1  0.32255050  0.32255050  0.32255050  1
  O  O39  1  0.36908050  0.00934750  0.25483950  1
  O  O40  1  0.37913200  0.37913200  0.62086800  1
  O  O41  1  0.37913200  0.62086800  0.37913200  1
  O  O42  1  0.49065250  0.24516050  0.86908050  1
  O  O43  1  0.50934750  0.24516050  0.13091950  1
  O  O44  1  0.63091950  0.99065250  0.25483950  1
  O  O45  1  0.17744950  0.17744950  0.82255050  1
  O  O46  1  0.32255050  0.67744950  0.67744950  1
  O  O47  1  0.36908050  0.99065250  0.74516050  1
  O  O48  1  0.49065250  0.75483950  0.13091950  1
  O  O49  1  0.50934750  0.75483950  0.86908050  1
  O  O50  1  0.62086800  0.62086800  0.62086800  1
  O  O51  1  0.12086800  0.87913200  0.87913200  1
  O  O52  1  0.63091950  0.00934750  0.74516050  1
  O  O53  1  0.67744950  0.32255050  0.67744950  1
  O  O54  1  0.75483950  0.86908050  0.50934750  1
  O  O55  1  0.75483950  0.13091950  0.49065250  1
  O  O56  1  0.74516050  0.63091950  0.00934750  1
  O  O57  1  0.74516050  0.36908050  0.99065250  1
  O  O58  1  0.82255050  0.82255050  0.82255050  1
  O  O59  1  0.86908050  0.50934750  0.75483950  1
  O  O60  1  0.87913200  0.87913200  0.12086800  1
  O  O61  1  0.87913200  0.12086800  0.87913200  1
  O  O62  1  0.99065250  0.74516050  0.36908050  1
  O  O63  1  0.00934750  0.74516050  0.63091950  1
  O  O64  1  0.13091950  0.49065250  0.75483950  1
  O  O65  1  0.67744950  0.67744950  0.32255050  1
