# generated using pymatgen
data_Li4Mn5Cu3O16
_symmetry_space_group_name_H-M   'P 1'
_cell_length_a   10.19002800
_cell_length_b   5.76979800
_cell_length_c   9.43787723
_cell_angle_alpha   90.00000000
_cell_angle_beta   92.53022287
_cell_angle_gamma   90.00000000
_symmetry_Int_Tables_number   1
_chemical_formula_structural   Li4Mn5Cu3O16
_chemical_formula_sum   'Li8 Mn10 Cu6 O32'
_cell_volume   554.35337814
_cell_formula_units_Z   2
loop_
 _symmetry_equiv_pos_site_id
 _symmetry_equiv_pos_as_xyz
  1  'x, y, z'
loop_
 _atom_site_type_symbol
 _atom_site_label
 _atom_site_symmetry_multiplicity
 _atom_site_fract_x
 _atom_site_fract_y
 _atom_site_fract_z
 _atom_site_occupancy
  Li  Li0  1  0.66779800  0.00000000  0.10034400  1
  Li  Li1  1  0.50109200  0.50000000  0.00331800  1
  Li  Li2  1  0.50339400  0.50000000  0.51051200  1
  Li  Li3  1  0.83699700  0.50000000  0.60142000  1
  Li  Li4  1  0.16779800  0.50000000  0.10034400  1
  Li  Li5  1  0.00109200  0.00000000  0.00331800  1
  Li  Li6  1  0.00339400  0.00000000  0.51051200  1
  Li  Li7  1  0.33699700  0.00000000  0.60142000  1
  Mn  Mn8  1  0.66446800  0.00000000  0.51518900  1
  Mn  Mn9  1  0.82772300  0.00000000  0.78487600  1
  Mn  Mn10  1  0.82954200  0.50000000  0.01363600  1
  Mn  Mn11  1  0.91553550  0.25374850  0.28636200  1
  Mn  Mn12  1  0.91553550  0.74625150  0.28636200  1
  Mn  Mn13  1  0.16446800  0.50000000  0.51518900  1
  Mn  Mn14  1  0.32772300  0.50000000  0.78487600  1
  Mn  Mn15  1  0.32954200  0.00000000  0.01363600  1
  Mn  Mn16  1  0.41553550  0.75374850  0.28636200  1
  Mn  Mn17  1  0.41553550  0.24625150  0.28636200  1
  Cu  Cu18  1  0.58350650  0.75635750  0.78983900  1
  Cu  Cu19  1  0.58350650  0.24364250  0.78983900  1
  Cu  Cu20  1  0.67002700  0.50000000  0.28795500  1
  Cu  Cu21  1  0.08350650  0.25635750  0.78983900  1
  Cu  Cu22  1  0.08350650  0.74364250  0.78983900  1
  Cu  Cu23  1  0.17002700  0.00000000  0.28795500  1
  O  O24  1  0.57791900  0.75216200  0.40492200  1
  O  O25  1  0.52468900  0.00000000  0.64898000  1
  O  O26  1  0.66930100  0.00000000  0.88893400  1
  O  O27  1  0.99793000  0.00000000  0.70351600  1
  O  O28  1  0.99709800  0.00000000  0.19357600  1
  O  O29  1  0.57791900  0.24783800  0.40492200  1
  O  O30  1  0.75129100  0.78506700  0.64979300  1
  O  O31  1  0.75129100  0.21493300  0.64979300  1
  O  O32  1  0.66444700  0.50000000  0.90706200  1
  O  O33  1  0.83817600  0.00000000  0.39484600  1
  O  O34  1  0.76627700  0.27421300  0.15460300  1
  O  O35  1  0.76627700  0.72578700  0.15460300  1
  O  O36  1  0.84014700  0.50000000  0.39162200  1
  O  O37  1  0.90587850  0.24773250  0.90506900  1
  O  O38  1  0.98297900  0.50000000  0.16532800  1
  O  O39  1  0.90587850  0.75226750  0.90506900  1
  O  O40  1  0.07791900  0.25216200  0.40492200  1
  O  O41  1  0.02468900  0.50000000  0.64898000  1
  O  O42  1  0.16930100  0.50000000  0.88893400  1
  O  O43  1  0.49793000  0.50000000  0.70351600  1
  O  O44  1  0.49709800  0.50000000  0.19357600  1
  O  O45  1  0.07791900  0.74783800  0.40492200  1
  O  O46  1  0.25129100  0.28506700  0.64979300  1
  O  O47  1  0.25129100  0.71493300  0.64979300  1
  O  O48  1  0.16444700  0.00000000  0.90706200  1
  O  O49  1  0.33817600  0.50000000  0.39484600  1
  O  O50  1  0.26627700  0.77421300  0.15460300  1
  O  O51  1  0.26627700  0.22578700  0.15460300  1
  O  O52  1  0.34014700  0.00000000  0.39162200  1
  O  O53  1  0.40587850  0.74773250  0.90506900  1
  O  O54  1  0.48297900  0.00000000  0.16532800  1
  O  O55  1  0.40587850  0.25226750  0.90506900  1
