# generated using pymatgen
data_Li3VO3F2
_symmetry_space_group_name_H-M   'P 1'
_cell_length_a   3.90375595
_cell_length_b   5.19129529
_cell_length_c   6.04385238
_cell_angle_alpha   113.02620844
_cell_angle_beta   89.47293918
_cell_angle_gamma   112.05083309
_symmetry_Int_Tables_number   1
_chemical_formula_structural   Li3VO3F2
_chemical_formula_sum   'Li3 V1 O3 F2'
_cell_volume   103.10845859
_cell_formula_units_Z   1
loop_
 _symmetry_equiv_pos_site_id
 _symmetry_equiv_pos_as_xyz
  1  'x, y, z'
loop_
 _atom_site_type_symbol
 _atom_site_label
 _atom_site_symmetry_multiplicity
 _atom_site_fract_x
 _atom_site_fract_y
 _atom_site_fract_z
 _atom_site_occupancy
  Li  Li0  1  0.25375686  0.83223510  0.67587423  1
  Li  Li1  1  0.68226591  0.46253837  0.89682606  1
  Li  Li2  1  0.74173487  0.12671446  0.35357395  1
  V  V3  1  0.94795099  0.00629603  0.97837021  1
  O  O4  1  0.12772762  0.39025321  0.84890165  1
  O  O5  1  0.52193071  0.99536988  0.02112470  1
  O  O6  1  0.81559677  0.91225834  0.72079688  1
  F  F7  1  0.17703516  0.00801071  0.33083300  1
  F  F8  1  0.87826510  0.55259590  0.17995332  1
