# generated using pymatgen
data_Bi2PO6
_symmetry_space_group_name_H-M   'P 1'
_cell_length_a   5.72981600
_cell_length_b   14.63757600
_cell_length_c   5.76117800
_cell_angle_alpha   90.00000000
_cell_angle_beta   90.00000000
_cell_angle_gamma   90.00000000
_symmetry_Int_Tables_number   1
_chemical_formula_structural   Bi2PO6
_chemical_formula_sum   'Bi8 P4 O24'
_cell_volume   483.19355446
_cell_formula_units_Z   4
loop_
 _symmetry_equiv_pos_site_id
 _symmetry_equiv_pos_as_xyz
  1  'x, y, z'
loop_
 _atom_site_type_symbol
 _atom_site_label
 _atom_site_symmetry_multiplicity
 _atom_site_fract_x
 _atom_site_fract_y
 _atom_site_fract_z
 _atom_site_occupancy
  Bi  Bi0  1  0.50000000  0.66550700  0.50000000  1
  Bi  Bi1  1  0.50000000  0.83449300  0.00000000  1
  Bi  Bi2  1  0.00000000  0.83449300  0.50000000  1
  Bi  Bi3  1  0.00000000  0.66550700  0.00000000  1
  Bi  Bi4  1  0.00000000  0.16550700  0.50000000  1
  Bi  Bi5  1  0.00000000  0.33449300  0.00000000  1
  Bi  Bi6  1  0.50000000  0.33449300  0.50000000  1
  Bi  Bi7  1  0.50000000  0.16550700  0.00000000  1
  P  P8  1  0.00000000  0.00000000  0.00000000  1
  P  P9  1  0.50000000  0.00000000  0.50000000  1
  P  P10  1  0.50000000  0.50000000  0.00000000  1
  P  P11  1  0.00000000  0.50000000  0.50000000  1
  O  O12  1  0.14968650  0.93345750  0.14885400  1
  O  O13  1  0.35031350  0.56654250  0.14885400  1
  O  O14  1  0.35031350  0.93345750  0.64885400  1
  O  O15  1  0.64968650  0.56654250  0.85114600  1
  O  O16  1  0.64968650  0.93345750  0.35114600  1
  O  O17  1  0.75000000  0.75000000  0.73837200  1
  O  O18  1  0.75000000  0.75000000  0.23837200  1
  O  O19  1  0.85031350  0.56654250  0.35114600  1
  O  O20  1  0.85031350  0.93345750  0.85114600  1
  O  O21  1  0.14968650  0.56654250  0.64885400  1
  O  O22  1  0.25000000  0.75000000  0.76162800  1
  O  O23  1  0.25000000  0.75000000  0.26162800  1
  O  O24  1  0.64968650  0.43345750  0.14885400  1
  O  O25  1  0.85031350  0.06654250  0.14885400  1
  O  O26  1  0.85031350  0.43345750  0.64885400  1
  O  O27  1  0.14968650  0.06654250  0.85114600  1
  O  O28  1  0.14968650  0.43345750  0.35114600  1
  O  O29  1  0.25000000  0.25000000  0.73837200  1
  O  O30  1  0.25000000  0.25000000  0.23837200  1
  O  O31  1  0.35031350  0.06654250  0.35114600  1
  O  O32  1  0.35031350  0.43345750  0.85114600  1
  O  O33  1  0.64968650  0.06654250  0.64885400  1
  O  O34  1  0.75000000  0.25000000  0.76162800  1
  O  O35  1  0.75000000  0.25000000  0.26162800  1
