# generated using pymatgen
data_TiMn3O8
_symmetry_space_group_name_H-M   'P 1'
_cell_length_a   5.81364528
_cell_length_b   5.81364528
_cell_length_c   14.49083242
_cell_angle_alpha   90.00000000
_cell_angle_beta   90.00000000
_cell_angle_gamma   120.00000000
_symmetry_Int_Tables_number   1
_chemical_formula_structural   TiMn3O8
_chemical_formula_sum   'Ti3 Mn9 O24'
_cell_volume   424.15151748
_cell_formula_units_Z   3
loop_
 _symmetry_equiv_pos_site_id
 _symmetry_equiv_pos_as_xyz
  1  'x, y, z'
loop_
 _atom_site_type_symbol
 _atom_site_label
 _atom_site_symmetry_multiplicity
 _atom_site_fract_x
 _atom_site_fract_y
 _atom_site_fract_z
 _atom_site_occupancy
  Ti  Ti0  1  0.66666667  0.33333333  0.33333333  1
  Ti  Ti1  1  0.33333333  0.66666667  0.66666667  1
  Ti  Ti2  1  1.00000000  1.00000000  0.00000000  1
  Mn  Mn3  1  0.33333333  0.16666667  0.16666667  1
  Mn  Mn4  1  0.83333333  0.16666667  0.16666667  1
  Mn  Mn5  1  0.83333333  0.66666667  0.16666667  1
  Mn  Mn6  1  0.00000000  0.50000000  0.50000000  1
  Mn  Mn7  1  0.50000000  0.50000000  0.50000000  1
  Mn  Mn8  1  0.50000000  0.00000000  0.50000000  1
  Mn  Mn9  1  0.66666667  0.83333333  0.83333333  1
  Mn  Mn10  1  0.16666667  0.83333333  0.83333333  1
  Mn  Mn11  1  0.16666667  0.33333333  0.83333333  1
  O  O12  1  0.66666667  0.33333333  0.09929467  1
  O  O13  1  0.00000000  0.00000000  0.23403867  1
  O  O14  1  0.51796267  0.48203733  0.24327333  1
  O  O15  1  0.51796267  0.03592533  0.24327333  1
  O  O16  1  0.96407467  0.48203733  0.24327333  1
  O  O17  1  0.70259200  0.85129600  0.09006000  1
  O  O18  1  0.14870400  0.85129600  0.09006000  1
  O  O19  1  0.14870400  0.29740800  0.09006000  1
  O  O20  1  0.33333333  0.66666667  0.43262800  1
  O  O21  1  0.66666667  0.33333333  0.56737200  1
  O  O22  1  0.18462933  0.81537067  0.57660667  1
  O  O23  1  0.18462933  0.36925867  0.57660667  1
  O  O24  1  0.63074133  0.81537067  0.57660667  1
  O  O25  1  0.36925867  0.18462933  0.42339333  1
  O  O26  1  0.81537067  0.18462933  0.42339333  1
  O  O27  1  0.81537067  0.63074133  0.42339333  1
  O  O28  1  0.00000000  0.00000000  0.76596133  1
  O  O29  1  0.33333333  0.66666667  0.90070533  1
  O  O30  1  0.85129600  0.14870400  0.90994000  1
  O  O31  1  0.85129600  0.70259200  0.90994000  1
  O  O32  1  0.29740800  0.14870400  0.90994000  1
  O  O33  1  0.03592533  0.51796267  0.75672667  1
  O  O34  1  0.48203733  0.51796267  0.75672667  1
  O  O35  1  0.48203733  0.96407467  0.75672667  1
