# generated using pymatgen
data_Li2(CoO2)3
_symmetry_space_group_name_H-M   'P 1'
_cell_length_a   4.88765600
_cell_length_b   8.45191600
_cell_length_c   5.05179632
_cell_angle_alpha   90.00000000
_cell_angle_beta   108.87100569
_cell_angle_gamma   90.00000000
_symmetry_Int_Tables_number   1
_chemical_formula_structural   Li2(CoO2)3
_chemical_formula_sum   'Li4 Co6 O12'
_cell_volume   197.47273499
_cell_formula_units_Z   2
loop_
 _symmetry_equiv_pos_site_id
 _symmetry_equiv_pos_as_xyz
  1  'x, y, z'
loop_
 _atom_site_type_symbol
 _atom_site_label
 _atom_site_symmetry_multiplicity
 _atom_site_fract_x
 _atom_site_fract_y
 _atom_site_fract_z
 _atom_site_occupancy
  Li  Li0  1  0.50000000  0.16596900  0.00000000  1
  Li  Li1  1  0.50000000  0.83403100  0.00000000  1
  Li  Li2  1  0.00000000  0.66596900  0.00000000  1
  Li  Li3  1  0.00000000  0.33403100  0.00000000  1
  Co  Co4  1  0.50000000  0.00000000  0.50000000  1
  Co  Co5  1  0.50000000  0.33512200  0.50000000  1
  Co  Co6  1  0.50000000  0.66487800  0.50000000  1
  Co  Co7  1  0.00000000  0.50000000  0.50000000  1
  Co  Co8  1  0.00000000  0.83512200  0.50000000  1
  Co  Co9  1  0.00000000  0.16487800  0.50000000  1
  O  O10  1  0.24218800  0.00000000  0.70933600  1
  O  O11  1  0.26716900  0.17010600  0.29424500  1
  O  O12  1  0.75781200  0.00000000  0.29066400  1
  O  O13  1  0.73283100  0.17010600  0.70575500  1
  O  O14  1  0.26716900  0.82989400  0.29424500  1
  O  O15  1  0.73283100  0.82989400  0.70575500  1
  O  O16  1  0.74218800  0.50000000  0.70933600  1
  O  O17  1  0.76716900  0.67010600  0.29424500  1
  O  O18  1  0.25781200  0.50000000  0.29066400  1
  O  O19  1  0.23283100  0.67010600  0.70575500  1
  O  O20  1  0.76716900  0.32989400  0.29424500  1
  O  O21  1  0.23283100  0.32989400  0.70575500  1
