# generated using pymatgen
data_V3O5F3
_symmetry_space_group_name_H-M   'P 1'
_cell_length_a   9.14202800
_cell_length_b   11.41397800
_cell_length_c   5.00073584
_cell_angle_alpha   90.00000000
_cell_angle_beta   90.42231470
_cell_angle_gamma   90.00000000
_symmetry_Int_Tables_number   1
_chemical_formula_structural   V3O5F3
_chemical_formula_sum   'V12 O20 F12'
_cell_volume   521.79714048
_cell_formula_units_Z   4
loop_
 _symmetry_equiv_pos_site_id
 _symmetry_equiv_pos_as_xyz
  1  'x, y, z'
loop_
 _atom_site_type_symbol
 _atom_site_label
 _atom_site_symmetry_multiplicity
 _atom_site_fract_x
 _atom_site_fract_y
 _atom_site_fract_z
 _atom_site_occupancy
  V  V0  1  0.75561450  0.93134550  0.24012700  1
  V  V1  1  0.50108650  0.83109850  0.73758500  1
  V  V2  1  0.75561450  0.06865450  0.74012700  1
  V  V3  1  0.25459900  0.90605800  0.22663000  1
  V  V4  1  0.50108650  0.16890150  0.23758500  1
  V  V5  1  0.25459900  0.09394200  0.72663000  1
  V  V6  1  0.25561450  0.43134550  0.24012700  1
  V  V7  1  0.00108650  0.33109850  0.73758500  1
  V  V8  1  0.25561450  0.56865450  0.74012700  1
  V  V9  1  0.75459900  0.40605800  0.22663000  1
  V  V10  1  0.00108650  0.66890150  0.23758500  1
  V  V11  1  0.75459900  0.59394200  0.72663000  1
  O  O12  1  0.62677350  0.69476550  0.63686100  1
  O  O13  1  0.85583600  0.95278900  0.95892500  1
  O  O14  1  0.85583600  0.04721100  0.45892500  1
  O  O15  1  0.62856600  0.93425300  0.59523600  1
  O  O16  1  0.37737250  0.82935950  0.42238700  1
  O  O17  1  0.62856600  0.06574700  0.09523600  1
  O  O18  1  0.36348700  0.92724800  0.91840900  1
  O  O19  1  0.36348700  0.07275200  0.41840900  1
  O  O20  1  0.62677350  0.30523450  0.13686100  1
  O  O21  1  0.37737250  0.17064050  0.92238700  1
  O  O22  1  0.12677350  0.19476550  0.63686100  1
  O  O23  1  0.35583600  0.45278900  0.95892500  1
  O  O24  1  0.35583600  0.54721100  0.45892500  1
  O  O25  1  0.12856600  0.43425300  0.59523600  1
  O  O26  1  0.87737250  0.32935950  0.42238700  1
  O  O27  1  0.12856600  0.56574700  0.09523600  1
  O  O28  1  0.86348700  0.42724800  0.91840900  1
  O  O29  1  0.86348700  0.57275200  0.41840900  1
  O  O30  1  0.12677350  0.80523450  0.13686100  1
  O  O31  1  0.87737250  0.67064050  0.92238700  1
  F  F32  1  0.61277050  0.82055950  0.08297600  1
  F  F33  1  0.37374750  0.69711650  0.88032200  1
  F  F34  1  0.61277050  0.17944050  0.58297600  1
  F  F35  1  0.14733700  0.95871300  0.54308000  1
  F  F36  1  0.14733700  0.04128700  0.04308000  1
  F  F37  1  0.37374750  0.30288350  0.38032200  1
  F  F38  1  0.11277050  0.32055950  0.08297600  1
  F  F39  1  0.87374750  0.19711650  0.88032200  1
  F  F40  1  0.11277050  0.67944050  0.58297600  1
  F  F41  1  0.64733700  0.45871300  0.54308000  1
  F  F42  1  0.64733700  0.54128700  0.04308000  1
  F  F43  1  0.87374750  0.80288350  0.38032200  1
