# generated using pymatgen
data_Mn4OF8
_symmetry_space_group_name_H-M   'P 1'
_cell_length_a   9.54115600
_cell_length_b   5.41740000
_cell_length_c   15.01527800
_cell_angle_alpha   90.00000000
_cell_angle_beta   93.03292691
_cell_angle_gamma   90.00000000
_symmetry_Int_Tables_number   1
_chemical_formula_structural   Mn4OF8
_chemical_formula_sum   'Mn16 O4 F32'
_cell_volume   775.02646348
_cell_formula_units_Z   4
loop_
 _symmetry_equiv_pos_site_id
 _symmetry_equiv_pos_as_xyz
  1  'x, y, z'
loop_
 _atom_site_type_symbol
 _atom_site_label
 _atom_site_symmetry_multiplicity
 _atom_site_fract_x
 _atom_site_fract_y
 _atom_site_fract_z
 _atom_site_occupancy
  Mn  Mn0  1  0.82803050  0.53003550  0.46658500  1
  Mn  Mn1  1  0.67605800  0.00809700  0.82167400  1
  Mn  Mn2  1  0.82803050  0.46996450  0.96658500  1
  Mn  Mn3  1  0.66203900  0.99546900  0.01385200  1
  Mn  Mn4  1  0.66203900  0.00453100  0.51385200  1
  Mn  Mn5  1  0.83470250  0.51084950  0.68040900  1
  Mn  Mn6  1  0.83470250  0.48915050  0.18040900  1
  Mn  Mn7  1  0.67605800  0.99190300  0.32167400  1
  Mn  Mn8  1  0.32803050  0.03003550  0.46658500  1
  Mn  Mn9  1  0.17605800  0.50809700  0.82167400  1
  Mn  Mn10  1  0.32803050  0.96996450  0.96658500  1
  Mn  Mn11  1  0.16203900  0.49546900  0.01385200  1
  Mn  Mn12  1  0.16203900  0.50453100  0.51385200  1
  Mn  Mn13  1  0.33470250  0.01084950  0.68040900  1
  Mn  Mn14  1  0.33470250  0.98915050  0.18040900  1
  Mn  Mn15  1  0.17605800  0.49190300  0.32167400  1
  O  O16  1  0.67553950  0.23335450  0.92112000  1
  O  O17  1  0.67553950  0.76664550  0.42112000  1
  O  O18  1  0.17553950  0.73335450  0.92112000  1
  O  O19  1  0.17553950  0.26664550  0.42112000  1
  F  F20  1  0.52349900  0.16182400  0.42668500  1
  F  F21  1  0.70108500  0.68412700  0.07657600  1
  F  F22  1  0.69003000  0.27106700  0.24583200  1
  F  F23  1  0.52349900  0.83817600  0.92668500  1
  F  F24  1  0.70108500  0.31587300  0.57657600  1
  F  F25  1  0.80099100  0.80096500  0.58009900  1
  F  F26  1  0.81556600  0.79093200  0.25850700  1
  F  F27  1  0.69003000  0.72893300  0.74583200  1
  F  F28  1  0.50603750  0.12774650  0.75823900  1
  F  F29  1  0.97454200  0.58753500  0.07257300  1
  F  F30  1  0.80252100  0.18602600  0.41249500  1
  F  F31  1  0.80099100  0.19903500  0.08009900  1
  F  F32  1  0.81556600  0.20906800  0.75850700  1
  F  F33  1  0.97454200  0.41246500  0.57257300  1
  F  F34  1  0.80252100  0.81397400  0.91249500  1
  F  F35  1  0.50603750  0.87225350  0.25823900  1
  F  F36  1  0.02349900  0.66182400  0.42668500  1
  F  F37  1  0.20108500  0.18412700  0.07657600  1
  F  F38  1  0.19003000  0.77106700  0.24583200  1
  F  F39  1  0.02349900  0.33817600  0.92668500  1
  F  F40  1  0.20108500  0.81587300  0.57657600  1
  F  F41  1  0.30099100  0.30096500  0.58009900  1
  F  F42  1  0.31556600  0.29093200  0.25850700  1
  F  F43  1  0.19003000  0.22893300  0.74583200  1
  F  F44  1  0.00603750  0.62774650  0.75823900  1
  F  F45  1  0.47454200  0.08753500  0.07257300  1
  F  F46  1  0.30252100  0.68602600  0.41249500  1
  F  F47  1  0.30099100  0.69903500  0.08009900  1
  F  F48  1  0.31556600  0.70906800  0.75850700  1
  F  F49  1  0.47454200  0.91246500  0.57257300  1
  F  F50  1  0.30252100  0.31397400  0.91249500  1
  F  F51  1  0.00603750  0.37225350  0.25823900  1
