# generated using pymatgen
data_Li2CrCoO4
_symmetry_space_group_name_H-M   'P 1'
_cell_length_a   5.89899614
_cell_length_b   5.91297756
_cell_length_c   8.38167529
_cell_angle_alpha   90.00000000
_cell_angle_beta   90.00000000
_cell_angle_gamma   90.00000000
_symmetry_Int_Tables_number   1
_chemical_formula_structural   Li2CrCoO4
_chemical_formula_sum   'Li8 Cr4 Co4 O16'
_cell_volume   292.35812945
_cell_formula_units_Z   4
loop_
 _symmetry_equiv_pos_site_id
 _symmetry_equiv_pos_as_xyz
  1  'x, y, z'
loop_
 _atom_site_type_symbol
 _atom_site_label
 _atom_site_symmetry_multiplicity
 _atom_site_fract_x
 _atom_site_fract_y
 _atom_site_fract_z
 _atom_site_occupancy
  Li  Li0  1  0.75000000  0.75000000  0.25000000  1
  Li  Li1  1  0.75000000  0.25000000  0.75000000  1
  Li  Li2  1  0.00000000  0.50000000  0.00000000  1
  Li  Li3  1  0.00000000  0.00000000  0.00000000  1
  Li  Li4  1  0.25000000  0.25000000  0.75000000  1
  Li  Li5  1  0.25000000  0.75000000  0.25000000  1
  Li  Li6  1  0.50000000  0.00000000  0.50000000  1
  Li  Li7  1  0.50000000  0.50000000  0.50000000  1
  Cr  Cr8  1  0.25000000  0.75000000  0.75000000  1
  Cr  Cr9  1  0.75000000  0.75000000  0.75000000  1
  Cr  Cr10  1  0.75000000  0.25000000  0.25000000  1
  Cr  Cr11  1  0.25000000  0.25000000  0.25000000  1
  Co  Co12  1  0.50000000  0.50000000  0.00000000  1
  Co  Co13  1  0.50000000  0.00000000  0.00000000  1
  Co  Co14  1  0.00000000  0.00000000  0.50000000  1
  Co  Co15  1  0.00000000  0.50000000  0.50000000  1
  O  O16  1  0.50000000  0.48493950  0.24276000  1
  O  O17  1  0.50000000  0.98493950  0.75724000  1
  O  O18  1  0.50000000  0.01506050  0.24276000  1
  O  O19  1  0.50000000  0.51506050  0.75724000  1
  O  O20  1  0.74050900  0.25000000  0.00914550  1
  O  O21  1  0.25949100  0.25000000  0.00914550  1
  O  O22  1  0.74050900  0.75000000  0.99085450  1
  O  O23  1  0.25949100  0.75000000  0.99085450  1
  O  O24  1  0.00000000  0.98493950  0.74276000  1
  O  O25  1  0.00000000  0.48493950  0.25724000  1
  O  O26  1  0.00000000  0.51506050  0.74276000  1
  O  O27  1  0.00000000  0.01506050  0.25724000  1
  O  O28  1  0.24050900  0.75000000  0.50914550  1
  O  O29  1  0.75949100  0.75000000  0.50914550  1
  O  O30  1  0.24050900  0.25000000  0.49085450  1
  O  O31  1  0.75949100  0.25000000  0.49085450  1
