# generated using pymatgen
data_Na2CrSiCO7
_symmetry_space_group_name_H-M   'P 1'
_cell_length_a   5.25929848
_cell_length_b   6.44934900
_cell_length_c   9.06642622
_cell_angle_alpha   90.00000000
_cell_angle_beta   91.69114911
_cell_angle_gamma   90.00000000
_symmetry_Int_Tables_number   1
_chemical_formula_structural   Na2CrSiCO7
_chemical_formula_sum   'Na4 Cr2 Si2 C2 O14'
_cell_volume   307.39062902
_cell_formula_units_Z   2
loop_
 _symmetry_equiv_pos_site_id
 _symmetry_equiv_pos_as_xyz
  1  'x, y, z'
loop_
 _atom_site_type_symbol
 _atom_site_label
 _atom_site_symmetry_multiplicity
 _atom_site_fract_x
 _atom_site_fract_y
 _atom_site_fract_z
 _atom_site_occupancy
  Na  Na0  1  0.75537925  0.98977500  0.23424200  1
  Na  Na1  1  0.75537925  0.51022500  0.23424200  1
  Na  Na2  1  0.24462075  0.48977500  0.76575800  1
  Na  Na3  1  0.24462075  0.01022500  0.76575800  1
  Cr  Cr4  1  0.19849025  0.25000000  0.34955700  1
  Cr  Cr5  1  0.80150975  0.75000000  0.65044300  1
  Si  Si6  1  0.29595575  0.75000000  0.42880800  1
  Si  Si7  1  0.70404425  0.25000000  0.57119200  1
  C  C8  1  0.27238325  0.25000000  0.08119800  1
  C  C9  1  0.72761675  0.75000000  0.91880200  1
  O  O10  1  0.69047925  0.75000000  0.05428900  1
  O  O11  1  0.30952075  0.25000000  0.94571100  1
  O  O12  1  0.04623225  0.25000000  0.13985900  1
  O  O13  1  0.95376775  0.75000000  0.86014100  1
  O  O14  1  0.45804325  0.25000000  0.18331200  1
  O  O15  1  0.54195675  0.75000000  0.81668800  1
  O  O16  1  0.86316925  0.25000000  0.41698500  1
  O  O17  1  0.13683075  0.75000000  0.58301500  1
  O  O18  1  0.60534225  0.75000000  0.46076800  1
  O  O19  1  0.39465775  0.25000000  0.53923200  1
  O  O20  1  0.21487375  0.95653800  0.33174600  1
  O  O21  1  0.21487375  0.54346200  0.33174600  1
  O  O22  1  0.78512625  0.45653800  0.66825400  1
  O  O23  1  0.78512625  0.04346200  0.66825400  1
