# generated using pymatgen
data_Sr3LiTa4(O6F)2
_symmetry_space_group_name_H-M   'P 1'
_cell_length_a   7.57743454
_cell_length_b   7.57743454
_cell_length_c   18.19016530
_cell_angle_alpha   90.00000000
_cell_angle_beta   90.00000000
_cell_angle_gamma   120.00000000
_symmetry_Int_Tables_number   1
_chemical_formula_structural   Sr3LiTa4(O6F)2
_chemical_formula_sum   'Sr9 Li3 Ta12 O36 F6'
_cell_volume   904.50644177
_cell_formula_units_Z   3
loop_
 _symmetry_equiv_pos_site_id
 _symmetry_equiv_pos_as_xyz
  1  'x, y, z'
loop_
 _atom_site_type_symbol
 _atom_site_label
 _atom_site_symmetry_multiplicity
 _atom_site_fract_x
 _atom_site_fract_y
 _atom_site_fract_z
 _atom_site_occupancy
  Sr  Sr0  1  0.16666667  0.33333333  0.33333333  1
  Sr  Sr1  1  0.00000000  0.50000000  0.00000000  1
  Sr  Sr2  1  0.50000000  0.50000000  0.00000000  1
  Sr  Sr3  1  0.83333333  0.66666667  0.66666667  1
  Sr  Sr4  1  0.66666667  0.83333333  0.33333333  1
  Sr  Sr5  1  0.16666667  0.83333333  0.33333333  1
  Sr  Sr6  1  0.50000000  0.00000000  0.00000000  1
  Sr  Sr7  1  0.33333333  0.16666667  0.66666667  1
  Sr  Sr8  1  0.83333333  0.16666667  0.66666667  1
  Li  Li9  1  0.33333333  0.66666667  0.16666667  1
  Li  Li10  1  1.00000000  1.00000000  0.50000000  1
  Li  Li11  1  0.66666667  0.33333333  0.83333333  1
  Ta  Ta12  1  0.83333333  0.16666667  0.16666667  1
  Ta  Ta13  1  0.00000000  0.00000000  0.00000000  1
  Ta  Ta14  1  0.33333333  0.16666667  0.16666667  1
  Ta  Ta15  1  0.16666667  0.33333333  0.83333333  1
  Ta  Ta16  1  0.50000000  0.50000000  0.50000000  1
  Ta  Ta17  1  0.66666667  0.33333333  0.33333333  1
  Ta  Ta18  1  0.00000000  0.50000000  0.50000000  1
  Ta  Ta19  1  0.83333333  0.66666667  0.16666667  1
  Ta  Ta20  1  0.16666667  0.83333333  0.83333333  1
  Ta  Ta21  1  0.33333333  0.66666667  0.66666667  1
  Ta  Ta22  1  0.66666667  0.83333333  0.83333333  1
  Ta  Ta23  1  0.50000000  0.00000000  0.50000000  1
  O  O24  1  0.13136667  0.86863333  0.94147433  1
  O  O25  1  0.53530000  0.46470000  0.39185900  1
  O  O26  1  0.54180067  0.08360133  0.14483433  1
  O  O27  1  0.91639867  0.45819933  0.14483433  1
  O  O28  1  0.73726667  0.86863333  0.94147433  1
  O  O29  1  0.13136667  0.26273333  0.94147433  1
  O  O30  1  0.54180067  0.45819933  0.14483433  1
  O  O31  1  0.75026800  0.87513400  0.18849900  1
  O  O32  1  0.53530000  0.07060000  0.39185900  1
  O  O33  1  0.12486600  0.24973200  0.18849900  1
  O  O34  1  0.92940000  0.46470000  0.39185900  1
  O  O35  1  0.12486600  0.87513400  0.18849900  1
  O  O36  1  0.79803333  0.20196667  0.27480767  1
  O  O37  1  0.20196667  0.79803333  0.72519233  1
  O  O38  1  0.20846733  0.41693467  0.47816767  1
  O  O39  1  0.58306533  0.79153267  0.47816767  1
  O  O40  1  0.40393333  0.20196667  0.27480767  1
  O  O41  1  0.79803333  0.59606667  0.27480767  1
  O  O42  1  0.20846733  0.79153267  0.47816767  1
  O  O43  1  0.41693467  0.20846733  0.52183233  1
  O  O44  1  0.20196667  0.40393333  0.72519233  1
  O  O45  1  0.79153267  0.58306533  0.52183233  1
  O  O46  1  0.59606667  0.79803333  0.72519233  1
  O  O47  1  0.79153267  0.20846733  0.52183233  1
  O  O48  1  0.46470000  0.53530000  0.60814100  1
  O  O49  1  0.86863333  0.13136667  0.05852567  1
  O  O50  1  0.87513400  0.75026800  0.81150100  1
  O  O51  1  0.24973200  0.12486600  0.81150100  1
  O  O52  1  0.07060000  0.53530000  0.60814100  1
  O  O53  1  0.46470000  0.92940000  0.60814100  1
  O  O54  1  0.87513400  0.12486600  0.81150100  1
  O  O55  1  0.08360133  0.54180067  0.85516567  1
  O  O56  1  0.86863333  0.73726667  0.05852567  1
  O  O57  1  0.45819933  0.91639867  0.85516567  1
  O  O58  1  0.26273333  0.13136667  0.05852567  1
  O  O59  1  0.45819933  0.54180067  0.85516567  1
  F  F60  1  0.33333333  0.66666667  0.27495567  1
  F  F61  1  0.33333333  0.66666667  0.05837767  1
  F  F62  1  0.00000000  0.00000000  0.60828900  1
  F  F63  1  0.00000000  0.00000000  0.39171100  1
  F  F64  1  0.66666667  0.33333333  0.94162233  1
  F  F65  1  0.66666667  0.33333333  0.72504433  1
