# generated using pymatgen
data_CoSbO4
_symmetry_space_group_name_H-M   'P 1'
_cell_length_a   5.72698200
_cell_length_b   6.29201800
_cell_length_c   8.31154400
_cell_angle_alpha   90.00000000
_cell_angle_beta   90.00000000
_cell_angle_gamma   90.00000000
_symmetry_Int_Tables_number   1
_chemical_formula_structural   CoSbO4
_chemical_formula_sum   'Co4 Sb4 O16'
_cell_volume   299.50045244
_cell_formula_units_Z   4
loop_
 _symmetry_equiv_pos_site_id
 _symmetry_equiv_pos_as_xyz
  1  'x, y, z'
loop_
 _atom_site_type_symbol
 _atom_site_label
 _atom_site_symmetry_multiplicity
 _atom_site_fract_x
 _atom_site_fract_y
 _atom_site_fract_z
 _atom_site_occupancy
  Co  Co0  1  0.75000000  0.75000000  0.25000000  1
  Co  Co1  1  0.25000000  0.75000000  0.25000000  1
  Co  Co2  1  0.25000000  0.25000000  0.75000000  1
  Co  Co3  1  0.75000000  0.25000000  0.75000000  1
  Sb  Sb4  1  0.50000000  0.00000000  0.50000000  1
  Sb  Sb5  1  0.00000000  0.00000000  0.00000000  1
  Sb  Sb6  1  0.00000000  0.50000000  0.00000000  1
  Sb  Sb7  1  0.50000000  0.50000000  0.50000000  1
  O  O8  1  0.73479700  0.25000000  0.51444000  1
  O  O9  1  0.50000000  0.95603100  0.26105400  1
  O  O10  1  0.00000000  0.95603100  0.23894600  1
  O  O11  1  0.73479700  0.75000000  0.48556000  1
  O  O12  1  0.26520300  0.25000000  0.51444000  1
  O  O13  1  0.00000000  0.04396900  0.76105400  1
  O  O14  1  0.50000000  0.04396900  0.73894600  1
  O  O15  1  0.26520300  0.75000000  0.48556000  1
  O  O16  1  0.23479700  0.75000000  0.01444000  1
  O  O17  1  0.00000000  0.45603100  0.76105400  1
  O  O18  1  0.50000000  0.45603100  0.73894600  1
  O  O19  1  0.23479700  0.25000000  0.98556000  1
  O  O20  1  0.76520300  0.75000000  0.01444000  1
  O  O21  1  0.50000000  0.54396900  0.26105400  1
  O  O22  1  0.00000000  0.54396900  0.23894600  1
  O  O23  1  0.76520300  0.25000000  0.98556000  1
