# generated using pymatgen
data_Li2Mn3F10
_symmetry_space_group_name_H-M   'P 1'
_cell_length_a   18.56904200
_cell_length_b   6.11129600
_cell_length_c   7.92271891
_cell_angle_alpha   90.00000000
_cell_angle_beta   109.68168103
_cell_angle_gamma   90.00000000
_symmetry_Int_Tables_number   1
_chemical_formula_structural   Li2Mn3F10
_chemical_formula_sum   'Li8 Mn12 F40'
_cell_volume   846.55171693
_cell_formula_units_Z   4
loop_
 _symmetry_equiv_pos_site_id
 _symmetry_equiv_pos_as_xyz
  1  'x, y, z'
loop_
 _atom_site_type_symbol
 _atom_site_label
 _atom_site_symmetry_multiplicity
 _atom_site_fract_x
 _atom_site_fract_y
 _atom_site_fract_z
 _atom_site_occupancy
  Li  Li0  1  0.43481600  0.00000000  0.55756300  1
  Li  Li1  1  0.28527200  0.00000000  0.48927700  1
  Li  Li2  1  0.21472800  0.50000000  0.51072300  1
  Li  Li3  1  0.06518400  0.50000000  0.44243700  1
  Li  Li4  1  0.93481600  0.50000000  0.55756300  1
  Li  Li5  1  0.78527200  0.50000000  0.48927700  1
  Li  Li6  1  0.71472800  0.00000000  0.51072300  1
  Li  Li7  1  0.56518400  0.00000000  0.44243700  1
  Mn  Mn8  1  0.41432300  0.50000000  0.51288500  1
  Mn  Mn9  1  0.18363200  0.00000000  0.00990400  1
  Mn  Mn10  1  0.31636800  0.50000000  0.99009600  1
  Mn  Mn11  1  0.08567700  0.00000000  0.48711500  1
  Mn  Mn12  1  0.00000000  0.24831300  0.00000000  1
  Mn  Mn13  1  0.00000000  0.75168700  0.00000000  1
  Mn  Mn14  1  0.91432300  0.00000000  0.51288500  1
  Mn  Mn15  1  0.68363200  0.50000000  0.00990400  1
  Mn  Mn16  1  0.81636800  0.00000000  0.99009600  1
  Mn  Mn17  1  0.58567700  0.50000000  0.48711500  1
  Mn  Mn18  1  0.50000000  0.74831300  0.00000000  1
  Mn  Mn19  1  0.50000000  0.25168700  0.00000000  1
  F  F20  1  0.48066100  0.00000000  0.82197100  1
  F  F21  1  0.47577700  0.50000000  0.81220600  1
  F  F22  1  0.35991400  0.50000000  0.23835300  1
  F  F23  1  0.35557150  0.77482550  0.53227900  1
  F  F24  1  0.35557150  0.22517450  0.53227900  1
  F  F25  1  0.39805350  0.73560250  0.98512400  1
  F  F26  1  0.39805350  0.26439750  0.98512400  1
  F  F27  1  0.21934000  0.00000000  0.25807100  1
  F  F28  1  0.28066000  0.50000000  0.74192900  1
  F  F29  1  0.10194650  0.23560250  0.01487600  1
  F  F30  1  0.10194650  0.76439750  0.01487600  1
  F  F31  1  0.25000000  0.25000000  0.00000000  1
  F  F32  1  0.25000000  0.75000000  0.00000000  1
  F  F33  1  0.14442850  0.72517450  0.46772100  1
  F  F34  1  0.14442850  0.27482550  0.46772100  1
  F  F35  1  0.14008600  0.00000000  0.76164700  1
  F  F36  1  0.02422300  0.00000000  0.18779400  1
  F  F37  1  0.01933900  0.50000000  0.17802900  1
  F  F38  1  0.00000000  0.75861000  0.50000000  1
  F  F39  1  0.00000000  0.24139000  0.50000000  1
  F  F40  1  0.98066100  0.50000000  0.82197100  1
  F  F41  1  0.97577700  0.00000000  0.81220600  1
  F  F42  1  0.85991400  0.00000000  0.23835300  1
  F  F43  1  0.85557150  0.27482550  0.53227900  1
  F  F44  1  0.85557150  0.72517450  0.53227900  1
  F  F45  1  0.89805350  0.23560250  0.98512400  1
  F  F46  1  0.89805350  0.76439750  0.98512400  1
  F  F47  1  0.71934000  0.50000000  0.25807100  1
  F  F48  1  0.78066000  0.00000000  0.74192900  1
  F  F49  1  0.60194650  0.73560250  0.01487600  1
  F  F50  1  0.60194650  0.26439750  0.01487600  1
  F  F51  1  0.75000000  0.75000000  0.00000000  1
  F  F52  1  0.75000000  0.25000000  0.00000000  1
  F  F53  1  0.64442850  0.22517450  0.46772100  1
  F  F54  1  0.64442850  0.77482550  0.46772100  1
  F  F55  1  0.64008600  0.50000000  0.76164700  1
  F  F56  1  0.52422300  0.50000000  0.18779400  1
  F  F57  1  0.51933900  0.00000000  0.17802900  1
  F  F58  1  0.50000000  0.25861000  0.50000000  1
  F  F59  1  0.50000000  0.74139000  0.50000000  1
