# generated using pymatgen
data_Li3Fe4P3H12O19
_symmetry_space_group_name_H-M   'P 1'
_cell_length_a   10.83615600
_cell_length_b   10.83615600
_cell_length_c   26.00605040
_cell_angle_alpha   90.00000000
_cell_angle_beta   90.00000000
_cell_angle_gamma   120.00000000
_symmetry_Int_Tables_number   1
_chemical_formula_structural   Li3Fe4P3H12O19
_chemical_formula_sum   'Li18 Fe24 P18 H72 O114'
_cell_volume   2644.57280982
_cell_formula_units_Z   6
loop_
 _symmetry_equiv_pos_site_id
 _symmetry_equiv_pos_as_xyz
  1  'x, y, z'
loop_
 _atom_site_type_symbol
 _atom_site_label
 _atom_site_symmetry_multiplicity
 _atom_site_fract_x
 _atom_site_fract_y
 _atom_site_fract_z
 _atom_site_occupancy
  Li  Li0  1  0.45026600  0.28667900  0.22750700  1
  Li  Li1  1  0.50307967  0.62001233  0.06084033  1
  Li  Li2  1  0.71332100  0.16358700  0.22750700  1
  Li  Li3  1  0.37998767  0.88306733  0.06084033  1
  Li  Li4  1  0.11693267  0.49692033  0.06084033  1
  Li  Li5  1  0.83641300  0.54973400  0.22750700  1
  Li  Li6  1  0.11693267  0.62001233  0.56084033  1
  Li  Li7  1  0.16974633  0.95334567  0.39417367  1
  Li  Li8  1  0.37998767  0.49692033  0.56084033  1
  Li  Li9  1  0.04665433  0.21640067  0.39417367  1
  Li  Li10  1  0.78359933  0.83025367  0.39417367  1
  Li  Li11  1  0.50307967  0.88306733  0.56084033  1
  Li  Li12  1  0.78359933  0.95334567  0.89417367  1
  Li  Li13  1  0.83641300  0.28667900  0.72750700  1
  Li  Li14  1  0.04665433  0.83025367  0.89417367  1
  Li  Li15  1  0.71332100  0.54973400  0.72750700  1
  Li  Li16  1  0.45026600  0.16358700  0.72750700  1
  Li  Li17  1  0.16974633  0.21640067  0.89417367  1
  Fe  Fe18  1  0.88075000  0.79125800  0.09725000  1
  Fe  Fe19  1  0.54207533  0.78591667  0.26391667  1
  Fe  Fe20  1  0.24384133  0.45792467  0.26391667  1
  Fe  Fe21  1  0.33333333  0.66666667  0.66952367  1
  Fe  Fe22  1  0.33333333  0.66666667  0.16952367  1
  Fe  Fe23  1  0.91050800  0.11925000  0.09725000  1
  Fe  Fe24  1  0.21408333  0.75615867  0.26391667  1
  Fe  Fe25  1  0.20874200  0.08949200  0.09725000  1
  Fe  Fe26  1  0.54741667  0.12459133  0.43058333  1
  Fe  Fe27  1  0.20874200  0.11925000  0.59725000  1
  Fe  Fe28  1  0.91050800  0.79125800  0.59725000  1
  Fe  Fe29  1  0.00000000  0.00000000  0.00285700  1
  Fe  Fe30  1  0.00000000  0.00000000  0.50285700  1
  Fe  Fe31  1  0.57717467  0.45258333  0.43058333  1
  Fe  Fe32  1  0.88075000  0.08949200  0.59725000  1
  Fe  Fe33  1  0.87540867  0.42282533  0.43058333  1
  Fe  Fe34  1  0.21408333  0.45792467  0.76391667  1
  Fe  Fe35  1  0.87540867  0.45258333  0.93058333  1
  Fe  Fe36  1  0.57717467  0.12459133  0.93058333  1
  Fe  Fe37  1  0.66666667  0.33333333  0.33619033  1
  Fe  Fe38  1  0.66666667  0.33333333  0.83619033  1
  Fe  Fe39  1  0.24384133  0.78591667  0.76391667  1
  Fe  Fe40  1  0.54741667  0.42282533  0.93058333  1
  Fe  Fe41  1  0.54207533  0.75615867  0.76391667  1
  P  P42  1  0.52258600  0.50881900  0.31543300  1
  P  P43  1  0.65289967  0.84215233  0.14876633  1
  P  P44  1  0.18925267  0.34710033  0.14876633  1
  P  P45  1  0.49118100  0.01376700  0.31543300  1
  P  P46  1  0.98623300  0.47741400  0.31543300  1
  P  P47  1  0.15784767  0.81074733  0.14876633  1
  P  P48  1  0.18925267  0.84215233  0.64876633  1
  P  P49  1  0.31956633  0.17548567  0.48209967  1
  P  P50  1  0.85591933  0.68043367  0.48209967  1
  P  P51  1  0.15784767  0.34710033  0.64876633  1
  P  P52  1  0.65289967  0.81074733  0.64876633  1
  P  P53  1  0.82451433  0.14408067  0.48209967  1
  P  P54  1  0.85591933  0.17548567  0.98209967  1
  P  P55  1  0.98623300  0.50881900  0.81543300  1
  P  P56  1  0.52258600  0.01376700  0.81543300  1
  P  P57  1  0.82451433  0.68043367  0.98209967  1
  P  P58  1  0.31956633  0.14408067  0.98209967  1
  P  P59  1  0.49118100  0.47741400  0.81543300  1
  H  H60  1  0.60734833  0.45932067  0.15010167  1
  H  H61  1  0.61520733  0.56350567  0.19256567  1
  H  H62  1  0.55343433  0.68272667  0.90290367  1
  H  H63  1  0.61496500  0.89683900  0.02589900  1
  H  H64  1  0.55343433  0.87070767  0.40290367  1
  H  H65  1  0.51863900  0.79265400  0.98343500  1
  H  H66  1  0.28187400  0.38503500  0.02589900  1
  H  H67  1  0.50723100  0.71422300  0.38923500  1
  H  H68  1  0.50723100  0.79300800  0.88923500  1
  H  H69  1  0.31727333  0.44656567  0.40290367  1
  H  H70  1  0.27401500  0.48136100  0.98343500  1
  H  H71  1  0.28577700  0.49276900  0.88923500  1
  H  H72  1  0.20699200  0.49276900  0.38923500  1
  H  H73  1  0.54067933  0.14802767  0.15010167  1
  H  H74  1  0.12929233  0.44656567  0.90290367  1
  H  H75  1  0.28577700  0.79300800  0.38923500  1
  H  H76  1  0.20699200  0.71422300  0.88923500  1
  H  H77  1  0.43649433  0.05170167  0.19256567  1
  H  H78  1  0.31727333  0.87070767  0.90290367  1
  H  H79  1  0.20734600  0.72598500  0.98343500  1
  H  H80  1  0.12929233  0.68272667  0.40290367  1
  H  H81  1  0.94829833  0.38479267  0.19256567  1
  H  H82  1  0.10316100  0.71812600  0.02589900  1
  H  H83  1  0.85197233  0.39265167  0.15010167  1
  H  H84  1  0.27401500  0.79265400  0.48343500  1
  H  H85  1  0.28187400  0.89683900  0.52589900  1
  H  H86  1  0.22010100  0.01606000  0.23623700  1
  H  H87  1  0.28163167  0.23017233  0.35923233  1
  H  H88  1  0.22010100  0.20404100  0.73623700  1
  H  H89  1  0.18530567  0.12598733  0.31676833  1
  H  H90  1  0.94854067  0.71836833  0.35923233  1
  H  H91  1  0.17389767  0.04755633  0.72256833  1
  H  H92  1  0.17389767  0.12634133  0.22256833  1
  H  H93  1  0.98394000  0.77989900  0.73623700  1
  H  H94  1  0.94068167  0.81469433  0.31676833  1
  H  H95  1  0.95244367  0.82610233  0.22256833  1
  H  H96  1  0.87365867  0.82610233  0.72256833  1
  H  H97  1  0.20734600  0.48136100  0.48343500  1
  H  H98  1  0.79595900  0.77989900  0.23623700  1
  H  H99  1  0.95244367  0.12634133  0.72256833  1
  H  H100  1  0.87365867  0.04755633  0.22256833  1
  H  H101  1  0.10316100  0.38503500  0.52589900  1
  H  H102  1  0.98394000  0.20404100  0.23623700  1
  H  H103  1  0.87401267  0.05931833  0.31676833  1
  H  H104  1  0.79595900  0.01606000  0.73623700  1
  H  H105  1  0.61496500  0.71812600  0.52589900  1
  H  H106  1  0.76982767  0.05145933  0.35923233  1
  H  H107  1  0.51863900  0.72598500  0.48343500  1
  H  H108  1  0.94068167  0.12598733  0.81676833  1
  H  H109  1  0.94854067  0.23017233  0.85923233  1
  H  H110  1  0.88676767  0.34939333  0.56957033  1
  H  H111  1  0.94829833  0.56350567  0.69256567  1
  H  H112  1  0.88676767  0.53737433  0.06957033  1
  H  H113  1  0.85197233  0.45932067  0.65010167  1
  H  H114  1  0.61520733  0.05170167  0.69256567  1
  H  H115  1  0.84056433  0.38088967  0.05590167  1
  H  H116  1  0.84056433  0.45967467  0.55590167  1
  H  H117  1  0.65060667  0.11323233  0.06957033  1
  H  H118  1  0.60734833  0.14802767  0.65010167  1
  H  H119  1  0.61911033  0.15943567  0.55590167  1
  H  H120  1  0.54032533  0.15943567  0.05590167  1
  H  H121  1  0.87401267  0.81469433  0.81676833  1
  H  H122  1  0.46262567  0.11323233  0.56957033  1
  H  H123  1  0.61911033  0.45967467  0.05590167  1
  H  H124  1  0.54032533  0.38088967  0.55590167  1
  H  H125  1  0.76982767  0.71836833  0.85923233  1
  H  H126  1  0.65060667  0.53737433  0.56957033  1
  H  H127  1  0.54067933  0.39265167  0.65010167  1
  H  H128  1  0.46262567  0.34939333  0.06957033  1
  H  H129  1  0.28163167  0.05145933  0.85923233  1
  H  H130  1  0.43649433  0.38479267  0.69256567  1
  H  H131  1  0.18530567  0.05931833  0.81676833  1
  O  O132  1  0.65604600  0.49677600  0.30428300  1
  O  O133  1  0.62901533  0.48117267  0.18724967  1
  O  O134  1  0.68284200  0.76020700  0.10553300  1
  O  O135  1  0.77144300  0.00112400  0.15195100  1
  O  O136  1  0.65194733  0.77206167  0.20182767  1
  O  O137  1  0.45344767  0.43872833  0.36849433  1
  O  O138  1  0.56301433  0.66779067  0.31861767  1
  O  O139  1  0.41069833  0.42687367  0.27219967  1
  O  O140  1  0.55368767  0.76835733  0.91666733  1
  O  O141  1  0.55368767  0.78533033  0.41666733  1
  O  O142  1  0.22968100  0.22855700  0.15195100  1
  O  O143  1  0.51882400  0.81450600  0.02058300  1
  O  O144  1  0.57312633  0.98382467  0.27219967  1
  O  O145  1  0.50739667  0.83010933  0.13761633  1
  O  O146  1  0.32271267  0.49260333  0.13761633  1
  O  O147  1  0.56127167  0.01471933  0.36849433  1
  O  O148  1  0.29568200  0.48117600  0.02058300  1
  O  O149  1  0.23164267  0.44631233  0.41666733  1
  O  O150  1  0.33333333  0.66666667  0.74614267  1
  O  O151  1  0.33333333  0.66666667  0.24614267  1
  O  O152  1  0.21466967  0.44631233  0.91666733  1
  O  O153  1  0.51882733  0.14784267  0.18724967  1
  O  O154  1  0.12011433  0.34805267  0.20182767  1
  O  O155  1  0.50322400  0.15927000  0.30428300  1
  O  O156  1  0.07736500  0.31715800  0.10553300  1
  O  O157  1  0.10477633  0.43698567  0.31861767  1
  O  O158  1  0.33220933  0.89522367  0.31861767  1
  O  O159  1  0.23164267  0.78533033  0.91666733  1
  O  O160  1  0.21466967  0.76835733  0.41666733  1
  O  O161  1  0.16989067  0.67728733  0.13761633  1
  O  O162  1  0.18549400  0.70431800  0.02058300  1
  O  O163  1  0.22793833  0.87988567  0.20182767  1
  O  O164  1  0.23979300  0.92263500  0.10553300  1
  O  O165  1  0.01617533  0.58930167  0.27219967  1
  O  O166  1  0.98528067  0.54655233  0.36849433  1
  O  O167  1  0.85215733  0.37098467  0.18724967  1
  O  O168  1  0.84073000  0.34395400  0.30428300  1
  O  O169  1  0.99887600  0.77031900  0.15195100  1
  O  O170  1  0.32271267  0.83010933  0.63761633  1
  O  O171  1  0.29568200  0.81450600  0.52058300  1
  O  O172  1  0.34950867  0.09354033  0.43886633  1
  O  O173  1  0.43810967  0.33445733  0.48528433  1
  O  O174  1  0.31861400  0.10539500  0.53516100  1
  O  O175  1  0.12011433  0.77206167  0.70182767  1
  O  O176  1  0.22968100  0.00112400  0.65195100  1
  O  O177  1  0.07736500  0.76020700  0.60553300  1
  O  O178  1  0.22035433  0.10169067  0.25000067  1
  O  O179  1  0.22035433  0.11866367  0.75000067  1
  O  O180  1  0.89634767  0.56189033  0.48528433  1
  O  O181  1  0.18549067  0.14783933  0.35391633  1
  O  O182  1  0.23979300  0.31715800  0.60553300  1
  O  O183  1  0.17406333  0.16344267  0.47094967  1
  O  O184  1  0.98937933  0.82593667  0.47094967  1
  O  O185  1  0.22793833  0.34805267  0.70182767  1
  O  O186  1  0.96234867  0.81450933  0.35391633  1
  O  O187  1  0.89830933  0.77964567  0.75000067  1
  O  O188  1  0.00000000  0.00000000  0.07947600  1
  O  O189  1  0.00000000  0.00000000  0.57947600  1
  O  O190  1  0.88133633  0.77964567  0.25000067  1
  O  O191  1  0.18549400  0.48117600  0.52058300  1
  O  O192  1  0.78678100  0.68138600  0.53516100  1
  O  O193  1  0.16989067  0.49260333  0.63761633  1
  O  O194  1  0.74403167  0.65049133  0.43886633  1
  O  O195  1  0.77144300  0.77031900  0.65195100  1
  O  O196  1  0.99887600  0.22855700  0.65195100  1
  O  O197  1  0.89830933  0.11866367  0.25000067  1
  O  O198  1  0.88133633  0.10169067  0.75000067  1
  O  O199  1  0.83655733  0.01062067  0.47094967  1
  O  O200  1  0.85216067  0.03765133  0.35391633  1
  O  O201  1  0.89460500  0.21321900  0.53516100  1
  O  O202  1  0.90645967  0.25596833  0.43886633  1
  O  O203  1  0.68284200  0.92263500  0.60553300  1
  O  O204  1  0.65194733  0.87988567  0.70182767  1
  O  O205  1  0.51882400  0.70431800  0.52058300  1
  O  O206  1  0.50739667  0.67728733  0.63761633  1
  O  O207  1  0.66554267  0.10365233  0.48528433  1
  O  O208  1  0.98937933  0.16344267  0.97094967  1
  O  O209  1  0.96234867  0.14783933  0.85391633  1
  O  O210  1  0.01617533  0.42687367  0.77219967  1
  O  O211  1  0.10477633  0.66779067  0.81861767  1
  O  O212  1  0.98528067  0.43872833  0.86849433  1
  O  O213  1  0.78678100  0.10539500  0.03516100  1
  O  O214  1  0.89634767  0.33445733  0.98528433  1
  O  O215  1  0.74403167  0.09354033  0.93886633  1
  O  O216  1  0.88702100  0.43502400  0.58333400  1
  O  O217  1  0.88702100  0.45199700  0.08333400  1
  O  O218  1  0.56301433  0.89522367  0.81861767  1
  O  O219  1  0.85215733  0.48117267  0.68724967  1
  O  O220  1  0.90645967  0.65049133  0.93886633  1
  O  O221  1  0.84073000  0.49677600  0.80428300  1
  O  O222  1  0.65604600  0.15927000  0.80428300  1
  O  O223  1  0.89460500  0.68138600  0.03516100  1
  O  O224  1  0.62901533  0.14784267  0.68724967  1
  O  O225  1  0.56497600  0.11297900  0.08333400  1
  O  O226  1  0.66666667  0.33333333  0.41280933  1
  O  O227  1  0.66666667  0.33333333  0.91280933  1
  O  O228  1  0.54800300  0.11297900  0.58333400  1
  O  O229  1  0.85216067  0.81450933  0.85391633  1
  O  O230  1  0.45344767  0.01471933  0.86849433  1
  O  O231  1  0.83655733  0.82593667  0.97094967  1
  O  O232  1  0.41069833  0.98382467  0.77219967  1
  O  O233  1  0.43810967  0.10365233  0.98528433  1
  O  O234  1  0.66554267  0.56189033  0.98528433  1
  O  O235  1  0.56497600  0.45199700  0.58333400  1
  O  O236  1  0.54800300  0.43502400  0.08333400  1
  O  O237  1  0.50322400  0.34395400  0.80428300  1
  O  O238  1  0.51882733  0.37098467  0.68724967  1
  O  O239  1  0.56127167  0.54655233  0.86849433  1
  O  O240  1  0.57312633  0.58930167  0.77219967  1
  O  O241  1  0.34950867  0.25596833  0.93886633  1
  O  O242  1  0.31861400  0.21321900  0.03516100  1
  O  O243  1  0.18549067  0.03765133  0.85391633  1
  O  O244  1  0.17406333  0.01062067  0.97094967  1
  O  O245  1  0.33220933  0.43698567  0.81861767  1
