# generated using pymatgen
data_KV4O10
_symmetry_space_group_name_H-M   'P 1'
_cell_length_a   3.70835200
_cell_length_b   11.61344000
_cell_length_c   20.58032200
_cell_angle_alpha   90.00000000
_cell_angle_beta   90.00000000
_cell_angle_gamma   90.00000000
_symmetry_Int_Tables_number   1
_chemical_formula_structural   KV4O10
_chemical_formula_sum   'K4 V16 O40'
_cell_volume   886.32703610
_cell_formula_units_Z   4
loop_
 _symmetry_equiv_pos_site_id
 _symmetry_equiv_pos_as_xyz
  1  'x, y, z'
loop_
 _atom_site_type_symbol
 _atom_site_label
 _atom_site_symmetry_multiplicity
 _atom_site_fract_x
 _atom_site_fract_y
 _atom_site_fract_z
 _atom_site_occupancy
  K  K0  1  0.00000000  0.39578200  0.75000000  1
  K  K1  1  0.50000000  0.10421800  0.25000000  1
  K  K2  1  0.50000000  0.89578200  0.75000000  1
  K  K3  1  0.00000000  0.60421800  0.25000000  1
  V  V4  1  0.00000000  0.22819000  0.58110400  1
  V  V5  1  0.00000000  0.22819000  0.91889600  1
  V  V6  1  0.00000000  0.06676900  0.07854200  1
  V  V7  1  0.00000000  0.06676900  0.42145800  1
  V  V8  1  0.50000000  0.43323100  0.57854200  1
  V  V9  1  0.50000000  0.43323100  0.92145800  1
  V  V10  1  0.50000000  0.27181000  0.08110400  1
  V  V11  1  0.50000000  0.27181000  0.41889600  1
  V  V12  1  0.50000000  0.72819000  0.58110400  1
  V  V13  1  0.50000000  0.72819000  0.91889600  1
  V  V14  1  0.50000000  0.56676900  0.07854200  1
  V  V15  1  0.50000000  0.56676900  0.42145800  1
  V  V16  1  0.00000000  0.93323100  0.57854200  1
  V  V17  1  0.00000000  0.93323100  0.92145800  1
  V  V18  1  0.00000000  0.77181000  0.08110400  1
  V  V19  1  0.00000000  0.77181000  0.41889600  1
  O  O20  1  0.00000000  0.08108300  0.54856600  1
  O  O21  1  0.00000000  0.21345600  0.84019700  1
  O  O22  1  0.00000000  0.21345600  0.65980300  1
  O  O23  1  0.00000000  0.08108300  0.95143400  1
  O  O24  1  0.00000000  0.39893000  0.56347300  1
  O  O25  1  0.00000000  0.05077100  0.15788400  1
  O  O26  1  0.00000000  0.24023400  0.06068500  1
  O  O27  1  0.00000000  0.05077100  0.34211600  1
  O  O28  1  0.00000000  0.24023400  0.43931500  1
  O  O29  1  0.00000000  0.39893000  0.93652700  1
  O  O30  1  0.50000000  0.25976600  0.56068500  1
  O  O31  1  0.50000000  0.44922900  0.65788400  1
  O  O32  1  0.50000000  0.25976600  0.93931500  1
  O  O33  1  0.50000000  0.28654400  0.34019700  1
  O  O34  1  0.50000000  0.44922900  0.84211600  1
  O  O35  1  0.50000000  0.28654400  0.15980300  1
  O  O36  1  0.50000000  0.41891700  0.04856600  1
  O  O37  1  0.50000000  0.41891700  0.45143400  1
  O  O38  1  0.50000000  0.10107000  0.06347300  1
  O  O39  1  0.50000000  0.10107000  0.43652700  1
  O  O40  1  0.50000000  0.58108300  0.54856600  1
  O  O41  1  0.50000000  0.71345600  0.84019700  1
  O  O42  1  0.50000000  0.71345600  0.65980300  1
  O  O43  1  0.50000000  0.58108300  0.95143400  1
  O  O44  1  0.50000000  0.89893000  0.56347300  1
  O  O45  1  0.50000000  0.55077100  0.15788400  1
  O  O46  1  0.50000000  0.74023400  0.06068500  1
  O  O47  1  0.50000000  0.55077100  0.34211600  1
  O  O48  1  0.50000000  0.74023400  0.43931500  1
  O  O49  1  0.50000000  0.89893000  0.93652700  1
  O  O50  1  0.00000000  0.75976600  0.56068500  1
  O  O51  1  0.00000000  0.94922900  0.65788400  1
  O  O52  1  0.00000000  0.75976600  0.93931500  1
  O  O53  1  0.00000000  0.78654400  0.34019700  1
  O  O54  1  0.00000000  0.94922900  0.84211600  1
  O  O55  1  0.00000000  0.78654400  0.15980300  1
  O  O56  1  0.00000000  0.91891700  0.04856600  1
  O  O57  1  0.00000000  0.91891700  0.45143400  1
  O  O58  1  0.00000000  0.60107000  0.06347300  1
  O  O59  1  0.00000000  0.60107000  0.43652700  1
