# generated using pymatgen
data_Li2Mn3O6
_symmetry_space_group_name_H-M   'P 1'
_cell_length_a   5.18179800
_cell_length_b   8.99174200
_cell_length_c   10.25069000
_cell_angle_alpha   90.00000000
_cell_angle_beta   90.00000000
_cell_angle_gamma   90.00000000
_symmetry_Int_Tables_number   1
_chemical_formula_structural   Li2Mn3O6
_chemical_formula_sum   'Li8 Mn12 O24'
_cell_volume   477.61440424
_cell_formula_units_Z   4
loop_
 _symmetry_equiv_pos_site_id
 _symmetry_equiv_pos_as_xyz
  1  'x, y, z'
loop_
 _atom_site_type_symbol
 _atom_site_label
 _atom_site_symmetry_multiplicity
 _atom_site_fract_x
 _atom_site_fract_y
 _atom_site_fract_z
 _atom_site_occupancy
  Li  Li0  1  0.09670300  0.25000000  0.25000000  1
  Li  Li1  1  0.90329700  0.25000000  0.75000000  1
  Li  Li2  1  0.59670300  0.25000000  0.25000000  1
  Li  Li3  1  0.40329700  0.25000000  0.75000000  1
  Li  Li4  1  0.59670300  0.75000000  0.25000000  1
  Li  Li5  1  0.40329700  0.75000000  0.75000000  1
  Li  Li6  1  0.09670300  0.75000000  0.25000000  1
  Li  Li7  1  0.90329700  0.75000000  0.75000000  1
  Mn  Mn8  1  0.50000000  0.00000000  0.50000000  1
  Mn  Mn9  1  0.00000000  0.00000000  0.00000000  1
  Mn  Mn10  1  0.00000000  0.16357500  0.50000000  1
  Mn  Mn11  1  0.50000000  0.16357500  0.00000000  1
  Mn  Mn12  1  0.00000000  0.33642500  0.00000000  1
  Mn  Mn13  1  0.50000000  0.33642500  0.50000000  1
  Mn  Mn14  1  0.00000000  0.50000000  0.50000000  1
  Mn  Mn15  1  0.50000000  0.50000000  0.00000000  1
  Mn  Mn16  1  0.50000000  0.66357500  0.50000000  1
  Mn  Mn17  1  0.00000000  0.66357500  0.00000000  1
  Mn  Mn18  1  0.50000000  0.83642500  0.00000000  1
  Mn  Mn19  1  0.00000000  0.83642500  0.50000000  1
  O  O20  1  0.32657800  0.00000000  0.09203900  1
  O  O21  1  0.17342200  0.00000000  0.59203900  1
  O  O22  1  0.82657800  0.00000000  0.40796100  1
  O  O23  1  0.34007350  0.18198250  0.39266000  1
  O  O24  1  0.67342200  0.00000000  0.90796100  1
  O  O25  1  0.15992650  0.18198250  0.89266000  1
  O  O26  1  0.84007350  0.18198250  0.10734000  1
  O  O27  1  0.65992650  0.18198250  0.60734000  1
  O  O28  1  0.15992650  0.31801750  0.60734000  1
  O  O29  1  0.84007350  0.31801750  0.39266000  1
  O  O30  1  0.65992650  0.31801750  0.89266000  1
  O  O31  1  0.34007350  0.31801750  0.10734000  1
  O  O32  1  0.82657800  0.50000000  0.09203900  1
  O  O33  1  0.67342200  0.50000000  0.59203900  1
  O  O34  1  0.32657800  0.50000000  0.40796100  1
  O  O35  1  0.84007350  0.68198250  0.39266000  1
  O  O36  1  0.17342200  0.50000000  0.90796100  1
  O  O37  1  0.65992650  0.68198250  0.89266000  1
  O  O38  1  0.34007350  0.68198250  0.10734000  1
  O  O39  1  0.15992650  0.68198250  0.60734000  1
  O  O40  1  0.65992650  0.81801750  0.60734000  1
  O  O41  1  0.34007350  0.81801750  0.39266000  1
  O  O42  1  0.15992650  0.81801750  0.89266000  1
  O  O43  1  0.84007350  0.81801750  0.10734000  1
