# generated using pymatgen
data_V2Sb(PO4)3
_symmetry_space_group_name_H-M   'P 1'
_cell_length_a   8.71331380
_cell_length_b   8.71331380
_cell_length_c   21.93367023
_cell_angle_alpha   90.00000000
_cell_angle_beta   90.00000000
_cell_angle_gamma   120.00000000
_symmetry_Int_Tables_number   1
_chemical_formula_structural   V2Sb(PO4)3
_chemical_formula_sum   'V12 Sb6 P18 O72'
_cell_volume   1442.14407830
_cell_formula_units_Z   6
loop_
 _symmetry_equiv_pos_site_id
 _symmetry_equiv_pos_as_xyz
  1  'x, y, z'
loop_
 _atom_site_type_symbol
 _atom_site_label
 _atom_site_symmetry_multiplicity
 _atom_site_fract_x
 _atom_site_fract_y
 _atom_site_fract_z
 _atom_site_occupancy
  V  V0  1  0.00000000  0.00000000  0.14627400  1
  V  V1  1  0.33333333  0.66666667  0.02039267  1
  V  V2  1  0.33333333  0.66666667  0.31294067  1
  V  V3  1  0.66666667  0.33333333  0.18705933  1
  V  V4  1  0.66666667  0.33333333  0.47960733  1
  V  V5  1  0.00000000  0.00000000  0.35372600  1
  V  V6  1  0.00000000  0.00000000  0.64627400  1
  V  V7  1  0.33333333  0.66666667  0.52039267  1
  V  V8  1  0.33333333  0.66666667  0.81294067  1
  V  V9  1  0.66666667  0.33333333  0.68705933  1
  V  V10  1  0.66666667  0.33333333  0.97960733  1
  V  V11  1  0.00000000  0.00000000  0.85372600  1
  Sb  Sb12  1  0.00000000  0.00000000  0.00000000  1
  Sb  Sb13  1  0.33333333  0.66666667  0.16666667  1
  Sb  Sb14  1  0.66666667  0.33333333  0.33333333  1
  Sb  Sb15  1  0.00000000  0.00000000  0.50000000  1
  Sb  Sb16  1  0.33333333  0.66666667  0.66666667  1
  Sb  Sb17  1  0.66666667  0.33333333  0.83333333  1
  P  P18  1  0.37788667  0.04455333  0.08333333  1
  P  P19  1  0.66666667  0.62211333  0.08333333  1
  P  P20  1  0.95544667  0.33333333  0.08333333  1
  P  P21  1  0.71122000  1.00000000  0.25000000  1
  P  P22  1  0.00000000  0.71122000  0.25000000  1
  P  P23  1  0.28878000  0.28878000  0.25000000  1
  P  P24  1  0.04455333  0.37788667  0.41666667  1
  P  P25  1  0.33333333  0.95544667  0.41666667  1
  P  P26  1  0.62211333  0.66666667  0.41666667  1
  P  P27  1  0.37788667  0.33333333  0.58333333  1
  P  P28  1  0.66666667  0.04455333  0.58333333  1
  P  P29  1  0.95544667  0.62211333  0.58333333  1
  P  P30  1  0.71122000  0.71122000  0.75000000  1
  P  P31  1  0.00000000  0.28878000  0.75000000  1
  P  P32  1  0.28878000  0.00000000  0.75000000  1
  P  P33  1  0.04455333  0.66666667  0.91666667  1
  P  P34  1  0.33333333  0.37788667  0.91666667  1
  P  P35  1  0.62211333  0.95544667  0.91666667  1
  O  O36  1  0.19916067  0.19219433  0.30865533  1
  O  O37  1  0.80780567  0.00696633  0.30865533  1
  O  O38  1  0.18609267  0.02046233  0.08160633  1
  O  O39  1  0.99303367  0.80083933  0.30865533  1
  O  O40  1  0.47447233  0.13417267  0.14198867  1
  O  O41  1  0.35379567  0.85275933  0.08506033  1
  O  O42  1  0.83436967  0.81390733  0.08160633  1
  O  O43  1  0.49896367  0.64620433  0.08506033  1
  O  O44  1  0.80083933  0.99303367  0.19134467  1
  O  O45  1  0.14724067  0.50103633  0.08506033  1
  O  O46  1  0.68712900  0.16770300  0.25172700  1
  O  O47  1  0.00696633  0.80780567  0.19134467  1
  O  O48  1  0.65970033  0.52552767  0.14198867  1
  O  O49  1  0.97953767  0.16563033  0.08160633  1
  O  O50  1  0.51942600  0.83229700  0.24827300  1
  O  O51  1  0.86582733  0.34029967  0.14198867  1
  O  O52  1  0.16770300  0.68712900  0.24827300  1
  O  O53  1  0.83229700  0.51942600  0.25172700  1
  O  O54  1  0.31287100  0.48057400  0.24827300  1
  O  O55  1  0.19219433  0.19916067  0.19134467  1
  O  O56  1  0.67363300  0.53249400  0.02467800  1
  O  O57  1  0.48057400  0.31287100  0.25172700  1
  O  O58  1  0.85886100  0.32636700  0.02467800  1
  O  O59  1  0.46750600  0.14113900  0.02467800  1
  O  O60  1  0.86582733  0.52552767  0.64198867  1
  O  O61  1  0.47447233  0.34029967  0.64198867  1
  O  O62  1  0.85275933  0.35379567  0.41493967  1
  O  O63  1  0.65970033  0.13417267  0.64198867  1
  O  O64  1  0.14113900  0.46750600  0.47532200  1
  O  O65  1  0.02046233  0.18609267  0.41839367  1
  O  O66  1  0.50103633  0.14724067  0.41493967  1
  O  O67  1  0.16563033  0.97953767  0.41839367  1
  O  O68  1  0.46750600  0.32636700  0.52467800  1
  O  O69  1  0.81390733  0.83436967  0.41839367  1
  O  O70  1  0.35379567  0.50103633  0.58506033  1
  O  O71  1  0.67363300  0.14113900  0.52467800  1
  O  O72  1  0.32636700  0.85886100  0.47532200  1
  O  O73  1  0.64620433  0.49896367  0.41493967  1
  O  O74  1  0.18609267  0.16563033  0.58160633  1
  O  O75  1  0.53249400  0.67363300  0.47532200  1
  O  O76  1  0.83436967  0.02046233  0.58160633  1
  O  O77  1  0.49896367  0.85275933  0.58506033  1
  O  O78  1  0.97953767  0.81390733  0.58160633  1
  O  O79  1  0.85886100  0.53249400  0.52467800  1
  O  O80  1  0.34029967  0.86582733  0.35801133  1
  O  O81  1  0.14724067  0.64620433  0.58506033  1
  O  O82  1  0.52552767  0.65970033  0.35801133  1
  O  O83  1  0.13417267  0.47447233  0.35801133  1
  O  O84  1  0.53249400  0.85886100  0.97532200  1
  O  O85  1  0.14113900  0.67363300  0.97532200  1
  O  O86  1  0.51942600  0.68712900  0.74827300  1
  O  O87  1  0.32636700  0.46750600  0.97532200  1
  O  O88  1  0.80780567  0.80083933  0.80865533  1
  O  O89  1  0.68712900  0.51942600  0.75172700  1
  O  O90  1  0.16770300  0.48057400  0.74827300  1
  O  O91  1  0.83229700  0.31287100  0.75172700  1
  O  O92  1  0.13417267  0.65970033  0.85801133  1
  O  O93  1  0.48057400  0.16770300  0.75172700  1
  O  O94  1  0.02046233  0.83436967  0.91839367  1
  O  O95  1  0.34029967  0.47447233  0.85801133  1
  O  O96  1  0.99303367  0.19219433  0.80865533  1
  O  O97  1  0.31287100  0.83229700  0.74827300  1
  O  O98  1  0.85275933  0.49896367  0.91493967  1
  O  O99  1  0.19916067  0.00696633  0.80865533  1
  O  O100  1  0.50103633  0.35379567  0.91493967  1
  O  O101  1  0.16563033  0.18609267  0.91839367  1
  O  O102  1  0.64620433  0.14724067  0.91493967  1
  O  O103  1  0.52552767  0.86582733  0.85801133  1
  O  O104  1  0.00696633  0.19916067  0.69134467  1
  O  O105  1  0.81390733  0.97953767  0.91839367  1
  O  O106  1  0.19219433  0.99303367  0.69134467  1
  O  O107  1  0.80083933  0.80780567  0.69134467  1
