# generated using pymatgen
data_Li2V3CoO8
_symmetry_space_group_name_H-M   'P 1'
_cell_length_a   5.93201208
_cell_length_b   5.93201208
_cell_length_c   14.60527581
_cell_angle_alpha   90.00000000
_cell_angle_beta   90.00000000
_cell_angle_gamma   120.00000000
_symmetry_Int_Tables_number   1
_chemical_formula_structural   Li2V3CoO8
_chemical_formula_sum   'Li6 V9 Co3 O24'
_cell_volume   445.08652597
_cell_formula_units_Z   3
loop_
 _symmetry_equiv_pos_site_id
 _symmetry_equiv_pos_as_xyz
  1  'x, y, z'
loop_
 _atom_site_type_symbol
 _atom_site_label
 _atom_site_symmetry_multiplicity
 _atom_site_fract_x
 _atom_site_fract_y
 _atom_site_fract_z
 _atom_site_occupancy
  Li  Li0  1  0.00000000  0.00000000  0.12084000  1
  Li  Li1  1  0.33333333  0.66666667  0.16820067  1
  Li  Li2  1  0.66666667  0.33333333  0.45417333  1
  Li  Li3  1  0.00000000  0.00000000  0.50153400  1
  Li  Li4  1  0.33333333  0.66666667  0.78750667  1
  Li  Li5  1  0.66666667  0.33333333  0.83486733  1
  V  V6  1  0.00631333  0.50315667  0.00102967  1
  V  V7  1  0.49684333  0.50315667  0.00102967  1
  V  V8  1  0.49684333  0.99368667  0.00102967  1
  V  V9  1  0.67298000  0.83649000  0.33436300  1
  V  V10  1  0.16351000  0.83649000  0.33436300  1
  V  V11  1  0.16351000  0.32702000  0.33436300  1
  V  V12  1  0.33964667  0.16982333  0.66769633  1
  V  V13  1  0.83017667  0.16982333  0.66769633  1
  V  V14  1  0.83017667  0.66035333  0.66769633  1
  Co  Co15  1  0.66666667  0.33333333  0.21174733  1
  Co  Co16  1  0.33333333  0.66666667  0.54508067  1
  Co  Co17  1  0.00000000  0.00000000  0.87841400  1
  O  O18  1  0.00000000  0.00000000  0.25876600  1
  O  O19  1  0.17917267  0.35834533  0.06977833  1
  O  O20  1  0.17917267  0.82082733  0.06977833  1
  O  O21  1  0.64165467  0.82082733  0.06977833  1
  O  O22  1  0.02347467  0.51173733  0.26216733  1
  O  O23  1  0.48826267  0.51173733  0.26216733  1
  O  O24  1  0.48826267  0.97652533  0.26216733  1
  O  O25  1  0.66666667  0.33333333  0.07485233  1
  O  O26  1  0.66666667  0.33333333  0.59209933  1
  O  O27  1  0.84583933  0.69167867  0.40311167  1
  O  O28  1  0.84583933  0.15416067  0.40311167  1
  O  O29  1  0.30832133  0.15416067  0.40311167  1
  O  O30  1  0.69014133  0.84507067  0.59550067  1
  O  O31  1  0.15492933  0.84507067  0.59550067  1
  O  O32  1  0.15492933  0.30985867  0.59550067  1
  O  O33  1  0.33333333  0.66666667  0.40818567  1
  O  O34  1  0.33333333  0.66666667  0.92543267  1
  O  O35  1  0.51250600  0.02501200  0.73644500  1
  O  O36  1  0.51250600  0.48749400  0.73644500  1
  O  O37  1  0.97498800  0.48749400  0.73644500  1
  O  O38  1  0.35680800  0.17840400  0.92883400  1
  O  O39  1  0.82159600  0.17840400  0.92883400  1
  O  O40  1  0.82159600  0.64319200  0.92883400  1
  O  O41  1  0.00000000  0.00000000  0.74151900  1
