# generated using pymatgen
data_Li2Ni3WO8
_symmetry_space_group_name_H-M   'P 1'
_cell_length_a   5.87731988
_cell_length_b   5.87731988
_cell_length_c   9.59690001
_cell_angle_alpha   90.00000000
_cell_angle_beta   90.00000000
_cell_angle_gamma   120.00000000
_symmetry_Int_Tables_number   1
_chemical_formula_structural   Li2Ni3WO8
_chemical_formula_sum   'Li4 Ni6 W2 O16'
_cell_volume   287.09144992
_cell_formula_units_Z   2
loop_
 _symmetry_equiv_pos_site_id
 _symmetry_equiv_pos_as_xyz
  1  'x, y, z'
loop_
 _atom_site_type_symbol
 _atom_site_label
 _atom_site_symmetry_multiplicity
 _atom_site_fract_x
 _atom_site_fract_y
 _atom_site_fract_z
 _atom_site_occupancy
  Li  Li0  1  0.33333333  0.66666667  0.90299000  1
  Li  Li1  1  0.00000000  0.00000000  0.99001100  1
  Li  Li2  1  0.00000000  0.00000000  0.49001100  1
  Li  Li3  1  0.66666667  0.33333333  0.40299000  1
  Ni  Ni4  1  0.16978450  0.83021550  0.21451400  1
  Ni  Ni5  1  0.16978450  0.33956900  0.21451400  1
  Ni  Ni6  1  0.66043100  0.83021550  0.21451400  1
  Ni  Ni7  1  0.33956900  0.16978450  0.71451400  1
  Ni  Ni8  1  0.83021550  0.66043100  0.71451400  1
  Ni  Ni9  1  0.83021550  0.16978450  0.71451400  1
  W  W10  1  0.33333333  0.66666667  0.48718800  1
  W  W11  1  0.66666667  0.33333333  0.98718800  1
  O  O12  1  0.17021900  0.82978100  0.58825700  1
  O  O13  1  0.03457100  0.51728550  0.35007900  1
  O  O14  1  0.33333333  0.66666667  0.11618800  1
  O  O15  1  0.00000000  0.00000000  0.29899200  1
  O  O16  1  0.00000000  0.00000000  0.79899200  1
  O  O17  1  0.17021900  0.34043800  0.58825700  1
  O  O18  1  0.48271450  0.96542900  0.35007900  1
  O  O19  1  0.48271450  0.51728550  0.35007900  1
  O  O20  1  0.34043800  0.17021900  0.08825700  1
  O  O21  1  0.65956200  0.82978100  0.58825700  1
  O  O22  1  0.51728550  0.48271450  0.85007900  1
  O  O23  1  0.51728550  0.03457100  0.85007900  1
  O  O24  1  0.66666667  0.33333333  0.61618800  1
  O  O25  1  0.82978100  0.65956200  0.08825700  1
  O  O26  1  0.96542900  0.48271450  0.85007900  1
  O  O27  1  0.82978100  0.17021900  0.08825700  1
