# generated using pymatgen
data_SrLaMnRuO6
_symmetry_space_group_name_H-M   'P 1'
_cell_length_a   5.64660100
_cell_length_b   5.76584900
_cell_length_c   9.81061653
_cell_angle_alpha   90.00000000
_cell_angle_beta   125.07886805
_cell_angle_gamma   90.00000000
_symmetry_Int_Tables_number   1
_chemical_formula_structural   SrLaMnRuO6
_chemical_formula_sum   'Sr2 La2 Mn2 Ru2 O12'
_cell_volume   261.39181309
_cell_formula_units_Z   2
loop_
 _symmetry_equiv_pos_site_id
 _symmetry_equiv_pos_as_xyz
  1  'x, y, z'
loop_
 _atom_site_type_symbol
 _atom_site_label
 _atom_site_symmetry_multiplicity
 _atom_site_fract_x
 _atom_site_fract_y
 _atom_site_fract_z
 _atom_site_occupancy
  Sr  Sr0  1  0.74278400  0.28812750  0.74894800  1
  Sr  Sr1  1  0.74278400  0.71187250  0.24894800  1
  La  La2  1  0.25847200  0.80108450  0.74786300  1
  La  La3  1  0.25847200  0.19891550  0.24786300  1
  Mn  Mn4  1  0.99908500  0.25697750  0.49862500  1
  Mn  Mn5  1  0.99908500  0.74302250  0.99862500  1
  Ru  Ru6  1  0.50036500  0.25221250  0.99996000  1
  Ru  Ru7  1  0.50036500  0.74778750  0.49996000  1
  O  O8  1  0.18922300  0.22228750  0.75905000  1
  O  O9  1  0.18922300  0.77771250  0.25905000  1
  O  O10  1  0.33823700  0.02472350  0.54204200  1
  O  O11  1  0.33823700  0.97527650  0.04204200  1
  O  O12  1  0.74031700  0.04646850  0.96246200  1
  O  O13  1  0.74031700  0.95353150  0.46246200  1
  O  O14  1  0.83148300  0.73150850  0.74103200  1
  O  O15  1  0.83148300  0.26849150  0.24103200  1
  O  O16  1  0.25703800  0.55634450  0.54472500  1
  O  O17  1  0.25703800  0.44365550  0.04472500  1
  O  O18  1  0.64299900  0.54003950  0.95529200  1
  O  O19  1  0.64299900  0.45996050  0.45529200  1
