# generated using pymatgen
data_Yb(BO2)3
_symmetry_space_group_name_H-M   'P 1'
_cell_length_a   9.78918600
_cell_length_b   8.18497000
_cell_length_c   6.29807452
_cell_angle_alpha   90.00000000
_cell_angle_beta   126.80933658
_cell_angle_gamma   90.00000000
_symmetry_Int_Tables_number   1
_chemical_formula_structural   Yb(BO2)3
_chemical_formula_sum   'Yb4 B12 O24'
_cell_volume   404.02232082
_cell_formula_units_Z   4
loop_
 _symmetry_equiv_pos_site_id
 _symmetry_equiv_pos_as_xyz
  1  'x, y, z'
loop_
 _atom_site_type_symbol
 _atom_site_label
 _atom_site_symmetry_multiplicity
 _atom_site_fract_x
 _atom_site_fract_y
 _atom_site_fract_z
 _atom_site_occupancy
  Yb  Yb0  1  0.00000000  0.20414000  0.75000000  1
  Yb  Yb1  1  0.00000000  0.79586000  0.25000000  1
  Yb  Yb2  1  0.50000000  0.70414000  0.75000000  1
  Yb  Yb3  1  0.50000000  0.29586000  0.25000000  1
  B  B4  1  0.00000000  0.78048100  0.75000000  1
  B  B5  1  0.22558550  0.43370550  0.58630400  1
  B  B6  1  0.77441450  0.43370550  0.91369600  1
  B  B7  1  0.22558550  0.56629450  0.08630400  1
  B  B8  1  0.77441450  0.56629450  0.41369600  1
  B  B9  1  0.00000000  0.21951900  0.25000000  1
  B  B10  1  0.50000000  0.28048100  0.75000000  1
  B  B11  1  0.72558550  0.93370550  0.58630400  1
  B  B12  1  0.27441450  0.93370550  0.91369600  1
  B  B13  1  0.72558550  0.06629450  0.08630400  1
  B  B14  1  0.27441450  0.06629450  0.41369600  1
  B  B15  1  0.50000000  0.71951900  0.25000000  1
  O  O16  1  0.89878150  0.68546150  0.50703900  1
  O  O17  1  0.10501600  0.88775000  0.71016800  1
  O  O18  1  0.80386000  0.41274100  0.50015100  1
  O  O19  1  0.89498400  0.88775000  0.78983200  1
  O  O20  1  0.10121850  0.68546150  0.99296100  1
  O  O21  1  0.80386000  0.58725900  0.00015100  1
  O  O22  1  0.19614000  0.41274100  0.99984900  1
  O  O23  1  0.89878150  0.31453850  0.00703900  1
  O  O24  1  0.10501600  0.11225000  0.21016800  1
  O  O25  1  0.19614000  0.58725900  0.49984900  1
  O  O26  1  0.89498400  0.11225000  0.28983200  1
  O  O27  1  0.10121850  0.31453850  0.49296100  1
  O  O28  1  0.39878150  0.18546150  0.50703900  1
  O  O29  1  0.60501600  0.38775000  0.71016800  1
  O  O30  1  0.30386000  0.91274100  0.50015100  1
  O  O31  1  0.39498400  0.38775000  0.78983200  1
  O  O32  1  0.60121850  0.18546150  0.99296100  1
  O  O33  1  0.30386000  0.08725900  0.00015100  1
  O  O34  1  0.69614000  0.91274100  0.99984900  1
  O  O35  1  0.39878150  0.81453850  0.00703900  1
  O  O36  1  0.60501600  0.61225000  0.21016800  1
  O  O37  1  0.69614000  0.08725900  0.49984900  1
  O  O38  1  0.39498400  0.61225000  0.28983200  1
  O  O39  1  0.60121850  0.81453850  0.49296100  1
