# generated using pymatgen
data_Ti3Mn2Co3O16
_symmetry_space_group_name_H-M   'P 1'
_cell_length_a   9.95387800
_cell_length_b   5.82772000
_cell_length_c   8.89751276
_cell_angle_alpha   90.00000000
_cell_angle_beta   91.42475709
_cell_angle_gamma   90.00000000
_symmetry_Int_Tables_number   1
_chemical_formula_structural   Ti3Mn2Co3O16
_chemical_formula_sum   'Ti6 Mn4 Co6 O32'
_cell_volume   515.97103562
_cell_formula_units_Z   2
loop_
 _symmetry_equiv_pos_site_id
 _symmetry_equiv_pos_as_xyz
  1  'x, y, z'
loop_
 _atom_site_type_symbol
 _atom_site_label
 _atom_site_symmetry_multiplicity
 _atom_site_fract_x
 _atom_site_fract_y
 _atom_site_fract_z
 _atom_site_occupancy
  Ti  Ti0  1  0.42453150  0.74777050  0.20596100  1
  Ti  Ti1  1  0.42453150  0.25222950  0.20596100  1
  Ti  Ti2  1  0.84377600  0.00000000  0.70710300  1
  Ti  Ti3  1  0.92453150  0.24777050  0.20596100  1
  Ti  Ti4  1  0.92453150  0.75222950  0.20596100  1
  Ti  Ti5  1  0.34377600  0.50000000  0.70710300  1
  Mn  Mn6  1  0.33342000  0.00000000  0.48491000  1
  Mn  Mn7  1  0.66715000  0.00000000  0.97920200  1
  Mn  Mn8  1  0.83342000  0.50000000  0.48491000  1
  Mn  Mn9  1  0.16715000  0.50000000  0.97920200  1
  Co  Co10  1  0.17231100  0.00000000  0.21344000  1
  Co  Co11  1  0.58798250  0.74797950  0.70756400  1
  Co  Co12  1  0.58798250  0.25202050  0.70756400  1
  Co  Co13  1  0.67231100  0.50000000  0.21344000  1
  Co  Co14  1  0.08798250  0.24797950  0.70756400  1
  Co  Co15  1  0.08798250  0.75202050  0.70756400  1
  O  O16  1  0.41630950  0.75410950  0.60366200  1
  O  O17  1  0.47732300  0.00000000  0.34585700  1
  O  O18  1  0.32547200  0.00000000  0.09978600  1
  O  O19  1  0.00727600  0.00000000  0.31804200  1
  O  O20  1  0.01157700  0.00000000  0.81681200  1
  O  O21  1  0.41630950  0.24589050  0.60366200  1
  O  O22  1  0.25585700  0.78812700  0.34291800  1
  O  O23  1  0.25585700  0.21187300  0.34291800  1
  O  O24  1  0.82794500  0.00000000  0.10364700  1
  O  O25  1  0.16386600  0.00000000  0.60650300  1
  O  O26  1  0.73766500  0.78096900  0.84047000  1
  O  O27  1  0.73766500  0.21903100  0.84047000  1
  O  O28  1  0.66048100  0.00000000  0.60316100  1
  O  O29  1  0.58452500  0.75565700  0.10034300  1
  O  O30  1  0.52247000  0.00000000  0.83126600  1
  O  O31  1  0.58452500  0.24434300  0.10034300  1
  O  O32  1  0.91630950  0.25410950  0.60366200  1
  O  O33  1  0.97732300  0.50000000  0.34585700  1
  O  O34  1  0.82547200  0.50000000  0.09978600  1
  O  O35  1  0.50727600  0.50000000  0.31804200  1
  O  O36  1  0.51157700  0.50000000  0.81681200  1
  O  O37  1  0.91630950  0.74589050  0.60366200  1
  O  O38  1  0.75585700  0.28812700  0.34291800  1
  O  O39  1  0.75585700  0.71187300  0.34291800  1
  O  O40  1  0.32794500  0.50000000  0.10364700  1
  O  O41  1  0.66386600  0.50000000  0.60650300  1
  O  O42  1  0.23766500  0.28096900  0.84047000  1
  O  O43  1  0.23766500  0.71903100  0.84047000  1
  O  O44  1  0.16048100  0.50000000  0.60316100  1
  O  O45  1  0.08452500  0.25565700  0.10034300  1
  O  O46  1  0.02247000  0.50000000  0.83126600  1
  O  O47  1  0.08452500  0.74434300  0.10034300  1
