# generated using pymatgen
data_VCoO4
_symmetry_space_group_name_H-M   'P 1'
_cell_length_a   5.50680200
_cell_length_b   8.30957200
_cell_length_c   5.86303300
_cell_angle_alpha   90.00000000
_cell_angle_beta   90.00000000
_cell_angle_gamma   90.00000000
_symmetry_Int_Tables_number   1
_chemical_formula_structural   VCoO4
_chemical_formula_sum   'V4 Co4 O16'
_cell_volume   268.28751033
_cell_formula_units_Z   4
loop_
 _symmetry_equiv_pos_site_id
 _symmetry_equiv_pos_as_xyz
  1  'x, y, z'
loop_
 _atom_site_type_symbol
 _atom_site_label
 _atom_site_symmetry_multiplicity
 _atom_site_fract_x
 _atom_site_fract_y
 _atom_site_fract_z
 _atom_site_occupancy
  V  V0  1  0.50000000  0.85197300  0.25000000  1
  V  V1  1  0.50000000  0.14802700  0.75000000  1
  V  V2  1  0.00000000  0.35197300  0.25000000  1
  V  V3  1  0.00000000  0.64802700  0.75000000  1
  Co  Co4  1  0.00000000  0.00000000  0.00000000  1
  Co  Co5  1  0.00000000  0.00000000  0.50000000  1
  Co  Co6  1  0.50000000  0.50000000  0.00000000  1
  Co  Co7  1  0.50000000  0.50000000  0.50000000  1
  O  O8  1  0.50000000  0.72711400  0.02372800  1
  O  O9  1  0.50000000  0.72711400  0.47627200  1
  O  O10  1  0.22949800  0.98149700  0.25000000  1
  O  O11  1  0.22949800  0.01850300  0.75000000  1
  O  O12  1  0.77050200  0.98149700  0.25000000  1
  O  O13  1  0.77050200  0.01850300  0.75000000  1
  O  O14  1  0.50000000  0.27288600  0.97627200  1
  O  O15  1  0.50000000  0.27288600  0.52372800  1
  O  O16  1  0.00000000  0.22711400  0.02372800  1
  O  O17  1  0.00000000  0.22711400  0.47627200  1
  O  O18  1  0.72949800  0.48149700  0.25000000  1
  O  O19  1  0.72949800  0.51850300  0.75000000  1
  O  O20  1  0.27050200  0.48149700  0.25000000  1
  O  O21  1  0.27050200  0.51850300  0.75000000  1
  O  O22  1  0.00000000  0.77288600  0.97627200  1
  O  O23  1  0.00000000  0.77288600  0.52372800  1
