# generated using pymatgen
data_Na3CoPCO7
_symmetry_space_group_name_H-M   'P 1'
_cell_length_a   5.29755548
_cell_length_b   6.62277902
_cell_length_c   8.99746995
_cell_angle_alpha   90.00000000
_cell_angle_beta   90.17234123
_cell_angle_gamma   90.00000000
_symmetry_Int_Tables_number   1
_chemical_formula_structural   Na3CoPCO7
_chemical_formula_sum   'Na6 Co2 P2 C2 O14'
_cell_volume   315.67065979
_cell_formula_units_Z   2
loop_
 _symmetry_equiv_pos_site_id
 _symmetry_equiv_pos_as_xyz
  1  'x, y, z'
loop_
 _atom_site_type_symbol
 _atom_site_label
 _atom_site_symmetry_multiplicity
 _atom_site_fract_x
 _atom_site_fract_y
 _atom_site_fract_z
 _atom_site_occupancy
  Na  Na0  1  0.49389600  0.51397300  0.49417850  1
  Na  Na1  1  0.06128800  0.78129000  0.33158050  1
  Na  Na2  1  0.01095800  0.50885200  0.01077250  1
  Na  Na3  1  0.98904200  0.00885200  0.98922750  1
  Na  Na4  1  0.93871200  0.28129000  0.66841950  1
  Na  Na5  1  0.50610400  0.01397300  0.50582150  1
  Co  Co6  1  0.46943500  0.25126600  0.20672850  1
  Co  Co7  1  0.53056500  0.75126600  0.79327150  1
  P  P8  1  0.51829500  0.76210200  0.15226250  1
  P  P9  1  0.48170500  0.26210200  0.84773750  1
  C  C10  1  0.00008400  0.26283700  0.34542450  1
  C  C11  1  0.99991600  0.76283700  0.65457550  1
  O  O12  1  0.16748300  0.25701400  0.45143450  1
  O  O13  1  0.75941800  0.26822900  0.37960050  1
  O  O14  1  0.43290300  0.94877100  0.24849950  1
  O  O15  1  0.42024300  0.57541600  0.24125550  1
  O  O16  1  0.07004400  0.26203200  0.20799450  1
  O  O17  1  0.80629600  0.76135200  0.13351150  1
  O  O18  1  0.38088400  0.77217300  0.99875150  1
  O  O19  1  0.61911600  0.27217300  0.00124850  1
  O  O20  1  0.19370400  0.26135200  0.86648850  1
  O  O21  1  0.92995600  0.76203200  0.79200550  1
  O  O22  1  0.57975700  0.07541600  0.75874450  1
  O  O23  1  0.56709700  0.44877100  0.75150050  1
  O  O24  1  0.24058200  0.76822900  0.62039950  1
  O  O25  1  0.83251700  0.75701400  0.54856550  1
