# generated using pymatgen
data_Li4MnCu3(PO4)4
_symmetry_space_group_name_H-M   'P 1'
_cell_length_a   4.76839059
_cell_length_b   6.15863400
_cell_length_c   10.07679575
_cell_angle_alpha   90.00000000
_cell_angle_beta   90.92046462
_cell_angle_gamma   90.00000000
_symmetry_Int_Tables_number   1
_chemical_formula_structural   Li4MnCu3(PO4)4
_chemical_formula_sum   'Li4 Mn1 Cu3 P4 O16'
_cell_volume   295.88478139
_cell_formula_units_Z   1
loop_
 _symmetry_equiv_pos_site_id
 _symmetry_equiv_pos_as_xyz
  1  'x, y, z'
loop_
 _atom_site_type_symbol
 _atom_site_label
 _atom_site_symmetry_multiplicity
 _atom_site_fract_x
 _atom_site_fract_y
 _atom_site_fract_z
 _atom_site_occupancy
  Li  Li0  1  0.00231700  0.25010400  0.99300900  1
  Li  Li1  1  0.00231700  0.74989600  0.99300900  1
  Li  Li2  1  0.49887100  0.75143700  0.50425000  1
  Li  Li3  1  0.49887100  0.24856300  0.50425000  1
  Mn  Mn4  1  0.02978100  0.00000000  0.28143600  1
  Cu  Cu5  1  0.94676000  0.50000000  0.71339500  1
  Cu  Cu6  1  0.55811600  0.50000000  0.21231600  1
  Cu  Cu7  1  0.44703800  0.00000000  0.78586800  1
  P  P8  1  0.91499700  0.00000000  0.60120700  1
  P  P9  1  0.57835000  0.00000000  0.08966300  1
  P  P10  1  0.42475100  0.50000000  0.90413700  1
  P  P11  1  0.08297000  0.50000000  0.40520000  1
  O  O12  1  0.79530800  0.00000000  0.45612400  1
  O  O13  1  0.78214400  0.20287000  0.66894400  1
  O  O14  1  0.78214400  0.79713000  0.66894400  1
  O  O15  1  0.75822700  0.50000000  0.39300300  1
  O  O16  1  0.74944700  0.50000000  0.89714300  1
  O  O17  1  0.71990600  0.19913300  0.16174100  1
  O  O18  1  0.71990600  0.80086700  0.16174100  1
  O  O19  1  0.69404800  0.00000000  0.94513400  1
  O  O20  1  0.31996900  0.50000000  0.05109600  1
  O  O21  1  0.28494800  0.70167600  0.83675500  1
  O  O22  1  0.28494800  0.29832400  0.83675500  1
  O  O23  1  0.25806800  0.00000000  0.09342200  1
  O  O24  1  0.24009000  0.00000000  0.60620700  1
  O  O25  1  0.21983100  0.70344800  0.34068900  1
  O  O26  1  0.21983100  0.29655200  0.34068900  1
  O  O27  1  0.18604400  0.50000000  0.55386800  1
