# generated using pymatgen
data_LiV2(CO3)4
_symmetry_space_group_name_H-M   'P 1'
_cell_length_a   4.73767059
_cell_length_b   5.86827979
_cell_length_c   7.54522438
_cell_angle_alpha   73.31836879
_cell_angle_beta   89.58124250
_cell_angle_gamma   89.15836440
_symmetry_Int_Tables_number   1
_chemical_formula_structural   LiV2(CO3)4
_chemical_formula_sum   'Li1 V2 C4 O12'
_cell_volume   200.92107472
_cell_formula_units_Z   1
loop_
 _symmetry_equiv_pos_site_id
 _symmetry_equiv_pos_as_xyz
  1  'x, y, z'
loop_
 _atom_site_type_symbol
 _atom_site_label
 _atom_site_symmetry_multiplicity
 _atom_site_fract_x
 _atom_site_fract_y
 _atom_site_fract_z
 _atom_site_occupancy
  Li  Li0  1  0.50000000  0.50000000  0.50000000  1
  V  V1  1  0.50000000  0.50000000  0.00000000  1
  V  V2  1  0.00000000  0.00000000  0.50000000  1
  C  C3  1  0.49025400  0.01917700  0.26122950  1
  C  C4  1  0.50974600  0.98082300  0.73877050  1
  C  C5  1  0.00610100  0.51291450  0.76233450  1
  C  C6  1  0.99389900  0.48708550  0.23766550  1
  O  O7  1  0.87810700  0.35207850  0.38624250  1
  O  O8  1  0.12189300  0.64792150  0.61375750  1
  O  O9  1  0.84099200  0.60938450  0.10329900  1
  O  O10  1  0.15900800  0.39061550  0.89670100  1
  O  O11  1  0.77902300  0.99438050  0.72704500  1
  O  O12  1  0.22097700  0.00561950  0.27295500  1
  O  O13  1  0.72989400  0.49869100  0.77347500  1
  O  O14  1  0.27010600  0.50130900  0.22652500  1
  O  O15  1  0.65273400  0.88148600  0.38338200  1
  O  O16  1  0.34726600  0.11851400  0.61661800  1
  O  O17  1  0.60067500  0.17680100  0.11818850  1
  O  O18  1  0.39932500  0.82319900  0.88181150  1
