# generated using pymatgen
data_Ba3Fe3O8
_symmetry_space_group_name_H-M   'P 1'
_cell_length_a   5.78931800
_cell_length_b   10.18579200
_cell_length_c   14.15879200
_cell_angle_alpha   90.00000000
_cell_angle_beta   90.00000000
_cell_angle_gamma   90.00000000
_symmetry_Int_Tables_number   1
_chemical_formula_structural   Ba3Fe3O8
_chemical_formula_sum   'Ba12 Fe12 O32'
_cell_volume   834.92681752
_cell_formula_units_Z   4
loop_
 _symmetry_equiv_pos_site_id
 _symmetry_equiv_pos_as_xyz
  1  'x, y, z'
loop_
 _atom_site_type_symbol
 _atom_site_label
 _atom_site_symmetry_multiplicity
 _atom_site_fract_x
 _atom_site_fract_y
 _atom_site_fract_z
 _atom_site_occupancy
  Ba  Ba0  1  0.50000000  0.16831500  0.14744800  1
  Ba  Ba1  1  0.50000000  0.16831500  0.85255200  1
  Ba  Ba2  1  0.00000000  0.00037900  0.00000000  1
  Ba  Ba3  1  0.00000000  0.00737200  0.50000000  1
  Ba  Ba4  1  0.00000000  0.32823200  0.66067700  1
  Ba  Ba5  1  0.00000000  0.32823200  0.33932300  1
  Ba  Ba6  1  0.00000000  0.66831500  0.14744800  1
  Ba  Ba7  1  0.00000000  0.66831500  0.85255200  1
  Ba  Ba8  1  0.50000000  0.50037900  0.00000000  1
  Ba  Ba9  1  0.50000000  0.50737200  0.50000000  1
  Ba  Ba10  1  0.50000000  0.82823200  0.66067700  1
  Ba  Ba11  1  0.50000000  0.82823200  0.33932300  1
  Fe  Fe12  1  0.50000000  0.14133700  0.41024600  1
  Fe  Fe13  1  0.50000000  0.14133700  0.58975400  1
  Fe  Fe14  1  0.00000000  0.01967800  0.23928900  1
  Fe  Fe15  1  0.00000000  0.01967800  0.76071100  1
  Fe  Fe16  1  0.00000000  0.33846000  0.90633100  1
  Fe  Fe17  1  0.00000000  0.33846000  0.09366900  1
  Fe  Fe18  1  0.00000000  0.64133700  0.41024600  1
  Fe  Fe19  1  0.00000000  0.64133700  0.58975400  1
  Fe  Fe20  1  0.50000000  0.51967800  0.23928900  1
  Fe  Fe21  1  0.50000000  0.51967800  0.76071100  1
  Fe  Fe22  1  0.50000000  0.83846000  0.90633100  1
  Fe  Fe23  1  0.50000000  0.83846000  0.09366900  1
  O  O24  1  0.71825050  0.23753450  0.50000000  1
  O  O25  1  0.75603850  0.08415550  0.66821300  1
  O  O26  1  0.75603850  0.08415550  0.33178700  1
  O  O27  1  0.28174950  0.23753450  0.50000000  1
  O  O28  1  0.00000000  0.49424600  0.50000000  1
  O  O29  1  0.26026600  0.41324600  0.17987000  1
  O  O30  1  0.26026600  0.41324600  0.82013000  1
  O  O31  1  0.24396150  0.08415550  0.66821300  1
  O  O32  1  0.24396150  0.08415550  0.33178700  1
  O  O33  1  0.00000000  0.49065600  0.00000000  1
  O  O34  1  0.23141950  0.26608950  0.00000000  1
  O  O35  1  0.73973400  0.41324600  0.17987000  1
  O  O36  1  0.73973400  0.41324600  0.82013000  1
  O  O37  1  0.76858050  0.26608950  0.00000000  1
  O  O38  1  0.00000000  0.17307400  0.83449900  1
  O  O39  1  0.00000000  0.17307400  0.16550100  1
  O  O40  1  0.21825050  0.73753450  0.50000000  1
  O  O41  1  0.25603850  0.58415550  0.66821300  1
  O  O42  1  0.25603850  0.58415550  0.33178700  1
  O  O43  1  0.78174950  0.73753450  0.50000000  1
  O  O44  1  0.50000000  0.99424600  0.50000000  1
  O  O45  1  0.76026600  0.91324600  0.17987000  1
  O  O46  1  0.76026600  0.91324600  0.82013000  1
  O  O47  1  0.74396150  0.58415550  0.66821300  1
  O  O48  1  0.74396150  0.58415550  0.33178700  1
  O  O49  1  0.50000000  0.99065600  0.00000000  1
  O  O50  1  0.73141950  0.76608950  0.00000000  1
  O  O51  1  0.23973400  0.91324600  0.17987000  1
  O  O52  1  0.23973400  0.91324600  0.82013000  1
  O  O53  1  0.26858050  0.76608950  0.00000000  1
  O  O54  1  0.50000000  0.67307400  0.83449900  1
  O  O55  1  0.50000000  0.67307400  0.16550100  1
