# generated using pymatgen
data_Li3MnF6
_symmetry_space_group_name_H-M   'P 1'
_cell_length_a   5.09956000
_cell_length_b   8.95104000
_cell_length_c   9.64674238
_cell_angle_alpha   90.00000000
_cell_angle_beta   92.61667097
_cell_angle_gamma   90.00000000
_symmetry_Int_Tables_number   1
_chemical_formula_structural   Li3MnF6
_chemical_formula_sum   'Li12 Mn4 F24'
_cell_volume   439.87960048
_cell_formula_units_Z   4
loop_
 _symmetry_equiv_pos_site_id
 _symmetry_equiv_pos_as_xyz
  1  'x, y, z'
loop_
 _atom_site_type_symbol
 _atom_site_label
 _atom_site_symmetry_multiplicity
 _atom_site_fract_x
 _atom_site_fract_y
 _atom_site_fract_z
 _atom_site_occupancy
  Li  Li0  1  0.01212800  0.65643600  0.94887700  1
  Li  Li1  1  0.98695350  0.99354550  0.25091900  1
  Li  Li2  1  0.48695350  0.50645450  0.75091900  1
  Li  Li3  1  0.99528050  0.67028150  0.55143900  1
  Li  Li4  1  0.49528050  0.82971850  0.05143900  1
  Li  Li5  1  0.51212800  0.84356400  0.44887700  1
  Li  Li6  1  0.51212800  0.15643600  0.94887700  1
  Li  Li7  1  0.48695350  0.49354550  0.25091900  1
  Li  Li8  1  0.98695350  0.00645450  0.75091900  1
  Li  Li9  1  0.49528050  0.17028150  0.55143900  1
  Li  Li10  1  0.99528050  0.32971850  0.05143900  1
  Li  Li11  1  0.01212800  0.34356400  0.44887700  1
  Mn  Mn12  1  0.99936100  0.66608700  0.24970600  1
  Mn  Mn13  1  0.49936100  0.83391300  0.74970600  1
  Mn  Mn14  1  0.49936100  0.16608700  0.24970600  1
  Mn  Mn15  1  0.99936100  0.33391300  0.74970600  1
  F  F16  1  0.84236400  0.52061600  0.36677000  1
  F  F17  1  0.69583700  0.65982000  0.13145700  1
  F  F18  1  0.16299400  0.50528100  0.12528300  1
  F  F19  1  0.30679000  0.66740100  0.36627300  1
  F  F20  1  0.85147900  0.82938100  0.37627400  1
  F  F21  1  0.35147900  0.67061900  0.87627400  1
  F  F22  1  0.14538350  0.81539850  0.13327900  1
  F  F23  1  0.64538350  0.68460150  0.63327900  1
  F  F24  1  0.19583700  0.84018000  0.63145700  1
  F  F25  1  0.34236400  0.97938400  0.86677000  1
  F  F26  1  0.80679000  0.83259900  0.86627300  1
  F  F27  1  0.66299400  0.99471900  0.62528300  1
  F  F28  1  0.34236400  0.02061600  0.36677000  1
  F  F29  1  0.19583700  0.15982000  0.13145700  1
  F  F30  1  0.66299400  0.00528100  0.12528300  1
  F  F31  1  0.80679000  0.16740100  0.36627300  1
  F  F32  1  0.35147900  0.32938100  0.37627400  1
  F  F33  1  0.85147900  0.17061900  0.87627400  1
  F  F34  1  0.64538350  0.31539850  0.13327900  1
  F  F35  1  0.14538350  0.18460150  0.63327900  1
  F  F36  1  0.69583700  0.34018000  0.63145700  1
  F  F37  1  0.84236400  0.47938400  0.86677000  1
  F  F38  1  0.30679000  0.33259900  0.86627300  1
  F  F39  1  0.16299400  0.49471900  0.62528300  1
