# generated using pymatgen
data_Na5LiMn2P2(CO7)2
_symmetry_space_group_name_H-M   'P 1'
_cell_length_a   8.96575300
_cell_length_b   6.76927900
_cell_length_c   10.34825447
_cell_angle_alpha   90.00000000
_cell_angle_beta   90.07331223
_cell_angle_gamma   90.00000000
_symmetry_Int_Tables_number   1
_chemical_formula_structural   Na5LiMn2P2(CO7)2
_chemical_formula_sum   'Na10 Li2 Mn4 P4 C4 O28'
_cell_volume   628.05247103
_cell_formula_units_Z   2
loop_
 _symmetry_equiv_pos_site_id
 _symmetry_equiv_pos_as_xyz
  1  'x, y, z'
loop_
 _atom_site_type_symbol
 _atom_site_label
 _atom_site_symmetry_multiplicity
 _atom_site_fract_x
 _atom_site_fract_y
 _atom_site_fract_z
 _atom_site_occupancy
  Na  Na0  1  0.91774100  0.50207100  0.88003100  1
  Na  Na1  1  0.91774100  0.49792900  0.38003100  1
  Na  Na2  1  0.74135400  0.74816500  0.62376300  1
  Na  Na3  1  0.74122600  0.25191800  0.62382500  1
  Na  Na4  1  0.74122600  0.74808200  0.12382500  1
  Na  Na5  1  0.74135400  0.25183500  0.12376300  1
  Na  Na6  1  0.25832100  0.24814000  0.87655600  1
  Na  Na7  1  0.25832100  0.75186000  0.37655600  1
  Na  Na8  1  0.08411500  0.99981300  0.61995800  1
  Na  Na9  1  0.08411500  0.00018700  0.11995800  1
  Li  Li10  1  0.26699400  0.75699000  0.87880600  1
  Li  Li11  1  0.26699400  0.24301000  0.37880600  1
  Mn  Mn12  1  0.63740300  0.00034600  0.88918500  1
  Mn  Mn13  1  0.63740300  0.99965400  0.38918500  1
  Mn  Mn14  1  0.36005200  0.49882100  0.61051500  1
  Mn  Mn15  1  0.36005200  0.50117900  0.11051500  1
  P  P16  1  0.58637300  0.50361500  0.85021000  1
  P  P17  1  0.58637300  0.49638500  0.35021000  1
  P  P18  1  0.40899400  0.99717500  0.64879900  1
  P  P19  1  0.40899400  0.00282500  0.14879900  1
  C  C20  1  0.94384800  0.99501600  0.86815800  1
  C  C21  1  0.94384800  0.00498400  0.36815800  1
  C  C22  1  0.06017000  0.50058400  0.63273500  1
  C  C23  1  0.06017000  0.49941600  0.13273500  1
  O  O24  1  0.91640600  0.50009300  0.64323000  1
  O  O25  1  0.91640600  0.49990700  0.14323000  1
  O  O26  1  0.87987600  0.00067500  0.98131400  1
  O  O27  1  0.87987600  0.99932500  0.48131400  1
  O  O28  1  0.85977100  0.00084200  0.76509400  1
  O  O29  1  0.85977100  0.99915800  0.26509400  1
  O  O30  1  0.68171000  0.68494600  0.89205300  1
  O  O31  1  0.67516400  0.31741200  0.89398300  1
  O  O32  1  0.67516400  0.68258800  0.39398300  1
  O  O33  1  0.68171000  0.31505400  0.39205300  1
  O  O34  1  0.57223000  0.50050500  0.69973400  1
  O  O35  1  0.56883200  0.99971600  0.59128300  1
  O  O36  1  0.57223000  0.49949500  0.19973400  1
  O  O37  1  0.56883200  0.00028400  0.09128300  1
  O  O38  1  0.42617200  0.51272900  0.90775300  1
  O  O39  1  0.42200200  0.99184700  0.80015100  1
  O  O40  1  0.42617200  0.48727100  0.40775300  1
  O  O41  1  0.42200200  0.00815300  0.30015100  1
  O  O42  1  0.31799800  0.18185700  0.60568100  1
  O  O43  1  0.31814500  0.81435300  0.60414200  1
  O  O44  1  0.31814500  0.18564700  0.10414200  1
  O  O45  1  0.31799800  0.81814300  0.10568100  1
  O  O46  1  0.14451800  0.50291300  0.73577100  1
  O  O47  1  0.14451800  0.49708700  0.23577100  1
  O  O48  1  0.12263700  0.49841500  0.51891300  1
  O  O49  1  0.12263700  0.50158500  0.01891300  1
  O  O50  1  0.08794600  0.98438100  0.85835600  1
  O  O51  1  0.08794600  0.01561900  0.35835600  1
