# generated using pymatgen
data_Li3Mn3TeO8
_symmetry_space_group_name_H-M   'P 1'
_cell_length_a   6.31018441
_cell_length_b   6.31018441
_cell_length_c   14.80319006
_cell_angle_alpha   90.00000000
_cell_angle_beta   90.00000000
_cell_angle_gamma   120.00000000
_symmetry_Int_Tables_number   1
_chemical_formula_structural   Li3Mn3TeO8
_chemical_formula_sum   'Li9 Mn9 Te3 O24'
_cell_volume   510.46979484
_cell_formula_units_Z   3
loop_
 _symmetry_equiv_pos_site_id
 _symmetry_equiv_pos_as_xyz
  1  'x, y, z'
loop_
 _atom_site_type_symbol
 _atom_site_label
 _atom_site_symmetry_multiplicity
 _atom_site_fract_x
 _atom_site_fract_y
 _atom_site_fract_z
 _atom_site_occupancy
  Li  Li0  1  0.66666667  0.83333333  0.83333333  1
  Li  Li1  1  0.16666667  0.83333333  0.83333333  1
  Li  Li2  1  0.50000000  0.00000000  0.50000000  1
  Li  Li3  1  0.33333333  0.16666667  0.16666667  1
  Li  Li4  1  0.83333333  0.16666667  0.16666667  1
  Li  Li5  1  0.16666667  0.33333333  0.83333333  1
  Li  Li6  1  0.00000000  0.50000000  0.50000000  1
  Li  Li7  1  0.50000000  0.50000000  0.50000000  1
  Li  Li8  1  0.83333333  0.66666667  0.16666667  1
  Mn  Mn9  1  0.00000000  0.50000000  0.00000000  1
  Mn  Mn10  1  0.50000000  0.50000000  0.00000000  1
  Mn  Mn11  1  0.50000000  0.00000000  0.00000000  1
  Mn  Mn12  1  0.66666667  0.83333333  0.33333333  1
  Mn  Mn13  1  0.16666667  0.83333333  0.33333333  1
  Mn  Mn14  1  0.16666667  0.33333333  0.33333333  1
  Mn  Mn15  1  0.33333333  0.16666667  0.66666667  1
  Mn  Mn16  1  0.83333333  0.16666667  0.66666667  1
  Mn  Mn17  1  0.83333333  0.66666667  0.66666667  1
  Te  Te18  1  0.33333333  0.66666667  0.66666667  1
  Te  Te19  1  1.00000000  1.00000000  0.00000000  1
  Te  Te20  1  0.66666667  0.33333333  0.33333333  1
  O  O21  1  0.66666667  0.33333333  0.06624433  1
  O  O22  1  0.66666667  0.33333333  0.60042233  1
  O  O23  1  0.04065833  0.52032917  0.74285667  1
  O  O24  1  0.47967083  0.52032917  0.74285667  1
  O  O25  1  0.47967083  0.95934167  0.74285667  1
  O  O26  1  0.29267500  0.14633750  0.92381000  1
  O  O27  1  0.85366250  0.14633750  0.92381000  1
  O  O28  1  0.85366250  0.70732500  0.92381000  1
  O  O29  1  0.33333333  0.66666667  0.39957767  1
  O  O30  1  0.33333333  0.66666667  0.93375567  1
  O  O31  1  0.70732500  0.85366250  0.07619000  1
  O  O32  1  0.14633750  0.85366250  0.07619000  1
  O  O33  1  0.14633750  0.29267500  0.07619000  1
  O  O34  1  0.95934167  0.47967083  0.25714333  1
  O  O35  1  0.52032917  0.47967083  0.25714333  1
  O  O36  1  0.52032917  0.04065833  0.25714333  1
  O  O37  1  0.00000000  0.00000000  0.73291100  1
  O  O38  1  0.00000000  0.00000000  0.26708900  1
  O  O39  1  0.37399167  0.18699583  0.40952333  1
  O  O40  1  0.81300417  0.18699583  0.40952333  1
  O  O41  1  0.81300417  0.62600833  0.40952333  1
  O  O42  1  0.62600833  0.81300417  0.59047667  1
  O  O43  1  0.18699583  0.81300417  0.59047667  1
  O  O44  1  0.18699583  0.37399167  0.59047667  1
