# generated using pymatgen
data_VFe3Co2(PO4)6
_symmetry_space_group_name_H-M   'P 1'
_cell_length_a   8.62550775
_cell_length_b   8.62550775
_cell_length_c   20.43206900
_cell_angle_alpha   90.00000000
_cell_angle_beta   90.00000000
_cell_angle_gamma   120.00000000
_symmetry_Int_Tables_number   1
_chemical_formula_structural   VFe3Co2(PO4)6
_chemical_formula_sum   'V3 Fe9 Co6 P18 O72'
_cell_volume   1316.47409445
_cell_formula_units_Z   3
loop_
 _symmetry_equiv_pos_site_id
 _symmetry_equiv_pos_as_xyz
  1  'x, y, z'
loop_
 _atom_site_type_symbol
 _atom_site_label
 _atom_site_symmetry_multiplicity
 _atom_site_fract_x
 _atom_site_fract_y
 _atom_site_fract_z
 _atom_site_occupancy
  V  V0  1  0.33333333  0.66666667  0.52315467  1
  V  V1  1  0.00000000  0.00000000  0.85648800  1
  V  V2  1  0.66666667  0.33333333  0.18982133  1
  Fe  Fe3  1  0.33333333  0.66666667  0.02232067  1
  Fe  Fe4  1  0.33333333  0.66666667  0.81135267  1
  Fe  Fe5  1  0.33333333  0.66666667  0.31090467  1
  Fe  Fe6  1  0.00000000  0.00000000  0.35565400  1
  Fe  Fe7  1  0.00000000  0.00000000  0.14468600  1
  Fe  Fe8  1  0.00000000  0.00000000  0.64423800  1
  Fe  Fe9  1  0.66666667  0.33333333  0.68898733  1
  Fe  Fe10  1  0.66666667  0.33333333  0.47801933  1
  Fe  Fe11  1  0.66666667  0.33333333  0.97757133  1
  Co  Co12  1  0.33333333  0.66666667  0.66801967  1
  Co  Co13  1  0.33333333  0.66666667  0.16769867  1
  Co  Co14  1  0.00000000  0.00000000  0.00135300  1
  Co  Co15  1  0.00000000  0.00000000  0.50103200  1
  Co  Co16  1  0.66666667  0.33333333  0.33468633  1
  Co  Co17  1  0.66666667  0.33333333  0.83436533  1
  P  P18  1  0.37329900  0.03849000  0.08315600  1
  P  P19  1  0.66519100  0.62670100  0.08315600  1
  P  P20  1  0.96151000  0.33480900  0.08315600  1
  P  P21  1  0.70479800  0.00098800  0.24929900  1
  P  P22  1  0.99901200  0.70381000  0.24929900  1
  P  P23  1  0.29619000  0.29520200  0.24929900  1
  P  P24  1  0.03996567  0.37182333  0.41648933  1
  P  P25  1  0.33185767  0.96003433  0.41648933  1
  P  P26  1  0.62817667  0.66814233  0.41648933  1
  P  P27  1  0.37146467  0.33432133  0.58263233  1
  P  P28  1  0.66567867  0.03714333  0.58263233  1
  P  P29  1  0.96285667  0.62853533  0.58263233  1
  P  P30  1  0.70663233  0.70515667  0.74982267  1
  P  P31  1  0.99852433  0.29336767  0.74982267  1
  P  P32  1  0.29484333  0.00147567  0.74982267  1
  P  P33  1  0.03813133  0.66765467  0.91596567  1
  P  P34  1  0.33234533  0.37047667  0.91596567  1
  P  P35  1  0.62952333  0.96186867  0.91596567  1
  O  O36  1  0.31982367  0.85622233  0.35507633  1
  O  O37  1  0.53639867  0.68017633  0.35507633  1
  O  O38  1  0.14377767  0.46360133  0.35507633  1
  O  O39  1  0.18275067  0.01559233  0.07443433  1
  O  O40  1  0.13881233  0.48278667  0.47778867  1
  O  O41  1  0.35365100  0.85056800  0.09547300  1
  O  O42  1  0.83284167  0.81724933  0.07443433  1
  O  O43  1  0.49691700  0.64634900  0.09547300  1
  O  O44  1  0.80839733  0.01115367  0.18796967  1
  O  O45  1  0.14943200  0.50308300  0.09547300  1
  O  O46  1  0.67866633  0.16919567  0.25703167  1
  O  O47  1  0.98884633  0.79724367  0.18796967  1
  O  O48  1  0.34397433  0.86118767  0.47778867  1
  O  O49  1  0.98440767  0.16715833  0.07443433  1
  O  O50  1  0.51294567  0.83466333  0.24025233  1
  O  O51  1  0.51721333  0.65602567  0.47778867  1
  O  O52  1  0.16533667  0.67828233  0.24025233  1
  O  O53  1  0.83080433  0.50947067  0.25703167  1
  O  O54  1  0.32171767  0.48705433  0.24025233  1
  O  O55  1  0.20275633  0.19160267  0.18796967  1
  O  O56  1  0.49052933  0.32133367  0.25703167  1
  O  O57  1  0.53242433  0.86562867  0.97836867  1
  O  O58  1  0.13437133  0.66679567  0.97836867  1
  O  O59  1  0.33320433  0.46757567  0.97836867  1
  O  O60  1  0.98649033  0.18955567  0.68840967  1
  O  O61  1  0.20306533  0.01350967  0.68840967  1
  O  O62  1  0.81044433  0.79693467  0.68840967  1
  O  O63  1  0.84941733  0.34892567  0.40776767  1
  O  O64  1  0.80547900  0.81612000  0.81112200  1
  O  O65  1  0.02031767  0.18390133  0.42880633  1
  O  O66  1  0.49950833  0.15058267  0.40776767  1
  O  O67  1  0.16358367  0.97968233  0.42880633  1
  O  O68  1  0.47506400  0.34448700  0.52130300  1
  O  O69  1  0.81609867  0.83641633  0.42880633  1
  O  O70  1  0.34533300  0.50252900  0.59036500  1
  O  O71  1  0.65551300  0.13057700  0.52130300  1
  O  O72  1  0.01064100  0.19452100  0.81112200  1
  O  O73  1  0.65107433  0.50049167  0.40776767  1
  O  O74  1  0.17961233  0.16799667  0.57358567  1
  O  O75  1  0.18388000  0.98935900  0.81112200  1
  O  O76  1  0.83200333  0.01161567  0.57358567  1
  O  O77  1  0.49747100  0.84280400  0.59036500  1
  O  O78  1  0.98838433  0.82038767  0.57358567  1
  O  O79  1  0.86942300  0.52493600  0.52130300  1
  O  O80  1  0.15719600  0.65466700  0.59036500  1
  O  O81  1  0.19909100  0.19896200  0.31170200  1
  O  O82  1  0.80103800  0.00012900  0.31170200  1
  O  O83  1  0.99987100  0.80090900  0.31170200  1
  O  O84  1  0.65315700  0.52288900  0.02174300  1
  O  O85  1  0.86973200  0.34684300  0.02174300  1
  O  O86  1  0.47711100  0.13026800  0.02174300  1
  O  O87  1  0.51608400  0.68225900  0.74110100  1
  O  O88  1  0.47214567  0.14945333  0.14445533  1
  O  O89  1  0.68698433  0.51723467  0.76213967  1
  O  O90  1  0.16617500  0.48391600  0.74110100  1
  O  O91  1  0.83025033  0.31301567  0.76213967  1
  O  O92  1  0.14173067  0.67782033  0.85463633  1
  O  O93  1  0.48276533  0.16974967  0.76213967  1
  O  O94  1  0.01199967  0.83586233  0.92369833  1
  O  O95  1  0.32217967  0.46391033  0.85463633  1
  O  O96  1  0.67730767  0.52785433  0.14445533  1
  O  O97  1  0.31774100  0.83382500  0.74110100  1
  O  O98  1  0.84627900  0.50133000  0.90691900  1
  O  O99  1  0.85054667  0.32269233  0.14445533  1
  O  O100  1  0.49867000  0.34494900  0.90691900  1
  O  O101  1  0.16413767  0.17613733  0.92369833  1
  O  O102  1  0.65505100  0.15372100  0.90691900  1
  O  O103  1  0.53608967  0.85826933  0.85463633  1
  O  O104  1  0.82386267  0.98800033  0.92369833  1
  O  O105  1  0.86575767  0.53229533  0.64503533  1
  O  O106  1  0.46770467  0.33346233  0.64503533  1
  O  O107  1  0.66653767  0.13424233  0.64503533  1
