# generated using pymatgen
data_MnCr3Te2(PO4)6
_symmetry_space_group_name_H-M   'P 1'
_cell_length_a   8.68057208
_cell_length_b   8.68057208
_cell_length_c   21.92393031
_cell_angle_alpha   90.00000000
_cell_angle_beta   90.00000000
_cell_angle_gamma   120.00000000
_symmetry_Int_Tables_number   1
_chemical_formula_structural   MnCr3Te2(PO4)6
_chemical_formula_sum   'Mn3 Cr9 Te6 P18 O72'
_cell_volume   1430.69065346
_cell_formula_units_Z   3
loop_
 _symmetry_equiv_pos_site_id
 _symmetry_equiv_pos_as_xyz
  1  'x, y, z'
loop_
 _atom_site_type_symbol
 _atom_site_label
 _atom_site_symmetry_multiplicity
 _atom_site_fract_x
 _atom_site_fract_y
 _atom_site_fract_z
 _atom_site_occupancy
  Mn  Mn0  1  0.00000000  0.00000000  0.15511200  1
  Mn  Mn1  1  0.66666667  0.33333333  0.48844533  1
  Mn  Mn2  1  0.33333333  0.66666667  0.82177867  1
  Cr  Cr3  1  0.66666667  0.33333333  0.18843733  1
  Cr  Cr4  1  0.33333333  0.66666667  0.31368667  1
  Cr  Cr5  1  0.33333333  0.66666667  0.01881767  1
  Cr  Cr6  1  0.33333333  0.66666667  0.52177067  1
  Cr  Cr7  1  0.00000000  0.00000000  0.64702000  1
  Cr  Cr8  1  0.00000000  0.00000000  0.35215100  1
  Cr  Cr9  1  0.00000000  0.00000000  0.85510400  1
  Cr  Cr10  1  0.66666667  0.33333333  0.98035333  1
  Cr  Cr11  1  0.66666667  0.33333333  0.68548433  1
  Te  Te12  1  0.00000000  0.00000000  0.00885200  1
  Te  Te13  1  0.33333333  0.66666667  0.16939167  1
  Te  Te14  1  0.66666667  0.33333333  0.34218533  1
  Te  Te15  1  0.00000000  0.00000000  0.50272500  1
  Te  Te16  1  0.33333333  0.66666667  0.67551867  1
  Te  Te17  1  0.66666667  0.33333333  0.83605833  1
  P  P18  1  0.70418533  0.70310467  0.25066767  1
  P  P19  1  0.29689533  0.00108067  0.25066767  1
  P  P20  1  0.99891933  0.29581467  0.25066767  1
  P  P21  1  0.66328933  0.04402267  0.08138767  1
  P  P22  1  0.38073333  0.33671067  0.08138767  1
  P  P23  1  0.95597733  0.61926667  0.08138767  1
  P  P24  1  0.37085200  0.03643800  0.58400100  1
  P  P25  1  0.96356200  0.33441400  0.58400100  1
  P  P26  1  0.66558600  0.62914800  0.58400100  1
  P  P27  1  0.32995600  0.37735600  0.41472100  1
  P  P28  1  0.04740000  0.67004400  0.41472100  1
  P  P29  1  0.62264400  0.95260000  0.41472100  1
  P  P30  1  0.03751867  0.36977133  0.91733433  1
  P  P31  1  0.63022867  0.66774733  0.91733433  1
  P  P32  1  0.33225267  0.96248133  0.91733433  1
  P  P33  1  0.99662267  0.71068933  0.74805433  1
  P  P34  1  0.71406667  0.00337733  0.74805433  1
  P  P35  1  0.28931067  0.28593333  0.74805433  1
  O  O36  1  0.86109500  0.52897200  0.02333900  1
  O  O37  1  0.66787700  0.13890500  0.02333900  1
  O  O38  1  0.67834167  0.50965333  0.25387233  1
  O  O39  1  0.47102800  0.33212300  0.02333900  1
  O  O40  1  0.50864633  0.67530267  0.25190467  1
  O  O41  1  0.77916533  0.79012867  0.19027267  1
  O  O42  1  0.49034667  0.16868833  0.25387233  1
  O  O43  1  0.32469733  0.83334367  0.25190467  1
  O  O44  1  0.16665633  0.49135367  0.25190467  1
  O  O45  1  0.66633367  0.13461533  0.14083933  1
  O  O46  1  0.83447767  0.01705733  0.07638833  1
  O  O47  1  0.46828167  0.33366633  0.14083933  1
  O  O48  1  0.20987133  0.98903667  0.19027267  1
  O  O49  1  0.83131167  0.32165833  0.25387233  1
  O  O50  1  0.01096333  0.22083467  0.19027267  1
  O  O51  1  0.49728800  0.85079900  0.08309200  1
  O  O52  1  0.35351100  0.50271200  0.08309200  1
  O  O53  1  0.18257967  0.16552233  0.07638833  1
  O  O54  1  0.86538467  0.53171833  0.14083933  1
  O  O55  1  0.14920100  0.64648900  0.08309200  1
  O  O56  1  0.20282267  0.01048233  0.30791533  1
  O  O57  1  0.98294267  0.81742033  0.07638833  1
  O  O58  1  0.98951767  0.19234033  0.30791533  1
  O  O59  1  0.80765967  0.79717733  0.30791533  1
  O  O60  1  0.52776167  0.86230533  0.35667233  1
  O  O61  1  0.33454367  0.47223833  0.35667233  1
  O  O62  1  0.34500833  0.84298667  0.58720567  1
  O  O63  1  0.13769467  0.66545633  0.35667233  1
  O  O64  1  0.17531300  0.00863600  0.58523800  1
  O  O65  1  0.44583200  0.12346200  0.52360600  1
  O  O66  1  0.15701333  0.50202167  0.58720567  1
  O  O67  1  0.99136400  0.16667700  0.58523800  1
  O  O68  1  0.83332300  0.82468700  0.58523800  1
  O  O69  1  0.33300033  0.46794867  0.47417267  1
  O  O70  1  0.50114433  0.35039067  0.40972167  1
  O  O71  1  0.13494833  0.66699967  0.47417267  1
  O  O72  1  0.87653800  0.32237000  0.52360600  1
  O  O73  1  0.49797833  0.65499167  0.58720567  1
  O  O74  1  0.67763000  0.55416800  0.52360600  1
  O  O75  1  0.16395467  0.18413233  0.41642533  1
  O  O76  1  0.02017767  0.83604533  0.41642533  1
  O  O77  1  0.84924633  0.49885567  0.40972167  1
  O  O78  1  0.53205133  0.86505167  0.47417267  1
  O  O79  1  0.81586767  0.97982233  0.41642533  1
  O  O80  1  0.86948933  0.34381567  0.64124867  1
  O  O81  1  0.64960933  0.15075367  0.40972167  1
  O  O82  1  0.65618433  0.52567367  0.64124867  1
  O  O83  1  0.47432633  0.13051067  0.64124867  1
  O  O84  1  0.19442833  0.19563867  0.69000567  1
  O  O85  1  0.00121033  0.80557167  0.69000567  1
  O  O86  1  0.01167500  0.17632000  0.92053900  1
  O  O87  1  0.80436133  0.99878967  0.69000567  1
  O  O88  1  0.84197967  0.34196933  0.91857133  1
  O  O89  1  0.11249867  0.45679533  0.85693933  1
  O  O90  1  0.82368000  0.83535500  0.92053900  1
  O  O91  1  0.65803067  0.50001033  0.91857133  1
  O  O92  1  0.49998967  0.15802033  0.91857133  1
  O  O93  1  0.99966700  0.80128200  0.80750600  1
  O  O94  1  0.16781100  0.68372400  0.74305500  1
  O  O95  1  0.80161500  0.00033300  0.80750600  1
  O  O96  1  0.54320467  0.65570333  0.85693933  1
  O  O97  1  0.16464500  0.98832500  0.92053900  1
  O  O98  1  0.34429667  0.88750133  0.85693933  1
  O  O99  1  0.83062133  0.51746567  0.74975867  1
  O  O100  1  0.68684433  0.16937867  0.74975867  1
  O  O101  1  0.51591300  0.83218900  0.74305500  1
  O  O102  1  0.19871800  0.19838500  0.80750600  1
  O  O103  1  0.48253433  0.31315567  0.74975867  1
  O  O104  1  0.53615600  0.67714900  0.97458200  1
  O  O105  1  0.31627600  0.48408700  0.74305500  1
  O  O106  1  0.32285100  0.85900700  0.97458200  1
  O  O107  1  0.14099300  0.46384400  0.97458200  1
