# generated using pymatgen
data_Li4V3Ni3(SbO8)2
_symmetry_space_group_name_H-M   'P 1'
_cell_length_a   10.33485400
_cell_length_b   5.92807400
_cell_length_c   9.69085064
_cell_angle_alpha   90.00000000
_cell_angle_beta   90.56287737
_cell_angle_gamma   90.00000000
_symmetry_Int_Tables_number   1
_chemical_formula_structural   Li4V3Ni3(SbO8)2
_chemical_formula_sum   'Li8 V6 Ni6 Sb4 O32'
_cell_volume   593.68886613
_cell_formula_units_Z   2
loop_
 _symmetry_equiv_pos_site_id
 _symmetry_equiv_pos_as_xyz
  1  'x, y, z'
loop_
 _atom_site_type_symbol
 _atom_site_label
 _atom_site_symmetry_multiplicity
 _atom_site_fract_x
 _atom_site_fract_y
 _atom_site_fract_z
 _atom_site_occupancy
  Li  Li0  1  0.66159600  0.00000000  0.89219200  1
  Li  Li1  1  0.99743200  0.00000000  0.98415100  1
  Li  Li2  1  0.50115800  0.50000000  0.49731400  1
  Li  Li3  1  0.83102200  0.50000000  0.40600200  1
  Li  Li4  1  0.16159600  0.50000000  0.89219200  1
  Li  Li5  1  0.49743200  0.50000000  0.98415100  1
  Li  Li6  1  0.00115800  0.00000000  0.49731400  1
  Li  Li7  1  0.33102200  0.00000000  0.40600200  1
  V  V8  1  0.58780950  0.24452050  0.21676400  1
  V  V9  1  0.58780950  0.75547950  0.21676400  1
  V  V10  1  0.67448000  0.50000000  0.72048600  1
  V  V11  1  0.08780950  0.74452050  0.21676400  1
  V  V12  1  0.08780950  0.25547950  0.21676400  1
  V  V13  1  0.17448000  0.00000000  0.72048600  1
  Ni  Ni14  1  0.82987000  0.00000000  0.21076600  1
  Ni  Ni15  1  0.91470400  0.74325100  0.71197900  1
  Ni  Ni16  1  0.91470400  0.25674900  0.71197900  1
  Ni  Ni17  1  0.32987000  0.50000000  0.21076600  1
  Ni  Ni18  1  0.41470400  0.24325100  0.71197900  1
  Ni  Ni19  1  0.41470400  0.75674900  0.71197900  1
  Sb  Sb20  1  0.67078300  0.00000000  0.49548800  1
  Sb  Sb21  1  0.84047200  0.50000000  0.98398000  1
  Sb  Sb22  1  0.17078300  0.50000000  0.49548800  1
  Sb  Sb23  1  0.34047200  0.00000000  0.98398000  1
  O  O24  1  0.58546200  0.24912100  0.59281900  1
  O  O25  1  0.51843900  0.00000000  0.33960200  1
  O  O26  1  0.64870800  0.00000000  0.10826600  1
  O  O27  1  0.50984700  0.50000000  0.30430900  1
  O  O28  1  0.51248300  0.50000000  0.79807000  1
  O  O29  1  0.58546200  0.75087900  0.59281900  1
  O  O30  1  0.73420500  0.22520800  0.34172500  1
  O  O31  1  0.73420500  0.77479200  0.34172500  1
  O  O32  1  0.66735400  0.50000000  0.10190800  1
  O  O33  1  0.83801000  0.00000000  0.58858700  1
  O  O34  1  0.75237400  0.72041100  0.85215500  1
  O  O35  1  0.75237400  0.27958900  0.85215500  1
  O  O36  1  0.81469500  0.50000000  0.60582200  1
  O  O37  1  0.92116350  0.75168250  0.09646200  1
  O  O38  1  0.98184300  0.50000000  0.84821600  1
  O  O39  1  0.92116350  0.24831750  0.09646200  1
  O  O40  1  0.08546200  0.74912100  0.59281900  1
  O  O41  1  0.01843900  0.50000000  0.33960200  1
  O  O42  1  0.14870800  0.50000000  0.10826600  1
  O  O43  1  0.00984700  0.00000000  0.30430900  1
  O  O44  1  0.01248300  0.00000000  0.79807000  1
  O  O45  1  0.08546200  0.25087900  0.59281900  1
  O  O46  1  0.23420500  0.72520800  0.34172500  1
  O  O47  1  0.23420500  0.27479200  0.34172500  1
  O  O48  1  0.16735400  0.00000000  0.10190800  1
  O  O49  1  0.33801000  0.50000000  0.58858700  1
  O  O50  1  0.25237400  0.22041100  0.85215500  1
  O  O51  1  0.25237400  0.77958900  0.85215500  1
  O  O52  1  0.31469500  0.00000000  0.60582200  1
  O  O53  1  0.42116350  0.25168250  0.09646200  1
  O  O54  1  0.48184300  0.00000000  0.84821600  1
  O  O55  1  0.42116350  0.74831750  0.09646200  1
