# generated using pymatgen
data_Li2Fe2NiO6
_symmetry_space_group_name_H-M   'P 1'
_cell_length_a   5.04789600
_cell_length_b   8.74616200
_cell_length_c   10.15864300
_cell_angle_alpha   90.00000000
_cell_angle_beta   90.00000000
_cell_angle_gamma   90.00000000
_symmetry_Int_Tables_number   1
_chemical_formula_structural   Li2Fe2NiO6
_chemical_formula_sum   'Li8 Fe8 Ni4 O24'
_cell_volume   448.50120517
_cell_formula_units_Z   4
loop_
 _symmetry_equiv_pos_site_id
 _symmetry_equiv_pos_as_xyz
  1  'x, y, z'
loop_
 _atom_site_type_symbol
 _atom_site_label
 _atom_site_symmetry_multiplicity
 _atom_site_fract_x
 _atom_site_fract_y
 _atom_site_fract_z
 _atom_site_occupancy
  Li  Li0  1  0.59119600  0.25000000  0.25000000  1
  Li  Li1  1  0.40880400  0.25000000  0.75000000  1
  Li  Li2  1  0.09119600  0.25000000  0.25000000  1
  Li  Li3  1  0.90880400  0.25000000  0.75000000  1
  Li  Li4  1  0.09119600  0.75000000  0.25000000  1
  Li  Li5  1  0.90880400  0.75000000  0.75000000  1
  Li  Li6  1  0.59119600  0.75000000  0.25000000  1
  Li  Li7  1  0.40880400  0.75000000  0.75000000  1
  Fe  Fe8  1  0.50000000  0.16423000  0.00000000  1
  Fe  Fe9  1  0.50000000  0.33577000  0.50000000  1
  Fe  Fe10  1  0.00000000  0.16423000  0.50000000  1
  Fe  Fe11  1  0.00000000  0.33577000  0.00000000  1
  Fe  Fe12  1  0.00000000  0.66423000  0.00000000  1
  Fe  Fe13  1  0.00000000  0.83577000  0.50000000  1
  Fe  Fe14  1  0.50000000  0.66423000  0.50000000  1
  Fe  Fe15  1  0.50000000  0.83577000  0.00000000  1
  Ni  Ni16  1  0.50000000  0.00000000  0.50000000  1
  Ni  Ni17  1  0.00000000  0.00000000  0.00000000  1
  Ni  Ni18  1  0.00000000  0.50000000  0.50000000  1
  Ni  Ni19  1  0.50000000  0.50000000  0.00000000  1
  O  O20  1  0.67413850  0.18153050  0.60456200  1
  O  O21  1  0.82586150  0.31846950  0.39543800  1
  O  O22  1  0.67413850  0.31846950  0.89543800  1
  O  O23  1  0.32586150  0.31846950  0.10456200  1
  O  O24  1  0.35135700  0.00000000  0.09809900  1
  O  O25  1  0.14864300  0.00000000  0.59809900  1
  O  O26  1  0.85135700  0.00000000  0.40190100  1
  O  O27  1  0.32586150  0.18153050  0.39543800  1
  O  O28  1  0.64864300  0.00000000  0.90190100  1
  O  O29  1  0.17413850  0.18153050  0.89543800  1
  O  O30  1  0.82586150  0.18153050  0.10456200  1
  O  O31  1  0.17413850  0.31846950  0.60456200  1
  O  O32  1  0.17413850  0.68153050  0.60456200  1
  O  O33  1  0.32586150  0.81846950  0.39543800  1
  O  O34  1  0.17413850  0.81846950  0.89543800  1
  O  O35  1  0.82586150  0.81846950  0.10456200  1
  O  O36  1  0.85135700  0.50000000  0.09809900  1
  O  O37  1  0.64864300  0.50000000  0.59809900  1
  O  O38  1  0.35135700  0.50000000  0.40190100  1
  O  O39  1  0.82586150  0.68153050  0.39543800  1
  O  O40  1  0.14864300  0.50000000  0.90190100  1
  O  O41  1  0.67413850  0.68153050  0.89543800  1
  O  O42  1  0.32586150  0.68153050  0.10456200  1
  O  O43  1  0.67413850  0.81846950  0.60456200  1
