# generated using pymatgen
data_Li2CoCuO4
_symmetry_space_group_name_H-M   'P 1'
_cell_length_a   4.07873833
_cell_length_b   4.07873833
_cell_length_c   8.53882817
_cell_angle_alpha   90.00000000
_cell_angle_beta   90.00000000
_cell_angle_gamma   90.00000000
_symmetry_Int_Tables_number   1
_chemical_formula_structural   Li2CoCuO4
_chemical_formula_sum   'Li4 Co2 Cu2 O8'
_cell_volume   142.05285338
_cell_formula_units_Z   2
loop_
 _symmetry_equiv_pos_site_id
 _symmetry_equiv_pos_as_xyz
  1  'x, y, z'
loop_
 _atom_site_type_symbol
 _atom_site_label
 _atom_site_symmetry_multiplicity
 _atom_site_fract_x
 _atom_site_fract_y
 _atom_site_fract_z
 _atom_site_occupancy
  Li  Li0  1  0.00000000  0.50000000  0.25000000  1
  Li  Li1  1  0.50000000  0.50000000  0.00000000  1
  Li  Li2  1  0.50000000  0.00000000  0.75000000  1
  Li  Li3  1  0.00000000  0.00000000  0.50000000  1
  Co  Co4  1  0.00000000  0.00000000  0.00000000  1
  Co  Co5  1  0.50000000  0.50000000  0.50000000  1
  Cu  Cu6  1  0.50000000  0.00000000  0.25000000  1
  Cu  Cu7  1  0.00000000  0.50000000  0.75000000  1
  O  O8  1  0.50000000  0.00000000  0.02562700  1
  O  O9  1  0.50000000  0.00000000  0.47437300  1
  O  O10  1  0.00000000  0.00000000  0.23567550  1
  O  O11  1  0.50000000  0.50000000  0.26432450  1
  O  O12  1  0.00000000  0.50000000  0.52562700  1
  O  O13  1  0.00000000  0.50000000  0.97437300  1
  O  O14  1  0.50000000  0.50000000  0.73567550  1
  O  O15  1  0.00000000  0.00000000  0.76432450  1
