# generated using pymatgen
data_Na5Ni9O16
_symmetry_space_group_name_H-M   'P 1'
_cell_length_a   5.17342301
_cell_length_b   11.59234544
_cell_length_c   5.47303154
_cell_angle_alpha   90.00000000
_cell_angle_beta   109.05802698
_cell_angle_gamma   90.00000000
_symmetry_Int_Tables_number   1
_chemical_formula_structural   Na5Ni9O16
_chemical_formula_sum   'Na5 Ni9 O16'
_cell_volume   310.23845155
_cell_formula_units_Z   1
loop_
 _symmetry_equiv_pos_site_id
 _symmetry_equiv_pos_as_xyz
  1  'x, y, z'
loop_
 _atom_site_type_symbol
 _atom_site_label
 _atom_site_symmetry_multiplicity
 _atom_site_fract_x
 _atom_site_fract_y
 _atom_site_fract_z
 _atom_site_occupancy
  Na  Na0  1  0.00000000  0.25631000  0.50000000  1
  Na  Na1  1  0.00000000  0.00000000  0.50000000  1
  Na  Na2  1  0.00000000  0.74369000  0.50000000  1
  Na  Na3  1  0.50000000  0.13562700  0.50000000  1
  Na  Na4  1  0.50000000  0.86437300  0.50000000  1
  Ni  Ni5  1  0.00000000  0.12552000  0.00000000  1
  Ni  Ni6  1  0.00000000  0.62106600  0.00000000  1
  Ni  Ni7  1  0.00000000  0.87448000  0.00000000  1
  Ni  Ni8  1  0.00000000  0.37893400  0.00000000  1
  Ni  Ni9  1  0.50000000  0.74791500  0.00000000  1
  Ni  Ni10  1  0.50000000  0.50000000  0.00000000  1
  Ni  Ni11  1  0.50000000  0.25208500  0.00000000  1
  Ni  Ni12  1  0.50000000  0.00000000  0.00000000  1
  Ni  Ni13  1  0.00000000  0.50000000  0.50000000  1
  O  O14  1  0.73236500  0.87894700  0.19942500  1
  O  O15  1  0.73236500  0.12105300  0.19942500  1
  O  O16  1  0.75868500  0.61416700  0.19864400  1
  O  O17  1  0.75868500  0.38583300  0.19864400  1
  O  O18  1  0.22000000  0.00000000  0.19947800  1
  O  O19  1  0.20871400  0.25359700  0.19127200  1
  O  O20  1  0.20114400  0.50000000  0.20811600  1
  O  O21  1  0.20871400  0.74640300  0.19127200  1
  O  O22  1  0.78000000  0.00000000  0.80052200  1
  O  O23  1  0.79128600  0.25359700  0.80872800  1
  O  O24  1  0.79885600  0.50000000  0.79188400  1
  O  O25  1  0.79128600  0.74640300  0.80872800  1
  O  O26  1  0.24131500  0.61416700  0.80135600  1
  O  O27  1  0.24131500  0.38583300  0.80135600  1
  O  O28  1  0.26763500  0.87894700  0.80057500  1
  O  O29  1  0.26763500  0.12105300  0.80057500  1
