# generated using pymatgen
data_LiMnF5
_symmetry_space_group_name_H-M   'P 1'
_cell_length_a   5.29252653
_cell_length_b   5.61769502
_cell_length_c   7.13515104
_cell_angle_alpha   106.90294047
_cell_angle_beta   95.00865996
_cell_angle_gamma   114.52118220
_symmetry_Int_Tables_number   1
_chemical_formula_structural   LiMnF5
_chemical_formula_sum   'Li2 Mn2 F10'
_cell_volume   179.32131239
_cell_formula_units_Z   2
loop_
 _symmetry_equiv_pos_site_id
 _symmetry_equiv_pos_as_xyz
  1  'x, y, z'
loop_
 _atom_site_type_symbol
 _atom_site_label
 _atom_site_symmetry_multiplicity
 _atom_site_fract_x
 _atom_site_fract_y
 _atom_site_fract_z
 _atom_site_occupancy
  Li  Li0  1  0.43795768  0.05345874  0.23941045  1
  Li  Li1  1  0.56204232  0.94654126  0.76058955  1
  Mn  Mn2  1  0.50000000  0.50000000  0.50000000  1
  Mn  Mn3  1  0.00000000  0.00000000  0.00000000  1
  F  F4  1  0.12355728  0.26425227  0.74401366  1
  F  F5  1  0.34086434  0.71872430  0.44514146  1
  F  F6  1  0.11745481  0.79255781  0.87298998  1
  F  F7  1  0.32904099  0.28349264  0.37036923  1
  F  F8  1  0.38101273  0.17474968  0.99322951  1
  F  F9  1  0.87644272  0.73574773  0.25598634  1
  F  F10  1  0.61898727  0.82525032  0.00677049  1
  F  F11  1  0.67095901  0.71650736  0.62963077  1
  F  F12  1  0.88254519  0.20744219  0.12701002  1
  F  F13  1  0.65913566  0.28127570  0.55485854  1
