# generated using pymatgen
data_Li2CuF5
_symmetry_space_group_name_H-M   'P 1'
_cell_length_a   3.88330400
_cell_length_b   9.95190000
_cell_length_c   9.79763000
_cell_angle_alpha   90.00000000
_cell_angle_beta   90.00000000
_cell_angle_gamma   90.00000000
_symmetry_Int_Tables_number   1
_chemical_formula_structural   Li2CuF5
_chemical_formula_sum   'Li8 Cu4 F20'
_cell_volume   378.64168854
_cell_formula_units_Z   4
loop_
 _symmetry_equiv_pos_site_id
 _symmetry_equiv_pos_as_xyz
  1  'x, y, z'
loop_
 _atom_site_type_symbol
 _atom_site_label
 _atom_site_symmetry_multiplicity
 _atom_site_fract_x
 _atom_site_fract_y
 _atom_site_fract_z
 _atom_site_occupancy
  Li  Li0  1  0.00000000  0.36897900  0.56964500  1
  Li  Li1  1  0.00000000  0.36897900  0.93035500  1
  Li  Li2  1  0.50000000  0.13102100  0.06964500  1
  Li  Li3  1  0.50000000  0.13102100  0.43035500  1
  Li  Li4  1  0.50000000  0.86897900  0.56964500  1
  Li  Li5  1  0.50000000  0.86897900  0.93035500  1
  Li  Li6  1  0.00000000  0.63102100  0.06964500  1
  Li  Li7  1  0.00000000  0.63102100  0.43035500  1
  Cu  Cu8  1  0.00000000  0.30751300  0.25000000  1
  Cu  Cu9  1  0.50000000  0.19248700  0.75000000  1
  Cu  Cu10  1  0.50000000  0.80751300  0.25000000  1
  Cu  Cu11  1  0.00000000  0.69248700  0.75000000  1
  F  F12  1  0.00000000  0.44100200  0.11457100  1
  F  F13  1  0.00000000  0.44100200  0.38542900  1
  F  F14  1  0.00000000  0.22301500  0.75000000  1
  F  F15  1  0.00000000  0.18131200  0.10212400  1
  F  F16  1  0.00000000  0.18131200  0.39787600  1
  F  F17  1  0.50000000  0.31868800  0.60212400  1
  F  F18  1  0.50000000  0.31868800  0.89787600  1
  F  F19  1  0.50000000  0.27698500  0.25000000  1
  F  F20  1  0.50000000  0.05899800  0.61457100  1
  F  F21  1  0.50000000  0.05899800  0.88542900  1
  F  F22  1  0.50000000  0.94100200  0.11457100  1
  F  F23  1  0.50000000  0.94100200  0.38542900  1
  F  F24  1  0.50000000  0.72301500  0.75000000  1
  F  F25  1  0.50000000  0.68131200  0.10212400  1
  F  F26  1  0.50000000  0.68131200  0.39787600  1
  F  F27  1  0.00000000  0.81868800  0.60212400  1
  F  F28  1  0.00000000  0.81868800  0.89787600  1
  F  F29  1  0.00000000  0.77698500  0.25000000  1
  F  F30  1  0.00000000  0.55899800  0.61457100  1
  F  F31  1  0.00000000  0.55899800  0.88542900  1
