# generated using pymatgen
data_Li4Mn3Cr2Sb3O16
_symmetry_space_group_name_H-M   'P 1'
_cell_length_a   10.89103000
_cell_length_b   6.12663200
_cell_length_c   9.74434751
_cell_angle_alpha   90.00000000
_cell_angle_beta   93.00148527
_cell_angle_gamma   90.00000000
_symmetry_Int_Tables_number   1
_chemical_formula_structural   Li4Mn3Cr2Sb3O16
_chemical_formula_sum   'Li8 Mn6 Cr4 Sb6 O32'
_cell_volume   649.30288005
_cell_formula_units_Z   2
loop_
 _symmetry_equiv_pos_site_id
 _symmetry_equiv_pos_as_xyz
  1  'x, y, z'
loop_
 _atom_site_type_symbol
 _atom_site_label
 _atom_site_symmetry_multiplicity
 _atom_site_fract_x
 _atom_site_fract_y
 _atom_site_fract_z
 _atom_site_occupancy
  Li  Li0  1  0.66037800  0.00000000  0.88292700  1
  Li  Li1  1  0.98726100  0.00000000  0.98371900  1
  Li  Li2  1  0.99440600  0.00000000  0.50406500  1
  Li  Li3  1  0.82233100  0.50000000  0.40326000  1
  Li  Li4  1  0.16037800  0.50000000  0.88292700  1
  Li  Li5  1  0.48726100  0.50000000  0.98371900  1
  Li  Li6  1  0.49440600  0.50000000  0.50406500  1
  Li  Li7  1  0.32233100  0.00000000  0.40326000  1
  Mn  Mn8  1  0.83183300  0.00000000  0.21268200  1
  Mn  Mn9  1  0.91740800  0.74392600  0.70992000  1
  Mn  Mn10  1  0.91740800  0.25607400  0.70992000  1
  Mn  Mn11  1  0.33183300  0.50000000  0.21268200  1
  Mn  Mn12  1  0.41740800  0.24392600  0.70992000  1
  Mn  Mn13  1  0.41740800  0.75607400  0.70992000  1
  Cr  Cr14  1  0.67658700  0.00000000  0.49446400  1
  Cr  Cr15  1  0.84696100  0.50000000  0.97534800  1
  Cr  Cr16  1  0.17658700  0.50000000  0.49446400  1
  Cr  Cr17  1  0.34696100  0.00000000  0.97534800  1
  Sb  Sb18  1  0.58422400  0.24712800  0.21500900  1
  Sb  Sb19  1  0.58422400  0.75287200  0.21500900  1
  Sb  Sb20  1  0.67227300  0.50000000  0.71543000  1
  Sb  Sb21  1  0.08422400  0.74712800  0.21500900  1
  Sb  Sb22  1  0.08422400  0.25287200  0.21500900  1
  Sb  Sb23  1  0.17227300  0.00000000  0.71543000  1
  O  O24  1  0.59494800  0.25644500  0.59812200  1
  O  O25  1  0.51753600  0.00000000  0.33642200  1
  O  O26  1  0.65434400  0.00000000  0.10117000  1
  O  O27  1  0.50999500  0.50000000  0.31740800  1
  O  O28  1  0.50806800  0.50000000  0.80154900  1
  O  O29  1  0.59494800  0.74355500  0.59812200  1
  O  O30  1  0.73107100  0.22713100  0.34314200  1
  O  O31  1  0.73107100  0.77286900  0.34314200  1
  O  O32  1  0.65588000  0.50000000  0.10625500  1
  O  O33  1  0.83836900  0.00000000  0.59552500  1
  O  O34  1  0.75407150  0.71444250  0.85111900  1
  O  O35  1  0.75407150  0.28555750  0.85111900  1
  O  O36  1  0.82511900  0.50000000  0.60488700  1
  O  O37  1  0.92963600  0.75128000  0.09681800  1
  O  O38  1  0.97644100  0.50000000  0.84447700  1
  O  O39  1  0.92963600  0.24872000  0.09681800  1
  O  O40  1  0.09494800  0.75644500  0.59812200  1
  O  O41  1  0.01753600  0.50000000  0.33642200  1
  O  O42  1  0.15434400  0.50000000  0.10117000  1
  O  O43  1  0.00999500  0.00000000  0.31740800  1
  O  O44  1  0.00806800  0.00000000  0.80154900  1
  O  O45  1  0.09494800  0.24355500  0.59812200  1
  O  O46  1  0.23107100  0.72713100  0.34314200  1
  O  O47  1  0.23107100  0.27286900  0.34314200  1
  O  O48  1  0.15588000  0.00000000  0.10625500  1
  O  O49  1  0.33836900  0.50000000  0.59552500  1
  O  O50  1  0.25407150  0.21444250  0.85111900  1
  O  O51  1  0.25407150  0.78555750  0.85111900  1
  O  O52  1  0.32511900  0.00000000  0.60488700  1
  O  O53  1  0.42963600  0.25128000  0.09681800  1
  O  O54  1  0.47644100  0.00000000  0.84447700  1
  O  O55  1  0.42963600  0.74872000  0.09681800  1
