# generated using pymatgen
data_TiCr3(PO4)6
_symmetry_space_group_name_H-M   'P 1'
_cell_length_a   8.59787422
_cell_length_b   8.59787422
_cell_length_c   21.83160232
_cell_angle_alpha   90.00000000
_cell_angle_beta   90.00000000
_cell_angle_gamma   120.00000000
_symmetry_Int_Tables_number   1
_chemical_formula_structural   TiCr3(PO4)6
_chemical_formula_sum   'Ti3 Cr9 P18 O72'
_cell_volume   1397.64996575
_cell_formula_units_Z   3
loop_
 _symmetry_equiv_pos_site_id
 _symmetry_equiv_pos_as_xyz
  1  'x, y, z'
loop_
 _atom_site_type_symbol
 _atom_site_label
 _atom_site_symmetry_multiplicity
 _atom_site_fract_x
 _atom_site_fract_y
 _atom_site_fract_z
 _atom_site_occupancy
  Ti  Ti0  1  0.00000000  0.00000000  0.14047600  1
  Ti  Ti1  1  0.66666667  0.33333333  0.47380933  1
  Ti  Ti2  1  0.33333333  0.66666667  0.80714267  1
  Cr  Cr3  1  0.66666667  0.33333333  0.19047233  1
  Cr  Cr4  1  0.33333333  0.66666667  0.30944567  1
  Cr  Cr5  1  0.33333333  0.66666667  0.02378567  1
  Cr  Cr6  1  0.33333333  0.66666667  0.52380567  1
  Cr  Cr7  1  0.00000000  0.00000000  0.64277900  1
  Cr  Cr8  1  0.00000000  0.00000000  0.35711900  1
  Cr  Cr9  1  0.00000000  0.00000000  0.85713900  1
  Cr  Cr10  1  0.66666667  0.33333333  0.97611233  1
  Cr  Cr11  1  0.66666667  0.33333333  0.69045233  1
  P  P12  1  0.99910200  0.28413200  0.25015700  1
  P  P13  1  0.71586800  0.71497000  0.25015700  1
  P  P14  1  0.28503000  0.00089800  0.25015700  1
  P  P15  1  0.38678267  0.33701733  0.08284333  1
  P  P16  1  0.95023467  0.61321733  0.08284333  1
  P  P17  1  0.66298267  0.04976533  0.08284333  1
  P  P18  1  0.66576867  0.61746533  0.58349033  1
  P  P19  1  0.38253467  0.04830333  0.58349033  1
  P  P20  1  0.95169667  0.33423133  0.58349033  1
  P  P21  1  0.05344933  0.67035067  0.41617667  1
  P  P22  1  0.61690133  0.94655067  0.41617667  1
  P  P23  1  0.32964933  0.38309867  0.41617667  1
  P  P24  1  0.33243533  0.95079867  0.91682367  1
  P  P25  1  0.04920133  0.38163667  0.91682367  1
  P  P26  1  0.61836333  0.66756467  0.91682367  1
  P  P27  1  0.72011600  0.00368400  0.74951000  1
  P  P28  1  0.28356800  0.27988400  0.74951000  1
  P  P29  1  0.99631600  0.71643200  0.74951000  1
  O  O30  1  0.69183767  0.16224233  0.02483833  1
  O  O31  1  0.47040467  0.30816233  0.02483833  1
  O  O32  1  0.83266200  0.30726600  0.24451200  1
  O  O33  1  0.83775767  0.52959533  0.02483833  1
  O  O34  1  0.16474233  0.47411367  0.25680767  1
  O  O35  1  0.02891967  0.19857233  0.19275433  1
  O  O36  1  0.69273400  0.52539600  0.24451200  1
  O  O37  1  0.52588633  0.69062867  0.25680767  1
  O  O38  1  0.30937133  0.83525767  0.25680767  1
  O  O39  1  0.49878233  0.36556367  0.14097267  1
  O  O40  1  0.19846833  0.16915667  0.08969867  1
  O  O41  1  0.86678133  0.50121767  0.14097267  1
  O  O42  1  0.80142767  0.83034733  0.19275433  1
  O  O43  1  0.47460400  0.16733800  0.24451200  1
  O  O44  1  0.16965267  0.97108033  0.19275433  1
  O  O45  1  0.36569333  0.50408867  0.07665367  1
  O  O46  1  0.13839533  0.63430667  0.07665367  1
  O  O47  1  0.97068833  0.80153167  0.08969867  1
  O  O48  1  0.63443633  0.13321867  0.14097267  1
  O  O49  1  0.49591133  0.86160467  0.07665367  1
  O  O50  1  0.82889967  0.79864033  0.30825933  1
  O  O51  1  0.83084333  0.02931167  0.08969867  1
  O  O52  1  0.20135967  0.03025933  0.30825933  1
  O  O53  1  0.96974067  0.17110033  0.30825933  1
  O  O54  1  0.35850433  0.49557567  0.35817167  1
  O  O55  1  0.13707133  0.64149567  0.35817167  1
  O  O56  1  0.49932867  0.64059933  0.57784533  1
  O  O57  1  0.50442433  0.86292867  0.35817167  1
  O  O58  1  0.83140900  0.80744700  0.59014100  1
  O  O59  1  0.69558633  0.53190567  0.52608767  1
  O  O60  1  0.35940067  0.85872933  0.57784533  1
  O  O61  1  0.19255300  0.02396200  0.59014100  1
  O  O62  1  0.97603800  0.16859100  0.59014100  1
  O  O63  1  0.16544900  0.69889700  0.47430600  1
  O  O64  1  0.86513500  0.50249000  0.42303200  1
  O  O65  1  0.53344800  0.83455100  0.47430600  1
  O  O66  1  0.46809433  0.16368067  0.52608767  1
  O  O67  1  0.14127067  0.50067133  0.57784533  1
  O  O68  1  0.83631933  0.30441367  0.52608767  1
  O  O69  1  0.03236000  0.83742200  0.40998700  1
  O  O70  1  0.80506200  0.96764000  0.40998700  1
  O  O71  1  0.63735500  0.13486500  0.42303200  1
  O  O72  1  0.30110300  0.46655200  0.47430600  1
  O  O73  1  0.16257800  0.19493800  0.40998700  1
  O  O74  1  0.49556633  0.13197367  0.64159267  1
  O  O75  1  0.49751000  0.36264500  0.42303200  1
  O  O76  1  0.86802633  0.36359267  0.64159267  1
  O  O77  1  0.63640733  0.50443367  0.64159267  1
  O  O78  1  0.02517100  0.82890900  0.69150500  1
  O  O79  1  0.80373800  0.97482900  0.69150500  1
  O  O80  1  0.16599533  0.97393267  0.91117867  1
  O  O81  1  0.17109100  0.19626200  0.69150500  1
  O  O82  1  0.49807567  0.14078033  0.92347433  1
  O  O83  1  0.36225300  0.86523900  0.85942100  1
  O  O84  1  0.02606733  0.19206267  0.91117867  1
  O  O85  1  0.85921967  0.35729533  0.92347433  1
  O  O86  1  0.64270467  0.50192433  0.92347433  1
  O  O87  1  0.83211567  0.03223033  0.80763933  1
  O  O88  1  0.53180167  0.83582333  0.75636533  1
  O  O89  1  0.20011467  0.16788433  0.80763933  1
  O  O90  1  0.13476100  0.49701400  0.85942100  1
  O  O91  1  0.80793733  0.83400467  0.91117867  1
  O  O92  1  0.50298600  0.63774700  0.85942100  1
  O  O93  1  0.69902667  0.17075533  0.74332033  1
  O  O94  1  0.47172867  0.30097333  0.74332033  1
  O  O95  1  0.30402167  0.46819833  0.75636533  1
  O  O96  1  0.96776967  0.79988533  0.80763933  1
  O  O97  1  0.82924467  0.52827133  0.74332033  1
  O  O98  1  0.16223300  0.46530700  0.97492600  1
  O  O99  1  0.16417667  0.69597833  0.75636533  1
  O  O100  1  0.53469300  0.69692600  0.97492600  1
  O  O101  1  0.30307400  0.83776700  0.97492600  1
