# generated using pymatgen
data_Li2Ni3WO8
_symmetry_space_group_name_H-M   'P 1'
_cell_length_a   5.94195240
_cell_length_b   5.94195240
_cell_length_c   14.76327398
_cell_angle_alpha   90.00000000
_cell_angle_beta   90.00000000
_cell_angle_gamma   120.00000000
_symmetry_Int_Tables_number   1
_chemical_formula_structural   Li2Ni3WO8
_chemical_formula_sum   'Li6 Ni9 W3 O24'
_cell_volume   451.41049123
_cell_formula_units_Z   3
loop_
 _symmetry_equiv_pos_site_id
 _symmetry_equiv_pos_as_xyz
  1  'x, y, z'
loop_
 _atom_site_type_symbol
 _atom_site_label
 _atom_site_symmetry_multiplicity
 _atom_site_fract_x
 _atom_site_fract_y
 _atom_site_fract_z
 _atom_site_occupancy
  Li  Li0  1  0.66666667  0.33333333  0.20341750  1
  Li  Li1  1  0.00000000  0.00000000  0.12991583  1
  Li  Li2  1  0.33333333  0.66666667  0.53675083  1
  Li  Li3  1  0.66666667  0.33333333  0.46324917  1
  Li  Li4  1  0.00000000  0.00000000  0.87008417  1
  Li  Li5  1  0.33333333  0.66666667  0.79658250  1
  Ni  Ni6  1  0.16666667  0.33333333  0.33333333  1
  Ni  Ni7  1  0.16666667  0.83333333  0.33333333  1
  Ni  Ni8  1  0.66666667  0.83333333  0.33333333  1
  Ni  Ni9  1  0.83333333  0.66666667  0.66666667  1
  Ni  Ni10  1  0.83333333  0.16666667  0.66666667  1
  Ni  Ni11  1  0.33333333  0.16666667  0.66666667  1
  Ni  Ni12  1  0.50000000  0.00000000  0.00000000  1
  Ni  Ni13  1  0.50000000  0.50000000  0.00000000  1
  Ni  Ni14  1  0.00000000  0.50000000  0.00000000  1
  W  W15  1  0.33333333  0.66666667  0.16666667  1
  W  W16  1  1.00000000  1.00000000  0.50000000  1
  W  W17  1  0.66666667  0.33333333  0.83333333  1
  O  O18  1  0.66666667  0.33333333  0.06324050  1
  O  O19  1  0.00000000  0.00000000  0.27009283  1
  O  O20  1  0.02934383  0.51467192  0.24627817  1
  O  O21  1  0.48532808  0.51467192  0.24627817  1
  O  O22  1  0.48532808  0.97065617  0.24627817  1
  O  O23  1  0.18133858  0.36267717  0.08705517  1
  O  O24  1  0.18133858  0.81866142  0.08705517  1
  O  O25  1  0.63732283  0.81866142  0.08705517  1
  O  O26  1  0.33333333  0.66666667  0.39657383  1
  O  O27  1  0.66666667  0.33333333  0.60342617  1
  O  O28  1  0.69601050  0.84800525  0.57961150  1
  O  O29  1  0.15199475  0.84800525  0.57961150  1
  O  O30  1  0.15199475  0.30398950  0.57961150  1
  O  O31  1  0.84800525  0.69601050  0.42038850  1
  O  O32  1  0.84800525  0.15199475  0.42038850  1
  O  O33  1  0.30398950  0.15199475  0.42038850  1
  O  O34  1  0.00000000  0.00000000  0.72990717  1
  O  O35  1  0.33333333  0.66666667  0.93675950  1
  O  O36  1  0.36267717  0.18133858  0.91294483  1
  O  O37  1  0.81866142  0.18133858  0.91294483  1
  O  O38  1  0.81866142  0.63732283  0.91294483  1
  O  O39  1  0.51467192  0.02934383  0.75372183  1
  O  O40  1  0.51467192  0.48532808  0.75372183  1
  O  O41  1  0.97065617  0.48532808  0.75372183  1
