# generated using pymatgen
data_Li3Sn2(PO4)3
_symmetry_space_group_name_H-M   'P 1'
_cell_length_a   8.45984600
_cell_length_b   5.53310000
_cell_length_c   20.42423955
_cell_angle_alpha   90.00000000
_cell_angle_beta   90.22071744
_cell_angle_gamma   90.00000000
_symmetry_Int_Tables_number   1
_chemical_formula_structural   Li3Sn2(PO4)3
_chemical_formula_sum   'Li12 Sn8 P12 O48'
_cell_volume   956.03468699
_cell_formula_units_Z   4
loop_
 _symmetry_equiv_pos_site_id
 _symmetry_equiv_pos_as_xyz
  1  'x, y, z'
loop_
 _atom_site_type_symbol
 _atom_site_label
 _atom_site_symmetry_multiplicity
 _atom_site_fract_x
 _atom_site_fract_y
 _atom_site_fract_z
 _atom_site_occupancy
  Li  Li0  1  0.99353500  0.00000000  0.35051400  1
  Li  Li1  1  0.66432600  0.00000000  0.58755100  1
  Li  Li2  1  0.66720300  0.00000000  0.27427900  1
  Li  Li3  1  0.33279700  0.00000000  0.72572100  1
  Li  Li4  1  0.00646500  0.00000000  0.64948600  1
  Li  Li5  1  0.33567400  0.00000000  0.41244900  1
  Li  Li6  1  0.49353500  0.50000000  0.35051400  1
  Li  Li7  1  0.16432600  0.50000000  0.58755100  1
  Li  Li8  1  0.16720300  0.50000000  0.27427900  1
  Li  Li9  1  0.83279700  0.50000000  0.72572100  1
  Li  Li10  1  0.50646500  0.50000000  0.64948600  1
  Li  Li11  1  0.83567400  0.50000000  0.41244900  1
  Sn  Sn12  1  0.00000000  0.00000000  0.00000000  1
  Sn  Sn13  1  0.99893100  0.00000000  0.17998800  1
  Sn  Sn14  1  0.00106900  0.00000000  0.82001200  1
  Sn  Sn15  1  0.00000000  0.00000000  0.50000000  1
  Sn  Sn16  1  0.50000000  0.50000000  0.00000000  1
  Sn  Sn17  1  0.49893100  0.50000000  0.17998800  1
  Sn  Sn18  1  0.50106900  0.50000000  0.82001200  1
  Sn  Sn19  1  0.50000000  0.50000000  0.50000000  1
  P  P20  1  0.65285800  0.00000000  0.74478200  1
  P  P21  1  0.64242100  0.00000000  0.10352500  1
  P  P22  1  0.64100000  0.00000000  0.41423200  1
  P  P23  1  0.35757900  0.00000000  0.89647500  1
  P  P24  1  0.35900000  0.00000000  0.58576800  1
  P  P25  1  0.34714200  0.00000000  0.25521800  1
  P  P26  1  0.15285800  0.50000000  0.74478200  1
  P  P27  1  0.14242100  0.50000000  0.10352500  1
  P  P28  1  0.14100000  0.50000000  0.41423200  1
  P  P29  1  0.85757900  0.50000000  0.89647500  1
  P  P30  1  0.85900000  0.50000000  0.58576800  1
  P  P31  1  0.84714200  0.50000000  0.25521800  1
  O  O32  1  0.53240000  0.23254200  0.10660800  1
  O  O33  1  0.53399950  0.22451850  0.74946200  1
  O  O34  1  0.52846100  0.22370200  0.40733900  1
  O  O35  1  0.46760000  0.23254200  0.89339200  1
  O  O36  1  0.47153900  0.22370200  0.59266100  1
  O  O37  1  0.46600050  0.22451850  0.25053800  1
  O  O38  1  0.27111800  0.00000000  0.96126300  1
  O  O39  1  0.23948000  0.00000000  0.64227200  1
  O  O40  1  0.25320500  0.00000000  0.31690500  1
  O  O41  1  0.75120300  0.00000000  0.16603800  1
  O  O42  1  0.72888200  0.00000000  0.03873700  1
  O  O43  1  0.75954700  0.00000000  0.80711000  1
  O  O44  1  0.24045300  0.00000000  0.19289000  1
  O  O45  1  0.24879700  0.00000000  0.83396200  1
  O  O46  1  0.74679500  0.00000000  0.68309500  1
  O  O47  1  0.28241200  0.00000000  0.51703500  1
  O  O48  1  0.71758800  0.00000000  0.48296500  1
  O  O49  1  0.76052000  0.00000000  0.35772800  1
  O  O50  1  0.46760000  0.76745800  0.89339200  1
  O  O51  1  0.46600050  0.77548150  0.25053800  1
  O  O52  1  0.47153900  0.77629800  0.59266100  1
  O  O53  1  0.53240000  0.76745800  0.10660800  1
  O  O54  1  0.52846100  0.77629800  0.40733900  1
  O  O55  1  0.53399950  0.77548150  0.74946200  1
  O  O56  1  0.03240000  0.73254200  0.10660800  1
  O  O57  1  0.03399950  0.72451850  0.74946200  1
  O  O58  1  0.02846100  0.72370200  0.40733900  1
  O  O59  1  0.96760000  0.73254200  0.89339200  1
  O  O60  1  0.97153900  0.72370200  0.59266100  1
  O  O61  1  0.96600050  0.72451850  0.25053800  1
  O  O62  1  0.77111800  0.50000000  0.96126300  1
  O  O63  1  0.73948000  0.50000000  0.64227200  1
  O  O64  1  0.75320500  0.50000000  0.31690500  1
  O  O65  1  0.25120300  0.50000000  0.16603800  1
  O  O66  1  0.22888200  0.50000000  0.03873700  1
  O  O67  1  0.25954700  0.50000000  0.80711000  1
  O  O68  1  0.74045300  0.50000000  0.19289000  1
  O  O69  1  0.74879700  0.50000000  0.83396200  1
  O  O70  1  0.24679500  0.50000000  0.68309500  1
  O  O71  1  0.78241200  0.50000000  0.51703500  1
  O  O72  1  0.21758800  0.50000000  0.48296500  1
  O  O73  1  0.26052000  0.50000000  0.35772800  1
  O  O74  1  0.96760000  0.26745800  0.89339200  1
  O  O75  1  0.96600050  0.27548150  0.25053800  1
  O  O76  1  0.97153900  0.27629800  0.59266100  1
  O  O77  1  0.03240000  0.26745800  0.10660800  1
  O  O78  1  0.02846100  0.27629800  0.40733900  1
  O  O79  1  0.03399950  0.27548150  0.74946200  1
