# generated using pymatgen
data_Li3FeNi3O8
_symmetry_space_group_name_H-M   'P 1'
_cell_length_a   10.11254800
_cell_length_b   5.77875800
_cell_length_c   5.85109048
_cell_angle_alpha   90.00000000
_cell_angle_beta   123.98034441
_cell_angle_gamma   90.00000000
_symmetry_Int_Tables_number   1
_chemical_formula_structural   Li3FeNi3O8
_chemical_formula_sum   'Li6 Fe2 Ni6 O16'
_cell_volume   283.53494152
_cell_formula_units_Z   2
loop_
 _symmetry_equiv_pos_site_id
 _symmetry_equiv_pos_as_xyz
  1  'x, y, z'
loop_
 _atom_site_type_symbol
 _atom_site_label
 _atom_site_symmetry_multiplicity
 _atom_site_fract_x
 _atom_site_fract_y
 _atom_site_fract_z
 _atom_site_occupancy
  Li  Li0  1  0.25000000  0.75000000  0.50000000  1
  Li  Li1  1  0.00000000  0.00000000  0.50000000  1
  Li  Li2  1  0.25000000  0.25000000  0.50000000  1
  Li  Li3  1  0.75000000  0.25000000  0.50000000  1
  Li  Li4  1  0.50000000  0.50000000  0.50000000  1
  Li  Li5  1  0.75000000  0.75000000  0.50000000  1
  Fe  Fe6  1  0.00000000  0.50000000  0.00000000  1
  Fe  Fe7  1  0.50000000  0.00000000  0.00000000  1
  Ni  Ni8  1  0.25000000  0.75000000  0.00000000  1
  Ni  Ni9  1  0.25000000  0.25000000  0.00000000  1
  Ni  Ni10  1  0.00000000  0.00000000  0.00000000  1
  Ni  Ni11  1  0.75000000  0.25000000  0.00000000  1
  Ni  Ni12  1  0.75000000  0.75000000  0.00000000  1
  Ni  Ni13  1  0.50000000  0.50000000  0.00000000  1
  O  O14  1  0.00178400  0.76563200  0.77846900  1
  O  O15  1  0.26180700  0.00000000  0.77704900  1
  O  O16  1  0.27620400  0.50000000  0.79588300  1
  O  O17  1  0.00178400  0.23436800  0.77846900  1
  O  O18  1  0.49821600  0.26563200  0.22153100  1
  O  O19  1  0.22379600  0.00000000  0.20411700  1
  O  O20  1  0.23819300  0.50000000  0.22295100  1
  O  O21  1  0.49821600  0.73436800  0.22153100  1
  O  O22  1  0.50178400  0.26563200  0.77846900  1
  O  O23  1  0.76180700  0.50000000  0.77704900  1
  O  O24  1  0.77620400  0.00000000  0.79588300  1
  O  O25  1  0.50178400  0.73436800  0.77846900  1
  O  O26  1  0.99821600  0.76563200  0.22153100  1
  O  O27  1  0.72379600  0.50000000  0.20411700  1
  O  O28  1  0.73819300  0.00000000  0.22295100  1
  O  O29  1  0.99821600  0.23436800  0.22153100  1
