# generated using pymatgen
data_Li2MnNi3O8
_symmetry_space_group_name_H-M   'P 1'
_cell_length_a   9.94824314
_cell_length_b   5.73765597
_cell_length_c   5.88906446
_cell_angle_alpha   90.00000000
_cell_angle_beta   124.57144594
_cell_angle_gamma   90.00000000
_symmetry_Int_Tables_number   1
_chemical_formula_structural   Li2MnNi3O8
_chemical_formula_sum   'Li4 Mn2 Ni6 O16'
_cell_volume   276.78861578
_cell_formula_units_Z   2
loop_
 _symmetry_equiv_pos_site_id
 _symmetry_equiv_pos_as_xyz
  1  'x, y, z'
loop_
 _atom_site_type_symbol
 _atom_site_label
 _atom_site_symmetry_multiplicity
 _atom_site_fract_x
 _atom_site_fract_y
 _atom_site_fract_z
 _atom_site_occupancy
  Li  Li0  1  0.50000000  0.00000000  0.50000000  1
  Li  Li1  1  0.50000000  0.50000000  0.50000000  1
  Li  Li2  1  0.00000000  0.50000000  0.50000000  1
  Li  Li3  1  0.00000000  0.00000000  0.50000000  1
  Mn  Mn4  1  0.50000000  0.00000000  0.00000000  1
  Mn  Mn5  1  0.00000000  0.50000000  0.00000000  1
  Ni  Ni6  1  0.50000000  0.50000000  0.00000000  1
  Ni  Ni7  1  0.75000000  0.25000000  0.00000000  1
  Ni  Ni8  1  0.75000000  0.75000000  0.00000000  1
  Ni  Ni9  1  0.00000000  0.00000000  0.00000000  1
  Ni  Ni10  1  0.25000000  0.75000000  0.00000000  1
  Ni  Ni11  1  0.25000000  0.25000000  0.00000000  1
  O  O12  1  0.24683850  0.00000000  0.20437300  1
  O  O13  1  0.25316150  0.50000000  0.79562700  1
  O  O14  1  0.23962700  0.50000000  0.20259500  1
  O  O15  1  0.26037300  0.00000000  0.79740500  1
  O  O16  1  0.97961100  0.73722800  0.21334000  1
  O  O17  1  0.97961100  0.26277200  0.21334000  1
  O  O18  1  0.52038900  0.23722800  0.78666000  1
  O  O19  1  0.52038900  0.76277200  0.78666000  1
  O  O20  1  0.74683850  0.50000000  0.20437300  1
  O  O21  1  0.75316150  0.00000000  0.79562700  1
  O  O22  1  0.73962700  0.00000000  0.20259500  1
  O  O23  1  0.76037300  0.50000000  0.79740500  1
  O  O24  1  0.47961100  0.23722800  0.21334000  1
  O  O25  1  0.47961100  0.76277200  0.21334000  1
  O  O26  1  0.02038900  0.73722800  0.78666000  1
  O  O27  1  0.02038900  0.26277200  0.78666000  1
