# generated using pymatgen
data_V2O3F
_symmetry_space_group_name_H-M   'P 1'
_cell_length_a   6.41121600
_cell_length_b   6.94343000
_cell_length_c   15.05490700
_cell_angle_alpha   90.00000000
_cell_angle_beta   90.00000000
_cell_angle_gamma   90.00000000
_symmetry_Int_Tables_number   1
_chemical_formula_structural   V2O3F
_chemical_formula_sum   'V20 O30 F10'
_cell_volume   670.18167331
_cell_formula_units_Z   10
loop_
 _symmetry_equiv_pos_site_id
 _symmetry_equiv_pos_as_xyz
  1  'x, y, z'
loop_
 _atom_site_type_symbol
 _atom_site_label
 _atom_site_symmetry_multiplicity
 _atom_site_fract_x
 _atom_site_fract_y
 _atom_site_fract_z
 _atom_site_occupancy
  V  V0  1  0.50000000  0.49939000  0.60004700  1
  V  V1  1  0.50000000  0.49939000  0.39995300  1
  V  V2  1  0.50000000  0.49764800  0.19977600  1
  V  V3  1  0.50000000  0.49764800  0.80022400  1
  V  V4  1  0.50000000  0.49310600  0.00000000  1
  V  V5  1  0.50000000  0.94967000  0.30031600  1
  V  V6  1  0.50000000  0.94967000  0.69968400  1
  V  V7  1  0.50000000  0.04361000  0.89945900  1
  V  V8  1  0.50000000  0.04361000  0.10054100  1
  V  V9  1  0.50000000  0.04824300  0.50000000  1
  V  V10  1  0.00000000  0.99939000  0.60004700  1
  V  V11  1  0.00000000  0.99939000  0.39995300  1
  V  V12  1  0.00000000  0.99764800  0.19977600  1
  V  V13  1  0.00000000  0.99764800  0.80022400  1
  V  V14  1  0.00000000  0.99310600  0.00000000  1
  V  V15  1  0.00000000  0.44967000  0.30031600  1
  V  V16  1  0.00000000  0.44967000  0.69968400  1
  V  V17  1  0.00000000  0.54361000  0.89945900  1
  V  V18  1  0.00000000  0.54361000  0.10054100  1
  V  V19  1  0.00000000  0.54824300  0.50000000  1
  O  O20  1  0.50000000  0.30104900  0.10030500  1
  O  O21  1  0.50000000  0.30104900  0.89969500  1
  O  O22  1  0.50000000  0.30513600  0.50000000  1
  O  O23  1  0.30792500  0.99708900  0.20036300  1
  O  O24  1  0.30830700  0.99940900  0.40007300  1
  O  O25  1  0.30830700  0.99940900  0.59992700  1
  O  O26  1  0.30792500  0.99708900  0.79963700  1
  O  O27  1  0.30723850  0.00304250  0.00000000  1
  O  O28  1  0.69207500  0.99708900  0.20036300  1
  O  O29  1  0.69169300  0.99940900  0.40007300  1
  O  O30  1  0.69169300  0.99940900  0.59992700  1
  O  O31  1  0.69207500  0.99708900  0.79963700  1
  O  O32  1  0.69276150  0.00304250  0.00000000  1
  O  O33  1  0.50000000  0.69313800  0.29981000  1
  O  O34  1  0.50000000  0.69313800  0.70019000  1
  O  O35  1  0.00000000  0.80104900  0.10030500  1
  O  O36  1  0.00000000  0.80104900  0.89969500  1
  O  O37  1  0.00000000  0.80513600  0.50000000  1
  O  O38  1  0.80792500  0.49708900  0.20036300  1
  O  O39  1  0.80830700  0.49940900  0.40007300  1
  O  O40  1  0.80830700  0.49940900  0.59992700  1
  O  O41  1  0.80792500  0.49708900  0.79963700  1
  O  O42  1  0.80723850  0.50304250  0.00000000  1
  O  O43  1  0.19207500  0.49708900  0.20036300  1
  O  O44  1  0.19169300  0.49940900  0.40007300  1
  O  O45  1  0.19169300  0.49940900  0.59992700  1
  O  O46  1  0.19207500  0.49708900  0.79963700  1
  O  O47  1  0.19276150  0.50304250  0.00000000  1
  O  O48  1  0.00000000  0.19313800  0.29981000  1
  O  O49  1  0.00000000  0.19313800  0.70019000  1
  F  F50  1  0.50000000  0.30033600  0.29987000  1
  F  F51  1  0.50000000  0.30033600  0.70013000  1
  F  F52  1  0.50000000  0.69810100  0.50000000  1
  F  F53  1  0.50000000  0.69682800  0.09951100  1
  F  F54  1  0.50000000  0.69682800  0.90048900  1
  F  F55  1  0.00000000  0.80033600  0.29987000  1
  F  F56  1  0.00000000  0.80033600  0.70013000  1
  F  F57  1  0.00000000  0.19810100  0.50000000  1
  F  F58  1  0.00000000  0.19682800  0.09951100  1
  F  F59  1  0.00000000  0.19682800  0.90048900  1
