# generated using pymatgen
data_LiFeCo3O8
_symmetry_space_group_name_H-M   'P 1'
_cell_length_a   5.76781217
_cell_length_b   5.76781217
_cell_length_c   14.58768335
_cell_angle_alpha   90.00000000
_cell_angle_beta   90.00000000
_cell_angle_gamma   120.00000000
_symmetry_Int_Tables_number   1
_chemical_formula_structural   LiFeCo3O8
_chemical_formula_sum   'Li3 Fe3 Co9 O24'
_cell_volume   420.28043968
_cell_formula_units_Z   3
loop_
 _symmetry_equiv_pos_site_id
 _symmetry_equiv_pos_as_xyz
  1  'x, y, z'
loop_
 _atom_site_type_symbol
 _atom_site_label
 _atom_site_symmetry_multiplicity
 _atom_site_fract_x
 _atom_site_fract_y
 _atom_site_fract_z
 _atom_site_occupancy
  Li  Li0  1  0.33333333  0.66666667  0.16666667  1
  Li  Li1  1  1.00000000  1.00000000  0.50000000  1
  Li  Li2  1  0.66666667  0.33333333  0.83333333  1
  Fe  Fe3  1  0.00000000  0.00000000  0.00000000  1
  Fe  Fe4  1  0.66666667  0.33333333  0.33333333  1
  Fe  Fe5  1  0.33333333  0.66666667  0.66666667  1
  Co  Co6  1  0.50000000  0.00000000  0.00000000  1
  Co  Co7  1  0.00000000  0.50000000  0.00000000  1
  Co  Co8  1  0.50000000  0.50000000  0.00000000  1
  Co  Co9  1  0.16666667  0.33333333  0.33333333  1
  Co  Co10  1  0.66666667  0.83333333  0.33333333  1
  Co  Co11  1  0.16666667  0.83333333  0.33333333  1
  Co  Co12  1  0.83333333  0.66666667  0.66666667  1
  Co  Co13  1  0.33333333  0.16666667  0.66666667  1
  Co  Co14  1  0.83333333  0.16666667  0.66666667  1
  O  O15  1  0.17682033  0.82317967  0.06731167  1
  O  O16  1  0.00000000  0.00000000  0.26791300  1
  O  O17  1  0.64635933  0.82317967  0.06731167  1
  O  O18  1  0.17682033  0.35364067  0.06731167  1
  O  O19  1  0.48984633  0.97969267  0.26602167  1
  O  O20  1  0.02030733  0.51015367  0.26602167  1
  O  O21  1  0.66666667  0.33333333  0.06542033  1
  O  O22  1  0.48984633  0.51015367  0.26602167  1
  O  O23  1  0.84348700  0.15651300  0.40064500  1
  O  O24  1  0.66666667  0.33333333  0.60124633  1
  O  O25  1  0.31302600  0.15651300  0.40064500  1
  O  O26  1  0.84348700  0.68697400  0.40064500  1
  O  O27  1  0.15651300  0.31302600  0.59935500  1
  O  O28  1  0.68697400  0.84348700  0.59935500  1
  O  O29  1  0.33333333  0.66666667  0.39875367  1
  O  O30  1  0.15651300  0.84348700  0.59935500  1
  O  O31  1  0.51015367  0.48984633  0.73397833  1
  O  O32  1  0.33333333  0.66666667  0.93457967  1
  O  O33  1  0.97969267  0.48984633  0.73397833  1
  O  O34  1  0.51015367  0.02030733  0.73397833  1
  O  O35  1  0.82317967  0.64635933  0.93268833  1
  O  O36  1  0.35364067  0.17682033  0.93268833  1
  O  O37  1  0.00000000  0.00000000  0.73208700  1
  O  O38  1  0.82317967  0.17682033  0.93268833  1
