# generated using pymatgen
data_Li2VCr(P2O7)2
_symmetry_space_group_name_H-M   'P 1'
_cell_length_a   7.02351800
_cell_length_b   8.22076000
_cell_length_c   9.73732556
_cell_angle_alpha   90.00000000
_cell_angle_beta   108.73316908
_cell_angle_gamma   90.00000000
_symmetry_Int_Tables_number   1
_chemical_formula_structural   Li2VCr(P2O7)2
_chemical_formula_sum   'Li4 V2 Cr2 P8 O28'
_cell_volume   532.43620643
_cell_formula_units_Z   2
loop_
 _symmetry_equiv_pos_site_id
 _symmetry_equiv_pos_as_xyz
  1  'x, y, z'
loop_
 _atom_site_type_symbol
 _atom_site_label
 _atom_site_symmetry_multiplicity
 _atom_site_fract_x
 _atom_site_fract_y
 _atom_site_fract_z
 _atom_site_occupancy
  Li  Li0  1  0.67671900  0.13690100  0.08852200  1
  Li  Li1  1  0.32284000  0.63694500  0.41189500  1
  Li  Li2  1  0.67716000  0.13694500  0.58810500  1
  Li  Li3  1  0.32328100  0.63690100  0.91147800  1
  V  V4  1  0.27113800  0.00051200  0.39190500  1
  V  V5  1  0.72886200  0.50051200  0.60809500  1
  Cr  Cr6  1  0.72799400  0.50000000  0.10705900  1
  Cr  Cr7  1  0.27200600  0.00000000  0.89294100  1
  P  P8  1  0.52293900  0.81939300  0.19956100  1
  P  P9  1  0.08559300  0.21694400  0.10546300  1
  P  P10  1  0.91414300  0.71524700  0.39315400  1
  P  P11  1  0.47873500  0.32026500  0.29950600  1
  P  P12  1  0.52126500  0.82026500  0.70049400  1
  P  P13  1  0.08585700  0.21524700  0.60684600  1
  P  P14  1  0.91440700  0.71694400  0.89453700  1
  P  P15  1  0.47706100  0.31939300  0.80043900  1
  O  O16  1  0.85437000  0.67673100  0.02697100  1
  O  O17  1  0.88395500  0.30684800  0.06543400  1
  O  O18  1  0.48157000  0.96203100  0.09289400  1
  O  O19  1  0.50925500  0.65370400  0.12385000  1
  O  O20  1  0.60666800  0.32163500  0.19853100  1
  O  O21  1  0.91618900  0.56521500  0.30017000  1
  O  O22  1  0.75345100  0.84822200  0.29732100  1
  O  O23  1  0.24645600  0.34826000  0.20271600  1
  O  O24  1  0.08048700  0.06634800  0.19791100  1
  O  O25  1  0.39429500  0.82028500  0.30052200  1
  O  O26  1  0.49493500  0.15586500  0.37601000  1
  O  O27  1  0.51768300  0.46290200  0.40669900  1
  O  O28  1  0.85126100  0.67680800  0.52530500  1
  O  O29  1  0.88462300  0.30336200  0.56491700  1
  O  O30  1  0.11537700  0.80336200  0.43508300  1
  O  O31  1  0.14873900  0.17680800  0.47469500  1
  O  O32  1  0.48231700  0.96290200  0.59330100  1
  O  O33  1  0.50506500  0.65586500  0.62399000  1
  O  O34  1  0.60570500  0.32028500  0.69947800  1
  O  O35  1  0.91951300  0.56634800  0.80208900  1
  O  O36  1  0.75354400  0.84826000  0.79728400  1
  O  O37  1  0.24654900  0.34822200  0.70267900  1
  O  O38  1  0.08381100  0.06521500  0.69983000  1
  O  O39  1  0.39333200  0.82163500  0.80146900  1
  O  O40  1  0.49074500  0.15370400  0.87615000  1
  O  O41  1  0.51843000  0.46203100  0.90710600  1
  O  O42  1  0.11604500  0.80684800  0.93456600  1
  O  O43  1  0.14563000  0.17673100  0.97302900  1
