# generated using pymatgen
data_Mn5SnO12
_symmetry_space_group_name_H-M   'P 1'
_cell_length_a   5.16144000
_cell_length_b   8.94592600
_cell_length_c   10.56085996
_cell_angle_alpha   90.00000000
_cell_angle_beta   90.04964688
_cell_angle_gamma   90.00000000
_symmetry_Int_Tables_number   1
_chemical_formula_structural   Mn5SnO12
_chemical_formula_sum   'Mn10 Sn2 O24'
_cell_volume   487.63548952
_cell_formula_units_Z   2
loop_
 _symmetry_equiv_pos_site_id
 _symmetry_equiv_pos_as_xyz
  1  'x, y, z'
loop_
 _atom_site_type_symbol
 _atom_site_label
 _atom_site_symmetry_multiplicity
 _atom_site_fract_x
 _atom_site_fract_y
 _atom_site_fract_z
 _atom_site_occupancy
  Mn  Mn0  1  0.00000000  0.16674700  0.50000000  1
  Mn  Mn1  1  0.50000000  0.16667300  0.00000000  1
  Mn  Mn2  1  0.00000000  0.33332700  0.00000000  1
  Mn  Mn3  1  0.50000000  0.33325300  0.50000000  1
  Mn  Mn4  1  0.50000000  0.00000000  0.50000000  1
  Mn  Mn5  1  0.50000000  0.66674700  0.50000000  1
  Mn  Mn6  1  0.00000000  0.66667300  0.00000000  1
  Mn  Mn7  1  0.50000000  0.83332700  0.00000000  1
  Mn  Mn8  1  0.00000000  0.83325300  0.50000000  1
  Mn  Mn9  1  0.00000000  0.50000000  0.50000000  1
  Sn  Sn10  1  0.00000000  0.00000000  0.00000000  1
  Sn  Sn11  1  0.50000000  0.50000000  0.00000000  1
  O  O12  1  0.17737550  0.17730250  0.09488400  1
  O  O13  1  0.82262450  0.17730250  0.90511600  1
  O  O14  1  0.16651950  0.33337050  0.41160800  1
  O  O15  1  0.66651950  0.16662950  0.41160800  1
  O  O16  1  0.83348050  0.33337050  0.58839200  1
  O  O17  1  0.83366100  0.00000000  0.58846300  1
  O  O18  1  0.33348050  0.16662950  0.58839200  1
  O  O19  1  0.67737550  0.32269750  0.09488400  1
  O  O20  1  0.64555100  0.00000000  0.09489400  1
  O  O21  1  0.32262450  0.32269750  0.90511600  1
  O  O22  1  0.35444900  0.00000000  0.90510600  1
  O  O23  1  0.16633900  0.00000000  0.41153700  1
  O  O24  1  0.67737550  0.67730250  0.09488400  1
  O  O25  1  0.32262450  0.67730250  0.90511600  1
  O  O26  1  0.66651950  0.83337050  0.41160800  1
  O  O27  1  0.16651950  0.66662950  0.41160800  1
  O  O28  1  0.33348050  0.83337050  0.58839200  1
  O  O29  1  0.33366100  0.50000000  0.58846300  1
  O  O30  1  0.83348050  0.66662950  0.58839200  1
  O  O31  1  0.17737550  0.82269750  0.09488400  1
  O  O32  1  0.14555100  0.50000000  0.09489400  1
  O  O33  1  0.82262450  0.82269750  0.90511600  1
  O  O34  1  0.85444900  0.50000000  0.90510600  1
  O  O35  1  0.66633900  0.50000000  0.41153700  1
