# generated using pymatgen
data_Ti3CrSb2(PO4)6
_symmetry_space_group_name_H-M   'P 1'
_cell_length_a   8.64719193
_cell_length_b   8.64719193
_cell_length_c   21.92527449
_cell_angle_alpha   90.00000000
_cell_angle_beta   90.00000000
_cell_angle_gamma   120.00000000
_symmetry_Int_Tables_number   1
_chemical_formula_structural   Ti3CrSb2(PO4)6
_chemical_formula_sum   'Ti9 Cr3 Sb6 P18 O72'
_cell_volume   1419.79573827
_cell_formula_units_Z   3
loop_
 _symmetry_equiv_pos_site_id
 _symmetry_equiv_pos_as_xyz
  1  'x, y, z'
loop_
 _atom_site_type_symbol
 _atom_site_label
 _atom_site_symmetry_multiplicity
 _atom_site_fract_x
 _atom_site_fract_y
 _atom_site_fract_z
 _atom_site_occupancy
  Ti  Ti0  1  0.00000000  0.00000000  0.14760000  1
  Ti  Ti1  1  0.33333333  0.66666667  0.01823567  1
  Ti  Ti2  1  0.33333333  0.66666667  0.31414367  1
  Ti  Ti3  1  0.66666667  0.33333333  0.48093333  1
  Ti  Ti4  1  0.00000000  0.00000000  0.35156900  1
  Ti  Ti5  1  0.00000000  0.00000000  0.64747700  1
  Ti  Ti6  1  0.33333333  0.66666667  0.81426667  1
  Ti  Ti7  1  0.66666667  0.33333333  0.68490233  1
  Ti  Ti8  1  0.66666667  0.33333333  0.98081033  1
  Cr  Cr9  1  0.66666667  0.33333333  0.18669933  1
  Cr  Cr10  1  0.33333333  0.66666667  0.52003267  1
  Cr  Cr11  1  0.00000000  0.00000000  0.85336600  1
  Sb  Sb12  1  0.66666667  0.33333333  0.33251133  1
  Sb  Sb13  1  0.33333333  0.66666667  0.16457567  1
  Sb  Sb14  1  0.33333333  0.66666667  0.66584467  1
  Sb  Sb15  1  0.00000000  0.00000000  0.49790900  1
  Sb  Sb16  1  0.00000000  0.00000000  0.99917800  1
  Sb  Sb17  1  0.66666667  0.33333333  0.83124233  1
  P  P18  1  0.37734467  0.04326233  0.08405133  1
  P  P19  1  0.66591767  0.62265533  0.08405133  1
  P  P20  1  0.70892067  0.00011833  0.25000133  1
  P  P21  1  0.99988167  0.70880233  0.25000133  1
  P  P22  1  0.29119767  0.29107933  0.25000133  1
  P  P23  1  0.95673767  0.33408233  0.08405133  1
  P  P24  1  0.04401133  0.37659567  0.41738467  1
  P  P25  1  0.33258433  0.95598867  0.41738467  1
  P  P26  1  0.37558733  0.33345167  0.58333467  1
  P  P27  1  0.66654833  0.04213567  0.58333467  1
  P  P28  1  0.95786433  0.62441267  0.58333467  1
  P  P29  1  0.62340433  0.66741567  0.41738467  1
  P  P30  1  0.71067800  0.70992900  0.75071800  1
  P  P31  1  0.99925100  0.28932200  0.75071800  1
  P  P32  1  0.04225400  0.66678500  0.91666800  1
  P  P33  1  0.33321500  0.37546900  0.91666800  1
  P  P34  1  0.62453100  0.95774600  0.91666800  1
  P  P35  1  0.29007100  0.00074900  0.75071800  1
  O  O36  1  0.19596500  0.19065700  0.30816400  1
  O  O37  1  0.80934300  0.00530800  0.30816400  1
  O  O38  1  0.18484967  0.01953433  0.08207533  1
  O  O39  1  0.99469200  0.80403500  0.30816400  1
  O  O40  1  0.47292833  0.13039467  0.14210567  1
  O  O41  1  0.35262667  0.85016033  0.08308433  1
  O  O42  1  0.83468467  0.81515033  0.08207533  1
  O  O43  1  0.49753367  0.64737333  0.08308433  1
  O  O44  1  0.80302600  0.99428000  0.19173800  1
  O  O45  1  0.14983967  0.50246633  0.08308433  1
  O  O46  1  0.68807667  0.16925633  0.25208433  1
  O  O47  1  0.00572000  0.80874600  0.19173800  1
  O  O48  1  0.65746633  0.52707167  0.14210567  1
  O  O49  1  0.98046567  0.16531533  0.08207533  1
  O  O50  1  0.51907567  0.83144333  0.24963333  1
  O  O51  1  0.86960533  0.34253367  0.14210567  1
  O  O52  1  0.16855667  0.68763233  0.24963333  1
  O  O53  1  0.83074367  0.51882033  0.25208433  1
  O  O54  1  0.31236767  0.48092433  0.24963333  1
  O  O55  1  0.19125400  0.19697400  0.19173800  1
  O  O56  1  0.67285200  0.53113600  0.02469500  1
  O  O57  1  0.48117967  0.31192333  0.25208433  1
  O  O58  1  0.85828400  0.32714800  0.02469500  1
  O  O59  1  0.46886400  0.14171600  0.02469500  1
  O  O60  1  0.86263167  0.52399033  0.64149733  1
  O  O61  1  0.47600967  0.33864133  0.64149733  1
  O  O62  1  0.85151633  0.35286767  0.41540867  1
  O  O63  1  0.66135867  0.13736833  0.64149733  1
  O  O64  1  0.13959500  0.46372800  0.47543900  1
  O  O65  1  0.01929333  0.18349367  0.41641767  1
  O  O66  1  0.50135133  0.14848367  0.41540867  1
  O  O67  1  0.16420033  0.98070667  0.41641767  1
  O  O68  1  0.46969267  0.32761333  0.52507133  1
  O  O69  1  0.81650633  0.83579967  0.41641767  1
  O  O70  1  0.35474333  0.50258967  0.58541767  1
  O  O71  1  0.67238667  0.14207933  0.52507133  1
  O  O72  1  0.32413300  0.86040500  0.47543900  1
  O  O73  1  0.64713233  0.49864867  0.41540867  1
  O  O74  1  0.18574233  0.16477667  0.58296667  1
  O  O75  1  0.53627200  0.67586700  0.47543900  1
  O  O76  1  0.83522333  0.02096567  0.58296667  1
  O  O77  1  0.49741033  0.85215367  0.58541767  1
  O  O78  1  0.97903433  0.81425767  0.58296667  1
  O  O79  1  0.85792067  0.53030733  0.52507133  1
  O  O80  1  0.33951867  0.86446933  0.35802833  1
  O  O81  1  0.14784633  0.64525667  0.58541767  1
  O  O82  1  0.52495067  0.66048133  0.35802833  1
  O  O83  1  0.13553067  0.47504933  0.35802833  1
  O  O84  1  0.52929833  0.85732367  0.97483067  1
  O  O85  1  0.14267633  0.67197467  0.97483067  1
  O  O86  1  0.51818300  0.68620100  0.74874200  1
  O  O87  1  0.32802533  0.47070167  0.97483067  1
  O  O88  1  0.80626167  0.79706133  0.80877233  1
  O  O89  1  0.68596000  0.51682700  0.74975100  1
  O  O90  1  0.16801800  0.48181700  0.74874200  1
  O  O91  1  0.83086700  0.31404000  0.74975100  1
  O  O92  1  0.13635933  0.66094667  0.85840467  1
  O  O93  1  0.48317300  0.16913300  0.74975100  1
  O  O94  1  0.02141000  0.83592300  0.91875100  1
  O  O95  1  0.33905333  0.47541267  0.85840467  1
  O  O96  1  0.99079967  0.19373833  0.80877233  1
  O  O97  1  0.31379900  0.83198200  0.74874200  1
  O  O98  1  0.85240900  0.49811000  0.91630000  1
  O  O99  1  0.20293867  0.00920033  0.80877233  1
  O  O100  1  0.50189000  0.35429900  0.91630000  1
  O  O101  1  0.16407700  0.18548700  0.91875100  1
  O  O102  1  0.64570100  0.14759100  0.91630000  1
  O  O103  1  0.52458733  0.86364067  0.85840467  1
  O  O104  1  0.00618533  0.19780267  0.69136167  1
  O  O105  1  0.81451300  0.97859000  0.91875100  1
  O  O106  1  0.19161733  0.99381467  0.69136167  1
  O  O107  1  0.80219733  0.80838267  0.69136167  1
