# generated using pymatgen
data_Li2CuNi(PO4)2
_symmetry_space_group_name_H-M   'P 1'
_cell_length_a   4.74276584
_cell_length_b   6.03663114
_cell_length_c   10.04400117
_cell_angle_alpha   90.00000000
_cell_angle_beta   91.54762336
_cell_angle_gamma   90.00000000
_symmetry_Int_Tables_number   1
_chemical_formula_structural   Li2CuNi(PO4)2
_chemical_formula_sum   'Li4 Cu2 Ni2 P4 O16'
_cell_volume   287.45815079
_cell_formula_units_Z   2
loop_
 _symmetry_equiv_pos_site_id
 _symmetry_equiv_pos_as_xyz
  1  'x, y, z'
loop_
 _atom_site_type_symbol
 _atom_site_label
 _atom_site_symmetry_multiplicity
 _atom_site_fract_x
 _atom_site_fract_y
 _atom_site_fract_z
 _atom_site_occupancy
  Li  Li0  1  0.00000000  0.00000000  0.50000000  1
  Li  Li1  1  0.00000000  0.50000000  0.50000000  1
  Li  Li2  1  0.50000000  0.00000000  0.00000000  1
  Li  Li3  1  0.50000000  0.50000000  0.00000000  1
  Cu  Cu4  1  0.95533750  0.25000000  0.78107200  1
  Cu  Cu5  1  0.04466250  0.75000000  0.21892800  1
  Ni  Ni6  1  0.48346950  0.75000000  0.72153300  1
  Ni  Ni7  1  0.51653050  0.25000000  0.27846700  1
  P  P8  1  0.41674450  0.25000000  0.59657600  1
  P  P9  1  0.92513650  0.75000000  0.90707700  1
  P  P10  1  0.07486350  0.25000000  0.09292300  1
  P  P11  1  0.58325550  0.75000000  0.40342400  1
  O  O12  1  0.70231750  0.75000000  0.54933900  1
  O  O13  1  0.74469950  0.25000000  0.60353500  1
  O  O14  1  0.28609550  0.04208900  0.66434500  1
  O  O15  1  0.28609550  0.45791100  0.66434500  1
  O  O16  1  0.77792350  0.54829600  0.83532200  1
  O  O17  1  0.77792350  0.95170400  0.83532200  1
  O  O18  1  0.24796450  0.75000000  0.90286100  1
  O  O19  1  0.18774150  0.25000000  0.94782700  1
  O  O20  1  0.81225850  0.75000000  0.05217300  1
  O  O21  1  0.75203550  0.25000000  0.09713900  1
  O  O22  1  0.22207650  0.04829600  0.16467800  1
  O  O23  1  0.22207650  0.45170400  0.16467800  1
  O  O24  1  0.71390450  0.54208900  0.33565500  1
  O  O25  1  0.71390450  0.95791100  0.33565500  1
  O  O26  1  0.25530050  0.75000000  0.39646500  1
  O  O27  1  0.29768250  0.25000000  0.45066100  1
