# generated using pymatgen
data_Rb2Be4Pt3
_symmetry_space_group_name_H-M   'P 1'
_cell_length_a   6.55632600
_cell_length_b   10.18463600
_cell_length_c   12.89824200
_cell_angle_alpha   90.00000000
_cell_angle_beta   90.00000000
_cell_angle_gamma   90.00000000
_symmetry_Int_Tables_number   1
_chemical_formula_structural   Rb2Be4Pt3
_chemical_formula_sum   'Rb8 Be16 Pt12'
_cell_volume   861.26455179
_cell_formula_units_Z   4
loop_
 _symmetry_equiv_pos_site_id
 _symmetry_equiv_pos_as_xyz
  1  'x, y, z'
loop_
 _atom_site_type_symbol
 _atom_site_label
 _atom_site_symmetry_multiplicity
 _atom_site_fract_x
 _atom_site_fract_y
 _atom_site_fract_z
 _atom_site_occupancy
  Rb  Rb0  1  0.00000000  0.00000000  0.34868400  1
  Rb  Rb1  1  0.50000000  0.00000000  0.15131600  1
  Rb  Rb2  1  0.00000000  0.50000000  0.84868400  1
  Rb  Rb3  1  0.50000000  0.50000000  0.65131600  1
  Rb  Rb4  1  0.50000000  0.00000000  0.84868400  1
  Rb  Rb5  1  0.00000000  0.00000000  0.65131600  1
  Rb  Rb6  1  0.50000000  0.50000000  0.34868400  1
  Rb  Rb7  1  0.00000000  0.50000000  0.15131600  1
  Be  Be8  1  0.00000000  0.67717350  0.40079750  1
  Be  Be9  1  0.50000000  0.32282650  0.09920250  1
  Be  Be10  1  0.50000000  0.67717350  0.09920250  1
  Be  Be11  1  0.00000000  0.32282650  0.40079750  1
  Be  Be12  1  0.00000000  0.17717350  0.90079750  1
  Be  Be13  1  0.50000000  0.82282650  0.59920250  1
  Be  Be14  1  0.50000000  0.17717350  0.59920250  1
  Be  Be15  1  0.00000000  0.82282650  0.90079750  1
  Be  Be16  1  0.50000000  0.67717350  0.90079750  1
  Be  Be17  1  0.00000000  0.32282650  0.59920250  1
  Be  Be18  1  0.00000000  0.67717350  0.59920250  1
  Be  Be19  1  0.50000000  0.32282650  0.90079750  1
  Be  Be20  1  0.50000000  0.17717350  0.40079750  1
  Be  Be21  1  0.00000000  0.82282650  0.09920250  1
  Be  Be22  1  0.00000000  0.17717350  0.09920250  1
  Be  Be23  1  0.50000000  0.82282650  0.40079750  1
  Pt  Pt24  1  0.75000000  0.75000000  0.00000000  1
  Pt  Pt25  1  0.75000000  0.25000000  0.00000000  1
  Pt  Pt26  1  0.00000000  0.00000000  0.00000000  1
  Pt  Pt27  1  0.75000000  0.25000000  0.50000000  1
  Pt  Pt28  1  0.75000000  0.75000000  0.50000000  1
  Pt  Pt29  1  0.00000000  0.50000000  0.50000000  1
  Pt  Pt30  1  0.25000000  0.75000000  0.50000000  1
  Pt  Pt31  1  0.25000000  0.25000000  0.50000000  1
  Pt  Pt32  1  0.50000000  0.00000000  0.50000000  1
  Pt  Pt33  1  0.25000000  0.25000000  0.00000000  1
  Pt  Pt34  1  0.25000000  0.75000000  0.00000000  1
  Pt  Pt35  1  0.50000000  0.50000000  0.00000000  1
