# generated using pymatgen
data_Li3TiV4O8
_symmetry_space_group_name_H-M   'P 1'
_cell_length_a   10.44353600
_cell_length_b   6.08171000
_cell_length_c   6.08503342
_cell_angle_alpha   90.00000000
_cell_angle_beta   125.08500353
_cell_angle_gamma   90.00000000
_symmetry_Int_Tables_number   1
_chemical_formula_structural   Li3TiV4O8
_chemical_formula_sum   'Li6 Ti2 V8 O16'
_cell_volume   316.26337052
_cell_formula_units_Z   2
loop_
 _symmetry_equiv_pos_site_id
 _symmetry_equiv_pos_as_xyz
  1  'x, y, z'
loop_
 _atom_site_type_symbol
 _atom_site_label
 _atom_site_symmetry_multiplicity
 _atom_site_fract_x
 _atom_site_fract_y
 _atom_site_fract_z
 _atom_site_occupancy
  Li  Li0  1  0.25000000  0.75000000  0.50000000  1
  Li  Li1  1  0.25000000  0.25000000  0.50000000  1
  Li  Li2  1  0.00000000  0.00000000  0.50000000  1
  Li  Li3  1  0.75000000  0.25000000  0.50000000  1
  Li  Li4  1  0.75000000  0.75000000  0.50000000  1
  Li  Li5  1  0.50000000  0.50000000  0.50000000  1
  Ti  Ti6  1  0.00000000  0.50000000  0.00000000  1
  Ti  Ti7  1  0.50000000  0.00000000  0.00000000  1
  V  V8  1  0.00000000  0.00000000  0.00000000  1
  V  V9  1  0.75000000  0.75000000  0.00000000  1
  V  V10  1  0.25000000  0.75000000  0.00000000  1
  V  V11  1  0.50000000  0.00000000  0.50000000  1
  V  V12  1  0.50000000  0.50000000  0.00000000  1
  V  V13  1  0.25000000  0.25000000  0.00000000  1
  V  V14  1  0.75000000  0.25000000  0.00000000  1
  V  V15  1  0.00000000  0.50000000  0.50000000  1
  O  O16  1  0.23366000  0.50000000  0.22615900  1
  O  O17  1  0.99682050  0.26201050  0.23420300  1
  O  O18  1  0.99682050  0.73798950  0.23420300  1
  O  O19  1  0.26634000  0.00000000  0.77384100  1
  O  O20  1  0.74991200  0.50000000  0.23795700  1
  O  O21  1  0.50317950  0.23798950  0.76579700  1
  O  O22  1  0.50317950  0.76201050  0.76579700  1
  O  O23  1  0.75008800  0.00000000  0.76204300  1
  O  O24  1  0.73366000  0.00000000  0.22615900  1
  O  O25  1  0.49682050  0.76201050  0.23420300  1
  O  O26  1  0.49682050  0.23798950  0.23420300  1
  O  O27  1  0.76634000  0.50000000  0.77384100  1
  O  O28  1  0.24991200  0.00000000  0.23795700  1
  O  O29  1  0.00317950  0.73798950  0.76579700  1
  O  O30  1  0.00317950  0.26201050  0.76579700  1
  O  O31  1  0.25008800  0.50000000  0.76204300  1
