# generated using pymatgen
data_Li2MnCr2O6
_symmetry_space_group_name_H-M   'P 1'
_cell_length_a   5.10113400
_cell_length_b   8.76904200
_cell_length_c   10.14641000
_cell_angle_alpha   90.00000000
_cell_angle_beta   90.00000000
_cell_angle_gamma   90.00000000
_symmetry_Int_Tables_number   1
_chemical_formula_structural   Li2MnCr2O6
_chemical_formula_sum   'Li8 Mn4 Cr8 O24'
_cell_volume   453.86980359
_cell_formula_units_Z   4
loop_
 _symmetry_equiv_pos_site_id
 _symmetry_equiv_pos_as_xyz
  1  'x, y, z'
loop_
 _atom_site_type_symbol
 _atom_site_label
 _atom_site_symmetry_multiplicity
 _atom_site_fract_x
 _atom_site_fract_y
 _atom_site_fract_z
 _atom_site_occupancy
  Li  Li0  1  0.40389100  0.25000000  0.75000000  1
  Li  Li1  1  0.59610900  0.25000000  0.25000000  1
  Li  Li2  1  0.40389100  0.75000000  0.75000000  1
  Li  Li3  1  0.59610900  0.75000000  0.25000000  1
  Li  Li4  1  0.90389100  0.75000000  0.75000000  1
  Li  Li5  1  0.09610900  0.75000000  0.25000000  1
  Li  Li6  1  0.90389100  0.25000000  0.75000000  1
  Li  Li7  1  0.09610900  0.25000000  0.25000000  1
  Mn  Mn8  1  0.00000000  0.00000000  0.00000000  1
  Mn  Mn9  1  0.50000000  0.00000000  0.50000000  1
  Mn  Mn10  1  0.50000000  0.50000000  0.00000000  1
  Mn  Mn11  1  0.00000000  0.50000000  0.50000000  1
  Cr  Cr12  1  0.50000000  0.33633700  0.50000000  1
  Cr  Cr13  1  0.50000000  0.16366300  0.00000000  1
  Cr  Cr14  1  0.50000000  0.83633700  0.00000000  1
  Cr  Cr15  1  0.50000000  0.66366300  0.50000000  1
  Cr  Cr16  1  0.00000000  0.83633700  0.50000000  1
  Cr  Cr17  1  0.00000000  0.66366300  0.00000000  1
  Cr  Cr18  1  0.00000000  0.33633700  0.00000000  1
  Cr  Cr19  1  0.00000000  0.16366300  0.50000000  1
  O  O20  1  0.34007450  0.33474650  0.10557700  1
  O  O21  1  0.65992550  0.66525350  0.89442300  1
  O  O22  1  0.34007450  0.16525350  0.39442300  1
  O  O23  1  0.65992550  0.16525350  0.60557700  1
  O  O24  1  0.18190000  0.00000000  0.59990800  1
  O  O25  1  0.31810000  0.00000000  0.09990800  1
  O  O26  1  0.68190000  0.00000000  0.90009200  1
  O  O27  1  0.65992550  0.33474650  0.89442300  1
  O  O28  1  0.81810000  0.00000000  0.40009200  1
  O  O29  1  0.34007450  0.83474650  0.39442300  1
  O  O30  1  0.65992550  0.83474650  0.60557700  1
  O  O31  1  0.34007450  0.66525350  0.10557700  1
  O  O32  1  0.84007450  0.83474650  0.10557700  1
  O  O33  1  0.15992550  0.16525350  0.89442300  1
  O  O34  1  0.84007450  0.66525350  0.39442300  1
  O  O35  1  0.15992550  0.66525350  0.60557700  1
  O  O36  1  0.68190000  0.50000000  0.59990800  1
  O  O37  1  0.81810000  0.50000000  0.09990800  1
  O  O38  1  0.18190000  0.50000000  0.90009200  1
  O  O39  1  0.15992550  0.83474650  0.89442300  1
  O  O40  1  0.31810000  0.50000000  0.40009200  1
  O  O41  1  0.84007450  0.33474650  0.39442300  1
  O  O42  1  0.15992550  0.33474650  0.60557700  1
  O  O43  1  0.84007450  0.16525350  0.10557700  1
