# generated using pymatgen
data_Mg2Mn3O8
_symmetry_space_group_name_H-M   'P 1'
_cell_length_a   5.86227018
_cell_length_b   5.86227018
_cell_length_c   14.74371704
_cell_angle_alpha   90.00000000
_cell_angle_beta   90.00000000
_cell_angle_gamma   120.00000000
_symmetry_Int_Tables_number   1
_chemical_formula_structural   Mg2Mn3O8
_chemical_formula_sum   'Mg6 Mn9 O24'
_cell_volume   438.80268882
_cell_formula_units_Z   3
loop_
 _symmetry_equiv_pos_site_id
 _symmetry_equiv_pos_as_xyz
  1  'x, y, z'
loop_
 _atom_site_type_symbol
 _atom_site_label
 _atom_site_symmetry_multiplicity
 _atom_site_fract_x
 _atom_site_fract_y
 _atom_site_fract_z
 _atom_site_occupancy
  Mg  Mg0  1  0.66666667  0.33333333  0.21412233  1
  Mg  Mg1  1  0.33333333  0.66666667  0.16673667  1
  Mg  Mg2  1  0.33333333  0.66666667  0.54745567  1
  Mg  Mg3  1  0.00000000  0.00000000  0.50007000  1
  Mg  Mg4  1  0.00000000  0.00000000  0.88078900  1
  Mg  Mg5  1  0.66666667  0.33333333  0.83340333  1
  Mn  Mn6  1  0.49710067  0.50289933  0.00087233  1
  Mn  Mn7  1  0.00579867  0.50289933  0.00087233  1
  Mn  Mn8  1  0.49710067  0.99420133  0.00087233  1
  Mn  Mn9  1  0.16376733  0.83623267  0.33420567  1
  Mn  Mn10  1  0.67246533  0.83623267  0.33420567  1
  Mn  Mn11  1  0.16376733  0.32753467  0.33420567  1
  Mn  Mn12  1  0.83043400  0.16956600  0.66753900  1
  Mn  Mn13  1  0.33913200  0.16956600  0.66753900  1
  Mn  Mn14  1  0.83043400  0.66086800  0.66753900  1
  O  O15  1  0.66666667  0.33333333  0.07210233  1
  O  O16  1  0.48481033  0.96962067  0.25947067  1
  O  O17  1  0.03037933  0.51518967  0.25947067  1
  O  O18  1  0.48481033  0.51518967  0.25947067  1
  O  O19  1  0.63345867  0.81672933  0.06972433  1
  O  O20  1  0.18327067  0.81672933  0.06972433  1
  O  O21  1  0.18327067  0.36654133  0.06972433  1
  O  O22  1  0.00000000  0.00000000  0.26517100  1
  O  O23  1  0.33333333  0.66666667  0.40543567  1
  O  O24  1  0.15147700  0.30295400  0.59280400  1
  O  O25  1  0.69704600  0.84852300  0.59280400  1
  O  O26  1  0.15147700  0.84852300  0.59280400  1
  O  O27  1  0.30012533  0.15006267  0.40305767  1
  O  O28  1  0.84993733  0.15006267  0.40305767  1
  O  O29  1  0.84993733  0.69987467  0.40305767  1
  O  O30  1  0.66666667  0.33333333  0.59850433  1
  O  O31  1  0.00000000  0.00000000  0.73876900  1
  O  O32  1  0.81814367  0.63628733  0.92613733  1
  O  O33  1  0.36371267  0.18185633  0.92613733  1
  O  O34  1  0.81814367  0.18185633  0.92613733  1
  O  O35  1  0.96679200  0.48339600  0.73639100  1
  O  O36  1  0.51660400  0.48339600  0.73639100  1
  O  O37  1  0.51660400  0.03320800  0.73639100  1
  O  O38  1  0.33333333  0.66666667  0.93183767  1
