# generated using pymatgen
data_Cr10Fe5O24
_symmetry_space_group_name_H-M   'P 1'
_cell_length_a   10.37577200
_cell_length_b   5.98596400
_cell_length_c   14.66931046
_cell_angle_alpha   90.00000000
_cell_angle_beta   90.02560269
_cell_angle_gamma   90.00000000
_symmetry_Int_Tables_number   1
_chemical_formula_structural   Cr10Fe5O24
_chemical_formula_sum   'Cr20 Fe10 O48'
_cell_volume   911.09607842
_cell_formula_units_Z   2
loop_
 _symmetry_equiv_pos_site_id
 _symmetry_equiv_pos_as_xyz
  1  'x, y, z'
loop_
 _atom_site_type_symbol
 _atom_site_label
 _atom_site_symmetry_multiplicity
 _atom_site_fract_x
 _atom_site_fract_y
 _atom_site_fract_z
 _atom_site_occupancy
  Cr  Cr0  1  0.67171700  0.50000000  0.79258500  1
  Cr  Cr1  1  0.91447600  0.25691500  0.79231800  1
  Cr  Cr2  1  0.58101200  0.74302500  0.45923200  1
  Cr  Cr3  1  0.58101200  0.25697500  0.45923200  1
  Cr  Cr4  1  0.91447600  0.74308500  0.79231800  1
  Cr  Cr5  1  0.83775500  0.00000000  0.45902700  1
  Cr  Cr6  1  0.66523000  0.00000000  0.28571400  1
  Cr  Cr7  1  0.50020000  0.50000000  0.62196700  1
  Cr  Cr8  1  0.74937650  0.75617750  0.12607400  1
  Cr  Cr9  1  0.74937650  0.24382250  0.12607400  1
  Cr  Cr10  1  0.17171700  0.00000000  0.79258500  1
  Cr  Cr11  1  0.41447600  0.75691500  0.79231800  1
  Cr  Cr12  1  0.08101200  0.24302500  0.45923200  1
  Cr  Cr13  1  0.08101200  0.75697500  0.45923200  1
  Cr  Cr14  1  0.41447600  0.24308500  0.79231800  1
  Cr  Cr15  1  0.33775500  0.50000000  0.45902700  1
  Cr  Cr16  1  0.16523000  0.50000000  0.28571400  1
  Cr  Cr17  1  0.00020000  0.00000000  0.62196700  1
  Cr  Cr18  1  0.24937650  0.25617750  0.12607400  1
  Cr  Cr19  1  0.24937650  0.74382250  0.12607400  1
  Fe  Fe20  1  0.83326700  0.50000000  0.95478900  1
  Fe  Fe21  1  0.66663500  0.00000000  0.66714200  1
  Fe  Fe22  1  0.50083600  0.50000000  0.99907200  1
  Fe  Fe23  1  0.50499500  0.00000000  0.12604000  1
  Fe  Fe24  1  0.83305800  0.50000000  0.33323400  1
  Fe  Fe25  1  0.33326700  0.00000000  0.95478900  1
  Fe  Fe26  1  0.16663500  0.50000000  0.66714200  1
  Fe  Fe27  1  0.00083600  0.00000000  0.99907200  1
  Fe  Fe28  1  0.00499500  0.50000000  0.12604000  1
  Fe  Fe29  1  0.33305800  0.00000000  0.33323400  1
  O  O30  1  0.57833500  0.26534500  0.71149100  1
  O  O31  1  0.57833500  0.73465500  0.71149100  1
  O  O32  1  0.76032650  0.28072750  0.87068400  1
  O  O33  1  0.76032650  0.71927250  0.87068400  1
  O  O34  1  0.64434800  0.50000000  0.53504600  1
  O  O35  1  0.83338000  0.50000000  0.72432200  1
  O  O36  1  0.97942900  0.50000000  0.87069800  1
  O  O37  1  0.66649600  0.00000000  0.53467400  1
  O  O38  1  0.50929900  0.00000000  0.37786200  1
  O  O39  1  0.50025900  0.50000000  0.86761900  1
  O  O40  1  0.84340800  0.00000000  0.71127600  1
  O  O41  1  0.74403950  0.76616750  0.37703900  1
  O  O42  1  0.74403950  0.23383250  0.37703900  1
  O  O43  1  0.59393300  0.78082200  0.20480000  1
  O  O44  1  0.92862750  0.21645450  0.53540500  1
  O  O45  1  0.59393300  0.21917800  0.20480000  1
  O  O46  1  0.92862750  0.78354550  0.53540500  1
  O  O47  1  0.81205600  0.00000000  0.20330500  1
  O  O48  1  0.66382600  0.00000000  0.05709500  1
  O  O49  1  0.50065400  0.50000000  0.39221100  1
  O  O50  1  0.67724600  0.50000000  0.04385300  1
  O  O51  1  0.83388600  0.50000000  0.20046900  1
  O  O52  1  0.91089500  0.26494400  0.04395800  1
  O  O53  1  0.91089500  0.73505600  0.04395800  1
  O  O54  1  0.07833500  0.76534500  0.71149100  1
  O  O55  1  0.07833500  0.23465500  0.71149100  1
  O  O56  1  0.26032650  0.78072750  0.87068400  1
  O  O57  1  0.26032650  0.21927250  0.87068400  1
  O  O58  1  0.14434800  0.00000000  0.53504600  1
  O  O59  1  0.33338000  0.00000000  0.72432200  1
  O  O60  1  0.47942900  0.00000000  0.87069800  1
  O  O61  1  0.16649600  0.50000000  0.53467400  1
  O  O62  1  0.00929900  0.50000000  0.37786200  1
  O  O63  1  0.00025900  0.00000000  0.86761900  1
  O  O64  1  0.34340800  0.50000000  0.71127600  1
  O  O65  1  0.24403950  0.26616750  0.37703900  1
  O  O66  1  0.24403950  0.73383250  0.37703900  1
  O  O67  1  0.09393300  0.28082200  0.20480000  1
  O  O68  1  0.42862750  0.71645450  0.53540500  1
  O  O69  1  0.09393300  0.71917800  0.20480000  1
  O  O70  1  0.42862750  0.28354550  0.53540500  1
  O  O71  1  0.31205600  0.50000000  0.20330500  1
  O  O72  1  0.16382600  0.50000000  0.05709500  1
  O  O73  1  0.00065400  0.00000000  0.39221100  1
  O  O74  1  0.17724600  0.00000000  0.04385300  1
  O  O75  1  0.33388600  0.00000000  0.20046900  1
  O  O76  1  0.41089500  0.76494400  0.04395800  1
  O  O77  1  0.41089500  0.23505600  0.04395800  1
