# generated using pymatgen
data_Li3Mn(FeO3)2
_symmetry_space_group_name_H-M   'P 1'
_cell_length_a   12.84610400
_cell_length_b   3.03179600
_cell_length_c   6.04968539
_cell_angle_alpha   90.00000000
_cell_angle_beta   104.07870165
_cell_angle_gamma   90.00000000
_symmetry_Int_Tables_number   1
_chemical_formula_structural   Li3Mn(FeO3)2
_chemical_formula_sum   'Li6 Mn2 Fe4 O12'
_cell_volume   228.53838083
_cell_formula_units_Z   2
loop_
 _symmetry_equiv_pos_site_id
 _symmetry_equiv_pos_as_xyz
  1  'x, y, z'
loop_
 _atom_site_type_symbol
 _atom_site_label
 _atom_site_symmetry_multiplicity
 _atom_site_fract_x
 _atom_site_fract_y
 _atom_site_fract_z
 _atom_site_occupancy
  Li  Li0  1  0.00000000  0.00000000  0.00000000  1
  Li  Li1  1  0.16312600  0.50000000  0.33164800  1
  Li  Li2  1  0.33687400  0.00000000  0.66835200  1
  Li  Li3  1  0.50000000  0.50000000  0.00000000  1
  Li  Li4  1  0.66312600  0.00000000  0.33164800  1
  Li  Li5  1  0.83687400  0.50000000  0.66835200  1
  Mn  Mn6  1  0.00000000  0.00000000  0.50000000  1
  Mn  Mn7  1  0.50000000  0.50000000  0.50000000  1
  Fe  Fe8  1  0.16451900  0.50000000  0.83716700  1
  Fe  Fe9  1  0.33548100  0.00000000  0.16283300  1
  Fe  Fe10  1  0.66451900  0.00000000  0.83716700  1
  Fe  Fe11  1  0.83548100  0.50000000  0.16283300  1
  O  O12  1  0.15770000  0.00000000  0.59421000  1
  O  O13  1  0.32751300  0.50000000  0.92709100  1
  O  O14  1  0.34230000  0.50000000  0.40579000  1
  O  O15  1  0.49526800  0.00000000  0.25466100  1
  O  O16  1  0.00473200  0.50000000  0.74533900  1
  O  O17  1  0.17248700  0.00000000  0.07290900  1
  O  O18  1  0.65770000  0.50000000  0.59421000  1
  O  O19  1  0.82751300  0.00000000  0.92709100  1
  O  O20  1  0.84230000  0.00000000  0.40579000  1
  O  O21  1  0.99526800  0.50000000  0.25466100  1
  O  O22  1  0.50473200  0.00000000  0.74533900  1
  O  O23  1  0.67248700  0.50000000  0.07290900  1
