# generated using pymatgen
data_Li3FeCu3O8
_symmetry_space_group_name_H-M   'P 1'
_cell_length_a   5.85121228
_cell_length_b   5.85121228
_cell_length_c   14.67967576
_cell_angle_alpha   90.00000000
_cell_angle_beta   90.00000000
_cell_angle_gamma   120.00000000
_symmetry_Int_Tables_number   1
_chemical_formula_structural   Li3FeCu3O8
_chemical_formula_sum   'Li9 Fe3 Cu9 O24'
_cell_volume   435.25002373
_cell_formula_units_Z   3
loop_
 _symmetry_equiv_pos_site_id
 _symmetry_equiv_pos_as_xyz
  1  'x, y, z'
loop_
 _atom_site_type_symbol
 _atom_site_label
 _atom_site_symmetry_multiplicity
 _atom_site_fract_x
 _atom_site_fract_y
 _atom_site_fract_z
 _atom_site_occupancy
  Li  Li0  1  0.33333333  0.16666667  0.16666667  1
  Li  Li1  1  0.83333333  0.66666667  0.16666667  1
  Li  Li2  1  0.83333333  0.16666667  0.16666667  1
  Li  Li3  1  0.00000000  0.50000000  0.50000000  1
  Li  Li4  1  0.50000000  0.00000000  0.50000000  1
  Li  Li5  1  0.50000000  0.50000000  0.50000000  1
  Li  Li6  1  0.66666667  0.83333333  0.83333333  1
  Li  Li7  1  0.16666667  0.33333333  0.83333333  1
  Li  Li8  1  0.16666667  0.83333333  0.83333333  1
  Fe  Fe9  1  0.00000000  0.00000000  0.00000000  1
  Fe  Fe10  1  0.66666667  0.33333333  0.33333333  1
  Fe  Fe11  1  0.33333333  0.66666667  0.66666667  1
  Cu  Cu12  1  0.00000000  0.50000000  0.00000000  1
  Cu  Cu13  1  0.50000000  0.00000000  0.00000000  1
  Cu  Cu14  1  0.50000000  0.50000000  0.00000000  1
  Cu  Cu15  1  0.66666667  0.83333333  0.33333333  1
  Cu  Cu16  1  0.16666667  0.33333333  0.33333333  1
  Cu  Cu17  1  0.16666667  0.83333333  0.33333333  1
  Cu  Cu18  1  0.33333333  0.16666667  0.66666667  1
  Cu  Cu19  1  0.83333333  0.66666667  0.66666667  1
  Cu  Cu20  1  0.83333333  0.16666667  0.66666667  1
  O  O21  1  0.66666667  0.33333333  0.07598533  1
  O  O22  1  0.67766933  0.83883467  0.07351367  1
  O  O23  1  0.16116533  0.32233067  0.07351367  1
  O  O24  1  0.00000000  0.00000000  0.25734800  1
  O  O25  1  0.16116533  0.83883467  0.07351367  1
  O  O26  1  0.98899733  0.49449867  0.25981967  1
  O  O27  1  0.50550133  0.01100267  0.25981967  1
  O  O28  1  0.50550133  0.49449867  0.25981967  1
  O  O29  1  0.33333333  0.66666667  0.40931867  1
  O  O30  1  0.34433600  0.17216800  0.40684700  1
  O  O31  1  0.82783200  0.65566400  0.40684700  1
  O  O32  1  0.66666667  0.33333333  0.59068133  1
  O  O33  1  0.82783200  0.17216800  0.40684700  1
  O  O34  1  0.65566400  0.82783200  0.59315300  1
  O  O35  1  0.17216800  0.34433600  0.59315300  1
  O  O36  1  0.17216800  0.82783200  0.59315300  1
  O  O37  1  0.00000000  0.00000000  0.74265200  1
  O  O38  1  0.01100267  0.50550133  0.74018033  1
  O  O39  1  0.49449867  0.98899733  0.74018033  1
  O  O40  1  0.33333333  0.66666667  0.92401467  1
  O  O41  1  0.49449867  0.50550133  0.74018033  1
  O  O42  1  0.32233067  0.16116533  0.92648633  1
  O  O43  1  0.83883467  0.67766933  0.92648633  1
  O  O44  1  0.83883467  0.16116533  0.92648633  1
