# generated using pymatgen
data_LiZn(Fe5O8)2
_symmetry_space_group_name_H-M   'P 1'
_cell_length_a   6.06153974
_cell_length_b   6.06153974
_cell_length_c   29.71034256
_cell_angle_alpha   90.00000000
_cell_angle_beta   90.00000000
_cell_angle_gamma   120.00000000
_symmetry_Int_Tables_number   1
_chemical_formula_structural   LiZn(Fe5O8)2
_chemical_formula_sum   'Li3 Zn3 Fe30 O48'
_cell_volume   945.37519978
_cell_formula_units_Z   3
loop_
 _symmetry_equiv_pos_site_id
 _symmetry_equiv_pos_as_xyz
  1  'x, y, z'
loop_
 _atom_site_type_symbol
 _atom_site_label
 _atom_site_symmetry_multiplicity
 _atom_site_fract_x
 _atom_site_fract_y
 _atom_site_fract_z
 _atom_site_occupancy
  Li  Li0  1  0.33333333  0.66666667  0.16573667  1
  Li  Li1  1  0.00000000  0.00000000  0.49907000  1
  Li  Li2  1  0.66666667  0.33333333  0.83240333  1
  Zn  Zn3  1  0.66666667  0.33333333  0.02145433  1
  Zn  Zn4  1  0.33333333  0.66666667  0.35478767  1
  Zn  Zn5  1  0.00000000  0.00000000  0.68812100  1
  Fe  Fe6  1  0.66666667  0.33333333  0.33197433  1
  Fe  Fe7  1  0.33333333  0.66666667  0.04372267  1
  Fe  Fe8  1  0.33127733  0.16563867  0.10526167  1
  Fe  Fe9  1  0.83436133  0.66872267  0.10526167  1
  Fe  Fe10  1  0.83436133  0.16563867  0.10526167  1
  Fe  Fe11  1  0.66666667  0.33333333  0.20958133  1
  Fe  Fe12  1  0.66532800  0.83266400  0.27024900  1
  Fe  Fe13  1  0.00000000  0.00000000  0.18562600  1
  Fe  Fe14  1  0.16733600  0.83266400  0.27024900  1
  Fe  Fe15  1  0.16733600  0.33467200  0.27024900  1
  Fe  Fe16  1  0.33333333  0.66666667  0.66530767  1
  Fe  Fe17  1  0.00000000  0.00000000  0.37705600  1
  Fe  Fe18  1  0.99794400  0.49897200  0.43859500  1
  Fe  Fe19  1  0.50102800  0.00205600  0.43859500  1
  Fe  Fe20  1  0.50102800  0.49897200  0.43859500  1
  Fe  Fe21  1  0.33333333  0.66666667  0.54291467  1
  Fe  Fe22  1  0.33199467  0.16599733  0.60358233  1
  Fe  Fe23  1  0.66666667  0.33333333  0.51895933  1
  Fe  Fe24  1  0.83400267  0.16599733  0.60358233  1
  Fe  Fe25  1  0.83400267  0.66800533  0.60358233  1
  Fe  Fe26  1  0.00000000  0.00000000  0.99864100  1
  Fe  Fe27  1  0.66666667  0.33333333  0.71038933  1
  Fe  Fe28  1  0.66461067  0.83230533  0.77192833  1
  Fe  Fe29  1  0.16769467  0.33538933  0.77192833  1
  Fe  Fe30  1  0.16769467  0.83230533  0.77192833  1
  Fe  Fe31  1  0.00000000  0.00000000  0.87624800  1
  Fe  Fe32  1  0.99866133  0.49933067  0.93691567  1
  Fe  Fe33  1  0.33333333  0.66666667  0.85229267  1
  Fe  Fe34  1  0.50066933  0.49933067  0.93691567  1
  Fe  Fe35  1  0.50066933  0.00133867  0.93691567  1
  O  O36  1  0.50670200  0.01340400  0.06476500  1
  O  O37  1  0.50670200  0.49329800  0.06476500  1
  O  O38  1  0.98659600  0.49329800  0.06476500  1
  O  O39  1  0.66666667  0.33333333  0.13844733  1
  O  O40  1  0.69832200  0.84916100  0.14321500  1
  O  O41  1  0.00000000  0.00000000  0.06418400  1
  O  O42  1  0.15083900  0.84916100  0.14321500  1
  O  O43  1  0.15083900  0.30167800  0.14321500  1
  O  O44  1  0.84997067  0.15002933  0.23168733  1
  O  O45  1  0.84997067  0.69994133  0.23168733  1
  O  O46  1  0.30005867  0.15002933  0.23168733  1
  O  O47  1  0.00000000  0.00000000  0.31007200  1
  O  O48  1  0.33333333  0.66666667  0.23664367  1
  O  O49  1  0.01334333  0.50667167  0.31011867  1
  O  O50  1  0.49332833  0.98665667  0.31011867  1
  O  O51  1  0.49332833  0.50667167  0.31011867  1
  O  O52  1  0.17336867  0.34673733  0.39809833  1
  O  O53  1  0.17336867  0.82663133  0.39809833  1
  O  O54  1  0.65326267  0.82663133  0.39809833  1
  O  O55  1  0.33333333  0.66666667  0.47178067  1
  O  O56  1  0.36498867  0.18249433  0.47654833  1
  O  O57  1  0.66666667  0.33333333  0.39751733  1
  O  O58  1  0.81750567  0.18249433  0.47654833  1
  O  O59  1  0.81750567  0.63501133  0.47654833  1
  O  O60  1  0.51663733  0.48336267  0.56502067  1
  O  O61  1  0.51663733  0.03327467  0.56502067  1
  O  O62  1  0.96672533  0.48336267  0.56502067  1
  O  O63  1  0.66666667  0.33333333  0.64340533  1
  O  O64  1  0.00000000  0.00000000  0.56997700  1
  O  O65  1  0.68001000  0.84000500  0.64345200  1
  O  O66  1  0.15999500  0.31999000  0.64345200  1
  O  O67  1  0.15999500  0.84000500  0.64345200  1
  O  O68  1  0.84003533  0.68007067  0.73143167  1
  O  O69  1  0.84003533  0.15996467  0.73143167  1
  O  O70  1  0.31992933  0.15996467  0.73143167  1
  O  O71  1  0.00000000  0.00000000  0.80511400  1
  O  O72  1  0.03165533  0.51582767  0.80988167  1
  O  O73  1  0.33333333  0.66666667  0.73085067  1
  O  O74  1  0.48417233  0.51582767  0.80988167  1
  O  O75  1  0.48417233  0.96834467  0.80988167  1
  O  O76  1  0.18330400  0.81669600  0.89835400  1
  O  O77  1  0.18330400  0.36660800  0.89835400  1
  O  O78  1  0.63339200  0.81669600  0.89835400  1
  O  O79  1  0.33333333  0.66666667  0.97673867  1
  O  O80  1  0.66666667  0.33333333  0.90331033  1
  O  O81  1  0.34667667  0.17333833  0.97678533  1
  O  O82  1  0.82666167  0.65332333  0.97678533  1
  O  O83  1  0.82666167  0.17333833  0.97678533  1
