# generated using pymatgen
data_Li5VO3F2
_symmetry_space_group_name_H-M   'P 1'
_cell_length_a   9.66895791
_cell_length_b   4.01363701
_cell_length_c   5.97247523
_cell_angle_alpha   90.00000000
_cell_angle_beta   111.22432791
_cell_angle_gamma   90.00000000
_symmetry_Int_Tables_number   1
_chemical_formula_structural   Li5VO3F2
_chemical_formula_sum   'Li10 V2 O6 F4'
_cell_volume   216.05649257
_cell_formula_units_Z   2
loop_
 _symmetry_equiv_pos_site_id
 _symmetry_equiv_pos_as_xyz
  1  'x, y, z'
loop_
 _atom_site_type_symbol
 _atom_site_label
 _atom_site_symmetry_multiplicity
 _atom_site_fract_x
 _atom_site_fract_y
 _atom_site_fract_z
 _atom_site_occupancy
  Li  Li0  1  0.00000000  0.00000000  0.50000000  1
  Li  Li1  1  0.82767625  0.50000000  0.11938375  1
  Li  Li2  1  0.67232375  0.00000000  0.88061625  1
  Li  Li3  1  0.79550400  0.50000000  0.69150400  1
  Li  Li4  1  0.70449600  0.00000000  0.30849600  1
  Li  Li5  1  0.50000000  0.50000000  0.50000000  1
  Li  Li6  1  0.32767625  0.00000000  0.11938375  1
  Li  Li7  1  0.17232375  0.50000000  0.88061625  1
  Li  Li8  1  0.29550400  0.00000000  0.69150400  1
  Li  Li9  1  0.20449600  0.50000000  0.30849600  1
  V  V10  1  0.50000000  0.50000000  0.00000000  1
  V  V11  1  0.00000000  0.00000000  0.00000000  1
  O  O12  1  0.50000000  0.00000000  0.00000000  1
  O  O13  1  0.85936000  0.00000000  0.17942600  1
  O  O14  1  0.64064000  0.50000000  0.82057400  1
  O  O15  1  0.00000000  0.50000000  0.00000000  1
  O  O16  1  0.35936000  0.50000000  0.17942600  1
  O  O17  1  0.14064000  0.00000000  0.82057400  1
  F  F18  1  0.82525275  0.00000000  0.65724475  1
  F  F19  1  0.67474725  0.50000000  0.34275525  1
  F  F20  1  0.32525275  0.50000000  0.65724475  1
  F  F21  1  0.17474725  0.00000000  0.34275525  1
