# generated using pymatgen
data_Na3MnO3
_symmetry_space_group_name_H-M   'P 1'
_cell_length_a   6.04827189
_cell_length_b   10.88299200
_cell_length_c   6.07800373
_cell_angle_alpha   90.00000000
_cell_angle_beta   91.74208466
_cell_angle_gamma   90.00000000
_symmetry_Int_Tables_number   1
_chemical_formula_structural   Na3MnO3
_chemical_formula_sum   'Na12 Mn4 O12'
_cell_volume   399.88931608
_cell_formula_units_Z   4
loop_
 _symmetry_equiv_pos_site_id
 _symmetry_equiv_pos_as_xyz
  1  'x, y, z'
loop_
 _atom_site_type_symbol
 _atom_site_label
 _atom_site_symmetry_multiplicity
 _atom_site_fract_x
 _atom_site_fract_y
 _atom_site_fract_z
 _atom_site_occupancy
  Na  Na0  1  0.90793900  0.77586900  0.54573650  1
  Na  Na1  1  0.40793900  0.72413100  0.54573650  1
  Na  Na2  1  0.59206100  0.27586900  0.45426350  1
  Na  Na3  1  0.09206100  0.22413100  0.45426350  1
  Na  Na4  1  0.85755200  0.00271000  0.85368550  1
  Na  Na5  1  0.35755200  0.49729000  0.85368550  1
  Na  Na6  1  0.64244800  0.50271000  0.14631450  1
  Na  Na7  1  0.14244800  0.99729000  0.14631450  1
  Na  Na8  1  0.98314700  0.27813400  0.00610150  1
  Na  Na9  1  0.51685300  0.77813400  0.99389850  1
  Na  Na10  1  0.48314700  0.22186600  0.00610150  1
  Na  Na11  1  0.01685300  0.72186600  0.99389850  1
  Mn  Mn12  1  0.66753000  0.99724900  0.33549450  1
  Mn  Mn13  1  0.16753000  0.50275100  0.33549450  1
  Mn  Mn14  1  0.83247000  0.49724900  0.66450550  1
  Mn  Mn15  1  0.33247000  0.00275100  0.66450550  1
  O  O16  1  0.60621800  0.91227500  0.61129450  1
  O  O17  1  0.89378200  0.41227500  0.38870550  1
  O  O18  1  0.10621800  0.58772500  0.61129450  1
  O  O19  1  0.39378200  0.08772500  0.38870550  1
  O  O20  1  0.68099800  0.36838800  0.80003550  1
  O  O21  1  0.81900200  0.86838800  0.19996450  1
  O  O22  1  0.18099800  0.13161200  0.80003550  1
  O  O23  1  0.31900200  0.63161200  0.19996450  1
  O  O24  1  0.69151100  0.62730100  0.80527050  1
  O  O25  1  0.80848900  0.12730100  0.19472950  1
  O  O26  1  0.19151100  0.87269900  0.80527050  1
  O  O27  1  0.30848900  0.37269900  0.19472950  1
