# generated using pymatgen
data_Li4Nb3V3(SnO8)2
_symmetry_space_group_name_H-M   'P 1'
_cell_length_a   10.58098802
_cell_length_b   6.05321984
_cell_length_c   10.14553016
_cell_angle_alpha   90.00000000
_cell_angle_beta   90.29853702
_cell_angle_gamma   90.00000000
_symmetry_Int_Tables_number   1
_chemical_formula_structural   Li4Nb3V3(SnO8)2
_chemical_formula_sum   'Li8 Nb6 V6 Sn4 O32'
_cell_volume   649.80271400
_cell_formula_units_Z   2
loop_
 _symmetry_equiv_pos_site_id
 _symmetry_equiv_pos_as_xyz
  1  'x, y, z'
loop_
 _atom_site_type_symbol
 _atom_site_label
 _atom_site_symmetry_multiplicity
 _atom_site_fract_x
 _atom_site_fract_y
 _atom_site_fract_z
 _atom_site_occupancy
  Li  Li0  1  0.66728400  0.00000000  0.09652300  1
  Li  Li1  1  0.50374750  0.50000000  0.00924200  1
  Li  Li2  1  0.50549750  0.50000000  0.50903000  1
  Li  Li3  1  0.83614700  0.50000000  0.60911600  1
  Li  Li4  1  0.16728400  0.50000000  0.09652300  1
  Li  Li5  1  0.00374750  0.00000000  0.00924200  1
  Li  Li6  1  0.00549750  0.00000000  0.50903000  1
  Li  Li7  1  0.33614700  0.00000000  0.60911600  1
  Nb  Nb8  1  0.83135500  0.00000000  0.78280500  1
  Nb  Nb9  1  0.91064000  0.72981200  0.28652900  1
  Nb  Nb10  1  0.91064000  0.27018800  0.28652900  1
  Nb  Nb11  1  0.33135500  0.50000000  0.78280500  1
  Nb  Nb12  1  0.41064000  0.22981200  0.28652900  1
  Nb  Nb13  1  0.41064000  0.77018800  0.28652900  1
  V  V14  1  0.58578900  0.23470000  0.78724100  1
  V  V15  1  0.58578900  0.76530000  0.78724100  1
  V  V16  1  0.67437800  0.50000000  0.28676800  1
  V  V17  1  0.08578900  0.73470000  0.78724100  1
  V  V18  1  0.08578900  0.26530000  0.78724100  1
  V  V19  1  0.17437800  0.00000000  0.28676800  1
  Sn  Sn20  1  0.66190900  0.00000000  0.50990000  1
  Sn  Sn21  1  0.82442850  0.50000000  0.00362100  1
  Sn  Sn22  1  0.16190900  0.50000000  0.50990000  1
  Sn  Sn23  1  0.32442850  0.00000000  0.00362100  1
  O  O24  1  0.57716800  0.25465000  0.40106800  1
  O  O25  1  0.51992950  0.00000000  0.65559800  1
  O  O26  1  0.67752050  0.00000000  0.89994100  1
  O  O27  1  0.99901150  0.00000000  0.69253100  1
  O  O28  1  0.99801500  0.00000000  0.19325800  1
  O  O29  1  0.57716800  0.74535000  0.40106800  1
  O  O30  1  0.74643400  0.21998900  0.65900400  1
  O  O31  1  0.74643400  0.78001100  0.65900400  1
  O  O32  1  0.65639250  0.50000000  0.90185400  1
  O  O33  1  0.83459500  0.00000000  0.40308900  1
  O  O34  1  0.76298550  0.73285550  0.15601100  1
  O  O35  1  0.76298550  0.26714450  0.15601100  1
  O  O36  1  0.83235200  0.50000000  0.41456800  1
  O  O37  1  0.91350900  0.75713000  0.89788100  1
  O  O38  1  0.98404900  0.50000000  0.14888400  1
  O  O39  1  0.91350900  0.24287000  0.89788100  1
  O  O40  1  0.07716800  0.75465000  0.40106800  1
  O  O41  1  0.01992950  0.50000000  0.65559800  1
  O  O42  1  0.17752050  0.50000000  0.89994100  1
  O  O43  1  0.49901150  0.50000000  0.69253100  1
  O  O44  1  0.49801500  0.50000000  0.19325800  1
  O  O45  1  0.07716800  0.24535000  0.40106800  1
  O  O46  1  0.24643400  0.71998900  0.65900400  1
  O  O47  1  0.24643400  0.28001100  0.65900400  1
  O  O48  1  0.15639250  0.00000000  0.90185400  1
  O  O49  1  0.33459500  0.50000000  0.40308900  1
  O  O50  1  0.26298550  0.23285550  0.15601100  1
  O  O51  1  0.26298550  0.76714450  0.15601100  1
  O  O52  1  0.33235200  0.00000000  0.41456800  1
  O  O53  1  0.41350900  0.25713000  0.89788100  1
  O  O54  1  0.48404900  0.00000000  0.14888400  1
  O  O55  1  0.41350900  0.74287000  0.89788100  1
