# generated using pymatgen
data_Cr4OF11
_symmetry_space_group_name_H-M   'P 1'
_cell_length_a   5.08375997
_cell_length_b   5.33189659
_cell_length_c   16.89481620
_cell_angle_alpha   88.26092317
_cell_angle_beta   98.29079927
_cell_angle_gamma   118.28908789
_symmetry_Int_Tables_number   1
_chemical_formula_structural   Cr4OF11
_chemical_formula_sum   'Cr8 O2 F22'
_cell_volume   398.66405292
_cell_formula_units_Z   2
loop_
 _symmetry_equiv_pos_site_id
 _symmetry_equiv_pos_as_xyz
  1  'x, y, z'
loop_
 _atom_site_type_symbol
 _atom_site_label
 _atom_site_symmetry_multiplicity
 _atom_site_fract_x
 _atom_site_fract_y
 _atom_site_fract_z
 _atom_site_occupancy
  Cr  Cr0  1  0.25437300  0.64385000  0.87158800  1
  Cr  Cr1  1  0.25088600  0.12184800  0.37394100  1
  Cr  Cr2  1  0.50841400  0.73897200  0.24708200  1
  Cr  Cr3  1  0.49099000  0.23281100  0.75360800  1
  Cr  Cr4  1  0.74919300  0.87006000  0.62565300  1
  Cr  Cr5  1  0.74455900  0.38642000  0.12894000  1
  Cr  Cr6  1  0.99965400  0.49770000  0.49995200  1
  Cr  Cr7  1  0.00110100  0.00833300  0.99965300  1
  O  O8  1  0.25253600  0.93813300  0.81258600  1
  O  O9  1  0.68584900  0.53188700  0.21806900  1
  F  F10  1  0.18559800  0.78497700  0.96716300  1
  F  F11  1  0.24801600  0.81135300  0.43740000  1
  F  F12  1  0.24216200  0.31939300  0.93563800  1
  F  F13  1  0.31986200  0.96247200  0.28169200  1
  F  F14  1  0.31384600  0.65716000  0.59287500  1
  F  F15  1  0.31614300  0.46824200  0.78223000  1
  F  F16  1  0.18376500  0.59323700  0.15651400  1
  F  F17  1  0.18660900  0.09077600  0.65824900  1
  F  F18  1  0.18582500  0.27975700  0.46744900  1
  F  F19  1  0.68684100  0.84327200  0.90680700  1
  F  F20  1  0.25445100  0.43772100  0.31165100  1
  F  F21  1  0.73824200  0.55566800  0.68911300  1
  F  F22  1  0.31519700  0.15789800  0.09296500  1
  F  F23  1  0.81448800  0.90732000  0.34138100  1
  F  F24  1  0.81651200  0.40822900  0.84260700  1
  F  F25  1  0.81437900  0.71795200  0.53173800  1
  F  F26  1  0.68551300  0.34244000  0.40704100  1
  F  F27  1  0.68872600  0.03157100  0.71900700  1
  F  F28  1  0.75165400  0.68962600  0.06199500  1
  F  F29  1  0.75301200  0.18540400  0.56307400  1
  F  F30  1  0.74618900  0.06395300  0.18706200  1
  F  F31  1  0.81541500  0.22156400  0.03527800  1
