# generated using pymatgen
data_Li3NbNi3O8
_symmetry_space_group_name_H-M   'P 1'
_cell_length_a   10.40536569
_cell_length_b   5.87155138
_cell_length_c   5.88269194
_cell_angle_alpha   90.00000000
_cell_angle_beta   124.01250945
_cell_angle_gamma   90.00000000
_symmetry_Int_Tables_number   1
_chemical_formula_structural   Li3NbNi3O8
_chemical_formula_sum   'Li6 Nb2 Ni6 O16'
_cell_volume   297.91787470
_cell_formula_units_Z   2
loop_
 _symmetry_equiv_pos_site_id
 _symmetry_equiv_pos_as_xyz
  1  'x, y, z'
loop_
 _atom_site_type_symbol
 _atom_site_label
 _atom_site_symmetry_multiplicity
 _atom_site_fract_x
 _atom_site_fract_y
 _atom_site_fract_z
 _atom_site_occupancy
  Li  Li0  1  0.00000000  0.50000000  0.50000000  1
  Li  Li1  1  0.25000000  0.75000000  0.50000000  1
  Li  Li2  1  0.25000000  0.25000000  0.50000000  1
  Li  Li3  1  0.50000000  0.00000000  0.50000000  1
  Li  Li4  1  0.75000000  0.25000000  0.50000000  1
  Li  Li5  1  0.75000000  0.75000000  0.50000000  1
  Nb  Nb6  1  0.00000000  0.00000000  0.00000000  1
  Nb  Nb7  1  0.50000000  0.50000000  0.00000000  1
  Ni  Ni8  1  0.50000000  0.00000000  0.00000000  1
  Ni  Ni9  1  0.25000000  0.25000000  0.00000000  1
  Ni  Ni10  1  0.25000000  0.75000000  0.00000000  1
  Ni  Ni11  1  0.00000000  0.50000000  0.00000000  1
  Ni  Ni12  1  0.75000000  0.75000000  0.00000000  1
  Ni  Ni13  1  0.75000000  0.25000000  0.00000000  1
  O  O14  1  0.26778100  0.50000000  0.76743700  1
  O  O15  1  0.23221900  0.00000000  0.23256300  1
  O  O16  1  0.28021500  0.00000000  0.79301000  1
  O  O17  1  0.21978500  0.50000000  0.20699000  1
  O  O18  1  0.00139150  0.26456500  0.77655600  1
  O  O19  1  0.00139150  0.73543500  0.77655600  1
  O  O20  1  0.49860850  0.76456500  0.22344400  1
  O  O21  1  0.49860850  0.23543500  0.22344400  1
  O  O22  1  0.76778100  0.00000000  0.76743700  1
  O  O23  1  0.73221900  0.50000000  0.23256300  1
  O  O24  1  0.78021500  0.50000000  0.79301000  1
  O  O25  1  0.71978500  0.00000000  0.20699000  1
  O  O26  1  0.50139150  0.76456500  0.77655600  1
  O  O27  1  0.50139150  0.23543500  0.77655600  1
  O  O28  1  0.99860850  0.26456500  0.22344400  1
  O  O29  1  0.99860850  0.73543500  0.22344400  1
