# generated using pymatgen
data_Na2CdO3
_symmetry_space_group_name_H-M   'P 1'
_cell_length_a   5.82077200
_cell_length_b   10.05822800
_cell_length_c   5.80900254
_cell_angle_alpha   90.00000000
_cell_angle_beta   109.72788852
_cell_angle_gamma   90.00000000
_symmetry_Int_Tables_number   1
_chemical_formula_structural   Na2CdO3
_chemical_formula_sum   'Na8 Cd4 O12'
_cell_volume   320.13607853
_cell_formula_units_Z   4
loop_
 _symmetry_equiv_pos_site_id
 _symmetry_equiv_pos_as_xyz
  1  'x, y, z'
loop_
 _atom_site_type_symbol
 _atom_site_label
 _atom_site_symmetry_multiplicity
 _atom_site_fract_x
 _atom_site_fract_y
 _atom_site_fract_z
 _atom_site_occupancy
  Na  Na0  1  0.50000000  0.00000000  0.00000000  1
  Na  Na1  1  0.50000000  0.66178800  0.00000000  1
  Na  Na2  1  0.50000000  0.33821200  0.00000000  1
  Na  Na3  1  0.00000000  0.00000000  0.50000000  1
  Na  Na4  1  0.00000000  0.50000000  0.00000000  1
  Na  Na5  1  0.00000000  0.16178800  0.00000000  1
  Na  Na6  1  0.00000000  0.83821200  0.00000000  1
  Na  Na7  1  0.50000000  0.50000000  0.50000000  1
  Cd  Cd8  1  0.50000000  0.83386000  0.50000000  1
  Cd  Cd9  1  0.50000000  0.16614000  0.50000000  1
  Cd  Cd10  1  0.00000000  0.33386000  0.50000000  1
  Cd  Cd11  1  0.00000000  0.66614000  0.50000000  1
  O  O12  1  0.25458900  0.17841500  0.72668300  1
  O  O13  1  0.74541100  0.82158500  0.27331700  1
  O  O14  1  0.27776600  0.00000000  0.26920100  1
  O  O15  1  0.25458900  0.82158500  0.72668300  1
  O  O16  1  0.74541100  0.17841500  0.27331700  1
  O  O17  1  0.72223400  0.00000000  0.73079900  1
  O  O18  1  0.75458900  0.67841500  0.72668300  1
  O  O19  1  0.24541100  0.32158500  0.27331700  1
  O  O20  1  0.77776600  0.50000000  0.26920100  1
  O  O21  1  0.75458900  0.32158500  0.72668300  1
  O  O22  1  0.24541100  0.67841500  0.27331700  1
  O  O23  1  0.22223400  0.50000000  0.73079900  1
