# generated using pymatgen
data_Li3Fe2(PO5)2
_symmetry_space_group_name_H-M   'P 1'
_cell_length_a   9.05277000
_cell_length_b   9.16540800
_cell_length_c   8.69118400
_cell_angle_alpha   90.00000000
_cell_angle_beta   90.00000000
_cell_angle_gamma   90.00000000
_symmetry_Int_Tables_number   1
_chemical_formula_structural   Li3Fe2(PO5)2
_chemical_formula_sum   'Li12 Fe8 P8 O40'
_cell_volume   721.12779198
_cell_formula_units_Z   4
loop_
 _symmetry_equiv_pos_site_id
 _symmetry_equiv_pos_as_xyz
  1  'x, y, z'
loop_
 _atom_site_type_symbol
 _atom_site_label
 _atom_site_symmetry_multiplicity
 _atom_site_fract_x
 _atom_site_fract_y
 _atom_site_fract_z
 _atom_site_occupancy
  Li  Li0  1  0.00000000  0.00000000  0.00000000  1
  Li  Li1  1  0.25000000  0.25000000  0.00000000  1
  Li  Li2  1  0.25000000  0.25000000  0.50000000  1
  Li  Li3  1  0.50000000  0.00000000  0.50000000  1
  Li  Li4  1  0.25000000  0.75000000  0.00000000  1
  Li  Li5  1  0.25000000  0.75000000  0.50000000  1
  Li  Li6  1  0.50000000  0.50000000  0.00000000  1
  Li  Li7  1  0.75000000  0.75000000  0.00000000  1
  Li  Li8  1  0.75000000  0.75000000  0.50000000  1
  Li  Li9  1  0.00000000  0.50000000  0.50000000  1
  Li  Li10  1  0.75000000  0.25000000  0.00000000  1
  Li  Li11  1  0.75000000  0.25000000  0.50000000  1
  Fe  Fe12  1  0.74261200  0.00000000  0.79749300  1
  Fe  Fe13  1  0.75738800  0.00000000  0.29749300  1
  Fe  Fe14  1  0.24261200  0.00000000  0.70250700  1
  Fe  Fe15  1  0.25738800  0.00000000  0.20250700  1
  Fe  Fe16  1  0.24261200  0.50000000  0.79749300  1
  Fe  Fe17  1  0.25738800  0.50000000  0.29749300  1
  Fe  Fe18  1  0.74261200  0.50000000  0.70250700  1
  Fe  Fe19  1  0.75738800  0.50000000  0.20250700  1
  P  P20  1  0.50272100  0.75000000  0.75000000  1
  P  P21  1  0.49727900  0.75000000  0.25000000  1
  P  P22  1  0.50272100  0.25000000  0.75000000  1
  P  P23  1  0.49727900  0.25000000  0.25000000  1
  P  P24  1  0.00272100  0.25000000  0.75000000  1
  P  P25  1  0.99727900  0.25000000  0.25000000  1
  P  P26  1  0.00272100  0.75000000  0.75000000  1
  P  P27  1  0.99727900  0.75000000  0.25000000  1
  O  O28  1  0.60171050  0.84284750  0.85727000  1
  O  O29  1  0.40379700  0.65107000  0.85197900  1
  O  O30  1  0.77392500  0.00000000  0.09567400  1
  O  O31  1  0.59620300  0.84893000  0.35197900  1
  O  O32  1  0.39828950  0.65715250  0.35727000  1
  O  O33  1  0.72607500  0.00000000  0.59567400  1
  O  O34  1  0.60171050  0.65715250  0.64273000  1
  O  O35  1  0.59620300  0.65107000  0.14802100  1
  O  O36  1  0.40379700  0.34893000  0.85197900  1
  O  O37  1  0.39828950  0.34284750  0.35727000  1
  O  O38  1  0.39828950  0.15715250  0.14273000  1
  O  O39  1  0.40379700  0.15107000  0.64802100  1
  O  O40  1  0.27392500  0.00000000  0.40432600  1
  O  O41  1  0.22607500  0.00000000  0.90432600  1
  O  O42  1  0.59620300  0.34893000  0.14802100  1
  O  O43  1  0.60171050  0.34284750  0.64273000  1
  O  O44  1  0.60171050  0.15715250  0.85727000  1
  O  O45  1  0.59620300  0.15107000  0.35197900  1
  O  O46  1  0.39828950  0.84284750  0.14273000  1
  O  O47  1  0.40379700  0.84893000  0.64802100  1
  O  O48  1  0.10171050  0.34284750  0.85727000  1
  O  O49  1  0.90379700  0.15107000  0.85197900  1
  O  O50  1  0.27392500  0.50000000  0.09567400  1
  O  O51  1  0.09620300  0.34893000  0.35197900  1
  O  O52  1  0.89828950  0.15715250  0.35727000  1
  O  O53  1  0.22607500  0.50000000  0.59567400  1
  O  O54  1  0.10171050  0.15715250  0.64273000  1
  O  O55  1  0.09620300  0.15107000  0.14802100  1
  O  O56  1  0.90379700  0.84893000  0.85197900  1
  O  O57  1  0.89828950  0.84284750  0.35727000  1
  O  O58  1  0.89828950  0.65715250  0.14273000  1
  O  O59  1  0.90379700  0.65107000  0.64802100  1
  O  O60  1  0.77392500  0.50000000  0.40432600  1
  O  O61  1  0.72607500  0.50000000  0.90432600  1
  O  O62  1  0.09620300  0.84893000  0.14802100  1
  O  O63  1  0.10171050  0.84284750  0.64273000  1
  O  O64  1  0.10171050  0.65715250  0.85727000  1
  O  O65  1  0.09620300  0.65107000  0.35197900  1
  O  O66  1  0.89828950  0.34284750  0.14273000  1
  O  O67  1  0.90379700  0.34893000  0.64802100  1
