# generated using pymatgen
data_MgCoH16(ClO2)4
_symmetry_space_group_name_H-M   'P 1'
_cell_length_a   6.12550865
_cell_length_b   6.38858768
_cell_length_c   8.59039667
_cell_angle_alpha   81.60959971
_cell_angle_beta   87.20748052
_cell_angle_gamma   84.24465891
_symmetry_Int_Tables_number   1
_chemical_formula_structural   MgCoH16(ClO2)4
_chemical_formula_sum   'Mg1 Co1 H16 Cl4 O8'
_cell_volume   330.69797154
_cell_formula_units_Z   1
loop_
 _symmetry_equiv_pos_site_id
 _symmetry_equiv_pos_as_xyz
  1  'x, y, z'
loop_
 _atom_site_type_symbol
 _atom_site_label
 _atom_site_symmetry_multiplicity
 _atom_site_fract_x
 _atom_site_fract_y
 _atom_site_fract_z
 _atom_site_occupancy
  Mg  Mg0  1  0.50000000  0.50000000  0.50000000  1
  Co  Co1  1  0.00000000  0.00000000  0.00000000  1
  H  H2  1  0.77819700  0.38688750  0.93932350  1
  H  H3  1  0.22180300  0.61311250  0.06067650  1
  H  H4  1  0.59868700  0.22616250  0.98775200  1
  H  H5  1  0.40131300  0.77383750  0.01224800  1
  H  H6  1  0.48091200  0.10855200  0.65809450  1
  H  H7  1  0.51908800  0.89144800  0.34190550  1
  H  H8  1  0.72753400  0.15694400  0.67360850  1
  H  H9  1  0.27246600  0.84305600  0.32639150  1
  H  H10  1  0.27566000  0.46547200  0.79312300  1
  H  H11  1  0.72434000  0.53452800  0.20687700  1
  H  H12  1  0.24064200  0.70580300  0.70942000  1
  H  H13  1  0.75935800  0.29419700  0.29058000  1
  H  H14  1  0.75982300  0.67563200  0.69090550  1
  H  H15  1  0.24017700  0.32436800  0.30909450  1
  H  H16  1  0.84737900  0.72260800  0.51407500  1
  H  H17  1  0.15262100  0.27739200  0.48592500  1
  Cl  Cl18  1  0.12126100  0.03441600  0.71985400  1
  Cl  Cl19  1  0.87873900  0.96558400  0.28014600  1
  Cl  Cl20  1  0.74782700  0.72750800  0.95149300  1
  Cl  Cl21  1  0.25217300  0.27249200  0.04850700  1
  O  O22  1  0.74984200  0.23671900  0.94261350  1
  O  O23  1  0.25015800  0.76328100  0.05738650  1
  O  O24  1  0.59827600  0.19257600  0.60855050  1
  O  O25  1  0.40172400  0.80742400  0.39144950  1
  O  O26  1  0.30891300  0.56185700  0.69718300  1
  O  O27  1  0.69108700  0.43814300  0.30281700  1
  O  O28  1  0.76525700  0.62483450  0.58798000  1
  O  O29  1  0.23474300  0.37516550  0.41202000  1
