# generated using pymatgen
data_Li4Fe5CoO12
_symmetry_space_group_name_H-M   'P 1'
_cell_length_a   5.15966803
_cell_length_b   8.76381565
_cell_length_c   10.25455988
_cell_angle_alpha   90.00000000
_cell_angle_beta   90.20708728
_cell_angle_gamma   90.00000000
_symmetry_Int_Tables_number   1
_chemical_formula_structural   Li4Fe5CoO12
_chemical_formula_sum   'Li8 Fe10 Co2 O24'
_cell_volume   463.69155080
_cell_formula_units_Z   2
loop_
 _symmetry_equiv_pos_site_id
 _symmetry_equiv_pos_as_xyz
  1  'x, y, z'
loop_
 _atom_site_type_symbol
 _atom_site_label
 _atom_site_symmetry_multiplicity
 _atom_site_fract_x
 _atom_site_fract_y
 _atom_site_fract_z
 _atom_site_occupancy
  Li  Li0  1  0.89687700  0.75390000  0.74862900  1
  Li  Li1  1  0.10312300  0.75390000  0.25137100  1
  Li  Li2  1  0.89664800  0.25046300  0.74850900  1
  Li  Li3  1  0.10335200  0.25046300  0.25149100  1
  Li  Li4  1  0.39687700  0.25390000  0.74862900  1
  Li  Li5  1  0.60312300  0.25390000  0.25137100  1
  Li  Li6  1  0.39664800  0.75046300  0.74850900  1
  Li  Li7  1  0.60335200  0.75046300  0.25149100  1
  Fe  Fe8  1  0.00000000  0.83425150  0.00000000  1
  Fe  Fe9  1  0.00000000  0.33559300  0.50000000  1
  Fe  Fe10  1  0.00000000  0.66717850  0.50000000  1
  Fe  Fe11  1  0.00000000  0.16451850  0.00000000  1
  Fe  Fe12  1  0.00000000  0.49595800  0.00000000  1
  Fe  Fe13  1  0.50000000  0.33425150  0.00000000  1
  Fe  Fe14  1  0.50000000  0.83559300  0.50000000  1
  Fe  Fe15  1  0.50000000  0.16717850  0.50000000  1
  Fe  Fe16  1  0.50000000  0.66451850  0.00000000  1
  Fe  Fe17  1  0.50000000  0.99595800  0.00000000  1
  Co  Co18  1  0.00000000  0.00209600  0.50000000  1
  Co  Co19  1  0.50000000  0.50209600  0.50000000  1
  O  O20  1  0.84763000  0.83430500  0.39407000  1
  O  O21  1  0.15237000  0.83430500  0.60593000  1
  O  O22  1  0.84670500  0.67499300  0.10740600  1
  O  O23  1  0.84626700  0.32499800  0.11207200  1
  O  O24  1  0.15329500  0.67499300  0.89259400  1
  O  O25  1  0.66477950  0.49312450  0.90193600  1
  O  O26  1  0.15373300  0.32499800  0.88792800  1
  O  O27  1  0.84654600  0.16811600  0.39367300  1
  O  O28  1  0.81167300  0.50256900  0.40709700  1
  O  O29  1  0.15345400  0.16811600  0.60632700  1
  O  O30  1  0.18832700  0.50256900  0.59290300  1
  O  O31  1  0.33522050  0.49312450  0.09806400  1
  O  O32  1  0.34763000  0.33430500  0.39407000  1
  O  O33  1  0.65237000  0.33430500  0.60593000  1
  O  O34  1  0.34670500  0.17499300  0.10740600  1
  O  O35  1  0.34626700  0.82499800  0.11207200  1
  O  O36  1  0.65329500  0.17499300  0.89259400  1
  O  O37  1  0.16477950  0.99312450  0.90193600  1
  O  O38  1  0.65373300  0.82499800  0.88792800  1
  O  O39  1  0.34654600  0.66811600  0.39367300  1
  O  O40  1  0.31167300  0.00256900  0.40709700  1
  O  O41  1  0.65345400  0.66811600  0.60632700  1
  O  O42  1  0.68832700  0.00256900  0.59290300  1
  O  O43  1  0.83522050  0.99312450  0.09806400  1
