# generated using pymatgen
data_HfMnO3
_symmetry_space_group_name_H-M   'P 1'
_cell_length_a   5.41102000
_cell_length_b   5.60651500
_cell_length_c   7.90669700
_cell_angle_alpha   90.00000000
_cell_angle_beta   90.00000000
_cell_angle_gamma   90.00000000
_symmetry_Int_Tables_number   1
_chemical_formula_structural   HfMnO3
_chemical_formula_sum   'Hf4 Mn4 O12'
_cell_volume   239.86518854
_cell_formula_units_Z   4
loop_
 _symmetry_equiv_pos_site_id
 _symmetry_equiv_pos_as_xyz
  1  'x, y, z'
loop_
 _atom_site_type_symbol
 _atom_site_label
 _atom_site_symmetry_multiplicity
 _atom_site_fract_x
 _atom_site_fract_y
 _atom_site_fract_z
 _atom_site_occupancy
  Hf  Hf0  1  0.00000000  0.50000000  0.50000000  1
  Hf  Hf1  1  0.00000000  0.50000000  0.00000000  1
  Hf  Hf2  1  0.50000000  0.00000000  0.50000000  1
  Hf  Hf3  1  0.50000000  0.00000000  0.00000000  1
  Mn  Mn4  1  0.49141750  0.45508250  0.25000000  1
  Mn  Mn5  1  0.50858250  0.54491750  0.75000000  1
  Mn  Mn6  1  0.00858250  0.95508250  0.25000000  1
  Mn  Mn7  1  0.99141750  0.04491750  0.75000000  1
  O  O8  1  0.12374450  0.43884950  0.75000000  1
  O  O9  1  0.37625550  0.93884950  0.75000000  1
  O  O10  1  0.62374450  0.06115050  0.25000000  1
  O  O11  1  0.87625550  0.56115050  0.25000000  1
  O  O12  1  0.18178250  0.18655150  0.06627350  1
  O  O13  1  0.18178250  0.18655150  0.43372650  1
  O  O14  1  0.31821750  0.68655150  0.06627350  1
  O  O15  1  0.31821750  0.68655150  0.43372650  1
  O  O16  1  0.68178250  0.31344850  0.56627350  1
  O  O17  1  0.68178250  0.31344850  0.93372650  1
  O  O18  1  0.81821750  0.81344850  0.56627350  1
  O  O19  1  0.81821750  0.81344850  0.93372650  1
