# generated using pymatgen
data_Li2Cr(CoO3)2
_symmetry_space_group_name_H-M   'P 1'
_cell_length_a   4.92589000
_cell_length_b   8.59071800
_cell_length_c   9.97715700
_cell_angle_alpha   90.00000000
_cell_angle_beta   90.00000000
_cell_angle_gamma   90.00000000
_symmetry_Int_Tables_number   1
_chemical_formula_structural   Li2Cr(CoO3)2
_chemical_formula_sum   'Li8 Cr4 Co8 O24'
_cell_volume   422.20267322
_cell_formula_units_Z   4
loop_
 _symmetry_equiv_pos_site_id
 _symmetry_equiv_pos_as_xyz
  1  'x, y, z'
loop_
 _atom_site_type_symbol
 _atom_site_label
 _atom_site_symmetry_multiplicity
 _atom_site_fract_x
 _atom_site_fract_y
 _atom_site_fract_z
 _atom_site_occupancy
  Li  Li0  1  0.08587900  0.25000000  0.25000000  1
  Li  Li1  1  0.91412100  0.25000000  0.75000000  1
  Li  Li2  1  0.58587900  0.25000000  0.25000000  1
  Li  Li3  1  0.41412100  0.25000000  0.75000000  1
  Li  Li4  1  0.58587900  0.75000000  0.25000000  1
  Li  Li5  1  0.41412100  0.75000000  0.75000000  1
  Li  Li6  1  0.08587900  0.75000000  0.25000000  1
  Li  Li7  1  0.91412100  0.75000000  0.75000000  1
  Cr  Cr8  1  0.50000000  0.00000000  0.50000000  1
  Cr  Cr9  1  0.00000000  0.00000000  0.00000000  1
  Cr  Cr10  1  0.00000000  0.50000000  0.50000000  1
  Cr  Cr11  1  0.50000000  0.50000000  0.00000000  1
  Co  Co12  1  0.00000000  0.16602500  0.50000000  1
  Co  Co13  1  0.50000000  0.16602500  0.00000000  1
  Co  Co14  1  0.00000000  0.33397500  0.00000000  1
  Co  Co15  1  0.50000000  0.33397500  0.50000000  1
  Co  Co16  1  0.50000000  0.66602500  0.50000000  1
  Co  Co17  1  0.00000000  0.66602500  0.00000000  1
  Co  Co18  1  0.50000000  0.83397500  0.00000000  1
  Co  Co19  1  0.00000000  0.83397500  0.50000000  1
  O  O20  1  0.33100300  0.00000000  0.09666300  1
  O  O21  1  0.16899700  0.00000000  0.59666300  1
  O  O22  1  0.83100300  0.00000000  0.40333700  1
  O  O23  1  0.33283100  0.17152200  0.39623800  1
  O  O24  1  0.66899700  0.00000000  0.90333700  1
  O  O25  1  0.16716900  0.17152200  0.89623800  1
  O  O26  1  0.83283100  0.17152200  0.10376200  1
  O  O27  1  0.66716900  0.17152200  0.60376200  1
  O  O28  1  0.16716900  0.32847800  0.60376200  1
  O  O29  1  0.83283100  0.32847800  0.39623800  1
  O  O30  1  0.66716900  0.32847800  0.89623800  1
  O  O31  1  0.33283100  0.32847800  0.10376200  1
  O  O32  1  0.83100300  0.50000000  0.09666300  1
  O  O33  1  0.66899700  0.50000000  0.59666300  1
  O  O34  1  0.33100300  0.50000000  0.40333700  1
  O  O35  1  0.83283100  0.67152200  0.39623800  1
  O  O36  1  0.16899700  0.50000000  0.90333700  1
  O  O37  1  0.66716900  0.67152200  0.89623800  1
  O  O38  1  0.33283100  0.67152200  0.10376200  1
  O  O39  1  0.16716900  0.67152200  0.60376200  1
  O  O40  1  0.66716900  0.82847800  0.60376200  1
  O  O41  1  0.33283100  0.82847800  0.39623800  1
  O  O42  1  0.16716900  0.82847800  0.89623800  1
  O  O43  1  0.83283100  0.82847800  0.10376200  1
