# generated using pymatgen
data_RbLi7(NiO3)2
_symmetry_space_group_name_H-M   'P 1'
_cell_length_a   10.07822400
_cell_length_b   3.68581400
_cell_length_c   10.06262700
_cell_angle_alpha   90.00000000
_cell_angle_beta   92.44584239
_cell_angle_gamma   90.00000000
_symmetry_Int_Tables_number   1
_chemical_formula_structural   RbLi7(NiO3)2
_chemical_formula_sum   'Rb2 Li14 Ni4 O12'
_cell_volume   373.45044085
_cell_formula_units_Z   2
loop_
 _symmetry_equiv_pos_site_id
 _symmetry_equiv_pos_as_xyz
  1  'x, y, z'
loop_
 _atom_site_type_symbol
 _atom_site_label
 _atom_site_symmetry_multiplicity
 _atom_site_fract_x
 _atom_site_fract_y
 _atom_site_fract_z
 _atom_site_occupancy
  Rb  Rb0  1  0.00000000  0.00000000  0.00000000  1
  Rb  Rb1  1  0.50000000  0.50000000  0.00000000  1
  Li  Li2  1  0.66906900  0.50000000  0.26966800  1
  Li  Li3  1  0.73081300  0.00000000  0.09966500  1
  Li  Li4  1  0.74573800  0.50000000  0.58512700  1
  Li  Li5  1  0.75426200  0.00000000  0.41487300  1
  Li  Li6  1  0.76918700  0.50000000  0.90033500  1
  Li  Li7  1  0.83093100  0.00000000  0.73033200  1
  Li  Li8  1  0.00000000  0.50000000  0.50000000  1
  Li  Li9  1  0.16906900  0.00000000  0.26966800  1
  Li  Li10  1  0.23081300  0.50000000  0.09966500  1
  Li  Li11  1  0.24573800  0.00000000  0.58512700  1
  Li  Li12  1  0.25426200  0.50000000  0.41487300  1
  Li  Li13  1  0.26918700  0.00000000  0.90033500  1
  Li  Li14  1  0.33093100  0.50000000  0.73033200  1
  Li  Li15  1  0.50000000  0.00000000  0.50000000  1
  Ni  Ni16  1  0.57931900  0.00000000  0.74653000  1
  Ni  Ni17  1  0.92068100  0.50000000  0.25347000  1
  Ni  Ni18  1  0.07931900  0.50000000  0.74653000  1
  Ni  Ni19  1  0.42068100  0.00000000  0.25347000  1
  O  O20  1  0.60530300  0.00000000  0.25992100  1
  O  O21  1  0.67063100  0.00000000  0.58879200  1
  O  O22  1  0.69731400  0.00000000  0.89274500  1
  O  O23  1  0.80268600  0.50000000  0.10725500  1
  O  O24  1  0.82936900  0.50000000  0.41120800  1
  O  O25  1  0.89469700  0.50000000  0.74007900  1
  O  O26  1  0.10530300  0.50000000  0.25992100  1
  O  O27  1  0.17063100  0.50000000  0.58879200  1
  O  O28  1  0.19731400  0.50000000  0.89274500  1
  O  O29  1  0.30268600  0.00000000  0.10725500  1
  O  O30  1  0.32936900  0.00000000  0.41120800  1
  O  O31  1  0.39469700  0.00000000  0.74007900  1
