# generated using pymatgen
data_LiVBO4
_symmetry_space_group_name_H-M   'P 1'
_cell_length_a   9.57367831
_cell_length_b   13.80918133
_cell_length_c   5.20000305
_cell_angle_alpha   90.00000000
_cell_angle_beta   90.00000000
_cell_angle_gamma   90.00000000
_symmetry_Int_Tables_number   1
_chemical_formula_structural   LiVBO4
_chemical_formula_sum   'Li8 V8 B8 O32'
_cell_volume   687.46463399
_cell_formula_units_Z   8
loop_
 _symmetry_equiv_pos_site_id
 _symmetry_equiv_pos_as_xyz
  1  'x, y, z'
loop_
 _atom_site_type_symbol
 _atom_site_label
 _atom_site_symmetry_multiplicity
 _atom_site_fract_x
 _atom_site_fract_y
 _atom_site_fract_z
 _atom_site_occupancy
  Li  Li0  1  0.47812150  0.74694050  0.22824700  1
  Li  Li1  1  0.52187850  0.74694050  0.72824700  1
  Li  Li2  1  0.47812150  0.25305950  0.72824700  1
  Li  Li3  1  0.52187850  0.25305950  0.22824700  1
  Li  Li4  1  0.97812150  0.24694050  0.22824700  1
  Li  Li5  1  0.02187850  0.24694050  0.72824700  1
  Li  Li6  1  0.97812150  0.75305950  0.72824700  1
  Li  Li7  1  0.02187850  0.75305950  0.22824700  1
  V  V8  1  0.22708200  0.59789200  0.53390600  1
  V  V9  1  0.22708200  0.40210800  0.03390600  1
  V  V10  1  0.77291800  0.59789200  0.03390600  1
  V  V11  1  0.77291800  0.40210800  0.53390600  1
  V  V12  1  0.72708200  0.09789200  0.53390600  1
  V  V13  1  0.72708200  0.90210800  0.03390600  1
  V  V14  1  0.27291800  0.09789200  0.03390600  1
  V  V15  1  0.27291800  0.90210800  0.53390600  1
  B  B16  1  0.30807600  0.61460700  0.98155100  1
  B  B17  1  0.69192400  0.61460700  0.48155100  1
  B  B18  1  0.30807600  0.38539300  0.48155100  1
  B  B19  1  0.69192400  0.38539300  0.98155100  1
  B  B20  1  0.80807600  0.11460700  0.98155100  1
  B  B21  1  0.19192400  0.11460700  0.48155100  1
  B  B22  1  0.80807600  0.88539300  0.48155100  1
  B  B23  1  0.19192400  0.88539300  0.98155100  1
  O  O24  1  0.22668350  0.53551350  0.89444600  1
  O  O25  1  0.33471250  0.63948150  0.22888000  1
  O  O26  1  0.35503550  0.66626750  0.77050100  1
  O  O27  1  0.42351600  0.84243600  0.49568300  1
  O  O28  1  0.57648400  0.84243600  0.99568300  1
  O  O29  1  0.22668350  0.46448650  0.39444600  1
  O  O30  1  0.64496450  0.66626750  0.27050100  1
  O  O31  1  0.66528750  0.63948150  0.72888000  1
  O  O32  1  0.33471250  0.36051850  0.72888000  1
  O  O33  1  0.35503550  0.33373250  0.27050100  1
  O  O34  1  0.77331650  0.53551350  0.39444600  1
  O  O35  1  0.42351600  0.15756400  0.99568300  1
  O  O36  1  0.57648400  0.15756400  0.49568300  1
  O  O37  1  0.64496450  0.33373250  0.77050100  1
  O  O38  1  0.66528750  0.36051850  0.22888000  1
  O  O39  1  0.77331650  0.46448650  0.89444600  1
  O  O40  1  0.72668350  0.03551350  0.89444600  1
  O  O41  1  0.83471250  0.13948150  0.22888000  1
  O  O42  1  0.85503550  0.16626750  0.77050100  1
  O  O43  1  0.92351600  0.34243600  0.49568300  1
  O  O44  1  0.07648400  0.34243600  0.99568300  1
  O  O45  1  0.72668350  0.96448650  0.39444600  1
  O  O46  1  0.14496450  0.16626750  0.27050100  1
  O  O47  1  0.16528750  0.13948150  0.72888000  1
  O  O48  1  0.83471250  0.86051850  0.72888000  1
  O  O49  1  0.85503550  0.83373250  0.27050100  1
  O  O50  1  0.27331650  0.03551350  0.39444600  1
  O  O51  1  0.92351600  0.65756400  0.99568300  1
  O  O52  1  0.07648400  0.65756400  0.49568300  1
  O  O53  1  0.14496450  0.83373250  0.77050100  1
  O  O54  1  0.16528750  0.86051850  0.22888000  1
  O  O55  1  0.27331650  0.96448650  0.89444600  1
