# generated using pymatgen
data_Mn6O5F7
_symmetry_space_group_name_H-M   'P 1'
_cell_length_a   6.35949600
_cell_length_b   7.28402000
_cell_length_c   9.31959500
_cell_angle_alpha   90.00000000
_cell_angle_beta   90.00000000
_cell_angle_gamma   90.00000000
_symmetry_Int_Tables_number   1
_chemical_formula_structural   Mn6O5F7
_chemical_formula_sum   'Mn12 O10 F14'
_cell_volume   431.70876653
_cell_formula_units_Z   2
loop_
 _symmetry_equiv_pos_site_id
 _symmetry_equiv_pos_as_xyz
  1  'x, y, z'
loop_
 _atom_site_type_symbol
 _atom_site_label
 _atom_site_symmetry_multiplicity
 _atom_site_fract_x
 _atom_site_fract_y
 _atom_site_fract_z
 _atom_site_occupancy
  Mn  Mn0  1  0.99559000  0.00000000  0.83444400  1
  Mn  Mn1  1  0.99559000  0.00000000  0.16555600  1
  Mn  Mn2  1  0.02253100  0.00000000  0.50000000  1
  Mn  Mn3  1  0.49379300  0.00000000  0.67536500  1
  Mn  Mn4  1  0.49675300  0.00000000  0.00000000  1
  Mn  Mn5  1  0.49379300  0.00000000  0.32463500  1
  Mn  Mn6  1  0.49559000  0.50000000  0.83444400  1
  Mn  Mn7  1  0.49559000  0.50000000  0.16555600  1
  Mn  Mn8  1  0.52253100  0.50000000  0.50000000  1
  Mn  Mn9  1  0.99379300  0.50000000  0.67536500  1
  Mn  Mn10  1  0.99675300  0.50000000  0.00000000  1
  Mn  Mn11  1  0.99379300  0.50000000  0.32463500  1
  O  O12  1  0.29777600  0.00000000  0.83640200  1
  O  O13  1  0.29777600  0.00000000  0.16359800  1
  O  O14  1  0.31973300  0.00000000  0.50000000  1
  O  O15  1  0.69243600  0.00000000  0.83522800  1
  O  O16  1  0.69243600  0.00000000  0.16477200  1
  O  O17  1  0.79777600  0.50000000  0.83640200  1
  O  O18  1  0.79777600  0.50000000  0.16359800  1
  O  O19  1  0.81973300  0.50000000  0.50000000  1
  O  O20  1  0.19243600  0.50000000  0.83522800  1
  O  O21  1  0.19243600  0.50000000  0.16477200  1
  F  F22  1  0.49721250  0.31257050  0.00000000  1
  F  F23  1  0.50090600  0.30992400  0.33427700  1
  F  F24  1  0.50090600  0.30992400  0.66572300  1
  F  F25  1  0.70374200  0.00000000  0.50000000  1
  F  F26  1  0.49721250  0.68742950  0.00000000  1
  F  F27  1  0.50090600  0.69007600  0.33427700  1
  F  F28  1  0.50090600  0.69007600  0.66572300  1
  F  F29  1  0.99721250  0.81257050  0.00000000  1
  F  F30  1  0.00090600  0.80992400  0.33427700  1
  F  F31  1  0.00090600  0.80992400  0.66572300  1
  F  F32  1  0.20374200  0.50000000  0.50000000  1
  F  F33  1  0.99721250  0.18742950  0.00000000  1
  F  F34  1  0.00090600  0.19007600  0.33427700  1
  F  F35  1  0.00090600  0.19007600  0.66572300  1
