# generated using pymatgen
data_Li4Mn2V3Sb3O16
_symmetry_space_group_name_H-M   'P 1'
_cell_length_a   10.70181800
_cell_length_b   6.16503400
_cell_length_c   10.02880856
_cell_angle_alpha   90.00000000
_cell_angle_beta   90.21186008
_cell_angle_gamma   90.00000000
_symmetry_Int_Tables_number   1
_chemical_formula_structural   Li4Mn2V3Sb3O16
_chemical_formula_sum   'Li8 Mn4 V6 Sb6 O32'
_cell_volume   661.66689936
_cell_formula_units_Z   2
loop_
 _symmetry_equiv_pos_site_id
 _symmetry_equiv_pos_as_xyz
  1  'x, y, z'
loop_
 _atom_site_type_symbol
 _atom_site_label
 _atom_site_symmetry_multiplicity
 _atom_site_fract_x
 _atom_site_fract_y
 _atom_site_fract_z
 _atom_site_occupancy
  Li  Li0  1  0.66390700  0.00000000  0.87323600  1
  Li  Li1  1  0.99095000  0.00000000  0.99100900  1
  Li  Li2  1  0.99388000  0.00000000  0.50543600  1
  Li  Li3  1  0.82774300  0.50000000  0.40166900  1
  Li  Li4  1  0.16390700  0.50000000  0.87323600  1
  Li  Li5  1  0.49095000  0.50000000  0.99100900  1
  Li  Li6  1  0.49388000  0.50000000  0.50543600  1
  Li  Li7  1  0.32774300  0.00000000  0.40166900  1
  Mn  Mn8  1  0.67527300  0.00000000  0.51765700  1
  Mn  Mn9  1  0.84309300  0.50000000  0.98039300  1
  Mn  Mn10  1  0.17527300  0.50000000  0.51765700  1
  Mn  Mn11  1  0.34309300  0.00000000  0.98039300  1
  V  V12  1  0.83229300  0.00000000  0.21670200  1
  V  V13  1  0.91730650  0.74641650  0.71490800  1
  V  V14  1  0.91730650  0.25358350  0.71490800  1
  V  V15  1  0.33229300  0.50000000  0.21670200  1
  V  V16  1  0.41730650  0.24641650  0.71490800  1
  V  V17  1  0.41730650  0.75358350  0.71490800  1
  Sb  Sb18  1  0.58448100  0.24795100  0.21617500  1
  Sb  Sb19  1  0.58448100  0.75204900  0.21617500  1
  Sb  Sb20  1  0.66952400  0.50000000  0.71500300  1
  Sb  Sb21  1  0.08448100  0.74795100  0.21617500  1
  Sb  Sb22  1  0.08448100  0.25204900  0.21617500  1
  Sb  Sb23  1  0.16952400  0.00000000  0.71500300  1
  O  O24  1  0.57908300  0.26961500  0.60286200  1
  O  O25  1  0.51301400  0.00000000  0.32846200  1
  O  O26  1  0.66163500  0.00000000  0.10387000  1
  O  O27  1  0.50458300  0.50000000  0.32115600  1
  O  O28  1  0.50681300  0.50000000  0.81456500  1
  O  O29  1  0.57908300  0.73038500  0.60286200  1
  O  O30  1  0.74034200  0.22813200  0.32328500  1
  O  O31  1  0.74034200  0.77186800  0.32328500  1
  O  O32  1  0.65327300  0.50000000  0.10441100  1
  O  O33  1  0.84718300  0.00000000  0.60950800  1
  O  O34  1  0.75623600  0.72475600  0.83040300  1
  O  O35  1  0.75623600  0.27524400  0.83040300  1
  O  O36  1  0.82616600  0.50000000  0.60227000  1
  O  O37  1  0.92604700  0.76863200  0.11019100  1
  O  O38  1  0.98323600  0.50000000  0.82684100  1
  O  O39  1  0.92604700  0.23136800  0.11019100  1
  O  O40  1  0.07908300  0.76961500  0.60286200  1
  O  O41  1  0.01301400  0.50000000  0.32846200  1
  O  O42  1  0.16163500  0.50000000  0.10387000  1
  O  O43  1  0.00458300  0.00000000  0.32115600  1
  O  O44  1  0.00681300  0.00000000  0.81456500  1
  O  O45  1  0.07908300  0.23038500  0.60286200  1
  O  O46  1  0.24034200  0.72813200  0.32328500  1
  O  O47  1  0.24034200  0.27186800  0.32328500  1
  O  O48  1  0.15327300  0.00000000  0.10441100  1
  O  O49  1  0.34718300  0.50000000  0.60950800  1
  O  O50  1  0.25623600  0.22475600  0.83040300  1
  O  O51  1  0.25623600  0.77524400  0.83040300  1
  O  O52  1  0.32616600  0.00000000  0.60227000  1
  O  O53  1  0.42604700  0.26863200  0.11019100  1
  O  O54  1  0.48323600  0.00000000  0.82684100  1
  O  O55  1  0.42604700  0.73136800  0.11019100  1
