# generated using pymatgen
data_Li12VCo3P4(CO7)4
_symmetry_space_group_name_H-M   'P 1'
_cell_length_a   8.44785700
_cell_length_b   6.51585600
_cell_length_c   9.99893139
_cell_angle_alpha   90.00000000
_cell_angle_beta   95.27269315
_cell_angle_gamma   90.00000000
_symmetry_Int_Tables_number   1
_chemical_formula_structural   Li12VCo3P4(CO7)4
_chemical_formula_sum   'Li12 V1 Co3 P4 C4 O28'
_cell_volume   548.06245434
_cell_formula_units_Z   1
loop_
 _symmetry_equiv_pos_site_id
 _symmetry_equiv_pos_as_xyz
  1  'x, y, z'
loop_
 _atom_site_type_symbol
 _atom_site_label
 _atom_site_symmetry_multiplicity
 _atom_site_fract_x
 _atom_site_fract_y
 _atom_site_fract_z
 _atom_site_occupancy
  Li  Li0  1  0.09730100  0.00000000  0.61504400  1
  Li  Li1  1  0.09951500  0.00000000  0.11563100  1
  Li  Li2  1  0.27630300  0.77071600  0.87398400  1
  Li  Li3  1  0.27630300  0.22928400  0.87398400  1
  Li  Li4  1  0.27692100  0.76876500  0.37448500  1
  Li  Li5  1  0.27692100  0.23123500  0.37448500  1
  Li  Li6  1  0.72209500  0.27362900  0.62780400  1
  Li  Li7  1  0.72209500  0.72637100  0.62780400  1
  Li  Li8  1  0.72289400  0.27282100  0.12410000  1
  Li  Li9  1  0.72289400  0.72717900  0.12410000  1
  Li  Li10  1  0.90158600  0.50000000  0.88421400  1
  Li  Li11  1  0.90029300  0.50000000  0.38424100  1
  V  V12  1  0.67117900  0.00000000  0.39605800  1
  Co  Co13  1  0.33171500  0.50000000  0.60516800  1
  Co  Co14  1  0.33153600  0.50000000  0.10607900  1
  Co  Co15  1  0.66824800  0.00000000  0.89455000  1
  P  P16  1  0.41130200  0.00000000  0.63927900  1
  P  P17  1  0.41242300  0.00000000  0.13891600  1
  P  P18  1  0.58686500  0.50000000  0.86137800  1
  P  P19  1  0.58783400  0.50000000  0.36101600  1
  C  C20  1  0.03689000  0.50000000  0.65074000  1
  C  C21  1  0.03696200  0.50000000  0.15044900  1
  C  C22  1  0.96242700  0.00000000  0.84921800  1
  C  C23  1  0.96569000  0.00000000  0.34779800  1
  O  O24  1  0.07223700  0.50000000  0.52743500  1
  O  O25  1  0.10847500  0.00000000  0.81842100  1
  O  O26  1  0.07212500  0.50000000  0.02734900  1
  O  O27  1  0.15404100  0.50000000  0.74539700  1
  O  O28  1  0.11171800  0.00000000  0.31979600  1
  O  O29  1  0.15421800  0.50000000  0.24517200  1
  O  O30  1  0.30734000  0.81345800  0.58728200  1
  O  O31  1  0.30734000  0.18654200  0.58728200  1
  O  O32  1  0.30887100  0.81297600  0.08748000  1
  O  O33  1  0.30887100  0.18702400  0.08748000  1
  O  O34  1  0.42065400  0.50000000  0.91357200  1
  O  O35  1  0.43331000  0.00000000  0.79614600  1
  O  O36  1  0.42107300  0.50000000  0.41292200  1
  O  O37  1  0.43099100  0.00000000  0.29562700  1
  O  O38  1  0.56598200  0.50000000  0.70419000  1
  O  O39  1  0.57818500  0.00000000  0.58809800  1
  O  O40  1  0.56560800  0.50000000  0.20385500  1
  O  O41  1  0.57877800  0.00000000  0.08604800  1
  O  O42  1  0.69153000  0.68637000  0.91250800  1
  O  O43  1  0.69153000  0.31363000  0.91250800  1
  O  O44  1  0.69352700  0.31686200  0.41431500  1
  O  O45  1  0.69352700  0.68313800  0.41431500  1
  O  O46  1  0.84514100  0.00000000  0.75432200  1
  O  O47  1  0.89098200  0.50000000  0.68160100  1
  O  O48  1  0.85023400  0.00000000  0.25179100  1
  O  O49  1  0.92718300  0.00000000  0.97221100  1
  O  O50  1  0.89092200  0.50000000  0.18132500  1
  O  O51  1  0.92741800  0.00000000  0.47102800  1
