# generated using pymatgen
data_Na6SbO5
_symmetry_space_group_name_H-M   'P 1'
_cell_length_a   5.73386200
_cell_length_b   10.78837000
_cell_length_c   10.96503600
_cell_angle_alpha   90.00000000
_cell_angle_beta   90.00000000
_cell_angle_gamma   90.00000000
_symmetry_Int_Tables_number   1
_chemical_formula_structural   Na6SbO5
_chemical_formula_sum   'Na24 Sb4 O20'
_cell_volume   678.28643369
_cell_formula_units_Z   4
loop_
 _symmetry_equiv_pos_site_id
 _symmetry_equiv_pos_as_xyz
  1  'x, y, z'
loop_
 _atom_site_type_symbol
 _atom_site_label
 _atom_site_symmetry_multiplicity
 _atom_site_fract_x
 _atom_site_fract_y
 _atom_site_fract_z
 _atom_site_occupancy
  Na  Na0  1  0.63274200  0.20276400  0.25000000  1
  Na  Na1  1  0.36725800  0.20276400  0.75000000  1
  Na  Na2  1  0.00000000  0.22085400  0.00000000  1
  Na  Na3  1  0.00000000  0.22085400  0.50000000  1
  Na  Na4  1  0.50000000  0.27914600  0.50000000  1
  Na  Na5  1  0.50000000  0.27914600  0.00000000  1
  Na  Na6  1  0.86725800  0.29723600  0.75000000  1
  Na  Na7  1  0.13274200  0.29723600  0.25000000  1
  Na  Na8  1  0.31476100  0.00000000  0.93894900  1
  Na  Na9  1  0.31476100  0.00000000  0.56105100  1
  Na  Na10  1  0.68523900  0.00000000  0.06105100  1
  Na  Na11  1  0.68523900  0.00000000  0.43894900  1
  Na  Na12  1  0.13274200  0.70276400  0.25000000  1
  Na  Na13  1  0.86725800  0.70276400  0.75000000  1
  Na  Na14  1  0.50000000  0.72085400  0.00000000  1
  Na  Na15  1  0.50000000  0.72085400  0.50000000  1
  Na  Na16  1  0.00000000  0.77914600  0.50000000  1
  Na  Na17  1  0.00000000  0.77914600  0.00000000  1
  Na  Na18  1  0.36725800  0.79723600  0.75000000  1
  Na  Na19  1  0.63274200  0.79723600  0.25000000  1
  Na  Na20  1  0.81476100  0.50000000  0.93894900  1
  Na  Na21  1  0.81476100  0.50000000  0.56105100  1
  Na  Na22  1  0.18523900  0.50000000  0.06105100  1
  Na  Na23  1  0.18523900  0.50000000  0.43894900  1
  Sb  Sb24  1  0.78061600  0.00000000  0.75000000  1
  Sb  Sb25  1  0.21938400  0.00000000  0.25000000  1
  Sb  Sb26  1  0.28061600  0.50000000  0.75000000  1
  Sb  Sb27  1  0.71938400  0.50000000  0.25000000  1
  O  O28  1  0.70223200  0.13542800  0.61723100  1
  O  O29  1  0.29776800  0.13542800  0.11723100  1
  O  O30  1  0.29776800  0.13542800  0.38276900  1
  O  O31  1  0.70223200  0.13542800  0.88276900  1
  O  O32  1  0.20223200  0.36457200  0.61723100  1
  O  O33  1  0.79776800  0.36457200  0.11723100  1
  O  O34  1  0.20223200  0.36457200  0.88276900  1
  O  O35  1  0.79776800  0.36457200  0.38276900  1
  O  O36  1  0.13263500  0.00000000  0.75000000  1
  O  O37  1  0.86736500  0.00000000  0.25000000  1
  O  O38  1  0.20223200  0.63542800  0.61723100  1
  O  O39  1  0.79776800  0.63542800  0.11723100  1
  O  O40  1  0.79776800  0.63542800  0.38276900  1
  O  O41  1  0.20223200  0.63542800  0.88276900  1
  O  O42  1  0.70223200  0.86457200  0.61723100  1
  O  O43  1  0.29776800  0.86457200  0.11723100  1
  O  O44  1  0.70223200  0.86457200  0.88276900  1
  O  O45  1  0.29776800  0.86457200  0.38276900  1
  O  O46  1  0.63263500  0.50000000  0.75000000  1
  O  O47  1  0.36736500  0.50000000  0.25000000  1
