# generated using pymatgen
data_Co6O5F7
_symmetry_space_group_name_H-M   'P 1'
_cell_length_a   4.64046200
_cell_length_b   9.17507800
_cell_length_c   4.65976198
_cell_angle_alpha   90.00000000
_cell_angle_beta   93.87447575
_cell_angle_gamma   90.00000000
_symmetry_Int_Tables_number   1
_chemical_formula_structural   Co6O5F7
_chemical_formula_sum   'Co6 O5 F7'
_cell_volume   197.94338573
_cell_formula_units_Z   1
loop_
 _symmetry_equiv_pos_site_id
 _symmetry_equiv_pos_as_xyz
  1  'x, y, z'
loop_
 _atom_site_type_symbol
 _atom_site_label
 _atom_site_symmetry_multiplicity
 _atom_site_fract_x
 _atom_site_fract_y
 _atom_site_fract_z
 _atom_site_occupancy
  Co  Co0  1  0.98998600  0.00000000  0.98980000  1
  Co  Co1  1  0.03366000  0.66006500  0.01454400  1
  Co  Co2  1  0.03366000  0.33993500  0.01454400  1
  Co  Co3  1  0.49497200  0.84181000  0.48763400  1
  Co  Co4  1  0.49497200  0.15819000  0.48763400  1
  Co  Co5  1  0.45608300  0.50000000  0.50644400  1
  O  O6  1  0.19132300  0.50000000  0.81686600  1
  O  O7  1  0.30634600  0.67830700  0.30931500  1
  O  O8  1  0.30681700  0.00000000  0.29961100  1
  O  O9  1  0.30634600  0.32169300  0.30931500  1
  O  O10  1  0.68437700  0.00000000  0.67199900  1
  F  F11  1  0.19467300  0.83148300  0.79845800  1
  F  F12  1  0.19467300  0.16851700  0.79845800  1
  F  F13  1  0.70156300  0.32306500  0.70680000  1
  F  F14  1  0.70156300  0.67693500  0.70680000  1
  F  F15  1  0.80442100  0.82945100  0.18839700  1
  F  F16  1  0.80442100  0.17054900  0.18839700  1
  F  F17  1  0.80014400  0.50000000  0.20498500  1
