# generated using pymatgen
data_Li2CrWO6
_symmetry_space_group_name_H-M   'P 1'
_cell_length_a   5.10100908
_cell_length_b   5.10100908
_cell_length_c   13.45232306
_cell_angle_alpha   90.00000000
_cell_angle_beta   90.00000000
_cell_angle_gamma   120.00000000
_symmetry_Int_Tables_number   1
_chemical_formula_structural   Li2CrWO6
_chemical_formula_sum   'Li6 Cr3 W3 O18'
_cell_volume   303.13781313
_cell_formula_units_Z   3
loop_
 _symmetry_equiv_pos_site_id
 _symmetry_equiv_pos_as_xyz
  1  'x, y, z'
loop_
 _atom_site_type_symbol
 _atom_site_label
 _atom_site_symmetry_multiplicity
 _atom_site_fract_x
 _atom_site_fract_y
 _atom_site_fract_z
 _atom_site_occupancy
  Li  Li0  1  0.00000000  0.00000000  0.28520433  1
  Li  Li1  1  0.66666667  0.33333333  0.11552783  1
  Li  Li2  1  0.66666667  0.33333333  0.61853767  1
  Li  Li3  1  0.33333333  0.66666667  0.44886117  1
  Li  Li4  1  0.33333333  0.66666667  0.95187100  1
  Li  Li5  1  0.00000000  0.00000000  0.78219450  1
  Cr  Cr6  1  0.00000000  0.00000000  0.00293100  1
  Cr  Cr7  1  0.66666667  0.33333333  0.33626433  1
  Cr  Cr8  1  0.33333333  0.66666667  0.66959767  1
  W  W9  1  0.33333333  0.66666667  0.16890350  1
  W  W10  1  0.00000000  0.00000000  0.50223683  1
  W  W11  1  0.66666667  0.33333333  0.83557017  1
  O  O12  1  0.05272800  0.33845000  0.07833350  1
  O  O13  1  0.66155000  0.71427800  0.07833350  1
  O  O14  1  0.28572200  0.94727200  0.07833350  1
  O  O15  1  0.38576050  0.38027800  0.24484300  1
  O  O16  1  0.99451750  0.61423950  0.24484300  1
  O  O17  1  0.61972200  0.00548250  0.24484300  1
  O  O18  1  0.71939467  0.67178333  0.41166683  1
  O  O19  1  0.32821667  0.04761133  0.41166683  1
  O  O20  1  0.95238867  0.28060533  0.41166683  1
  O  O21  1  0.05242717  0.71361133  0.57817633  1
  O  O22  1  0.66118417  0.94757283  0.57817633  1
  O  O23  1  0.28638867  0.33881583  0.57817633  1
  O  O24  1  0.38606133  0.00511667  0.74500017  1
  O  O25  1  0.99488333  0.38094467  0.74500017  1
  O  O26  1  0.61905533  0.61393867  0.74500017  1
  O  O27  1  0.71909383  0.04694467  0.91150967  1
  O  O28  1  0.32785083  0.28090617  0.91150967  1
  O  O29  1  0.95305533  0.67214917  0.91150967  1
