# generated using pymatgen
data_Li4Cr3FeO8
_symmetry_space_group_name_H-M   'P 1'
_cell_length_a   5.12331368
_cell_length_b   5.88650984
_cell_length_c   10.19457921
_cell_angle_alpha   90.05442464
_cell_angle_beta   99.54100523
_cell_angle_gamma   106.71098100
_symmetry_Int_Tables_number   1
_chemical_formula_structural   Li4Cr3FeO8
_chemical_formula_sum   'Li8 Cr6 Fe2 O16'
_cell_volume   290.00988162
_cell_formula_units_Z   2
loop_
 _symmetry_equiv_pos_site_id
 _symmetry_equiv_pos_as_xyz
  1  'x, y, z'
loop_
 _atom_site_type_symbol
 _atom_site_label
 _atom_site_symmetry_multiplicity
 _atom_site_fract_x
 _atom_site_fract_y
 _atom_site_fract_z
 _atom_site_occupancy
  Li  Li0  1  0.00033100  0.74910600  0.75145000  1
  Li  Li1  1  0.99802100  0.74852800  0.25027600  1
  Li  Li2  1  0.00000000  0.50000000  0.50000000  1
  Li  Li3  1  0.00000000  0.50000000  0.00000000  1
  Li  Li4  1  0.00197900  0.25147200  0.74972400  1
  Li  Li5  1  0.99966900  0.25089400  0.24855000  1
  Li  Li6  1  0.00000000  0.00000000  0.50000000  1
  Li  Li7  1  0.00000000  0.00000000  0.00000000  1
  Cr  Cr8  1  0.49994900  0.62407300  0.37340700  1
  Cr  Cr9  1  0.50005100  0.37592700  0.62659300  1
  Cr  Cr10  1  0.49997800  0.12595800  0.37328200  1
  Cr  Cr11  1  0.49978500  0.12644000  0.87671500  1
  Cr  Cr12  1  0.50002200  0.87404200  0.62671800  1
  Cr  Cr13  1  0.50021500  0.87356000  0.12328500  1
  Fe  Fe14  1  0.50012900  0.62436900  0.87622600  1
  Fe  Fe15  1  0.49987100  0.37563100  0.12377400  1
  O  O16  1  0.27597400  0.56845700  0.69335500  1
  O  O17  1  0.27624600  0.56555200  0.18752100  1
  O  O18  1  0.72636100  0.68149100  0.56054500  1
  O  O19  1  0.72116800  0.67596400  0.05849500  1
  O  O20  1  0.27363900  0.31850900  0.43945500  1
  O  O21  1  0.72402600  0.43154300  0.30664500  1
  O  O22  1  0.27883200  0.32403600  0.94150500  1
  O  O23  1  0.72375400  0.43444800  0.81247900  1
  O  O24  1  0.27344500  0.06852600  0.69048900  1
  O  O25  1  0.72619200  0.18186800  0.56070700  1
  O  O26  1  0.27608900  0.07224900  0.18685900  1
  O  O27  1  0.72374900  0.18461700  0.06155000  1
  O  O28  1  0.27380800  0.81813200  0.43929300  1
  O  O29  1  0.72655500  0.93147400  0.30951100  1
  O  O30  1  0.27625100  0.81538300  0.93845000  1
  O  O31  1  0.72391100  0.92775100  0.81314100  1
