# generated using pymatgen
data_Sm4U4O17
_symmetry_space_group_name_H-M   'P 1'
_cell_length_a   10.97033600
_cell_length_b   15.17056200
_cell_length_c   3.83532300
_cell_angle_alpha   90.00000000
_cell_angle_beta   90.00000000
_cell_angle_gamma   90.00000000
_symmetry_Int_Tables_number   1
_chemical_formula_structural   Sm4U4O17
_chemical_formula_sum   'Sm8 U8 O34'
_cell_volume   638.29808864
_cell_formula_units_Z   2
loop_
 _symmetry_equiv_pos_site_id
 _symmetry_equiv_pos_as_xyz
  1  'x, y, z'
loop_
 _atom_site_type_symbol
 _atom_site_label
 _atom_site_symmetry_multiplicity
 _atom_site_fract_x
 _atom_site_fract_y
 _atom_site_fract_z
 _atom_site_occupancy
  Sm  Sm0  1  0.25000000  0.25000000  0.50000000  1
  Sm  Sm1  1  0.50000000  0.37443300  0.00000000  1
  Sm  Sm2  1  0.25000000  0.75000000  0.50000000  1
  Sm  Sm3  1  0.50000000  0.62556700  0.00000000  1
  Sm  Sm4  1  0.75000000  0.75000000  0.50000000  1
  Sm  Sm5  1  0.00000000  0.87443300  0.00000000  1
  Sm  Sm6  1  0.75000000  0.25000000  0.50000000  1
  Sm  Sm7  1  0.00000000  0.12556700  0.00000000  1
  U  U8  1  0.25022000  0.00000000  0.50000000  1
  U  U9  1  0.50000000  0.11973300  0.00000000  1
  U  U10  1  0.50000000  0.88026700  0.00000000  1
  U  U11  1  0.74978000  0.00000000  0.50000000  1
  U  U12  1  0.75022000  0.50000000  0.50000000  1
  U  U13  1  0.00000000  0.61973300  0.00000000  1
  U  U14  1  0.00000000  0.38026700  0.00000000  1
  U  U15  1  0.24978000  0.50000000  0.50000000  1
  O  O16  1  0.13248000  0.11643700  0.50000000  1
  O  O17  1  0.86752000  0.88356300  0.50000000  1
  O  O18  1  0.36942200  0.12181800  0.50000000  1
  O  O19  1  0.38334050  0.23567050  0.00000000  1
  O  O20  1  0.36942200  0.87818200  0.50000000  1
  O  O21  1  0.35901800  0.00000000  0.00000000  1
  O  O22  1  0.50000000  0.00000000  0.50000000  1
  O  O23  1  0.64098200  0.00000000  0.00000000  1
  O  O24  1  0.61665950  0.76432950  0.00000000  1
  O  O25  1  0.13248000  0.88356300  0.50000000  1
  O  O26  1  0.61665950  0.23567050  0.00000000  1
  O  O27  1  0.13516200  0.00000000  0.00000000  1
  O  O28  1  0.63057800  0.87818200  0.50000000  1
  O  O29  1  0.63057800  0.12181800  0.50000000  1
  O  O30  1  0.86483800  0.00000000  0.00000000  1
  O  O31  1  0.86752000  0.11643700  0.50000000  1
  O  O32  1  0.38334050  0.76432950  0.00000000  1
  O  O33  1  0.63248000  0.61643700  0.50000000  1
  O  O34  1  0.36752000  0.38356300  0.50000000  1
  O  O35  1  0.86942200  0.62181800  0.50000000  1
  O  O36  1  0.88334050  0.73567050  0.00000000  1
  O  O37  1  0.86942200  0.37818200  0.50000000  1
  O  O38  1  0.85901800  0.50000000  0.00000000  1
  O  O39  1  0.00000000  0.50000000  0.50000000  1
  O  O40  1  0.14098200  0.50000000  0.00000000  1
  O  O41  1  0.11665950  0.26432950  0.00000000  1
  O  O42  1  0.63248000  0.38356300  0.50000000  1
  O  O43  1  0.11665950  0.73567050  0.00000000  1
  O  O44  1  0.63516200  0.50000000  0.00000000  1
  O  O45  1  0.13057800  0.37818200  0.50000000  1
  O  O46  1  0.13057800  0.62181800  0.50000000  1
  O  O47  1  0.36483800  0.50000000  0.00000000  1
  O  O48  1  0.36752000  0.61643700  0.50000000  1
  O  O49  1  0.88334050  0.26432950  0.00000000  1
