# generated using pymatgen
data_Li4Ti3Nb2Co3O16
_symmetry_space_group_name_H-M   'P 1'
_cell_length_a   10.44123327
_cell_length_b   5.97059330
_cell_length_c   9.84816654
_cell_angle_alpha   90.00000000
_cell_angle_beta   90.38154390
_cell_angle_gamma   90.00000000
_symmetry_Int_Tables_number   1
_chemical_formula_structural   Li4Ti3Nb2Co3O16
_chemical_formula_sum   'Li8 Ti6 Nb4 Co6 O32'
_cell_volume   613.92460939
_cell_formula_units_Z   2
loop_
 _symmetry_equiv_pos_site_id
 _symmetry_equiv_pos_as_xyz
  1  'x, y, z'
loop_
 _atom_site_type_symbol
 _atom_site_label
 _atom_site_symmetry_multiplicity
 _atom_site_fract_x
 _atom_site_fract_y
 _atom_site_fract_z
 _atom_site_occupancy
  Li  Li0  1  0.66481600  0.00000000  0.90368450  1
  Li  Li1  1  0.99894650  0.00000000  0.98578000  1
  Li  Li2  1  0.50172350  0.50000000  0.49509900  1
  Li  Li3  1  0.83290375  0.50000000  0.40727600  1
  Li  Li4  1  0.16481600  0.50000000  0.90368450  1
  Li  Li5  1  0.49894650  0.50000000  0.98578000  1
  Li  Li6  1  0.00172350  0.00000000  0.49509900  1
  Li  Li7  1  0.33290375  0.00000000  0.40727600  1
  Ti  Ti8  1  0.67764225  0.50000000  0.73383000  1
  Ti  Ti9  1  0.59433500  0.75158000  0.22063100  1
  Ti  Ti10  1  0.59433500  0.24842000  0.22063100  1
  Ti  Ti11  1  0.17764225  0.00000000  0.73383000  1
  Ti  Ti12  1  0.09433500  0.25158000  0.22063100  1
  Ti  Ti13  1  0.09433500  0.74842000  0.22063100  1
  Nb  Nb14  1  0.66691650  0.00000000  0.49969250  1
  Nb  Nb15  1  0.85084750  0.50000000  0.98801400  1
  Nb  Nb16  1  0.16691650  0.50000000  0.49969250  1
  Nb  Nb17  1  0.35084750  0.00000000  0.98801400  1
  Co  Co18  1  0.83012425  0.00000000  0.20900850  1
  Co  Co19  1  0.91346900  0.25502400  0.70887700  1
  Co  Co20  1  0.91346900  0.74497600  0.70887700  1
  Co  Co21  1  0.33012425  0.50000000  0.20900850  1
  Co  Co22  1  0.41346900  0.75502400  0.70887700  1
  Co  Co23  1  0.41346900  0.24497600  0.70887700  1
  O  O24  1  0.51883075  0.00000000  0.33303050  1
  O  O25  1  0.65226625  0.00000000  0.10683800  1
  O  O26  1  0.50576225  0.50000000  0.30523800  1
  O  O27  1  0.50602475  0.50000000  0.79790050  1
  O  O28  1  0.66331825  0.50000000  0.10312450  1
  O  O29  1  0.83241600  0.00000000  0.57998650  1
  O  O30  1  0.81937875  0.50000000  0.60864550  1
  O  O31  1  0.98053800  0.50000000  0.85306550  1
  O  O32  1  0.58788750  0.75327200  0.58873850  1
  O  O33  1  0.58788750  0.24672800  0.58873850  1
  O  O34  1  0.73367950  0.76965450  0.33761400  1
  O  O35  1  0.73367950  0.23034550  0.33761400  1
  O  O36  1  0.74966200  0.28198000  0.84938400  1
  O  O37  1  0.74966200  0.71802000  0.84938400  1
  O  O38  1  0.91729300  0.25156450  0.09330750  1
  O  O39  1  0.91729300  0.74843550  0.09330750  1
  O  O40  1  0.01883075  0.50000000  0.33303050  1
  O  O41  1  0.15226625  0.50000000  0.10683800  1
  O  O42  1  0.00576225  0.00000000  0.30523800  1
  O  O43  1  0.00602475  0.00000000  0.79790050  1
  O  O44  1  0.16331825  0.00000000  0.10312450  1
  O  O45  1  0.33241600  0.50000000  0.57998650  1
  O  O46  1  0.31937875  0.00000000  0.60864550  1
  O  O47  1  0.48053800  0.00000000  0.85306550  1
  O  O48  1  0.08788750  0.25327200  0.58873850  1
  O  O49  1  0.08788750  0.74672800  0.58873850  1
  O  O50  1  0.23367950  0.26965450  0.33761400  1
  O  O51  1  0.23367950  0.73034550  0.33761400  1
  O  O52  1  0.24966200  0.78198000  0.84938400  1
  O  O53  1  0.24966200  0.21802000  0.84938400  1
  O  O54  1  0.41729300  0.75156450  0.09330750  1
  O  O55  1  0.41729300  0.24843550  0.09330750  1
