# generated using pymatgen
data_Co2C2O7
_symmetry_space_group_name_H-M   'P 1'
_cell_length_a   4.89739000
_cell_length_b   8.46404000
_cell_length_c   15.93355707
_cell_angle_alpha   90.00000000
_cell_angle_beta   91.67890870
_cell_angle_gamma   90.00000000
_symmetry_Int_Tables_number   1
_chemical_formula_structural   Co2C2O7
_chemical_formula_sum   'Co8 C8 O28'
_cell_volume   660.18957240
_cell_formula_units_Z   4
loop_
 _symmetry_equiv_pos_site_id
 _symmetry_equiv_pos_as_xyz
  1  'x, y, z'
loop_
 _atom_site_type_symbol
 _atom_site_label
 _atom_site_symmetry_multiplicity
 _atom_site_fract_x
 _atom_site_fract_y
 _atom_site_fract_z
 _atom_site_occupancy
  Co  Co0  1  0.50663750  0.16436950  0.63786500  1
  Co  Co1  1  0.49336250  0.16436950  0.86213500  1
  Co  Co2  1  0.49336250  0.83563050  0.36213500  1
  Co  Co3  1  0.50663750  0.83563050  0.13786500  1
  Co  Co4  1  0.00663750  0.66436950  0.63786500  1
  Co  Co5  1  0.99336250  0.66436950  0.86213500  1
  Co  Co6  1  0.99336250  0.33563050  0.36213500  1
  Co  Co7  1  0.00663750  0.33563050  0.13786500  1
  C  C8  1  0.50196950  0.83344950  0.59708500  1
  C  C9  1  0.49803050  0.83344950  0.90291500  1
  C  C10  1  0.50196950  0.16655050  0.09708500  1
  C  C11  1  0.49803050  0.16655050  0.40291500  1
  C  C12  1  0.00196950  0.33344950  0.59708500  1
  C  C13  1  0.99803050  0.33344950  0.90291500  1
  C  C14  1  0.00196950  0.66655050  0.09708500  1
  C  C15  1  0.99803050  0.66655050  0.40291500  1
  O  O16  1  0.35978850  0.29618750  0.09732800  1
  O  O17  1  0.37972800  0.96898900  0.59318400  1
  O  O18  1  0.64021150  0.29618750  0.40267200  1
  O  O19  1  0.23469700  0.82856600  0.90022600  1
  O  O20  1  0.23469700  0.17143400  0.40022600  1
  O  O21  1  0.62027200  0.96898900  0.90681600  1
  O  O22  1  0.50000000  0.16648500  0.75000000  1
  O  O23  1  0.50000000  0.83351500  0.25000000  1
  O  O24  1  0.76530300  0.82856600  0.59977400  1
  O  O25  1  0.37972800  0.03101100  0.09318400  1
  O  O26  1  0.35978850  0.70381250  0.59732800  1
  O  O27  1  0.76530300  0.17143400  0.09977400  1
  O  O28  1  0.64021150  0.70381250  0.90267200  1
  O  O29  1  0.62027200  0.03101100  0.40681600  1
  O  O30  1  0.85978850  0.79618750  0.09732800  1
  O  O31  1  0.87972800  0.46898900  0.59318400  1
  O  O32  1  0.14021150  0.79618750  0.40267200  1
  O  O33  1  0.73469700  0.32856600  0.90022600  1
  O  O34  1  0.73469700  0.67143400  0.40022600  1
  O  O35  1  0.12027200  0.46898900  0.90681600  1
  O  O36  1  0.00000000  0.66648500  0.75000000  1
  O  O37  1  0.00000000  0.33351500  0.25000000  1
  O  O38  1  0.26530300  0.32856600  0.59977400  1
  O  O39  1  0.87972800  0.53101100  0.09318400  1
  O  O40  1  0.85978850  0.20381250  0.59732800  1
  O  O41  1  0.26530300  0.67143400  0.09977400  1
  O  O42  1  0.14021150  0.20381250  0.90267200  1
  O  O43  1  0.12027200  0.53101100  0.40681600  1
