# generated using pymatgen
data_K4Li3Mn2O8
_symmetry_space_group_name_H-M   'P 1'
_cell_length_a   5.64931600
_cell_length_b   8.45118200
_cell_length_c   11.45768997
_cell_angle_alpha   90.00000000
_cell_angle_beta   107.39178482
_cell_angle_gamma   90.00000000
_symmetry_Int_Tables_number   1
_chemical_formula_structural   K4Li3Mn2O8
_chemical_formula_sum   'K8 Li6 Mn4 O16'
_cell_volume   522.02062889
_cell_formula_units_Z   2
loop_
 _symmetry_equiv_pos_site_id
 _symmetry_equiv_pos_as_xyz
  1  'x, y, z'
loop_
 _atom_site_type_symbol
 _atom_site_label
 _atom_site_symmetry_multiplicity
 _atom_site_fract_x
 _atom_site_fract_y
 _atom_site_fract_z
 _atom_site_occupancy
  K  K0  1  0.67333400  0.74657300  0.84507300  1
  K  K1  1  0.21715300  0.01021000  0.38029600  1
  K  K2  1  0.31030500  0.24899900  0.66379400  1
  K  K3  1  0.21715300  0.98979000  0.88029600  1
  K  K4  1  0.73677800  0.53960200  0.11414400  1
  K  K5  1  0.67333400  0.25342700  0.34507300  1
  K  K6  1  0.73677800  0.46039800  0.61414400  1
  K  K7  1  0.31030500  0.75100100  0.16379400  1
  Li  Li8  1  0.65939300  0.27986100  0.92344600  1
  Li  Li9  1  0.37652300  0.76451200  0.56833500  1
  Li  Li10  1  0.10292600  0.29886500  0.20147600  1
  Li  Li11  1  0.10292600  0.70113500  0.70147600  1
  Li  Li12  1  0.65939300  0.72013900  0.42344600  1
  Li  Li13  1  0.37652300  0.23548800  0.06833500  1
  Mn  Mn14  1  0.86887500  0.04143300  0.06972200  1
  Mn  Mn15  1  0.13252100  0.53573800  0.42847200  1
  Mn  Mn16  1  0.86887500  0.95856700  0.56972200  1
  Mn  Mn17  1  0.13252100  0.46426200  0.92847200  1
  O  O18  1  0.80237500  0.45250700  0.86464700  1
  O  O19  1  0.77321700  0.05990700  0.91402700  1
  O  O20  1  0.30797200  0.70218600  0.39836100  1
  O  O21  1  0.17951500  0.33458300  0.37815200  1
  O  O22  1  0.23279000  0.56269300  0.59721500  1
  O  O23  1  0.18823800  0.92612100  0.63276300  1
  O  O24  1  0.78641000  0.85962800  0.10508100  1
  O  O25  1  0.30797200  0.29781400  0.89836100  1
  O  O26  1  0.74582600  0.20951000  0.12086200  1
  O  O27  1  0.17951500  0.66541700  0.87815200  1
  O  O28  1  0.80237500  0.54749300  0.36464700  1
  O  O29  1  0.77321700  0.94009300  0.41402700  1
  O  O30  1  0.78641000  0.14037200  0.60508100  1
  O  O31  1  0.74582600  0.79049000  0.62086200  1
  O  O32  1  0.23279000  0.43730700  0.09721500  1
  O  O33  1  0.18823800  0.07387900  0.13276300  1
