# generated using pymatgen
data_Li2Mn3VO8
_symmetry_space_group_name_H-M   'P 1'
_cell_length_a   5.95170132
_cell_length_b   5.95170132
_cell_length_c   14.55456688
_cell_angle_alpha   90.00000000
_cell_angle_beta   90.00000000
_cell_angle_gamma   120.00000000
_symmetry_Int_Tables_number   1
_chemical_formula_structural   Li2Mn3VO8
_chemical_formula_sum   'Li6 Mn9 V3 O24'
_cell_volume   446.49045076
_cell_formula_units_Z   3
loop_
 _symmetry_equiv_pos_site_id
 _symmetry_equiv_pos_as_xyz
  1  'x, y, z'
loop_
 _atom_site_type_symbol
 _atom_site_label
 _atom_site_symmetry_multiplicity
 _atom_site_fract_x
 _atom_site_fract_y
 _atom_site_fract_z
 _atom_site_occupancy
  Li  Li0  1  0.33333333  0.66666667  0.54526467  1
  Li  Li1  1  0.33333333  0.66666667  0.78806867  1
  Li  Li2  1  0.00000000  0.00000000  0.87859800  1
  Li  Li3  1  0.00000000  0.00000000  0.12140200  1
  Li  Li4  1  0.66666667  0.33333333  0.21193133  1
  Li  Li5  1  0.66666667  0.33333333  0.45473533  1
  Mn  Mn6  1  0.50000000  0.50000000  0.00000000  1
  Mn  Mn7  1  0.00000000  0.50000000  0.00000000  1
  Mn  Mn8  1  0.16666667  0.33333333  0.33333333  1
  Mn  Mn9  1  0.16666667  0.83333333  0.33333333  1
  Mn  Mn10  1  0.66666667  0.83333333  0.33333333  1
  Mn  Mn11  1  0.83333333  0.66666667  0.66666667  1
  Mn  Mn12  1  0.83333333  0.16666667  0.66666667  1
  Mn  Mn13  1  0.33333333  0.16666667  0.66666667  1
  Mn  Mn14  1  0.50000000  0.00000000  0.00000000  1
  V  V15  1  0.33333333  0.66666667  0.16666667  1
  V  V16  1  1.00000000  1.00000000  0.50000000  1
  V  V17  1  0.66666667  0.33333333  0.83333333  1
  O  O18  1  0.33333333  0.66666667  0.40612867  1
  O  O19  1  0.48330667  0.96661333  0.25871533  1
  O  O20  1  0.03338667  0.51669333  0.25871533  1
  O  O21  1  0.48330667  0.51669333  0.25871533  1
  O  O22  1  0.18336000  0.81664000  0.07461800  1
  O  O23  1  0.63328000  0.81664000  0.07461800  1
  O  O24  1  0.18336000  0.36672000  0.07461800  1
  O  O25  1  0.33333333  0.66666667  0.92720467  1
  O  O26  1  0.00000000  0.00000000  0.73946200  1
  O  O27  1  0.14997333  0.29994667  0.59204867  1
  O  O28  1  0.70005333  0.85002667  0.59204867  1
  O  O29  1  0.14997333  0.85002667  0.59204867  1
  O  O30  1  0.85002667  0.14997333  0.40795133  1
  O  O31  1  0.29994667  0.14997333  0.40795133  1
  O  O32  1  0.85002667  0.70005333  0.40795133  1
  O  O33  1  0.00000000  0.00000000  0.26053800  1
  O  O34  1  0.66666667  0.33333333  0.07279533  1
  O  O35  1  0.81664000  0.63328000  0.92538200  1
  O  O36  1  0.36672000  0.18336000  0.92538200  1
  O  O37  1  0.81664000  0.18336000  0.92538200  1
  O  O38  1  0.51669333  0.48330667  0.74128467  1
  O  O39  1  0.96661333  0.48330667  0.74128467  1
  O  O40  1  0.51669333  0.03338667  0.74128467  1
  O  O41  1  0.66666667  0.33333333  0.59387133  1
