# generated using pymatgen
data_Fe2O3F
_symmetry_space_group_name_H-M   'P 1'
_cell_length_a   9.39911200
_cell_length_b   6.03896600
_cell_length_c   4.69974869
_cell_angle_alpha   90.00000000
_cell_angle_beta   93.71482349
_cell_angle_gamma   90.00000000
_symmetry_Int_Tables_number   1
_chemical_formula_structural   Fe2O3F
_chemical_formula_sum   'Fe8 O12 F4'
_cell_volume   266.20155260
_cell_formula_units_Z   4
loop_
 _symmetry_equiv_pos_site_id
 _symmetry_equiv_pos_as_xyz
  1  'x, y, z'
loop_
 _atom_site_type_symbol
 _atom_site_label
 _atom_site_symmetry_multiplicity
 _atom_site_fract_x
 _atom_site_fract_y
 _atom_site_fract_z
 _atom_site_occupancy
  Fe  Fe0  1  0.00000000  0.00000000  0.50000000  1
  Fe  Fe1  1  0.50000000  0.00000000  0.50000000  1
  Fe  Fe2  1  0.75000000  0.75000000  0.00000000  1
  Fe  Fe3  1  0.75000000  0.25000000  0.00000000  1
  Fe  Fe4  1  0.50000000  0.50000000  0.50000000  1
  Fe  Fe5  1  0.00000000  0.50000000  0.50000000  1
  Fe  Fe6  1  0.25000000  0.25000000  0.00000000  1
  Fe  Fe7  1  0.25000000  0.75000000  0.00000000  1
  O  O8  1  0.83788800  0.00000000  0.81900400  1
  O  O9  1  0.59706650  0.24936350  0.69501500  1
  O  O10  1  0.59706650  0.75063650  0.69501500  1
  O  O11  1  0.40293350  0.75063650  0.30498500  1
  O  O12  1  0.40293350  0.24936350  0.30498500  1
  O  O13  1  0.16211200  0.00000000  0.18099600  1
  O  O14  1  0.33788800  0.50000000  0.81900400  1
  O  O15  1  0.09706650  0.74936350  0.69501500  1
  O  O16  1  0.09706650  0.25063650  0.69501500  1
  O  O17  1  0.90293350  0.25063650  0.30498500  1
  O  O18  1  0.90293350  0.74936350  0.30498500  1
  O  O19  1  0.66211200  0.50000000  0.18099600  1
  F  F20  1  0.35198700  0.00000000  0.79982900  1
  F  F21  1  0.64801300  0.00000000  0.20017100  1
  F  F22  1  0.85198700  0.50000000  0.79982900  1
  F  F23  1  0.14801300  0.50000000  0.20017100  1
