# generated using pymatgen
data_FeOF
_symmetry_space_group_name_H-M   'P 1'
_cell_length_a   9.48189600
_cell_length_b   3.08417400
_cell_length_c   14.09506309
_cell_angle_alpha   90.00000000
_cell_angle_beta   90.92380890
_cell_angle_gamma   90.00000000
_symmetry_Int_Tables_number   1
_chemical_formula_structural   FeOF
_chemical_formula_sum   'Fe12 O12 F12'
_cell_volume   412.13986991
_cell_formula_units_Z   12
loop_
 _symmetry_equiv_pos_site_id
 _symmetry_equiv_pos_as_xyz
  1  'x, y, z'
loop_
 _atom_site_type_symbol
 _atom_site_label
 _atom_site_symmetry_multiplicity
 _atom_site_fract_x
 _atom_site_fract_y
 _atom_site_fract_z
 _atom_site_occupancy
  Fe  Fe0  1  0.00986300  0.00000000  0.99366200  1
  Fe  Fe1  1  0.49639500  0.00000000  0.99510600  1
  Fe  Fe2  1  0.74832900  0.50000000  0.85594400  1
  Fe  Fe3  1  0.25304200  0.50000000  0.85077900  1
  Fe  Fe4  1  0.00942500  0.00000000  0.65921000  1
  Fe  Fe5  1  0.50173000  0.00000000  0.66162700  1
  Fe  Fe6  1  0.25683800  0.50000000  0.51660800  1
  Fe  Fe7  1  0.71351500  0.50000000  0.50171900  1
  Fe  Fe8  1  0.99165700  0.00000000  0.32682600  1
  Fe  Fe9  1  0.51584700  0.00000000  0.32342600  1
  Fe  Fe10  1  0.75372900  0.50000000  0.17627100  1
  Fe  Fe11  1  0.25318700  0.50000000  0.13931900  1
  O  O12  1  0.59741400  0.50000000  0.93935000  1
  O  O13  1  0.09461100  0.50000000  0.93297300  1
  O  O14  1  0.84944200  0.00000000  0.90074900  1
  O  O15  1  0.34969800  0.00000000  0.89348100  1
  O  O16  1  0.59293900  0.50000000  0.60658000  1
  O  O17  1  0.09528700  0.50000000  0.59812000  1
  O  O18  1  0.35315600  0.00000000  0.56826400  1
  O  O19  1  0.64825000  0.00000000  0.43245200  1
  O  O20  1  0.60168700  0.50000000  0.26240600  1
  O  O21  1  0.84721100  0.00000000  0.23597500  1
  O  O22  1  0.14533700  0.00000000  0.10008700  1
  O  O23  1  0.40894600  0.50000000  0.06361300  1
  F  F24  1  0.64724400  0.00000000  0.76584500  1
  F  F25  1  0.15084300  0.00000000  0.76469200  1
  F  F26  1  0.90465900  0.50000000  0.72632400  1
  F  F27  1  0.40459500  0.50000000  0.72714000  1
  F  F28  1  0.84434000  0.00000000  0.56395900  1
  F  F29  1  0.15161700  0.00000000  0.43285200  1
  F  F30  1  0.90985400  0.50000000  0.40245400  1
  F  F31  1  0.39738000  0.50000000  0.39387400  1
  F  F32  1  0.09933800  0.50000000  0.27333600  1
  F  F33  1  0.34480300  0.00000000  0.23254900  1
  F  F34  1  0.66347600  0.00000000  0.10893800  1
  F  F35  1  0.89431700  0.50000000  0.07348400  1
