# generated using pymatgen
data_LiMnF4
_symmetry_space_group_name_H-M   'P 1'
_cell_length_a   3.88240400
_cell_length_b   10.16699000
_cell_length_c   7.69717100
_cell_angle_alpha   90.00000000
_cell_angle_beta   90.00000000
_cell_angle_gamma   90.00000000
_symmetry_Int_Tables_number   1
_chemical_formula_structural   LiMnF4
_chemical_formula_sum   'Li4 Mn4 F16'
_cell_volume   303.82552504
_cell_formula_units_Z   4
loop_
 _symmetry_equiv_pos_site_id
 _symmetry_equiv_pos_as_xyz
  1  'x, y, z'
loop_
 _atom_site_type_symbol
 _atom_site_label
 _atom_site_symmetry_multiplicity
 _atom_site_fract_x
 _atom_site_fract_y
 _atom_site_fract_z
 _atom_site_occupancy
  Li  Li0  1  0.00000000  0.26925100  0.25000000  1
  Li  Li1  1  0.50000000  0.23074900  0.75000000  1
  Li  Li2  1  0.50000000  0.76925100  0.25000000  1
  Li  Li3  1  0.00000000  0.73074900  0.75000000  1
  Mn  Mn4  1  0.00000000  0.00000000  0.50000000  1
  Mn  Mn5  1  0.00000000  0.00000000  0.00000000  1
  Mn  Mn6  1  0.50000000  0.50000000  0.50000000  1
  Mn  Mn7  1  0.50000000  0.50000000  0.00000000  1
  F  F8  1  0.50000000  0.00000000  0.50000000  1
  F  F9  1  0.50000000  0.33066000  0.41507500  1
  F  F10  1  0.00000000  0.08147400  0.25000000  1
  F  F11  1  0.50000000  0.33066000  0.08492500  1
  F  F12  1  0.50000000  0.00000000  0.00000000  1
  F  F13  1  0.00000000  0.16934000  0.91507500  1
  F  F14  1  0.50000000  0.41852600  0.75000000  1
  F  F15  1  0.00000000  0.16934000  0.58492500  1
  F  F16  1  0.00000000  0.50000000  0.50000000  1
  F  F17  1  0.00000000  0.83066000  0.41507500  1
  F  F18  1  0.50000000  0.58147400  0.25000000  1
  F  F19  1  0.00000000  0.83066000  0.08492500  1
  F  F20  1  0.00000000  0.50000000  0.00000000  1
  F  F21  1  0.50000000  0.66934000  0.91507500  1
  F  F22  1  0.00000000  0.91852600  0.75000000  1
  F  F23  1  0.50000000  0.66934000  0.58492500  1
