# generated using pymatgen
data_Fe3(SnS4)2
_symmetry_space_group_name_H-M   'P 1'
_cell_length_a   6.95440800
_cell_length_b   7.37296600
_cell_length_c   10.08851400
_cell_angle_alpha   90.00000000
_cell_angle_beta   90.00000000
_cell_angle_gamma   90.00000000
_symmetry_Int_Tables_number   1
_chemical_formula_structural   Fe3(SnS4)2
_chemical_formula_sum   'Fe6 Sn4 S16'
_cell_volume   517.28465850
_cell_formula_units_Z   2
loop_
 _symmetry_equiv_pos_site_id
 _symmetry_equiv_pos_as_xyz
  1  'x, y, z'
loop_
 _atom_site_type_symbol
 _atom_site_label
 _atom_site_symmetry_multiplicity
 _atom_site_fract_x
 _atom_site_fract_y
 _atom_site_fract_z
 _atom_site_occupancy
  Fe  Fe0  1  0.73743300  0.00000000  0.63000200  1
  Fe  Fe1  1  0.50000000  0.00000000  0.24511500  1
  Fe  Fe2  1  0.26256700  0.00000000  0.63000200  1
  Fe  Fe3  1  0.23743300  0.50000000  0.13000200  1
  Fe  Fe4  1  0.00000000  0.50000000  0.74511500  1
  Fe  Fe5  1  0.76256700  0.50000000  0.13000200  1
  Sn  Sn6  1  0.00000000  0.73859300  0.37394200  1
  Sn  Sn7  1  0.00000000  0.26140700  0.37394200  1
  Sn  Sn8  1  0.50000000  0.23859300  0.87394200  1
  Sn  Sn9  1  0.50000000  0.76140700  0.87394200  1
  S  S10  1  0.74273350  0.00000000  0.39556150  1
  S  S11  1  0.00000000  0.78013550  0.62895450  1
  S  S12  1  0.50000000  0.20694850  0.62198050  1
  S  S13  1  0.50000000  0.79305150  0.62198050  1
  S  S14  1  0.76385050  0.00000000  0.85200150  1
  S  S15  1  0.23614950  0.00000000  0.85200150  1
  S  S16  1  0.25726650  0.00000000  0.39556150  1
  S  S17  1  0.00000000  0.21986450  0.62895450  1
  S  S18  1  0.24273350  0.50000000  0.89556150  1
  S  S19  1  0.50000000  0.28013550  0.12895450  1
  S  S20  1  0.00000000  0.70694850  0.12198050  1
  S  S21  1  0.00000000  0.29305150  0.12198050  1
  S  S22  1  0.26385050  0.50000000  0.35200150  1
  S  S23  1  0.73614950  0.50000000  0.35200150  1
  S  S24  1  0.75726650  0.50000000  0.89556150  1
  S  S25  1  0.50000000  0.71986450  0.12895450  1
