# generated using pymatgen
data_Co3WO8
_symmetry_space_group_name_H-M   'P 1'
_cell_length_a   5.78708756
_cell_length_b   5.78708756
_cell_length_c   9.18249100
_cell_angle_alpha   90.00000000
_cell_angle_beta   90.00000000
_cell_angle_gamma   120.00000000
_symmetry_Int_Tables_number   1
_chemical_formula_structural   Co3WO8
_chemical_formula_sum   'Co6 W2 O16'
_cell_volume   266.32457991
_cell_formula_units_Z   2
loop_
 _symmetry_equiv_pos_site_id
 _symmetry_equiv_pos_as_xyz
  1  'x, y, z'
loop_
 _atom_site_type_symbol
 _atom_site_label
 _atom_site_symmetry_multiplicity
 _atom_site_fract_x
 _atom_site_fract_y
 _atom_site_fract_z
 _atom_site_occupancy
  Co  Co0  1  0.16748650  0.83251350  0.21272000  1
  Co  Co1  1  0.16748650  0.33497300  0.21272000  1
  Co  Co2  1  0.66502700  0.83251350  0.21272000  1
  Co  Co3  1  0.33497300  0.16748650  0.71272000  1
  Co  Co4  1  0.83251350  0.66502700  0.71272000  1
  Co  Co5  1  0.83251350  0.16748650  0.71272000  1
  W  W6  1  0.33333333  0.66666667  0.49238400  1
  W  W7  1  0.66666667  0.33333333  0.99238400  1
  O  O8  1  0.16993950  0.83006050  0.59536500  1
  O  O9  1  0.04057200  0.52028600  0.33965800  1
  O  O10  1  0.33333333  0.66666667  0.11313400  1
  O  O11  1  0.00000000  0.00000000  0.30877000  1
  O  O12  1  0.00000000  0.00000000  0.80877000  1
  O  O13  1  0.16993950  0.33987900  0.59536500  1
  O  O14  1  0.47971400  0.95942800  0.33965800  1
  O  O15  1  0.47971400  0.52028600  0.33965800  1
  O  O16  1  0.33987900  0.16993950  0.09536500  1
  O  O17  1  0.66012100  0.83006050  0.59536500  1
  O  O18  1  0.52028600  0.47971400  0.83965800  1
  O  O19  1  0.52028600  0.04057200  0.83965800  1
  O  O20  1  0.66666667  0.33333333  0.61313400  1
  O  O21  1  0.83006050  0.66012100  0.09536500  1
  O  O22  1  0.95942800  0.47971400  0.83965800  1
  O  O23  1  0.83006050  0.16993950  0.09536500  1
