# generated using pymatgen
data_Li2Fe2NiO6
_symmetry_space_group_name_H-M   'P 1'
_cell_length_a   12.72141542
_cell_length_b   8.66978701
_cell_length_c   5.92010462
_cell_angle_alpha   90.00000000
_cell_angle_beta   104.46272065
_cell_angle_gamma   90.00000000
_symmetry_Int_Tables_number   1
_chemical_formula_structural   Li2Fe2NiO6
_chemical_formula_sum   'Li12 Fe12 Ni6 O36'
_cell_volume   632.24851289
_cell_formula_units_Z   6
loop_
 _symmetry_equiv_pos_site_id
 _symmetry_equiv_pos_as_xyz
  1  'x, y, z'
loop_
 _atom_site_type_symbol
 _atom_site_label
 _atom_site_symmetry_multiplicity
 _atom_site_fract_x
 _atom_site_fract_y
 _atom_site_fract_z
 _atom_site_occupancy
  Li  Li0  1  0.66334750  0.17251700  0.83479200  1
  Li  Li1  1  0.66334750  0.82748300  0.83479200  1
  Li  Li2  1  0.50000000  0.33225450  0.50000000  1
  Li  Li3  1  0.50000000  0.66774550  0.50000000  1
  Li  Li4  1  0.83665250  0.67251700  0.16520800  1
  Li  Li5  1  0.83665250  0.32748300  0.16520800  1
  Li  Li6  1  0.16334750  0.67251700  0.83479200  1
  Li  Li7  1  0.16334750  0.32748300  0.83479200  1
  Li  Li8  1  0.00000000  0.83225450  0.50000000  1
  Li  Li9  1  0.00000000  0.16774550  0.50000000  1
  Li  Li10  1  0.33665250  0.17251700  0.16520800  1
  Li  Li11  1  0.33665250  0.82748300  0.16520800  1
  Fe  Fe12  1  0.16785250  0.00000000  0.33185800  1
  Fe  Fe13  1  0.83214750  0.00000000  0.66814200  1
  Fe  Fe14  1  0.66495150  0.16500600  0.33093800  1
  Fe  Fe15  1  0.66495150  0.83499400  0.33093800  1
  Fe  Fe16  1  0.33504850  0.16500600  0.66906200  1
  Fe  Fe17  1  0.33504850  0.83499400  0.66906200  1
  Fe  Fe18  1  0.66785250  0.50000000  0.33185800  1
  Fe  Fe19  1  0.33214750  0.50000000  0.66814200  1
  Fe  Fe20  1  0.16495150  0.66500600  0.33093800  1
  Fe  Fe21  1  0.16495150  0.33499400  0.33093800  1
  Fe  Fe22  1  0.83504850  0.66500600  0.66906200  1
  Fe  Fe23  1  0.83504850  0.33499400  0.66906200  1
  Ni  Ni24  1  0.00000000  0.83790250  0.00000000  1
  Ni  Ni25  1  0.50000000  0.00000000  0.00000000  1
  Ni  Ni26  1  0.00000000  0.16209750  0.00000000  1
  Ni  Ni27  1  0.50000000  0.33790250  0.00000000  1
  Ni  Ni28  1  0.00000000  0.50000000  0.00000000  1
  Ni  Ni29  1  0.50000000  0.66209750  0.00000000  1
  O  O30  1  0.97865650  0.00000000  0.74434400  1
  O  O31  1  0.82415150  0.16907600  0.44409700  1
  O  O32  1  0.82415150  0.83092400  0.44409700  1
  O  O33  1  0.02134350  0.00000000  0.25565600  1
  O  O34  1  0.82853150  0.17144300  0.87879100  1
  O  O35  1  0.82853150  0.82855700  0.87879100  1
  O  O36  1  0.67584850  0.33092400  0.55590300  1
  O  O37  1  0.67713350  0.00000000  0.56388800  1
  O  O38  1  0.67584850  0.66907600  0.55590300  1
  O  O39  1  0.67146850  0.32855700  0.12120900  1
  O  O40  1  0.66466750  0.00000000  0.11340900  1
  O  O41  1  0.67146850  0.67144300  0.12120900  1
  O  O42  1  0.48384600  0.17253550  0.75268700  1
  O  O43  1  0.48384600  0.82746450  0.75268700  1
  O  O44  1  0.32286650  0.00000000  0.43611200  1
  O  O45  1  0.51615400  0.17253550  0.24731300  1
  O  O46  1  0.51615400  0.82746450  0.24731300  1
  O  O47  1  0.33533250  0.00000000  0.88659100  1
  O  O48  1  0.47865650  0.50000000  0.74434400  1
  O  O49  1  0.32415150  0.66907600  0.44409700  1
  O  O50  1  0.32415150  0.33092400  0.44409700  1
  O  O51  1  0.52134350  0.50000000  0.25565600  1
  O  O52  1  0.32853150  0.67144300  0.87879100  1
  O  O53  1  0.32853150  0.32855700  0.87879100  1
  O  O54  1  0.17584850  0.83092400  0.55590300  1
  O  O55  1  0.17713350  0.50000000  0.56388800  1
  O  O56  1  0.17584850  0.16907600  0.55590300  1
  O  O57  1  0.17146850  0.82855700  0.12120900  1
  O  O58  1  0.16466750  0.50000000  0.11340900  1
  O  O59  1  0.17146850  0.17144300  0.12120900  1
  O  O60  1  0.98384600  0.67253550  0.75268700  1
  O  O61  1  0.98384600  0.32746450  0.75268700  1
  O  O62  1  0.82286650  0.50000000  0.43611200  1
  O  O63  1  0.01615400  0.67253550  0.24731300  1
  O  O64  1  0.01615400  0.32746450  0.24731300  1
  O  O65  1  0.83533250  0.50000000  0.88659100  1
