# generated using pymatgen
data_Li2CuF4
_symmetry_space_group_name_H-M   'P 1'
_cell_length_a   14.24996611
_cell_length_b   14.24996611
_cell_length_c   9.88702820
_cell_angle_alpha   90.00000000
_cell_angle_beta   90.00000000
_cell_angle_gamma   120.00000000
_symmetry_Int_Tables_number   1
_chemical_formula_structural   Li2CuF4
_chemical_formula_sum   'Li36 Cu18 F72'
_cell_volume   1738.69765176
_cell_formula_units_Z   18
loop_
 _symmetry_equiv_pos_site_id
 _symmetry_equiv_pos_as_xyz
  1  'x, y, z'
loop_
 _atom_site_type_symbol
 _atom_site_label
 _atom_site_symmetry_multiplicity
 _atom_site_fract_x
 _atom_site_fract_y
 _atom_site_fract_z
 _atom_site_occupancy
  Li  Li0  1  0.85665200  0.54457100  0.41759600  1
  Li  Li1  1  0.54457100  0.68791900  0.58240400  1
  Li  Li2  1  0.80613933  0.78617467  0.58334567  1
  Li  Li3  1  0.31208100  0.85665200  0.58240400  1
  Li  Li4  1  0.01996467  0.80613933  0.41665433  1
  Li  Li5  1  0.21382533  0.01996467  0.58334567  1
  Li  Li6  1  0.78617467  0.98003533  0.41665433  1
  Li  Li7  1  0.98003533  0.19386067  0.58334567  1
  Li  Li8  1  0.68791900  0.14334800  0.41759600  1
  Li  Li9  1  0.19386067  0.21382533  0.41665433  1
  Li  Li10  1  0.45542900  0.31208100  0.41759600  1
  Li  Li11  1  0.14334800  0.45542900  0.58240400  1
  Li  Li12  1  0.52331867  0.87790433  0.75092933  1
  Li  Li13  1  0.21123767  0.02125233  0.91573733  1
  Li  Li14  1  0.47280600  0.11950800  0.91667900  1
  Li  Li15  1  0.97874767  0.18998533  0.91573733  1
  Li  Li16  1  0.68663133  0.13947267  0.74998767  1
  Li  Li17  1  0.88049200  0.35329800  0.91667900  1
  Li  Li18  1  0.45284133  0.31336867  0.74998767  1
  Li  Li19  1  0.64670200  0.52719400  0.91667900  1
  Li  Li20  1  0.35458567  0.47668133  0.75092933  1
  Li  Li21  1  0.86052733  0.54715867  0.74998767  1
  Li  Li22  1  0.12209567  0.64541433  0.75092933  1
  Li  Li23  1  0.81001467  0.78876233  0.91573733  1
  Li  Li24  1  0.18998533  0.21123767  0.08426267  1
  Li  Li25  1  0.87790433  0.35458567  0.24907067  1
  Li  Li26  1  0.13947267  0.45284133  0.25001233  1
  Li  Li27  1  0.64541433  0.52331867  0.24907067  1
  Li  Li28  1  0.35329800  0.47280600  0.08332100  1
  Li  Li29  1  0.54715867  0.68663133  0.25001233  1
  Li  Li30  1  0.11950800  0.64670200  0.08332100  1
  Li  Li31  1  0.31336867  0.86052733  0.25001233  1
  Li  Li32  1  0.02125233  0.81001467  0.08426267  1
  Li  Li33  1  0.52719400  0.88049200  0.08332100  1
  Li  Li34  1  0.78876233  0.97874767  0.08426267  1
  Li  Li35  1  0.47668133  0.12209567  0.24907067  1
  Cu  Cu36  1  0.02442133  0.81184867  0.74833167  1
  Cu  Cu37  1  0.81184867  0.78742733  0.25166833  1
  Cu  Cu38  1  0.78742733  0.97557867  0.74833167  1
  Cu  Cu39  1  0.21257267  0.02442133  0.25166833  1
  Cu  Cu40  1  0.18815133  0.21257267  0.74833167  1
  Cu  Cu41  1  0.97557867  0.18815133  0.25166833  1
  Cu  Cu42  1  0.69108800  0.14518200  0.08166500  1
  Cu  Cu43  1  0.47851533  0.12076067  0.58500167  1
  Cu  Cu44  1  0.45409400  0.30891200  0.08166500  1
  Cu  Cu45  1  0.87923933  0.35775467  0.58500167  1
  Cu  Cu46  1  0.85481800  0.54590600  0.08166500  1
  Cu  Cu47  1  0.64224533  0.52148467  0.58500167  1
  Cu  Cu48  1  0.35775467  0.47851533  0.41499833  1
  Cu  Cu49  1  0.14518200  0.45409400  0.91833500  1
  Cu  Cu50  1  0.12076067  0.64224533  0.41499833  1
  Cu  Cu51  1  0.54590600  0.69108800  0.91833500  1
  Cu  Cu52  1  0.52148467  0.87923933  0.41499833  1
  Cu  Cu53  1  0.30891200  0.85481800  0.91833500  1
  F  F54  1  0.78803433  0.54244067  0.25329667  1
  F  F55  1  0.66437400  0.66665200  0.58249600  1
  F  F56  1  0.54244067  0.75440633  0.74670333  1
  F  F57  1  0.99772200  0.66437400  0.41750400  1
  F  F58  1  0.87845500  0.79161900  0.74859800  1
  F  F59  1  0.24559367  0.78803433  0.74670333  1
  F  F60  1  0.87791833  0.78872667  0.42173967  1
  F  F61  1  0.08919167  0.87791833  0.57826033  1
  F  F62  1  0.78872667  0.91080833  0.57826033  1
  F  F63  1  0.08683600  0.87845500  0.25140200  1
  F  F64  1  0.33334800  0.99772200  0.58249600  1
  F  F65  1  0.79161900  0.91316400  0.25140200  1
  F  F66  1  0.20838100  0.08683600  0.74859800  1
  F  F67  1  0.66665200  0.00227800  0.41750400  1
  F  F68  1  0.91316400  0.12154500  0.74859800  1
  F  F69  1  0.21127333  0.08919167  0.42173967  1
  F  F70  1  0.91080833  0.12208167  0.42173967  1
  F  F71  1  0.12208167  0.21127333  0.57826033  1
  F  F72  1  0.75440633  0.21196567  0.25329667  1
  F  F73  1  0.12154500  0.20838100  0.25140200  1
  F  F74  1  0.00227800  0.33562600  0.58249600  1
  F  F75  1  0.45755933  0.24559367  0.25329667  1
  F  F76  1  0.33562600  0.33334800  0.41750400  1
  F  F77  1  0.21196567  0.45755933  0.74670333  1
  F  F78  1  0.45470100  0.87577400  0.58663000  1
  F  F79  1  0.33104067  0.99998533  0.91582933  1
  F  F80  1  0.20910733  0.08773967  0.08003667  1
  F  F81  1  0.66438867  0.99770733  0.75083733  1
  F  F82  1  0.54512167  0.12495233  0.08193133  1
  F  F83  1  0.91226033  0.12136767  0.08003667  1
  F  F84  1  0.54458500  0.12206000  0.75507300  1
  F  F85  1  0.75585833  0.21125167  0.91159367  1
  F  F86  1  0.45539333  0.24414167  0.91159367  1
  F  F87  1  0.75350267  0.21178833  0.58473533  1
  F  F88  1  0.00001467  0.33105533  0.91582933  1
  F  F89  1  0.45828567  0.24649733  0.58473533  1
  F  F90  1  0.87504767  0.42016933  0.08193133  1
  F  F91  1  0.33331867  0.33561133  0.75083733  1
  F  F92  1  0.57983067  0.45487833  0.08193133  1
  F  F93  1  0.87794000  0.42252500  0.75507300  1
  F  F94  1  0.57747500  0.45541500  0.75507300  1
  F  F95  1  0.78874833  0.54460667  0.91159367  1
  F  F96  1  0.42107300  0.54529900  0.58663000  1
  F  F97  1  0.78821167  0.54171433  0.58473533  1
  F  F98  1  0.66894467  0.66895933  0.91582933  1
  F  F99  1  0.12422600  0.57892700  0.58663000  1
  F  F100  1  0.00229267  0.66668133  0.75083733  1
  F  F101  1  0.87863233  0.79089267  0.08003667  1
  F  F102  1  0.12136767  0.20910733  0.91996333  1
  F  F103  1  0.99770733  0.33331867  0.24916267  1
  F  F104  1  0.87577400  0.42107300  0.41337000  1
  F  F105  1  0.33105533  0.33104067  0.08417067  1
  F  F106  1  0.21178833  0.45828567  0.41526467  1
  F  F107  1  0.57892700  0.45470100  0.41337000  1
  F  F108  1  0.21125167  0.45539333  0.08840633  1
  F  F109  1  0.42252500  0.54458500  0.24492700  1
  F  F110  1  0.12206000  0.57747500  0.24492700  1
  F  F111  1  0.42016933  0.54512167  0.91806867  1
  F  F112  1  0.66668133  0.66438867  0.24916267  1
  F  F113  1  0.12495233  0.57983067  0.91806867  1
  F  F114  1  0.54171433  0.75350267  0.41526467  1
  F  F115  1  0.99998533  0.66894467  0.08417067  1
  F  F116  1  0.24649733  0.78821167  0.41526467  1
  F  F117  1  0.54460667  0.75585833  0.08840633  1
  F  F118  1  0.24414167  0.78874833  0.08840633  1
  F  F119  1  0.45541500  0.87794000  0.24492700  1
  F  F120  1  0.08773967  0.87863233  0.91996333  1
  F  F121  1  0.45487833  0.87504767  0.91806867  1
  F  F122  1  0.33561133  0.00229267  0.24916267  1
  F  F123  1  0.79089267  0.91226033  0.91996333  1
  F  F124  1  0.66895933  0.00001467  0.08417067  1
  F  F125  1  0.54529900  0.12422600  0.41337000  1
