# generated using pymatgen
data_W(OF)2
_symmetry_space_group_name_H-M   'P 1'
_cell_length_a   5.48289200
_cell_length_b   5.49365400
_cell_length_c   9.49349200
_cell_angle_alpha   90.00000000
_cell_angle_beta   90.00000000
_cell_angle_gamma   90.00000000
_symmetry_Int_Tables_number   1
_chemical_formula_structural   W(OF)2
_chemical_formula_sum   'W4 O8 F8'
_cell_volume   285.95453170
_cell_formula_units_Z   4
loop_
 _symmetry_equiv_pos_site_id
 _symmetry_equiv_pos_as_xyz
  1  'x, y, z'
loop_
 _atom_site_type_symbol
 _atom_site_label
 _atom_site_symmetry_multiplicity
 _atom_site_fract_x
 _atom_site_fract_y
 _atom_site_fract_z
 _atom_site_occupancy
  W  W0  1  0.27981600  0.00000000  0.25000000  1
  W  W1  1  0.72018400  0.00000000  0.75000000  1
  W  W2  1  0.77981600  0.50000000  0.25000000  1
  W  W3  1  0.22018400  0.50000000  0.75000000  1
  O  O4  1  0.49458650  0.24864750  0.75000000  1
  O  O5  1  0.50541350  0.24864750  0.25000000  1
  O  O6  1  0.49458650  0.75135250  0.75000000  1
  O  O7  1  0.50541350  0.75135250  0.25000000  1
  O  O8  1  0.99458650  0.74864750  0.75000000  1
  O  O9  1  0.00541350  0.74864750  0.25000000  1
  O  O10  1  0.99458650  0.25135250  0.75000000  1
  O  O11  1  0.00541350  0.25135250  0.25000000  1
  F  F12  1  0.24121500  0.00000000  0.05155100  1
  F  F13  1  0.24121500  0.00000000  0.44844900  1
  F  F14  1  0.75878500  0.00000000  0.55155100  1
  F  F15  1  0.75878500  0.00000000  0.94844900  1
  F  F16  1  0.74121500  0.50000000  0.05155100  1
  F  F17  1  0.74121500  0.50000000  0.44844900  1
  F  F18  1  0.25878500  0.50000000  0.55155100  1
  F  F19  1  0.25878500  0.50000000  0.94844900  1
