# generated using pymatgen
data_Fe5O3F7
_symmetry_space_group_name_H-M   'P 1'
_cell_length_a   4.83426700
_cell_length_b   4.82493200
_cell_length_c   16.36254810
_cell_angle_alpha   90.00000000
_cell_angle_beta   106.98606037
_cell_angle_gamma   90.00000000
_symmetry_Int_Tables_number   1
_chemical_formula_structural   Fe5O3F7
_chemical_formula_sum   'Fe10 O6 F14'
_cell_volume   365.00714981
_cell_formula_units_Z   2
loop_
 _symmetry_equiv_pos_site_id
 _symmetry_equiv_pos_as_xyz
  1  'x, y, z'
loop_
 _atom_site_type_symbol
 _atom_site_label
 _atom_site_symmetry_multiplicity
 _atom_site_fract_x
 _atom_site_fract_y
 _atom_site_fract_z
 _atom_site_occupancy
  Fe  Fe0  1  0.00340200  0.75449700  0.99952800  1
  Fe  Fe1  1  0.17141000  0.74007900  0.19400100  1
  Fe  Fe2  1  0.37627400  0.72933300  0.40001500  1
  Fe  Fe3  1  0.64947200  0.77241800  0.60722400  1
  Fe  Fe4  1  0.82331800  0.72433300  0.80175200  1
  Fe  Fe5  1  0.64947200  0.22758200  0.10722400  1
  Fe  Fe6  1  0.00340200  0.24550300  0.49952800  1
  Fe  Fe7  1  0.82331800  0.27566700  0.30175200  1
  Fe  Fe8  1  0.17141000  0.25992100  0.69400100  1
  Fe  Fe9  1  0.37627400  0.27066700  0.90001500  1
  O  O10  1  0.88537000  0.57072500  0.70103500  1
  O  O11  1  0.07781200  0.57548100  0.90358200  1
  O  O12  1  0.90101800  0.05935300  0.59061900  1
  O  O13  1  0.88537000  0.42927500  0.20103500  1
  O  O14  1  0.07781200  0.42451900  0.40358200  1
  O  O15  1  0.90101800  0.94064700  0.09061900  1
  F  F16  1  0.30668800  0.53438200  0.09182800  1
  F  F17  1  0.49357000  0.54302600  0.29865300  1
  F  F18  1  0.70497000  0.55224600  0.50411900  1
  F  F19  1  0.31436400  0.05127600  0.00607700  1
  F  F20  1  0.50893300  0.04680000  0.20210500  1
  F  F21  1  0.69568600  0.04969500  0.39826500  1
  F  F22  1  0.08771300  0.05090200  0.80119900  1
  F  F23  1  0.70497000  0.44775400  0.00411900  1
  F  F24  1  0.30668800  0.46561800  0.59182800  1
  F  F25  1  0.49357000  0.45697400  0.79865300  1
  F  F26  1  0.31436400  0.94872400  0.50607700  1
  F  F27  1  0.08771300  0.94909800  0.30119900  1
  F  F28  1  0.69568600  0.95030500  0.89826500  1
  F  F29  1  0.50893300  0.95320000  0.70210500  1
