# generated using pymatgen
data_LiFe2(CO3)4
_symmetry_space_group_name_H-M   'P 1'
_cell_length_a   7.35465800
_cell_length_b   9.67565500
_cell_length_c   8.50575588
_cell_angle_alpha   90.00000000
_cell_angle_beta   108.70229824
_cell_angle_gamma   90.00000000
_symmetry_Int_Tables_number   1
_chemical_formula_structural   LiFe2(CO3)4
_chemical_formula_sum   'Li2 Fe4 C8 O24'
_cell_volume   573.31892260
_cell_formula_units_Z   2
loop_
 _symmetry_equiv_pos_site_id
 _symmetry_equiv_pos_as_xyz
  1  'x, y, z'
loop_
 _atom_site_type_symbol
 _atom_site_label
 _atom_site_symmetry_multiplicity
 _atom_site_fract_x
 _atom_site_fract_y
 _atom_site_fract_z
 _atom_site_occupancy
  Li  Li0  1  0.74417300  0.08614300  0.10605300  1
  Li  Li1  1  0.25582700  0.58614300  0.89394700  1
  Fe  Fe2  1  0.71013200  0.65426500  0.18424700  1
  Fe  Fe3  1  0.28986800  0.15426500  0.81575300  1
  Fe  Fe4  1  0.18048900  0.85025900  0.67046800  1
  Fe  Fe5  1  0.81951100  0.35025900  0.32953200  1
  C  C6  1  0.48388200  0.88498100  0.99983100  1
  C  C7  1  0.51611800  0.38498100  0.00016900  1
  C  C8  1  0.49487400  0.51459600  0.38328900  1
  C  C9  1  0.50512600  0.01459600  0.61671100  1
  C  C10  1  0.98679700  0.00318900  0.89073900  1
  C  C11  1  0.01320300  0.50318900  0.10926100  1
  C  C12  1  0.99980500  0.59819200  0.52070100  1
  C  C13  1  0.00019500  0.09819200  0.47929900  1
  O  O14  1  0.62759200  0.84151600  0.12322600  1
  O  O15  1  0.53398500  0.51792800  0.01694900  1
  O  O16  1  0.63057300  0.29866600  0.09867600  1
  O  O17  1  0.36942700  0.79866600  0.90132400  1
  O  O18  1  0.46601500  0.01792800  0.98305100  1
  O  O19  1  0.63426700  0.02333200  0.54881800  1
  O  O20  1  0.37240800  0.34151600  0.87677400  1
  O  O21  1  0.58539800  0.39906200  0.38607600  1
  O  O22  1  0.53143400  0.62522900  0.31211100  1
  O  O23  1  0.46856600  0.12522900  0.68788900  1
  O  O24  1  0.41460200  0.89906200  0.61392400  1
  O  O25  1  0.13706800  0.49185200  0.03827400  1
  O  O26  1  0.36573300  0.52333200  0.45118200  1
  O  O27  1  0.09499100  0.11446600  0.91429000  1
  O  O28  1  0.01111700  0.90556600  0.79240200  1
  O  O29  1  0.98888300  0.40556600  0.20759800  1
  O  O30  1  0.90500900  0.61446600  0.08571000  1
  O  O31  1  0.12493900  0.65171300  0.65325200  1
  O  O32  1  0.86293200  0.99185200  0.96172600  1
  O  O33  1  0.03531700  0.96884800  0.47991700  1
  O  O34  1  0.08136500  0.18091300  0.60002700  1
  O  O35  1  0.91863500  0.68091300  0.39997300  1
  O  O36  1  0.96468300  0.46884800  0.52008300  1
  O  O37  1  0.87506100  0.15171300  0.34674800  1
