# generated using pymatgen
data_Mn6OF11
_symmetry_space_group_name_H-M   'P 1'
_cell_length_a   7.57667600
_cell_length_b   7.40174200
_cell_length_c   15.65443330
_cell_angle_alpha   90.00000000
_cell_angle_beta   94.25915182
_cell_angle_gamma   90.00000000
_symmetry_Int_Tables_number   1
_chemical_formula_structural   Mn6OF11
_chemical_formula_sum   'Mn24 O4 F44'
_cell_volume   875.48553394
_cell_formula_units_Z   4
loop_
 _symmetry_equiv_pos_site_id
 _symmetry_equiv_pos_as_xyz
  1  'x, y, z'
loop_
 _atom_site_type_symbol
 _atom_site_label
 _atom_site_symmetry_multiplicity
 _atom_site_fract_x
 _atom_site_fract_y
 _atom_site_fract_z
 _atom_site_occupancy
  Mn  Mn0  1  0.45295300  0.50000000  0.99398300  1
  Mn  Mn1  1  0.24606350  0.74875450  0.83447000  1
  Mn  Mn2  1  0.46205900  0.50000000  0.66070100  1
  Mn  Mn3  1  0.75943450  0.24554350  0.50229100  1
  Mn  Mn4  1  0.48726200  0.50000000  0.33575200  1
  Mn  Mn5  1  0.23447550  0.75376150  0.16576800  1
  Mn  Mn6  1  0.24606350  0.25124550  0.83447000  1
  Mn  Mn7  1  0.02525100  0.50000000  0.99212200  1
  Mn  Mn8  1  0.99959800  0.50000000  0.33366500  1
  Mn  Mn9  1  0.75943450  0.75445650  0.50229100  1
  Mn  Mn10  1  0.03263500  0.50000000  0.66109900  1
  Mn  Mn11  1  0.23447550  0.24623850  0.16576800  1
  Mn  Mn12  1  0.95295300  0.00000000  0.99398300  1
  Mn  Mn13  1  0.74606350  0.24875450  0.83447000  1
  Mn  Mn14  1  0.96205900  0.00000000  0.66070100  1
  Mn  Mn15  1  0.25943450  0.74554350  0.50229100  1
  Mn  Mn16  1  0.98726200  0.00000000  0.33575200  1
  Mn  Mn17  1  0.73447550  0.25376150  0.16576800  1
  Mn  Mn18  1  0.74606350  0.75124550  0.83447000  1
  Mn  Mn19  1  0.52525100  0.00000000  0.99212200  1
  Mn  Mn20  1  0.49959800  0.00000000  0.33366500  1
  Mn  Mn21  1  0.25943450  0.25445650  0.50229100  1
  Mn  Mn22  1  0.53263500  0.00000000  0.66109900  1
  Mn  Mn23  1  0.73447550  0.74623850  0.16576800  1
  O  O24  1  0.24743400  0.50000000  0.92002500  1
  O  O25  1  0.25765500  0.50000000  0.58536200  1
  O  O26  1  0.74743400  0.00000000  0.92002500  1
  O  O27  1  0.75765500  0.00000000  0.58536200  1
  F  F28  1  0.28876700  0.50000000  0.75251800  1
  F  F29  1  0.02755700  0.79097700  0.92230900  1
  F  F30  1  0.26655500  0.50000000  0.41347200  1
  F  F31  1  0.03364950  0.78456150  0.59223100  1
  F  F32  1  0.28457800  0.50000000  0.08855700  1
  F  F33  1  0.99803150  0.77778050  0.25121900  1
  F  F34  1  0.98289350  0.69479550  0.75849100  1
  F  F35  1  0.99970900  0.72838100  0.42388800  1
  F  F36  1  0.97568800  0.69667100  0.08693100  1
  F  F37  1  0.21635800  0.50000000  0.24667400  1
  F  F38  1  0.97568800  0.30332900  0.08693100  1
  F  F39  1  0.99970900  0.27161900  0.42388800  1
  F  F40  1  0.98289350  0.30520450  0.75849100  1
  F  F41  1  0.81227000  0.50000000  0.90104000  1
  F  F42  1  0.81422100  0.50000000  0.57225800  1
  F  F43  1  0.77953200  0.50000000  0.23898000  1
  F  F44  1  0.03364950  0.21543850  0.59223100  1
  F  F45  1  0.02755700  0.20902300  0.92230900  1
  F  F46  1  0.99803150  0.22221950  0.25121900  1
  F  F47  1  0.73038900  0.50000000  0.40983700  1
  F  F48  1  0.66202100  0.50000000  0.07530600  1
  F  F49  1  0.66545600  0.50000000  0.74344900  1
  F  F50  1  0.78876700  0.00000000  0.75251800  1
  F  F51  1  0.52755700  0.29097700  0.92230900  1
  F  F52  1  0.76655500  0.00000000  0.41347200  1
  F  F53  1  0.53364950  0.28456150  0.59223100  1
  F  F54  1  0.78457800  0.00000000  0.08855700  1
  F  F55  1  0.49803150  0.27778050  0.25121900  1
  F  F56  1  0.48289350  0.19479550  0.75849100  1
  F  F57  1  0.49970900  0.22838100  0.42388800  1
  F  F58  1  0.47568800  0.19667100  0.08693100  1
  F  F59  1  0.71635800  0.00000000  0.24667400  1
  F  F60  1  0.47568800  0.80332900  0.08693100  1
  F  F61  1  0.49970900  0.77161900  0.42388800  1
  F  F62  1  0.48289350  0.80520450  0.75849100  1
  F  F63  1  0.31227000  0.00000000  0.90104000  1
  F  F64  1  0.31422100  0.00000000  0.57225800  1
  F  F65  1  0.27953200  0.00000000  0.23898000  1
  F  F66  1  0.53364950  0.71543850  0.59223100  1
  F  F67  1  0.52755700  0.70902300  0.92230900  1
  F  F68  1  0.49803150  0.72221950  0.25121900  1
  F  F69  1  0.23038900  0.00000000  0.40983700  1
  F  F70  1  0.16202100  0.00000000  0.07530600  1
  F  F71  1  0.16545600  0.00000000  0.74344900  1
