# generated using pymatgen
data_LiNi2OF3
_symmetry_space_group_name_H-M   'P 1'
_cell_length_a   5.87440000
_cell_length_b   8.53383200
_cell_length_c   12.15510400
_cell_angle_alpha   90.00000000
_cell_angle_beta   90.00000000
_cell_angle_gamma   90.00000000
_symmetry_Int_Tables_number   1
_chemical_formula_structural   LiNi2OF3
_chemical_formula_sum   'Li8 Ni16 O8 F24'
_cell_volume   609.34925317
_cell_formula_units_Z   8
loop_
 _symmetry_equiv_pos_site_id
 _symmetry_equiv_pos_as_xyz
  1  'x, y, z'
loop_
 _atom_site_type_symbol
 _atom_site_label
 _atom_site_symmetry_multiplicity
 _atom_site_fract_x
 _atom_site_fract_y
 _atom_site_fract_z
 _atom_site_occupancy
  Li  Li0  1  0.00000000  0.35392900  0.63523350  1
  Li  Li1  1  0.00000000  0.35392900  0.36476650  1
  Li  Li2  1  0.50000000  0.13688800  0.62920050  1
  Li  Li3  1  0.50000000  0.13688800  0.37079950  1
  Li  Li4  1  0.50000000  0.85392900  0.13523350  1
  Li  Li5  1  0.50000000  0.85392900  0.86476650  1
  Li  Li6  1  0.00000000  0.63688800  0.12920050  1
  Li  Li7  1  0.00000000  0.63688800  0.87079950  1
  Ni  Ni8  1  0.50000000  0.51280800  0.25122550  1
  Ni  Ni9  1  0.74230500  0.75093100  0.61807250  1
  Ni  Ni10  1  0.25769500  0.75093100  0.38192750  1
  Ni  Ni11  1  0.00000000  0.01616900  0.50000000  1
  Ni  Ni12  1  0.50000000  0.51280800  0.74877450  1
  Ni  Ni13  1  0.50000000  0.48071100  0.50000000  1
  Ni  Ni14  1  0.25769500  0.75093100  0.61807250  1
  Ni  Ni15  1  0.74230500  0.75093100  0.38192750  1
  Ni  Ni16  1  0.00000000  0.01280800  0.75122550  1
  Ni  Ni17  1  0.24230500  0.25093100  0.11807250  1
  Ni  Ni18  1  0.75769500  0.25093100  0.88192750  1
  Ni  Ni19  1  0.50000000  0.51616900  0.00000000  1
  Ni  Ni20  1  0.00000000  0.01280800  0.24877450  1
  Ni  Ni21  1  0.00000000  0.98071100  0.00000000  1
  Ni  Ni22  1  0.75769500  0.25093100  0.11807250  1
  Ni  Ni23  1  0.24230500  0.25093100  0.88192750  1
  O  O24  1  0.50000000  0.73708900  0.27093850  1
  O  O25  1  0.50000000  0.73708900  0.72906150  1
  O  O26  1  0.50000000  0.71553900  0.50000000  1
  O  O27  1  0.00000000  0.78103900  0.50000000  1
  O  O28  1  0.00000000  0.23708900  0.77093850  1
  O  O29  1  0.00000000  0.23708900  0.22906150  1
  O  O30  1  0.00000000  0.21553900  0.00000000  1
  O  O31  1  0.50000000  0.28103900  0.00000000  1
  F  F32  1  0.25865300  0.49589200  0.37493350  1
  F  F33  1  0.00000000  0.24448000  0.50000000  1
  F  F34  1  0.74134700  0.49589200  0.62506650  1
  F  F35  1  0.73911050  0.50185350  0.87386700  1
  F  F36  1  0.74134700  0.49589200  0.37493350  1
  F  F37  1  0.50000000  0.26743700  0.76208450  1
  F  F38  1  0.26088950  0.50185350  0.12613300  1
  F  F39  1  0.26088950  0.50185350  0.87386700  1
  F  F40  1  0.25865300  0.49589200  0.62506650  1
  F  F41  1  0.50000000  0.25104900  0.50000000  1
  F  F42  1  0.50000000  0.26743700  0.23791550  1
  F  F43  1  0.73911050  0.50185350  0.12613300  1
  F  F44  1  0.75865300  0.99589200  0.87493350  1
  F  F45  1  0.50000000  0.74448000  0.00000000  1
  F  F46  1  0.24134700  0.99589200  0.12506650  1
  F  F47  1  0.23911050  0.00185350  0.37386700  1
  F  F48  1  0.24134700  0.99589200  0.87493350  1
  F  F49  1  0.00000000  0.76743700  0.26208450  1
  F  F50  1  0.76088950  0.00185350  0.62613300  1
  F  F51  1  0.76088950  0.00185350  0.37386700  1
  F  F52  1  0.75865300  0.99589200  0.12506650  1
  F  F53  1  0.00000000  0.75104900  0.00000000  1
  F  F54  1  0.00000000  0.76743700  0.73791550  1
  F  F55  1  0.23911050  0.00185350  0.62613300  1
