# generated using pymatgen
data_Li3Co4TeO8
_symmetry_space_group_name_H-M   'P 1'
_cell_length_a   10.40168000
_cell_length_b   6.17543800
_cell_length_c   6.18482448
_cell_angle_alpha   90.00000000
_cell_angle_beta   125.55311422
_cell_angle_gamma   90.00000000
_symmetry_Int_Tables_number   1
_chemical_formula_structural   Li3Co4TeO8
_chemical_formula_sum   'Li6 Co8 Te2 O16'
_cell_volume   323.21924750
_cell_formula_units_Z   2
loop_
 _symmetry_equiv_pos_site_id
 _symmetry_equiv_pos_as_xyz
  1  'x, y, z'
loop_
 _atom_site_type_symbol
 _atom_site_label
 _atom_site_symmetry_multiplicity
 _atom_site_fract_x
 _atom_site_fract_y
 _atom_site_fract_z
 _atom_site_occupancy
  Li  Li0  1  0.75000000  0.75000000  0.00000000  1
  Li  Li1  1  0.25000000  0.75000000  0.00000000  1
  Li  Li2  1  0.00000000  0.00000000  0.50000000  1
  Li  Li3  1  0.25000000  0.25000000  0.00000000  1
  Li  Li4  1  0.75000000  0.25000000  0.00000000  1
  Li  Li5  1  0.50000000  0.50000000  0.50000000  1
  Co  Co6  1  0.00000000  0.00000000  0.00000000  1
  Co  Co7  1  0.25000000  0.75000000  0.50000000  1
  Co  Co8  1  0.25000000  0.25000000  0.50000000  1
  Co  Co9  1  0.50000000  0.00000000  0.50000000  1
  Co  Co10  1  0.50000000  0.50000000  0.00000000  1
  Co  Co11  1  0.75000000  0.25000000  0.50000000  1
  Co  Co12  1  0.75000000  0.75000000  0.50000000  1
  Co  Co13  1  0.00000000  0.50000000  0.50000000  1
  Te  Te14  1  0.00000000  0.50000000  0.00000000  1
  Te  Te15  1  0.50000000  0.00000000  0.00000000  1
  O  O16  1  0.24475100  0.50000000  0.25154300  1
  O  O17  1  0.50235200  0.23986900  0.76249900  1
  O  O18  1  0.50235200  0.76013100  0.76249900  1
  O  O19  1  0.25524900  0.00000000  0.74845700  1
  O  O20  1  0.24979000  0.00000000  0.26904100  1
  O  O21  1  0.99764800  0.26013100  0.23750100  1
  O  O22  1  0.99764800  0.73986900  0.23750100  1
  O  O23  1  0.25021000  0.50000000  0.73095900  1
  O  O24  1  0.74475100  0.00000000  0.25154300  1
  O  O25  1  0.00235200  0.73986900  0.76249900  1
  O  O26  1  0.00235200  0.26013100  0.76249900  1
  O  O27  1  0.75524900  0.50000000  0.74845700  1
  O  O28  1  0.74979000  0.50000000  0.26904100  1
  O  O29  1  0.49764800  0.76013100  0.23750100  1
  O  O30  1  0.49764800  0.23986900  0.23750100  1
  O  O31  1  0.75021000  0.00000000  0.73095900  1
