# generated using pymatgen
data_Mn6OF11
_symmetry_space_group_name_H-M   'P 1'
_cell_length_a   4.94820700
_cell_length_b   16.24890000
_cell_length_c   7.54458580
_cell_angle_alpha   90.00000000
_cell_angle_beta   129.12117258
_cell_angle_gamma   90.00000000
_symmetry_Int_Tables_number   1
_chemical_formula_structural   Mn6OF11
_chemical_formula_sum   'Mn12 O2 F22'
_cell_volume   470.61357154
_cell_formula_units_Z   2
loop_
 _symmetry_equiv_pos_site_id
 _symmetry_equiv_pos_as_xyz
  1  'x, y, z'
loop_
 _atom_site_type_symbol
 _atom_site_label
 _atom_site_symmetry_multiplicity
 _atom_site_fract_x
 _atom_site_fract_y
 _atom_site_fract_z
 _atom_site_occupancy
  Mn  Mn0  1  0.82918600  0.16860300  0.83394900  1
  Mn  Mn1  1  0.14107000  0.34537000  0.16481800  1
  Mn  Mn2  1  0.84575700  0.50180800  0.83976700  1
  Mn  Mn3  1  0.81433400  0.82970200  0.82504900  1
  Mn  Mn4  1  0.17517200  0.99933800  0.17043300  1
  Mn  Mn5  1  0.17657900  0.66506900  0.16995700  1
  Mn  Mn6  1  0.17517200  0.00066200  0.67043300  1
  Mn  Mn7  1  0.14107000  0.65463000  0.66481800  1
  Mn  Mn8  1  0.17657900  0.33493100  0.66995700  1
  Mn  Mn9  1  0.84575700  0.49819200  0.33976700  1
  Mn  Mn10  1  0.81433400  0.17029800  0.32504900  1
  Mn  Mn11  1  0.82918600  0.83139700  0.33394900  1
  O  O12  1  0.89041300  0.45391700  0.11040800  1
  O  O13  1  0.89041300  0.54608300  0.61040800  1
  F  F14  1  0.66208500  0.27800600  0.89883500  1
  F  F15  1  0.66694800  0.94204200  0.89526500  1
  F  F16  1  0.66896300  0.61036300  0.87925400  1
  F  F17  1  0.87065100  0.10846300  0.10586400  1
  F  F18  1  0.88345500  0.77356100  0.11005700  1
  F  F19  1  0.35667000  0.44261200  0.60628700  1
  F  F20  1  0.12800600  0.27764400  0.39304300  1
  F  F21  1  0.33316600  0.11157800  0.60329400  1
  F  F22  1  0.13055900  0.93952000  0.39772900  1
  F  F23  1  0.32495900  0.76763100  0.61255700  1
  F  F24  1  0.10202800  0.60693300  0.38343600  1
  F  F25  1  0.66896300  0.38963700  0.37925400  1
  F  F26  1  0.88345500  0.22643900  0.61005700  1
  F  F27  1  0.66694800  0.05795800  0.39526500  1
  F  F28  1  0.66208500  0.72199400  0.39883500  1
  F  F29  1  0.87065100  0.89153700  0.60586400  1
  F  F30  1  0.10202800  0.39306700  0.88343600  1
  F  F31  1  0.13055900  0.06048000  0.89772900  1
  F  F32  1  0.32495900  0.23236900  0.11255700  1
  F  F33  1  0.35667000  0.55738800  0.10628700  1
  F  F34  1  0.12800600  0.72235600  0.89304300  1
  F  F35  1  0.33316600  0.88842200  0.10329400  1
