# generated using pymatgen
data_Al2CoO4
_symmetry_space_group_name_H-M   'P 1'
_cell_length_a   5.77864197
_cell_length_b   5.77864197
_cell_length_c   56.77641409
_cell_angle_alpha   90.00000000
_cell_angle_beta   90.00000000
_cell_angle_gamma   120.00000000
_symmetry_Int_Tables_number   1
_chemical_formula_structural   Al2CoO4
_chemical_formula_sum   'Al48 Co24 O96'
_cell_volume   1641.91309561
_cell_formula_units_Z   24
loop_
 _symmetry_equiv_pos_site_id
 _symmetry_equiv_pos_as_xyz
  1  'x, y, z'
loop_
 _atom_site_type_symbol
 _atom_site_label
 _atom_site_symmetry_multiplicity
 _atom_site_fract_x
 _atom_site_fract_y
 _atom_site_fract_z
 _atom_site_occupancy
  Al  Al0  1  0.00000000  0.00000000  0.31127700  1
  Al  Al1  1  0.50344467  0.00688933  0.28128533  1
  Al  Al2  1  0.50344467  0.49655533  0.28128533  1
  Al  Al3  1  0.33333333  0.66666667  0.22876567  1
  Al  Al4  1  0.99311067  0.49655533  0.28128533  1
  Al  Al5  1  0.83510600  0.67021200  0.19781900  1
  Al  Al6  1  0.83510600  0.16489400  0.19781900  1
  Al  Al7  1  0.32978800  0.16489400  0.19781900  1
  Al  Al8  1  0.16681800  0.33363600  0.11435200  1
  Al  Al9  1  0.16681800  0.83318200  0.11435200  1
  Al  Al10  1  0.00000000  0.00000000  0.15589900  1
  Al  Al11  1  0.66636400  0.83318200  0.11435200  1
  Al  Al12  1  0.50201900  0.00403800  0.03140600  1
  Al  Al13  1  0.50201900  0.49798100  0.03140600  1
  Al  Al14  1  0.33333333  0.66666667  0.07278467  1
  Al  Al15  1  0.99596200  0.49798100  0.03140600  1
  Al  Al16  1  0.66666667  0.33333333  0.64461033  1
  Al  Al17  1  0.17011133  0.34022267  0.61461867  1
  Al  Al18  1  0.17011133  0.82988867  0.61461867  1
  Al  Al19  1  0.00000000  0.00000000  0.56209900  1
  Al  Al20  1  0.65977733  0.82988867  0.61461867  1
  Al  Al21  1  0.50177267  0.00354533  0.53115233  1
  Al  Al22  1  0.50177267  0.49822733  0.53115233  1
  Al  Al23  1  0.99645467  0.49822733  0.53115233  1
  Al  Al24  1  0.83348467  0.66696933  0.44768533  1
  Al  Al25  1  0.83348467  0.16651533  0.44768533  1
  Al  Al26  1  0.66666667  0.33333333  0.48923233  1
  Al  Al27  1  0.33303067  0.16651533  0.44768533  1
  Al  Al28  1  0.16868567  0.33737133  0.36473933  1
  Al  Al29  1  0.16868567  0.83131433  0.36473933  1
  Al  Al30  1  0.00000000  0.00000000  0.40611800  1
  Al  Al31  1  0.66262867  0.83131433  0.36473933  1
  Al  Al32  1  0.33333333  0.66666667  0.97794367  1
  Al  Al33  1  0.83677800  0.67355600  0.94795200  1
  Al  Al34  1  0.83677800  0.16322200  0.94795200  1
  Al  Al35  1  0.66666667  0.33333333  0.89543233  1
  Al  Al36  1  0.32644400  0.16322200  0.94795200  1
  Al  Al37  1  0.16843933  0.33687867  0.86448567  1
  Al  Al38  1  0.16843933  0.83156067  0.86448567  1
  Al  Al39  1  0.66312133  0.83156067  0.86448567  1
  Al  Al40  1  0.50015133  0.00030267  0.78101867  1
  Al  Al41  1  0.50015133  0.49984867  0.78101867  1
  Al  Al42  1  0.33333333  0.66666667  0.82256567  1
  Al  Al43  1  0.99969733  0.49984867  0.78101867  1
  Al  Al44  1  0.83535233  0.67070467  0.69807267  1
  Al  Al45  1  0.83535233  0.16464767  0.69807267  1
  Al  Al46  1  0.66666667  0.33333333  0.73945133  1
  Al  Al47  1  0.32929533  0.16464767  0.69807267  1
  Co  Co48  1  0.00000000  0.00000000  0.00084900  1
  Co  Co49  1  0.33333333  0.66666667  0.32368667  1
  Co  Co50  1  0.00000000  0.00000000  0.25052700  1
  Co  Co51  1  0.66666667  0.33333333  0.23982733  1
  Co  Co52  1  0.66666667  0.33333333  0.14617933  1
  Co  Co53  1  0.33333333  0.66666667  0.16650967  1
  Co  Co54  1  0.00000000  0.00000000  0.06162400  1
  Co  Co55  1  0.66666667  0.33333333  0.08355133  1
  Co  Co56  1  0.66666667  0.33333333  0.33418233  1
  Co  Co57  1  0.00000000  0.00000000  0.65702000  1
  Co  Co58  1  0.66666667  0.33333333  0.58386033  1
  Co  Co59  1  0.33333333  0.66666667  0.57316067  1
  Co  Co60  1  0.33333333  0.66666667  0.47951267  1
  Co  Co61  1  0.00000000  0.00000000  0.49984300  1
  Co  Co62  1  0.66666667  0.33333333  0.39495733  1
  Co  Co63  1  0.33333333  0.66666667  0.41688467  1
  Co  Co64  1  0.33333333  0.66666667  0.66751567  1
  Co  Co65  1  0.66666667  0.33333333  0.99035333  1
  Co  Co66  1  0.33333333  0.66666667  0.91719367  1
  Co  Co67  1  0.00000000  0.00000000  0.90649400  1
  Co  Co68  1  0.00000000  0.00000000  0.81284600  1
  Co  Co69  1  0.66666667  0.33333333  0.83317633  1
  Co  Co70  1  0.33333333  0.66666667  0.72829067  1
  Co  Co71  1  0.00000000  0.00000000  0.75021800  1
  O  O72  1  0.65552067  0.82776033  0.29981833  1
  O  O73  1  0.17223967  0.82776033  0.29981833  1
  O  O74  1  0.33333333  0.66666667  0.26180067  1
  O  O75  1  0.17223967  0.34447933  0.29981833  1
  O  O76  1  0.81984633  0.63969267  0.26335967  1
  O  O77  1  0.99778667  0.49889333  0.21646333  1
  O  O78  1  0.50110667  0.49889333  0.21646333  1
  O  O79  1  0.66666667  0.33333333  0.29926833  1
  O  O80  1  0.66666667  0.33333333  0.18193133  1
  O  O81  1  0.81984633  0.18015367  0.26335967  1
  O  O82  1  0.50110667  0.00221333  0.21646333  1
  O  O83  1  0.36030733  0.18015367  0.26335967  1
  O  O84  1  0.14644567  0.29289133  0.17792633  1
  O  O85  1  0.29574600  0.14787300  0.13414800  1
  O  O86  1  0.85212700  0.14787300  0.13414800  1
  O  O87  1  0.14644567  0.85355433  0.17792633  1
  O  O88  1  0.00000000  0.00000000  0.21524600  1
  O  O89  1  0.00000000  0.00000000  0.09709000  1
  O  O90  1  0.85212700  0.70425400  0.13414800  1
  O  O91  1  0.70710867  0.85355433  0.17792633  1
  O  O92  1  0.48046633  0.96093267  0.09498367  1
  O  O93  1  0.62309733  0.81154867  0.05066567  1
  O  O94  1  0.18845133  0.81154867  0.05066567  1
  O  O95  1  0.33333333  0.66666667  0.01050967  1
  O  O96  1  0.33333333  0.66666667  0.13179467  1
  O  O97  1  0.48046633  0.51953367  0.09498367  1
  O  O98  1  0.18845133  0.37690267  0.05066567  1
  O  O99  1  0.03906733  0.51953367  0.09498367  1
  O  O100  1  0.82057233  0.64114467  0.01387767  1
  O  O101  1  0.82057233  0.17942767  0.01387767  1
  O  O102  1  0.66666667  0.33333333  0.04922933  1
  O  O103  1  0.35885533  0.17942767  0.01387767  1
  O  O104  1  0.32218733  0.16109367  0.63315167  1
  O  O105  1  0.83890633  0.16109367  0.63315167  1
  O  O106  1  0.00000000  0.00000000  0.59513400  1
  O  O107  1  0.83890633  0.67781267  0.63315167  1
  O  O108  1  0.48651300  0.97302600  0.59669300  1
  O  O109  1  0.66445333  0.83222667  0.54979667  1
  O  O110  1  0.16777333  0.83222667  0.54979667  1
  O  O111  1  0.33333333  0.66666667  0.63260167  1
  O  O112  1  0.33333333  0.66666667  0.51526467  1
  O  O113  1  0.48651300  0.51348700  0.59669300  1
  O  O114  1  0.16777333  0.33554667  0.54979667  1
  O  O115  1  0.02697400  0.51348700  0.59669300  1
  O  O116  1  0.81311233  0.62622467  0.51125967  1
  O  O117  1  0.96241267  0.48120633  0.46748133  1
  O  O118  1  0.51879367  0.48120633  0.46748133  1
  O  O119  1  0.81311233  0.18688767  0.51125967  1
  O  O120  1  0.66666667  0.33333333  0.54857933  1
  O  O121  1  0.66666667  0.33333333  0.43042333  1
  O  O122  1  0.51879367  0.03758733  0.46748133  1
  O  O123  1  0.37377533  0.18688767  0.51125967  1
  O  O124  1  0.14713300  0.29426600  0.42831700  1
  O  O125  1  0.28976400  0.14488200  0.38399900  1
  O  O126  1  0.85511800  0.14488200  0.38399900  1
  O  O127  1  0.00000000  0.00000000  0.34384300  1
  O  O128  1  0.00000000  0.00000000  0.46512800  1
  O  O129  1  0.14713300  0.85286700  0.42831700  1
  O  O130  1  0.85511800  0.71023600  0.38399900  1
  O  O131  1  0.70573400  0.85286700  0.42831700  1
  O  O132  1  0.48723900  0.97447800  0.34721100  1
  O  O133  1  0.48723900  0.51276100  0.34721100  1
  O  O134  1  0.33333333  0.66666667  0.38256267  1
  O  O135  1  0.02552200  0.51276100  0.34721100  1
  O  O136  1  0.98885400  0.49442700  0.96648500  1
  O  O137  1  0.50557300  0.49442700  0.96648500  1
  O  O138  1  0.66666667  0.33333333  0.92846733  1
  O  O139  1  0.50557300  0.01114600  0.96648500  1
  O  O140  1  0.15317967  0.30635933  0.93002633  1
  O  O141  1  0.33112000  0.16556000  0.88313000  1
  O  O142  1  0.83444000  0.16556000  0.88313000  1
  O  O143  1  0.00000000  0.00000000  0.96593500  1
  O  O144  1  0.00000000  0.00000000  0.84859800  1
  O  O145  1  0.15317967  0.84682033  0.93002633  1
  O  O146  1  0.83444000  0.66888000  0.88313000  1
  O  O147  1  0.69364067  0.84682033  0.93002633  1
  O  O148  1  0.47977900  0.95955800  0.84459300  1
  O  O149  1  0.62907933  0.81453967  0.80081467  1
  O  O150  1  0.18546033  0.81453967  0.80081467  1
  O  O151  1  0.47977900  0.52022100  0.84459300  1
  O  O152  1  0.33333333  0.66666667  0.88191267  1
  O  O153  1  0.33333333  0.66666667  0.76375667  1
  O  O154  1  0.18546033  0.37092067  0.80081467  1
  O  O155  1  0.04044200  0.52022100  0.84459300  1
  O  O156  1  0.81379967  0.62759933  0.76165033  1
  O  O157  1  0.95643067  0.47821533  0.71733233  1
  O  O158  1  0.52178467  0.47821533  0.71733233  1
  O  O159  1  0.66666667  0.33333333  0.67717633  1
  O  O160  1  0.66666667  0.33333333  0.79846133  1
  O  O161  1  0.81379967  0.18620033  0.76165033  1
  O  O162  1  0.52178467  0.04356933  0.71733233  1
  O  O163  1  0.37240067  0.18620033  0.76165033  1
  O  O164  1  0.15390567  0.30781133  0.68054433  1
  O  O165  1  0.15390567  0.84609433  0.68054433  1
  O  O166  1  0.00000000  0.00000000  0.71589600  1
  O  O167  1  0.69218867  0.84609433  0.68054433  1
