# generated using pymatgen
data_LiP4WO12
_symmetry_space_group_name_H-M   'P 1'
_cell_length_a   15.80277000
_cell_length_b   7.46215600
_cell_length_c   9.77335174
_cell_angle_alpha   90.00000000
_cell_angle_beta   123.14700805
_cell_angle_gamma   90.00000000
_symmetry_Int_Tables_number   1
_chemical_formula_structural   LiP4WO12
_chemical_formula_sum   'Li4 P16 W4 O48'
_cell_volume   964.95442907
_cell_formula_units_Z   4
loop_
 _symmetry_equiv_pos_site_id
 _symmetry_equiv_pos_as_xyz
  1  'x, y, z'
loop_
 _atom_site_type_symbol
 _atom_site_label
 _atom_site_symmetry_multiplicity
 _atom_site_fract_x
 _atom_site_fract_y
 _atom_site_fract_z
 _atom_site_occupancy
  Li  Li0  1  0.00000000  0.31147600  0.75000000  1
  Li  Li1  1  0.00000000  0.68852400  0.25000000  1
  Li  Li2  1  0.50000000  0.81147600  0.75000000  1
  Li  Li3  1  0.50000000  0.18852400  0.25000000  1
  P  P4  1  0.64311100  0.32808700  0.17325000  1
  P  P5  1  0.63132750  0.92613650  0.13299100  1
  P  P6  1  0.86867250  0.42613650  0.36700900  1
  P  P7  1  0.85688900  0.82808700  0.32675000  1
  P  P8  1  0.14311100  0.17191300  0.67325000  1
  P  P9  1  0.13132750  0.57386350  0.63299100  1
  P  P10  1  0.36867250  0.07386350  0.86700900  1
  P  P11  1  0.35688900  0.67191300  0.82675000  1
  P  P12  1  0.14311100  0.82808700  0.17325000  1
  P  P13  1  0.13132750  0.42613650  0.13299100  1
  P  P14  1  0.36867250  0.92613650  0.36700900  1
  P  P15  1  0.35688900  0.32808700  0.32675000  1
  P  P16  1  0.64311100  0.67191300  0.67325000  1
  P  P17  1  0.63132750  0.07386350  0.63299100  1
  P  P18  1  0.86867250  0.57386350  0.86700900  1
  P  P19  1  0.85688900  0.17191300  0.82675000  1
  W  W20  1  0.00000000  0.86370700  0.75000000  1
  W  W21  1  0.00000000  0.13629300  0.25000000  1
  W  W22  1  0.50000000  0.36370700  0.75000000  1
  W  W23  1  0.50000000  0.63629300  0.25000000  1
  O  O24  1  0.10359450  0.29842850  0.22107900  1
  O  O25  1  0.64487100  0.12032800  0.21694100  1
  O  O26  1  0.62289500  0.36034500  0.00642600  1
  O  O27  1  0.75308950  0.38988250  0.31204900  1
  O  O28  1  0.92953700  0.09207900  0.78840800  1
  O  O29  1  0.74691050  0.88988250  0.18795100  1
  O  O30  1  0.87710500  0.86034500  0.49357400  1
  O  O31  1  0.92885050  0.43611850  0.54757100  1
  O  O32  1  0.07114950  0.43611850  0.95242900  1
  O  O33  1  0.85512900  0.62032800  0.28305900  1
  O  O34  1  0.89640550  0.29842850  0.27892100  1
  O  O35  1  0.07046300  0.09207900  0.71159200  1
  O  O36  1  0.92953700  0.90792100  0.28840800  1
  O  O37  1  0.10359450  0.70157150  0.72107900  1
  O  O38  1  0.14487100  0.37967200  0.71694100  1
  O  O39  1  0.92885050  0.56388150  0.04757100  1
  O  O40  1  0.07114950  0.56388150  0.45242900  1
  O  O41  1  0.12289500  0.13965500  0.50642600  1
  O  O42  1  0.25308950  0.11011750  0.81204900  1
  O  O43  1  0.07046300  0.90792100  0.21159200  1
  O  O44  1  0.24691050  0.61011750  0.68795100  1
  O  O45  1  0.37710500  0.63965500  0.99357400  1
  O  O46  1  0.35512900  0.87967200  0.78305900  1
  O  O47  1  0.89640550  0.70157150  0.77892100  1
  O  O48  1  0.60359450  0.79842850  0.22107900  1
  O  O49  1  0.14487100  0.62032800  0.21694100  1
  O  O50  1  0.12289500  0.86034500  0.00642600  1
  O  O51  1  0.25308950  0.88988250  0.31204900  1
  O  O52  1  0.42953700  0.59207900  0.78840800  1
  O  O53  1  0.24691050  0.38988250  0.18795100  1
  O  O54  1  0.37710500  0.36034500  0.49357400  1
  O  O55  1  0.42885050  0.93611850  0.54757100  1
  O  O56  1  0.57114950  0.93611850  0.95242900  1
  O  O57  1  0.35512900  0.12032800  0.28305900  1
  O  O58  1  0.39640550  0.79842850  0.27892100  1
  O  O59  1  0.57046300  0.59207900  0.71159200  1
  O  O60  1  0.42953700  0.40792100  0.28840800  1
  O  O61  1  0.60359450  0.20157150  0.72107900  1
  O  O62  1  0.64487100  0.87967200  0.71694100  1
  O  O63  1  0.42885050  0.06388150  0.04757100  1
  O  O64  1  0.57114950  0.06388150  0.45242900  1
  O  O65  1  0.62289500  0.63965500  0.50642600  1
  O  O66  1  0.75308950  0.61011750  0.81204900  1
  O  O67  1  0.57046300  0.40792100  0.21159200  1
  O  O68  1  0.74691050  0.11011750  0.68795100  1
  O  O69  1  0.87710500  0.13965500  0.99357400  1
  O  O70  1  0.85512900  0.37967200  0.78305900  1
  O  O71  1  0.39640550  0.20157150  0.77892100  1
