# generated using pymatgen
data_Li2V3CuO8
_symmetry_space_group_name_H-M   'P 1'
_cell_length_a   5.86483800
_cell_length_b   10.20966800
_cell_length_c   9.82098179
_cell_angle_alpha   90.00000000
_cell_angle_beta   92.30217432
_cell_angle_gamma   90.00000000
_symmetry_Int_Tables_number   1
_chemical_formula_structural   Li2V3CuO8
_chemical_formula_sum   'Li8 V12 Cu4 O32'
_cell_volume   587.58658669
_cell_formula_units_Z   4
loop_
 _symmetry_equiv_pos_site_id
 _symmetry_equiv_pos_as_xyz
  1  'x, y, z'
loop_
 _atom_site_type_symbol
 _atom_site_label
 _atom_site_symmetry_multiplicity
 _atom_site_fract_x
 _atom_site_fract_y
 _atom_site_fract_z
 _atom_site_occupancy
  Li  Li0  1  0.98924500  0.67045800  0.10106000  1
  Li  Li1  1  0.01444150  0.99411750  0.00517400  1
  Li  Li2  1  0.51444150  0.50588250  0.50517400  1
  Li  Li3  1  0.48924500  0.82954200  0.60106000  1
  Li  Li4  1  0.48924500  0.17045800  0.10106000  1
  Li  Li5  1  0.51444150  0.49411750  0.00517400  1
  Li  Li6  1  0.01444150  0.00588250  0.50517400  1
  Li  Li7  1  0.98924500  0.32954200  0.60106000  1
  V  V8  1  0.23425350  0.56654150  0.78453600  1
  V  V9  1  0.74224600  0.59242600  0.78489600  1
  V  V10  1  0.02166900  0.82482500  0.78856300  1
  V  V11  1  0.52166900  0.67517500  0.28856300  1
  V  V12  1  0.73425350  0.93345850  0.28453600  1
  V  V13  1  0.24224600  0.90757400  0.28489600  1
  V  V14  1  0.73425350  0.06654150  0.78453600  1
  V  V15  1  0.24224600  0.09242600  0.78489600  1
  V  V16  1  0.52166900  0.32482500  0.78856300  1
  V  V17  1  0.02166900  0.17517500  0.28856300  1
  V  V18  1  0.23425350  0.43345850  0.28453600  1
  V  V19  1  0.74224600  0.40757400  0.28489600  1
  Cu  Cu20  1  0.00533000  0.67282900  0.50083400  1
  Cu  Cu21  1  0.50533000  0.82717100  0.00083400  1
  Cu  Cu22  1  0.50533000  0.17282900  0.50083400  1
  Cu  Cu23  1  0.00533000  0.32717100  0.00083400  1
  O  O24  1  0.28032550  0.59260650  0.39258600  1
  O  O25  1  0.00174600  0.50931300  0.67516200  1
  O  O26  1  0.00582900  0.66084200  0.89849300  1
  O  O27  1  0.99466700  0.99341100  0.68818200  1
  O  O28  1  0.49466700  0.50658900  0.18818200  1
  O  O29  1  0.75418850  0.58158650  0.39290900  1
  O  O30  1  0.20771100  0.74086800  0.66662800  1
  O  O31  1  0.75762400  0.73080000  0.67451100  1
  O  O32  1  0.49087300  0.65098800  0.89254600  1
  O  O33  1  0.99087300  0.84901200  0.39254600  1
  O  O34  1  0.70771100  0.75913200  0.16662800  1
  O  O35  1  0.25762400  0.76920000  0.17451100  1
  O  O36  1  0.50582900  0.83915800  0.39849300  1
  O  O37  1  0.78032550  0.90739350  0.89258600  1
  O  O38  1  0.50174600  0.99068700  0.17516200  1
  O  O39  1  0.25418850  0.91841350  0.89290900  1
  O  O40  1  0.78032550  0.09260650  0.39258600  1
  O  O41  1  0.50174600  0.00931300  0.67516200  1
  O  O42  1  0.50582900  0.16084200  0.89849300  1
  O  O43  1  0.49466700  0.49341100  0.68818200  1
  O  O44  1  0.99466700  0.00658900  0.18818200  1
  O  O45  1  0.25418850  0.08158650  0.39290900  1
  O  O46  1  0.70771100  0.24086800  0.66662800  1
  O  O47  1  0.25762400  0.23080000  0.67451100  1
  O  O48  1  0.99087300  0.15098800  0.89254600  1
  O  O49  1  0.49087300  0.34901200  0.39254600  1
  O  O50  1  0.20771100  0.25913200  0.16662800  1
  O  O51  1  0.75762400  0.26920000  0.17451100  1
  O  O52  1  0.00582900  0.33915800  0.39849300  1
  O  O53  1  0.28032550  0.40739350  0.89258600  1
  O  O54  1  0.00174600  0.49068700  0.17516200  1
  O  O55  1  0.75418850  0.41841350  0.89290900  1
