# generated using pymatgen
data_Li2Co(SiO3)2
_symmetry_space_group_name_H-M   'P 1'
_cell_length_a   6.34861400
_cell_length_b   21.36445800
_cell_length_c   23.10178800
_cell_angle_alpha   90.00000000
_cell_angle_beta   90.00000000
_cell_angle_gamma   90.00000000
_symmetry_Int_Tables_number   1
_chemical_formula_structural   Li2Co(SiO3)2
_chemical_formula_sum   'Li48 Co24 Si48 O144'
_cell_volume   3133.40401926
_cell_formula_units_Z   24
loop_
 _symmetry_equiv_pos_site_id
 _symmetry_equiv_pos_as_xyz
  1  'x, y, z'
loop_
 _atom_site_type_symbol
 _atom_site_label
 _atom_site_symmetry_multiplicity
 _atom_site_fract_x
 _atom_site_fract_y
 _atom_site_fract_z
 _atom_site_occupancy
  Li  Li0  1  0.75000000  0.75000000  0.51116300  1
  Li  Li1  1  0.75000000  0.75000000  0.85496900  1
  Li  Li2  1  0.49598400  0.67835850  0.71922650  1
  Li  Li3  1  0.99354200  0.63949300  0.57049400  1
  Li  Li4  1  0.24354200  0.61050700  0.82049400  1
  Li  Li5  1  0.74598400  0.57164150  0.96922650  1
  Li  Li6  1  0.00000000  0.50000000  0.76116300  1
  Li  Li7  1  0.50000000  0.50000000  0.60496900  1
  Li  Li8  1  0.75401600  0.92835850  0.96922650  1
  Li  Li9  1  0.25645800  0.88949300  0.82049400  1
  Li  Li10  1  0.50645800  0.86050700  0.57049400  1
  Li  Li11  1  0.00401600  0.82164150  0.71922650  1
  Li  Li12  1  0.75000000  0.25000000  0.01116300  1
  Li  Li13  1  0.75000000  0.25000000  0.35496900  1
  Li  Li14  1  0.49598400  0.17835850  0.21922650  1
  Li  Li15  1  0.99354200  0.13949300  0.07049400  1
  Li  Li16  1  0.24354200  0.11050700  0.32049400  1
  Li  Li17  1  0.74598400  0.07164150  0.46922650  1
  Li  Li18  1  0.00000000  0.00000000  0.26116300  1
  Li  Li19  1  0.50000000  0.00000000  0.10496900  1
  Li  Li20  1  0.75401600  0.42835850  0.46922650  1
  Li  Li21  1  0.25645800  0.38949300  0.32049400  1
  Li  Li22  1  0.50645800  0.36050700  0.07049400  1
  Li  Li23  1  0.00401600  0.32164150  0.21922650  1
  Li  Li24  1  0.25000000  0.75000000  0.01116300  1
  Li  Li25  1  0.25000000  0.75000000  0.35496900  1
  Li  Li26  1  0.99598400  0.67835850  0.21922650  1
  Li  Li27  1  0.49354200  0.63949300  0.07049400  1
  Li  Li28  1  0.74354200  0.61050700  0.32049400  1
  Li  Li29  1  0.24598400  0.57164150  0.46922650  1
  Li  Li30  1  0.50000000  0.50000000  0.26116300  1
  Li  Li31  1  0.00000000  0.50000000  0.10496900  1
  Li  Li32  1  0.25401600  0.92835850  0.46922650  1
  Li  Li33  1  0.75645800  0.88949300  0.32049400  1
  Li  Li34  1  0.00645800  0.86050700  0.07049400  1
  Li  Li35  1  0.50401600  0.82164150  0.21922650  1
  Li  Li36  1  0.25000000  0.25000000  0.51116300  1
  Li  Li37  1  0.25000000  0.25000000  0.85496900  1
  Li  Li38  1  0.99598400  0.17835850  0.71922650  1
  Li  Li39  1  0.49354200  0.13949300  0.57049400  1
  Li  Li40  1  0.74354200  0.11050700  0.82049400  1
  Li  Li41  1  0.24598400  0.07164150  0.96922650  1
  Li  Li42  1  0.50000000  0.00000000  0.76116300  1
  Li  Li43  1  0.00000000  0.00000000  0.60496900  1
  Li  Li44  1  0.25401600  0.42835850  0.96922650  1
  Li  Li45  1  0.75645800  0.38949300  0.82049400  1
  Li  Li46  1  0.00645800  0.36050700  0.57049400  1
  Li  Li47  1  0.50401600  0.32164150  0.71922650  1
  Co  Co48  1  0.75000000  0.75000000  0.63173500  1
  Co  Co49  1  0.48076100  0.66607150  0.92989450  1
  Co  Co50  1  0.23076100  0.58392850  0.67989450  1
  Co  Co51  1  0.00000000  0.50000000  0.88173500  1
  Co  Co52  1  0.26923900  0.91607150  0.67989450  1
  Co  Co53  1  0.01923900  0.83392850  0.92989450  1
  Co  Co54  1  0.75000000  0.25000000  0.13173500  1
  Co  Co55  1  0.48076100  0.16607150  0.42989450  1
  Co  Co56  1  0.23076100  0.08392850  0.17989450  1
  Co  Co57  1  0.00000000  0.00000000  0.38173500  1
  Co  Co58  1  0.26923900  0.41607150  0.17989450  1
  Co  Co59  1  0.01923900  0.33392850  0.42989450  1
  Co  Co60  1  0.25000000  0.75000000  0.13173500  1
  Co  Co61  1  0.98076100  0.66607150  0.42989450  1
  Co  Co62  1  0.73076100  0.58392850  0.17989450  1
  Co  Co63  1  0.50000000  0.50000000  0.38173500  1
  Co  Co64  1  0.76923900  0.91607150  0.17989450  1
  Co  Co65  1  0.51923900  0.83392850  0.42989450  1
  Co  Co66  1  0.25000000  0.25000000  0.63173500  1
  Co  Co67  1  0.98076100  0.16607150  0.92989450  1
  Co  Co68  1  0.73076100  0.08392850  0.67989450  1
  Co  Co69  1  0.50000000  0.00000000  0.88173500  1
  Co  Co70  1  0.76923900  0.41607150  0.67989450  1
  Co  Co71  1  0.51923900  0.33392850  0.92989450  1
  Si  Si72  1  0.25000000  0.75000000  0.84127100  1
  Si  Si73  1  0.25000000  0.75000000  0.51504400  1
  Si  Si74  1  0.00111500  0.69461800  0.74369500  1
  Si  Si75  1  0.50152850  0.64165750  0.56954400  1
  Si  Si76  1  0.75152850  0.60834250  0.81954400  1
  Si  Si77  1  0.25111500  0.55538200  0.99369500  1
  Si  Si78  1  0.50000000  0.50000000  0.76504400  1
  Si  Si79  1  0.00000000  0.50000000  0.59127100  1
  Si  Si80  1  0.24888500  0.94461800  0.99369500  1
  Si  Si81  1  0.74847150  0.89165750  0.81954400  1
  Si  Si82  1  0.99847150  0.85834250  0.56954400  1
  Si  Si83  1  0.49888500  0.80538200  0.74369500  1
  Si  Si84  1  0.25000000  0.25000000  0.34127100  1
  Si  Si85  1  0.25000000  0.25000000  0.01504400  1
  Si  Si86  1  0.00111500  0.19461800  0.24369500  1
  Si  Si87  1  0.50152850  0.14165750  0.06954400  1
  Si  Si88  1  0.75152850  0.10834250  0.31954400  1
  Si  Si89  1  0.25111500  0.05538200  0.49369500  1
  Si  Si90  1  0.50000000  0.00000000  0.26504400  1
  Si  Si91  1  0.00000000  0.00000000  0.09127100  1
  Si  Si92  1  0.24888500  0.44461800  0.49369500  1
  Si  Si93  1  0.74847150  0.39165750  0.31954400  1
  Si  Si94  1  0.99847150  0.35834250  0.06954400  1
  Si  Si95  1  0.49888500  0.30538200  0.24369500  1
  Si  Si96  1  0.75000000  0.75000000  0.34127100  1
  Si  Si97  1  0.75000000  0.75000000  0.01504400  1
  Si  Si98  1  0.50111500  0.69461800  0.24369500  1
  Si  Si99  1  0.00152850  0.64165750  0.06954400  1
  Si  Si100  1  0.25152850  0.60834250  0.31954400  1
  Si  Si101  1  0.75111500  0.55538200  0.49369500  1
  Si  Si102  1  0.00000000  0.50000000  0.26504400  1
  Si  Si103  1  0.50000000  0.50000000  0.09127100  1
  Si  Si104  1  0.74888500  0.94461800  0.49369500  1
  Si  Si105  1  0.24847150  0.89165750  0.31954400  1
  Si  Si106  1  0.49847150  0.85834250  0.06954400  1
  Si  Si107  1  0.99888500  0.80538200  0.24369500  1
  Si  Si108  1  0.75000000  0.25000000  0.84127100  1
  Si  Si109  1  0.75000000  0.25000000  0.51504400  1
  Si  Si110  1  0.50111500  0.19461800  0.74369500  1
  Si  Si111  1  0.00152850  0.14165750  0.56954400  1
  Si  Si112  1  0.25152850  0.10834250  0.81954400  1
  Si  Si113  1  0.75111500  0.05538200  0.99369500  1
  Si  Si114  1  0.00000000  0.00000000  0.76504400  1
  Si  Si115  1  0.50000000  0.00000000  0.59127100  1
  Si  Si116  1  0.74888500  0.44461800  0.99369500  1
  Si  Si117  1  0.24847150  0.39165750  0.81954400  1
  Si  Si118  1  0.49847150  0.35834250  0.56954400  1
  Si  Si119  1  0.99888500  0.30538200  0.74369500  1
  O  O120  1  0.53446000  0.73907500  0.97939900  1
  O  O121  1  0.97284450  0.73824700  0.68720950  1
  O  O122  1  0.71435850  0.68414500  0.57249450  1
  O  O123  1  0.28686050  0.68576650  0.55712600  1
  O  O124  1  0.26007000  0.68386250  0.87497650  1
  O  O125  1  0.78067000  0.65451250  0.76009150  1
  O  O126  1  0.03293750  0.74419000  0.79949050  1
  O  O127  1  0.71559600  0.65145050  0.87616150  1
  O  O128  1  0.20810500  0.64986950  0.74079750  1
  O  O129  1  0.45810500  0.60013050  0.99079750  1
  O  O130  1  0.46559600  0.59854950  0.62616150  1
  O  O131  1  0.78293750  0.50581000  0.54949050  1
  O  O132  1  0.53067000  0.59548750  0.51009150  1
  O  O133  1  0.01007000  0.56613750  0.62497650  1
  O  O134  1  0.53686050  0.56423350  0.80712600  1
  O  O135  1  0.96435850  0.56585500  0.82249450  1
  O  O136  1  0.22284450  0.51175300  0.93720950  1
  O  O137  1  0.28446000  0.51092500  0.72939900  1
  O  O138  1  0.21554000  0.98907500  0.72939900  1
  O  O139  1  0.27715550  0.98824700  0.93720950  1
  O  O140  1  0.53564150  0.93414500  0.82249450  1
  O  O141  1  0.96313950  0.93576650  0.80712600  1
  O  O142  1  0.48993000  0.93386250  0.62497650  1
  O  O143  1  0.96933000  0.90451250  0.51009150  1
  O  O144  1  0.71706250  0.99419000  0.54949050  1
  O  O145  1  0.03440400  0.90145050  0.62616150  1
  O  O146  1  0.04189500  0.89986950  0.99079750  1
  O  O147  1  0.29189500  0.85013050  0.74079750  1
  O  O148  1  0.78440400  0.84854950  0.87616150  1
  O  O149  1  0.46706250  0.75581000  0.79949050  1
  O  O150  1  0.71933000  0.84548750  0.76009150  1
  O  O151  1  0.23993000  0.81613750  0.87497650  1
  O  O152  1  0.21313950  0.81423350  0.55712600  1
  O  O153  1  0.78564150  0.81585500  0.57249450  1
  O  O154  1  0.52715550  0.76175300  0.68720950  1
  O  O155  1  0.96554000  0.76092500  0.97939900  1
  O  O156  1  0.53446000  0.23907500  0.47939900  1
  O  O157  1  0.97284450  0.23824700  0.18720950  1
  O  O158  1  0.71435850  0.18414500  0.07249450  1
  O  O159  1  0.28686050  0.18576650  0.05712600  1
  O  O160  1  0.26007000  0.18386250  0.37497650  1
  O  O161  1  0.78067000  0.15451250  0.26009150  1
  O  O162  1  0.03293750  0.24419000  0.29949050  1
  O  O163  1  0.71559600  0.15145050  0.37616150  1
  O  O164  1  0.20810500  0.14986950  0.24079750  1
  O  O165  1  0.45810500  0.10013050  0.49079750  1
  O  O166  1  0.46559600  0.09854950  0.12616150  1
  O  O167  1  0.78293750  0.00581000  0.04949050  1
  O  O168  1  0.53067000  0.09548750  0.01009150  1
  O  O169  1  0.01007000  0.06613750  0.12497650  1
  O  O170  1  0.53686050  0.06423350  0.30712600  1
  O  O171  1  0.96435850  0.06585500  0.32249450  1
  O  O172  1  0.22284450  0.01175300  0.43720950  1
  O  O173  1  0.28446000  0.01092500  0.22939900  1
  O  O174  1  0.21554000  0.48907500  0.22939900  1
  O  O175  1  0.27715550  0.48824700  0.43720950  1
  O  O176  1  0.53564150  0.43414500  0.32249450  1
  O  O177  1  0.96313950  0.43576650  0.30712600  1
  O  O178  1  0.48993000  0.43386250  0.12497650  1
  O  O179  1  0.96933000  0.40451250  0.01009150  1
  O  O180  1  0.71706250  0.49419000  0.04949050  1
  O  O181  1  0.03440400  0.40145050  0.12616150  1
  O  O182  1  0.04189500  0.39986950  0.49079750  1
  O  O183  1  0.29189500  0.35013050  0.24079750  1
  O  O184  1  0.78440400  0.34854950  0.37616150  1
  O  O185  1  0.46706250  0.25581000  0.29949050  1
  O  O186  1  0.71933000  0.34548750  0.26009150  1
  O  O187  1  0.23993000  0.31613750  0.37497650  1
  O  O188  1  0.21313950  0.31423350  0.05712600  1
  O  O189  1  0.78564150  0.31585500  0.07249450  1
  O  O190  1  0.52715550  0.26175300  0.18720950  1
  O  O191  1  0.96554000  0.26092500  0.47939900  1
  O  O192  1  0.03446000  0.73907500  0.47939900  1
  O  O193  1  0.47284450  0.73824700  0.18720950  1
  O  O194  1  0.21435850  0.68414500  0.07249450  1
  O  O195  1  0.78686050  0.68576650  0.05712600  1
  O  O196  1  0.76007000  0.68386250  0.37497650  1
  O  O197  1  0.28067000  0.65451250  0.26009150  1
  O  O198  1  0.53293750  0.74419000  0.29949050  1
  O  O199  1  0.21559600  0.65145050  0.37616150  1
  O  O200  1  0.70810500  0.64986950  0.24079750  1
  O  O201  1  0.95810500  0.60013050  0.49079750  1
  O  O202  1  0.96559600  0.59854950  0.12616150  1
  O  O203  1  0.28293750  0.50581000  0.04949050  1
  O  O204  1  0.03067000  0.59548750  0.01009150  1
  O  O205  1  0.51007000  0.56613750  0.12497650  1
  O  O206  1  0.03686050  0.56423350  0.30712600  1
  O  O207  1  0.46435850  0.56585500  0.32249450  1
  O  O208  1  0.72284450  0.51175300  0.43720950  1
  O  O209  1  0.78446000  0.51092500  0.22939900  1
  O  O210  1  0.71554000  0.98907500  0.22939900  1
  O  O211  1  0.77715550  0.98824700  0.43720950  1
  O  O212  1  0.03564150  0.93414500  0.32249450  1
  O  O213  1  0.46313950  0.93576650  0.30712600  1
  O  O214  1  0.98993000  0.93386250  0.12497650  1
  O  O215  1  0.46933000  0.90451250  0.01009150  1
  O  O216  1  0.21706250  0.99419000  0.04949050  1
  O  O217  1  0.53440400  0.90145050  0.12616150  1
  O  O218  1  0.54189500  0.89986950  0.49079750  1
  O  O219  1  0.79189500  0.85013050  0.24079750  1
  O  O220  1  0.28440400  0.84854950  0.37616150  1
  O  O221  1  0.96706250  0.75581000  0.29949050  1
  O  O222  1  0.21933000  0.84548750  0.26009150  1
  O  O223  1  0.73993000  0.81613750  0.37497650  1
  O  O224  1  0.71313950  0.81423350  0.05712600  1
  O  O225  1  0.28564150  0.81585500  0.07249450  1
  O  O226  1  0.02715550  0.76175300  0.18720950  1
  O  O227  1  0.46554000  0.76092500  0.47939900  1
  O  O228  1  0.03446000  0.23907500  0.97939900  1
  O  O229  1  0.47284450  0.23824700  0.68720950  1
  O  O230  1  0.21435850  0.18414500  0.57249450  1
  O  O231  1  0.78686050  0.18576650  0.55712600  1
  O  O232  1  0.76007000  0.18386250  0.87497650  1
  O  O233  1  0.28067000  0.15451250  0.76009150  1
  O  O234  1  0.53293750  0.24419000  0.79949050  1
  O  O235  1  0.21559600  0.15145050  0.87616150  1
  O  O236  1  0.70810500  0.14986950  0.74079750  1
  O  O237  1  0.95810500  0.10013050  0.99079750  1
  O  O238  1  0.96559600  0.09854950  0.62616150  1
  O  O239  1  0.28293750  0.00581000  0.54949050  1
  O  O240  1  0.03067000  0.09548750  0.51009150  1
  O  O241  1  0.51007000  0.06613750  0.62497650  1
  O  O242  1  0.03686050  0.06423350  0.80712600  1
  O  O243  1  0.46435850  0.06585500  0.82249450  1
  O  O244  1  0.72284450  0.01175300  0.93720950  1
  O  O245  1  0.78446000  0.01092500  0.72939900  1
  O  O246  1  0.71554000  0.48907500  0.72939900  1
  O  O247  1  0.77715550  0.48824700  0.93720950  1
  O  O248  1  0.03564150  0.43414500  0.82249450  1
  O  O249  1  0.46313950  0.43576650  0.80712600  1
  O  O250  1  0.98993000  0.43386250  0.62497650  1
  O  O251  1  0.46933000  0.40451250  0.51009150  1
  O  O252  1  0.21706250  0.49419000  0.54949050  1
  O  O253  1  0.53440400  0.40145050  0.62616150  1
  O  O254  1  0.54189500  0.39986950  0.99079750  1
  O  O255  1  0.79189500  0.35013050  0.74079750  1
  O  O256  1  0.28440400  0.34854950  0.87616150  1
  O  O257  1  0.96706250  0.25581000  0.79949050  1
  O  O258  1  0.21933000  0.34548750  0.76009150  1
  O  O259  1  0.73993000  0.31613750  0.87497650  1
  O  O260  1  0.71313950  0.31423350  0.55712600  1
  O  O261  1  0.28564150  0.31585500  0.57249450  1
  O  O262  1  0.02715550  0.26175300  0.68720950  1
  O  O263  1  0.46554000  0.26092500  0.97939900  1
