# generated using pymatgen
data_Li3(CoS2)4
_symmetry_space_group_name_H-M   'P 1'
_cell_length_a   6.76543972
_cell_length_b   6.76543972
_cell_length_c   18.76642153
_cell_angle_alpha   90.00000000
_cell_angle_beta   90.00000000
_cell_angle_gamma   120.00000000
_symmetry_Int_Tables_number   1
_chemical_formula_structural   Li3(CoS2)4
_chemical_formula_sum   'Li9 Co12 S24'
_cell_volume   743.88218282
_cell_formula_units_Z   3
loop_
 _symmetry_equiv_pos_site_id
 _symmetry_equiv_pos_as_xyz
  1  'x, y, z'
loop_
 _atom_site_type_symbol
 _atom_site_label
 _atom_site_symmetry_multiplicity
 _atom_site_fract_x
 _atom_site_fract_y
 _atom_site_fract_z
 _atom_site_occupancy
  Li  Li0  1  0.50126767  0.00253533  0.14290933  1
  Li  Li1  1  0.99746467  0.49873233  0.14290933  1
  Li  Li2  1  0.50126767  0.49873233  0.14290933  1
  Li  Li3  1  0.16793433  0.33586867  0.47624267  1
  Li  Li4  1  0.66413133  0.83206567  0.47624267  1
  Li  Li5  1  0.16793433  0.83206567  0.47624267  1
  Li  Li6  1  0.83460100  0.66920200  0.80957600  1
  Li  Li7  1  0.33079800  0.16539900  0.80957600  1
  Li  Li8  1  0.83460100  0.16539900  0.80957600  1
  Co  Co9  1  0.00000000  0.00000000  0.00039900  1
  Co  Co10  1  0.67182467  0.83591233  0.33125533  1
  Co  Co11  1  0.16408767  0.32817533  0.33125533  1
  Co  Co12  1  0.16408767  0.83591233  0.33125533  1
  Co  Co13  1  0.66666667  0.33333333  0.33373233  1
  Co  Co14  1  0.33849133  0.16924567  0.66458867  1
  Co  Co15  1  0.83075433  0.66150867  0.66458867  1
  Co  Co16  1  0.83075433  0.16924567  0.66458867  1
  Co  Co17  1  0.33333333  0.66666667  0.66706567  1
  Co  Co18  1  0.00515800  0.50257900  0.99792200  1
  Co  Co19  1  0.49742100  0.99484200  0.99792200  1
  Co  Co20  1  0.49742100  0.50257900  0.99792200  1
  S  S21  1  0.66666667  0.33333333  0.06372533  1
  S  S22  1  0.16731733  0.83268267  0.06173367  1
  S  S23  1  0.99966133  0.49983067  0.27124567  1
  S  S24  1  0.50016933  0.00033867  0.27124567  1
  S  S25  1  0.66536533  0.83268267  0.06173367  1
  S  S26  1  0.16731733  0.33463467  0.06173367  1
  S  S27  1  0.50016933  0.49983067  0.27124567  1
  S  S28  1  0.00000000  0.00000000  0.27093500  1
  S  S29  1  0.33333333  0.66666667  0.39705867  1
  S  S30  1  0.83398400  0.16601600  0.39506700  1
  S  S31  1  0.66632800  0.83316400  0.60457900  1
  S  S32  1  0.16683600  0.33367200  0.60457900  1
  S  S33  1  0.33203200  0.16601600  0.39506700  1
  S  S34  1  0.83398400  0.66796800  0.39506700  1
  S  S35  1  0.16683600  0.83316400  0.60457900  1
  S  S36  1  0.66666667  0.33333333  0.60426833  1
  S  S37  1  0.00000000  0.00000000  0.73039200  1
  S  S38  1  0.50065067  0.49934933  0.72840033  1
  S  S39  1  0.33299467  0.16649733  0.93791233  1
  S  S40  1  0.83350267  0.66700533  0.93791233  1
  S  S41  1  0.99869867  0.49934933  0.72840033  1
  S  S42  1  0.50065067  0.00130133  0.72840033  1
  S  S43  1  0.83350267  0.16649733  0.93791233  1
  S  S44  1  0.33333333  0.66666667  0.93760167  1
