# generated using pymatgen
data_TiMn5(PO4)6
_symmetry_space_group_name_H-M   'P 1'
_cell_length_a   8.62338629
_cell_length_b   8.62338629
_cell_length_c   21.18762003
_cell_angle_alpha   90.00000000
_cell_angle_beta   90.00000000
_cell_angle_gamma   120.00000000
_symmetry_Int_Tables_number   1
_chemical_formula_structural   TiMn5(PO4)6
_chemical_formula_sum   'Ti3 Mn15 P18 O72'
_cell_volume   1364.48413072
_cell_formula_units_Z   3
loop_
 _symmetry_equiv_pos_site_id
 _symmetry_equiv_pos_as_xyz
  1  'x, y, z'
loop_
 _atom_site_type_symbol
 _atom_site_label
 _atom_site_symmetry_multiplicity
 _atom_site_fract_x
 _atom_site_fract_y
 _atom_site_fract_z
 _atom_site_occupancy
  Ti  Ti0  1  0.00000000  0.00000000  0.14473200  1
  Ti  Ti1  1  0.66666667  0.33333333  0.47806533  1
  Ti  Ti2  1  0.33333333  0.66666667  0.81139867  1
  Mn  Mn3  1  0.66666667  0.33333333  0.33287733  1
  Mn  Mn4  1  0.33333333  0.66666667  0.31075467  1
  Mn  Mn5  1  0.33333333  0.66666667  0.16589367  1
  Mn  Mn6  1  0.66666667  0.33333333  0.18846633  1
  Mn  Mn7  1  0.33333333  0.66666667  0.02232167  1
  Mn  Mn8  1  0.33333333  0.66666667  0.66621067  1
  Mn  Mn9  1  0.00000000  0.00000000  0.64408800  1
  Mn  Mn10  1  0.00000000  0.00000000  0.49922700  1
  Mn  Mn11  1  0.33333333  0.66666667  0.52179967  1
  Mn  Mn12  1  0.00000000  0.00000000  0.35565500  1
  Mn  Mn13  1  0.00000000  0.00000000  0.99954400  1
  Mn  Mn14  1  0.66666667  0.33333333  0.97742133  1
  Mn  Mn15  1  0.66666667  0.33333333  0.83256033  1
  Mn  Mn16  1  0.00000000  0.00000000  0.85513300  1
  Mn  Mn17  1  0.66666667  0.33333333  0.68898833  1
  P  P18  1  0.70730267  0.70623533  0.25042133  1
  P  P19  1  0.29376467  0.00106733  0.25042133  1
  P  P20  1  0.99893267  0.29269733  0.25042133  1
  P  P21  1  0.66564700  0.04172100  0.08309300  1
  P  P22  1  0.37607400  0.33435300  0.08309300  1
  P  P23  1  0.95827900  0.62392600  0.08309300  1
  P  P24  1  0.37396933  0.03956867  0.58375467  1
  P  P25  1  0.96043133  0.33440067  0.58375467  1
  P  P26  1  0.66559933  0.62603067  0.58375467  1
  P  P27  1  0.33231367  0.37505433  0.41642633  1
  P  P28  1  0.04274067  0.66768633  0.41642633  1
  P  P29  1  0.62494567  0.95725933  0.41642633  1
  P  P30  1  0.04063600  0.37290200  0.91708800  1
  P  P31  1  0.62709800  0.66773400  0.91708800  1
  P  P32  1  0.33226600  0.95936400  0.91708800  1
  P  P33  1  0.99898033  0.70838767  0.74975967  1
  P  P34  1  0.70940733  0.00101967  0.74975967  1
  P  P35  1  0.29161233  0.29059267  0.74975967  1
  O  O36  1  0.20286200  0.00718100  0.31113600  1
  O  O37  1  0.99281900  0.19568100  0.31113600  1
  O  O38  1  0.80431900  0.79713800  0.31113600  1
  O  O39  1  0.68750167  0.51671333  0.25388433  1
  O  O40  1  0.81321300  0.81091800  0.19104200  1
  O  O41  1  0.52036567  0.68955033  0.24300033  1
  O  O42  1  0.48328667  0.17078833  0.25388433  1
  O  O43  1  0.31044967  0.83081533  0.24300033  1
  O  O44  1  0.66020333  0.13434167  0.14389267  1
  O  O45  1  0.16918467  0.47963433  0.24300033  1
  O  O46  1  0.83520767  0.01885433  0.08017333  1
  O  O47  1  0.47413833  0.33979667  0.14389267  1
  O  O48  1  0.18908200  0.00229500  0.19104200  1
  O  O49  1  0.82921167  0.31249833  0.25388433  1
  O  O50  1  0.49744967  0.85082033  0.08845733  1
  O  O51  1  0.99770500  0.18678700  0.19104200  1
  O  O52  1  0.35337067  0.50255033  0.08845733  1
  O  O53  1  0.18364667  0.16479233  0.08017333  1
  O  O54  1  0.14917967  0.64662933  0.08845733  1
  O  O55  1  0.86565833  0.52586167  0.14389267  1
  O  O56  1  0.98114567  0.81635333  0.08017333  1
  O  O57  1  0.86246900  0.53367900  0.02210700  1
  O  O58  1  0.67121000  0.13753100  0.02210700  1
  O  O59  1  0.46632100  0.32879000  0.02210700  1
  O  O60  1  0.86952867  0.34051433  0.64446933  1
  O  O61  1  0.65948567  0.52901433  0.64446933  1
  O  O62  1  0.47098567  0.13047133  0.64446933  1
  O  O63  1  0.35416833  0.85004667  0.58721767  1
  O  O64  1  0.47987967  0.14425133  0.52437533  1
  O  O65  1  0.18703233  0.02288367  0.57633367  1
  O  O66  1  0.14995333  0.50412167  0.58721767  1
  O  O67  1  0.97711633  0.16414867  0.57633367  1
  O  O68  1  0.32687000  0.46767500  0.47722600  1
  O  O69  1  0.83585133  0.81296767  0.57633367  1
  O  O70  1  0.50187433  0.35218767  0.41350667  1
  O  O71  1  0.14080500  0.67313000  0.47722600  1
  O  O72  1  0.85574867  0.33562833  0.52437533  1
  O  O73  1  0.49587833  0.64583167  0.58721767  1
  O  O74  1  0.16411633  0.18415367  0.42179067  1
  O  O75  1  0.66437167  0.52012033  0.52437533  1
  O  O76  1  0.02003733  0.83588367  0.42179067  1
  O  O77  1  0.85031333  0.49812567  0.41350667  1
  O  O78  1  0.81584633  0.97996267  0.42179067  1
  O  O79  1  0.53232500  0.85919500  0.47722600  1
  O  O80  1  0.64781233  0.14968667  0.41350667  1
  O  O81  1  0.52913567  0.86701233  0.35544033  1
  O  O82  1  0.33787667  0.47086433  0.35544033  1
  O  O83  1  0.13298767  0.66212333  0.35544033  1
  O  O84  1  0.53619533  0.67384767  0.97780267  1
  O  O85  1  0.32615233  0.86234767  0.97780267  1
  O  O86  1  0.13765233  0.46380467  0.97780267  1
  O  O87  1  0.02083500  0.18338000  0.92055100  1
  O  O88  1  0.14654633  0.47758467  0.85770867  1
  O  O89  1  0.85369900  0.35621700  0.90966700  1
  O  O90  1  0.81662000  0.83745500  0.92055100  1
  O  O91  1  0.64378300  0.49748200  0.90966700  1
  O  O92  1  0.99353667  0.80100833  0.81055933  1
  O  O93  1  0.50251800  0.14630100  0.90966700  1
  O  O94  1  0.16854100  0.68552100  0.74684000  1
  O  O95  1  0.80747167  0.00646333  0.81055933  1
  O  O96  1  0.52241533  0.66896167  0.85770867  1
  O  O97  1  0.16254500  0.97916500  0.92055100  1
  O  O98  1  0.83078300  0.51748700  0.75512400  1
  O  O99  1  0.33103833  0.85345367  0.85770867  1
  O  O100  1  0.68670400  0.16921700  0.75512400  1
  O  O101  1  0.51698000  0.83145900  0.74684000  1
  O  O102  1  0.48251300  0.31329600  0.75512400  1
  O  O103  1  0.19899167  0.19252833  0.81055933  1
  O  O104  1  0.31447900  0.48302000  0.74684000  1
  O  O105  1  0.19580233  0.20034567  0.68877367  1
  O  O106  1  0.00454333  0.80419767  0.68877367  1
  O  O107  1  0.79965433  0.99545667  0.68877367  1
