# generated using pymatgen
data_V5Sb(PO4)6
_symmetry_space_group_name_H-M   'P 1'
_cell_length_a   8.76816581
_cell_length_b   8.76816581
_cell_length_c   20.91310395
_cell_angle_alpha   90.00000000
_cell_angle_beta   90.00000000
_cell_angle_gamma   120.00000000
_symmetry_Int_Tables_number   1
_chemical_formula_structural   V5Sb(PO4)6
_chemical_formula_sum   'V15 Sb3 P18 O72'
_cell_volume   1392.40840427
_cell_formula_units_Z   3
loop_
 _symmetry_equiv_pos_site_id
 _symmetry_equiv_pos_as_xyz
  1  'x, y, z'
loop_
 _atom_site_type_symbol
 _atom_site_label
 _atom_site_symmetry_multiplicity
 _atom_site_fract_x
 _atom_site_fract_y
 _atom_site_fract_z
 _atom_site_occupancy
  V  V0  1  0.33333333  0.66666667  0.66716567  1
  V  V1  1  0.33333333  0.66666667  0.02121667  1
  V  V2  1  0.33333333  0.66666667  0.16537967  1
  V  V3  1  0.33333333  0.66666667  0.81030967  1
  V  V4  1  0.33333333  0.66666667  0.30931467  1
  V  V5  1  0.00000000  0.00000000  0.00049900  1
  V  V6  1  0.00000000  0.00000000  0.35455000  1
  V  V7  1  0.00000000  0.00000000  0.49871300  1
  V  V8  1  0.00000000  0.00000000  0.14364300  1
  V  V9  1  0.00000000  0.00000000  0.64264800  1
  V  V10  1  0.66666667  0.33333333  0.33383233  1
  V  V11  1  0.66666667  0.33333333  0.68788333  1
  V  V12  1  0.66666667  0.33333333  0.83204633  1
  V  V13  1  0.66666667  0.33333333  0.47697633  1
  V  V14  1  0.66666667  0.33333333  0.97598133  1
  Sb  Sb15  1  0.33333333  0.66666667  0.51653267  1
  Sb  Sb16  1  0.00000000  0.00000000  0.84986600  1
  Sb  Sb17  1  0.66666667  0.33333333  0.18319933  1
  P  P18  1  0.35996567  0.02709233  0.08058133  1
  P  P19  1  0.66712667  0.64003433  0.08058133  1
  P  P20  1  0.97290767  0.33287333  0.08058133  1
  P  P21  1  0.70541433  0.99318567  0.25136667  1
  P  P22  1  0.00681433  0.71222867  0.25136667  1
  P  P23  1  0.28777133  0.29458567  0.25136667  1
  P  P24  1  0.02663233  0.36042567  0.41391467  1
  P  P25  1  0.33379333  0.97336767  0.41391467  1
  P  P26  1  0.63957433  0.66620667  0.41391467  1
  P  P27  1  0.37208100  0.32651900  0.58470000  1
  P  P28  1  0.67348100  0.04556200  0.58470000  1
  P  P29  1  0.95443800  0.62791900  0.58470000  1
  P  P30  1  0.69329900  0.69375900  0.74724800  1
  P  P31  1  0.00046000  0.30670100  0.74724800  1
  P  P32  1  0.30624100  0.99954000  0.74724800  1
  P  P33  1  0.03874767  0.65985233  0.91803333  1
  P  P34  1  0.34014767  0.37889533  0.91803333  1
  P  P35  1  0.62110467  0.96125233  0.91803333  1
  O  O36  1  0.32785200  0.85887100  0.35859800  1
  O  O37  1  0.53101900  0.67214800  0.35859800  1
  O  O38  1  0.14112900  0.46898100  0.35859800  1
  O  O39  1  0.17208267  0.00404633  0.07124833  1
  O  O40  1  0.43347367  0.10652933  0.14641033  1
  O  O41  1  0.33530500  0.83690600  0.08614600  1
  O  O42  1  0.83196367  0.82791733  0.07124833  1
  O  O43  1  0.50160100  0.66469500  0.08614600  1
  O  O44  1  0.80739867  0.00653933  0.19050433  1
  O  O45  1  0.16309400  0.49839900  0.08614600  1
  O  O46  1  0.68626000  0.15857900  0.26589700  1
  O  O47  1  0.99346067  0.80085933  0.19050433  1
  O  O48  1  0.67305567  0.56652633  0.14641033  1
  O  O49  1  0.99595367  0.16803633  0.07124833  1
  O  O50  1  0.51649100  0.83183300  0.24222700  1
  O  O51  1  0.89347067  0.32694433  0.14641033  1
  O  O52  1  0.16816700  0.68465800  0.24222700  1
  O  O53  1  0.84142100  0.52768100  0.26589700  1
  O  O54  1  0.31534200  0.48350900  0.24222700  1
  O  O55  1  0.19914067  0.19260133  0.19050433  1
  O  O56  1  0.47231900  0.31374000  0.26589700  1
  O  O57  1  0.50800200  0.86698200  0.97704100  1
  O  O58  1  0.13301800  0.64102000  0.97704100  1
  O  O59  1  0.35898000  0.49199800  0.97704100  1
  O  O60  1  0.99451867  0.19220433  0.69193133  1
  O  O61  1  0.19768567  0.00548133  0.69193133  1
  O  O62  1  0.80779567  0.80231433  0.69193133  1
  O  O63  1  0.83874933  0.33737967  0.40458167  1
  O  O64  1  0.10014033  0.43986267  0.47974367  1
  O  O65  1  0.00197167  0.17023933  0.41947933  1
  O  O66  1  0.49863033  0.16125067  0.40458167  1
  O  O67  1  0.16826767  0.99802833  0.41947933  1
  O  O68  1  0.47406533  0.33987267  0.52383767  1
  O  O69  1  0.82976067  0.83173233  0.41947933  1
  O  O70  1  0.35292667  0.49191233  0.59923033  1
  O  O71  1  0.66012733  0.13419267  0.52383767  1
  O  O72  1  0.33972233  0.89985967  0.47974367  1
  O  O73  1  0.66262033  0.50136967  0.40458167  1
  O  O74  1  0.18315767  0.16516633  0.57556033  1
  O  O75  1  0.56013733  0.66027767  0.47974367  1
  O  O76  1  0.83483367  0.01799133  0.57556033  1
  O  O77  1  0.50808767  0.86101433  0.59923033  1
  O  O78  1  0.98200867  0.81684233  0.57556033  1
  O  O79  1  0.86580733  0.52593467  0.52383767  1
  O  O80  1  0.13898567  0.64707333  0.59923033  1
  O  O81  1  0.17466867  0.20031533  0.31037433  1
  O  O82  1  0.79968467  0.97435333  0.31037433  1
  O  O83  1  0.02564667  0.82533133  0.31037433  1
  O  O84  1  0.66118533  0.52553767  0.02526467  1
  O  O85  1  0.86435233  0.33881467  0.02526467  1
  O  O86  1  0.47446233  0.13564767  0.02526467  1
  O  O87  1  0.50541600  0.67071300  0.73791500  1
  O  O88  1  0.76680700  0.77319600  0.81307700  1
  O  O89  1  0.66863833  0.50357267  0.75281267  1
  O  O90  1  0.16529700  0.49458400  0.73791500  1
  O  O91  1  0.83493433  0.33136167  0.75281267  1
  O  O92  1  0.14073200  0.67320600  0.85717100  1
  O  O93  1  0.49642733  0.16506567  0.75281267  1
  O  O94  1  0.01959333  0.82524567  0.93256367  1
  O  O95  1  0.32679400  0.46752600  0.85717100  1
  O  O96  1  0.00638900  0.23319300  0.81307700  1
  O  O97  1  0.32928700  0.83470300  0.73791500  1
  O  O98  1  0.84982433  0.49849967  0.90889367  1
  O  O99  1  0.22680400  0.99361100  0.81307700  1
  O  O100  1  0.50150033  0.35132467  0.90889367  1
  O  O101  1  0.17475433  0.19434767  0.93256367  1
  O  O102  1  0.64867533  0.15017567  0.90889367  1
  O  O103  1  0.53247400  0.85926800  0.85717100  1
  O  O104  1  0.80565233  0.98040667  0.93256367  1
  O  O105  1  0.84133533  0.53364867  0.64370767  1
  O  O106  1  0.46635133  0.30768667  0.64370767  1
  O  O107  1  0.69231333  0.15866467  0.64370767  1
