# generated using pymatgen
data_Li4Mn2TeWO12
_symmetry_space_group_name_H-M   'P 1'
_cell_length_a   5.08222294
_cell_length_b   5.32417188
_cell_length_c   7.36001117
_cell_angle_alpha   86.33039142
_cell_angle_beta   89.96758849
_cell_angle_gamma   89.99232713
_symmetry_Int_Tables_number   1
_chemical_formula_structural   Li4Mn2TeWO12
_chemical_formula_sum   'Li4 Mn2 Te1 W1 O12'
_cell_volume   198.74345561
_cell_formula_units_Z   1
loop_
 _symmetry_equiv_pos_site_id
 _symmetry_equiv_pos_as_xyz
  1  'x, y, z'
loop_
 _atom_site_type_symbol
 _atom_site_label
 _atom_site_symmetry_multiplicity
 _atom_site_fract_x
 _atom_site_fract_y
 _atom_site_fract_z
 _atom_site_occupancy
  Li  Li0  1  0.99409900  0.42465500  0.71524800  1
  Li  Li1  1  0.50559700  0.93165600  0.21272300  1
  Li  Li2  1  0.00173800  0.43016500  0.21264800  1
  Li  Li3  1  0.49875100  0.92759400  0.71595200  1
  Mn  Mn4  1  0.99931400  0.99782400  0.49831500  1
  Mn  Mn5  1  0.50087100  0.49654500  0.99939500  1
  Te  Te6  1  0.49864300  0.49884700  0.49931500  1
  W  W7  1  0.00106400  0.99696200  0.99884900  1
  O  O8  1  0.69698000  0.19999900  0.57712400  1
  O  O9  1  0.88506500  0.01345100  0.25433100  1
  O  O10  1  0.68448900  0.81786000  0.95044900  1
  O  O11  1  0.80129700  0.70191100  0.57469500  1
  O  O12  1  0.19722600  0.69731600  0.06434800  1
  O  O13  1  0.62923800  0.52144000  0.25091300  1
  O  O14  1  0.37199900  0.51992000  0.75139800  1
  O  O15  1  0.81293500  0.31953100  0.95082400  1
  O  O16  1  0.17688300  0.32396500  0.44408400  1
  O  O17  1  0.30805700  0.19982500  0.06349400  1
  O  O18  1  0.11638300  0.01462700  0.75045600  1
  O  O19  1  0.31937200  0.82350400  0.44423700  1
