# generated using pymatgen
data_LiP4WO12
_symmetry_space_group_name_H-M   'P 1'
_cell_length_a   5.34034800
_cell_length_b   14.03783000
_cell_length_c   7.39221431
_cell_angle_alpha   90.00000000
_cell_angle_beta   95.96981807
_cell_angle_gamma   90.00000000
_symmetry_Int_Tables_number   1
_chemical_formula_structural   LiP4WO12
_chemical_formula_sum   'Li2 P8 W2 O24'
_cell_volume   551.16600029
_cell_formula_units_Z   2
loop_
 _symmetry_equiv_pos_site_id
 _symmetry_equiv_pos_as_xyz
  1  'x, y, z'
loop_
 _atom_site_type_symbol
 _atom_site_label
 _atom_site_symmetry_multiplicity
 _atom_site_fract_x
 _atom_site_fract_y
 _atom_site_fract_z
 _atom_site_occupancy
  Li  Li0  1  0.62552700  0.99004000  0.10328000  1
  Li  Li1  1  0.37447300  0.49004000  0.89672000  1
  P  P2  1  0.03379600  0.90485100  0.55876100  1
  P  P3  1  0.99244200  0.62126700  0.44513300  1
  P  P4  1  0.13606300  0.32744500  0.09745400  1
  P  P5  1  0.21486200  0.68039900  0.10836100  1
  P  P6  1  0.78513800  0.18039900  0.89163900  1
  P  P7  1  0.86393700  0.82744500  0.90254600  1
  P  P8  1  0.00755800  0.12126700  0.55486700  1
  P  P9  1  0.96620400  0.40485100  0.44123900  1
  W  W10  1  0.51199100  0.76413100  0.50549700  1
  W  W11  1  0.48800900  0.26413100  0.49450300  1
  O  O12  1  0.04611400  0.73800000  0.95319300  1
  O  O13  1  0.03581800  0.89091700  0.77499800  1
  O  O14  1  0.00086700  0.13753700  0.76940600  1
  O  O15  1  0.17791600  0.38561800  0.93651700  1
  O  O16  1  0.06898300  0.51132500  0.47740000  1
  O  O17  1  0.15935800  0.34278200  0.54554000  1
  O  O18  1  0.19529100  0.67642900  0.55625700  1
  O  O19  1  0.29978200  0.89744100  0.51026100  1
  O  O20  1  0.27289400  0.13341300  0.50802600  1
  O  O21  1  0.37857100  0.74946600  0.22314800  1
  O  O22  1  0.36296700  0.28898800  0.21292800  1
  O  O23  1  0.33654400  0.60080100  0.01952500  1
  O  O24  1  0.66345600  0.10080100  0.98047500  1
  O  O25  1  0.63703300  0.78898800  0.78707200  1
  O  O26  1  0.62142900  0.24946600  0.77685200  1
  O  O27  1  0.72710600  0.63341300  0.49197400  1
  O  O28  1  0.70021800  0.39744100  0.48973900  1
  O  O29  1  0.80470900  0.17642900  0.44374300  1
  O  O30  1  0.84064200  0.84278200  0.45446000  1
  O  O31  1  0.93101700  0.01132500  0.52260000  1
  O  O32  1  0.82208400  0.88561800  0.06348300  1
  O  O33  1  0.99913300  0.63753700  0.23059400  1
  O  O34  1  0.96418200  0.39091700  0.22500200  1
  O  O35  1  0.95388600  0.23800000  0.04680700  1
