# generated using pymatgen
data_Li8VO5F
_symmetry_space_group_name_H-M   'P 1'
_cell_length_a   5.42030927
_cell_length_b   5.44859534
_cell_length_c   5.95159788
_cell_angle_alpha   90.66822882
_cell_angle_beta   116.34682631
_cell_angle_gamma   118.29105205
_symmetry_Int_Tables_number   1
_chemical_formula_structural   Li8VO5F
_chemical_formula_sum   'Li8 V1 O5 F1'
_cell_volume   133.09399440
_cell_formula_units_Z   1
loop_
 _symmetry_equiv_pos_site_id
 _symmetry_equiv_pos_as_xyz
  1  'x, y, z'
loop_
 _atom_site_type_symbol
 _atom_site_label
 _atom_site_symmetry_multiplicity
 _atom_site_fract_x
 _atom_site_fract_y
 _atom_site_fract_z
 _atom_site_occupancy
  Li  Li0  1  0.24277250  0.48161850  0.36309550  1
  Li  Li1  1  0.13120200  0.23481300  0.65323400  1
  Li  Li2  1  0.40677050  0.89476575  0.64151700  1
  Li  Li3  1  0.71728700  0.34669900  0.01080100  1
  Li  Li4  1  0.30895375  0.67864725  0.96318525  1
  Li  Li5  1  0.58773975  0.09061200  0.35760175  1
  Li  Li6  1  0.88807150  0.78342250  0.36236550  1
  Li  Li7  1  0.75265700  0.51653875  0.65340550  1
  V  V8  1  0.97044550  0.97787900  0.98438250  1
  O  O9  1  0.51206775  0.60374300  0.75937575  1
  O  O10  1  0.85844225  0.09396575  0.23851375  1
  O  O11  1  0.15229000  0.76566575  0.23359050  1
  O  O12  1  0.84006375  0.22838250  0.76265475  1
  O  O13  1  0.12983900  0.90150725  0.75481050  1
  F  F14  1  0.50139575  0.40173900  0.26146775  1
