# generated using pymatgen
data_Mn5O7F
_symmetry_space_group_name_H-M   'P 1'
_cell_length_a   6.20363025
_cell_length_b   6.20363025
_cell_length_c   14.16232842
_cell_angle_alpha   90.00000000
_cell_angle_beta   90.00000000
_cell_angle_gamma   120.00000000
_symmetry_Int_Tables_number   1
_chemical_formula_structural   Mn5O7F
_chemical_formula_sum   'Mn15 O21 F3'
_cell_volume   472.01641614
_cell_formula_units_Z   3
loop_
 _symmetry_equiv_pos_site_id
 _symmetry_equiv_pos_as_xyz
  1  'x, y, z'
loop_
 _atom_site_type_symbol
 _atom_site_label
 _atom_site_symmetry_multiplicity
 _atom_site_fract_x
 _atom_site_fract_y
 _atom_site_fract_z
 _atom_site_occupancy
  Mn  Mn0  1  0.16501000  0.33002000  0.20511200  1
  Mn  Mn1  1  0.33333333  0.66666667  0.04482067  1
  Mn  Mn2  1  0.33333333  0.66666667  0.65315167  1
  Mn  Mn3  1  0.66998000  0.83499000  0.20511200  1
  Mn  Mn4  1  0.16501000  0.83499000  0.20511200  1
  Mn  Mn5  1  0.83167667  0.66335333  0.53844533  1
  Mn  Mn6  1  0.00000000  0.00000000  0.37815400  1
  Mn  Mn7  1  0.00000000  0.00000000  0.98648500  1
  Mn  Mn8  1  0.33664667  0.16832333  0.53844533  1
  Mn  Mn9  1  0.83167667  0.16832333  0.53844533  1
  Mn  Mn10  1  0.49834333  0.99668667  0.87177867  1
  Mn  Mn11  1  0.66666667  0.33333333  0.71148733  1
  Mn  Mn12  1  0.66666667  0.33333333  0.31981833  1
  Mn  Mn13  1  0.00331333  0.50165667  0.87177867  1
  Mn  Mn14  1  0.49834333  0.50165667  0.87177867  1
  O  O15  1  0.47258200  0.52741800  0.13206000  1
  O  O16  1  0.18901833  0.37803667  0.95269067  1
  O  O17  1  0.05483600  0.52741800  0.13206000  1
  O  O18  1  0.62196333  0.81098167  0.95269067  1
  O  O19  1  0.33333333  0.66666667  0.79244867  1
  O  O20  1  0.18901833  0.81098167  0.95269067  1
  O  O21  1  0.47258200  0.94516400  0.13206000  1
  O  O22  1  0.13924867  0.86075133  0.46539333  1
  O  O23  1  0.85568500  0.71137000  0.28602400  1
  O  O24  1  0.72150267  0.86075133  0.46539333  1
  O  O25  1  0.28863000  0.14431500  0.28602400  1
  O  O26  1  0.00000000  0.00000000  0.12578200  1
  O  O27  1  0.85568500  0.14431500  0.28602400  1
  O  O28  1  0.13924867  0.27849733  0.46539333  1
  O  O29  1  0.80591533  0.19408467  0.79872667  1
  O  O30  1  0.52235167  0.04470333  0.61935733  1
  O  O31  1  0.38816933  0.19408467  0.79872667  1
  O  O32  1  0.95529667  0.47764833  0.61935733  1
  O  O33  1  0.66666667  0.33333333  0.45911533  1
  O  O34  1  0.52235167  0.47764833  0.61935733  1
  O  O35  1  0.80591533  0.61183067  0.79872667  1
  F  F36  1  0.33333333  0.66666667  0.29435167  1
  F  F37  1  0.00000000  0.00000000  0.62768500  1
  F  F38  1  0.66666667  0.33333333  0.96101833  1
