# generated using pymatgen
data_Mn2Fe3Co3O16
_symmetry_space_group_name_H-M   'P 1'
_cell_length_a   10.00561600
_cell_length_b   5.75299800
_cell_length_c   8.85412517
_cell_angle_alpha   90.00000000
_cell_angle_beta   92.02935472
_cell_angle_gamma   90.00000000
_symmetry_Int_Tables_number   1
_chemical_formula_structural   Mn2Fe3Co3O16
_chemical_formula_sum   'Mn4 Fe6 Co6 O32'
_cell_volume   509.34405726
_cell_formula_units_Z   2
loop_
 _symmetry_equiv_pos_site_id
 _symmetry_equiv_pos_as_xyz
  1  'x, y, z'
loop_
 _atom_site_type_symbol
 _atom_site_label
 _atom_site_symmetry_multiplicity
 _atom_site_fract_x
 _atom_site_fract_y
 _atom_site_fract_z
 _atom_site_occupancy
  Mn  Mn0  1  0.66699700  0.00000000  0.48335100  1
  Mn  Mn1  1  0.83101700  0.50000000  0.98500700  1
  Mn  Mn2  1  0.16699700  0.50000000  0.48335100  1
  Mn  Mn3  1  0.33101700  0.00000000  0.98500700  1
  Fe  Fe4  1  0.83468700  0.00000000  0.21041600  1
  Fe  Fe5  1  0.91900550  0.74962450  0.70965500  1
  Fe  Fe6  1  0.91900550  0.25037550  0.70965500  1
  Fe  Fe7  1  0.33468700  0.50000000  0.21041600  1
  Fe  Fe8  1  0.41900550  0.24962450  0.70965500  1
  Fe  Fe9  1  0.41900550  0.75037550  0.70965500  1
  Co  Co10  1  0.58405050  0.24966550  0.20853800  1
  Co  Co11  1  0.58405050  0.75033450  0.20853800  1
  Co  Co12  1  0.66891000  0.50000000  0.70721700  1
  Co  Co13  1  0.08405050  0.74966550  0.20853800  1
  Co  Co14  1  0.08405050  0.25033450  0.20853800  1
  Co  Co15  1  0.16891000  0.00000000  0.70721700  1
  O  O16  1  0.58821800  0.25091200  0.60015300  1
  O  O17  1  0.52146300  0.00000000  0.32965800  1
  O  O18  1  0.66366900  0.00000000  0.10152500  1
  O  O19  1  0.50546100  0.50000000  0.31648600  1
  O  O20  1  0.50892400  0.50000000  0.81549800  1
  O  O21  1  0.58821800  0.74908800  0.60015300  1
  O  O22  1  0.73587550  0.22280050  0.34034200  1
  O  O23  1  0.73587550  0.77719950  0.34034200  1
  O  O24  1  0.66314800  0.50000000  0.10995900  1
  O  O25  1  0.83034300  0.00000000  0.59960900  1
  O  O26  1  0.75357100  0.71375600  0.84270800  1
  O  O27  1  0.75357100  0.28624400  0.84270800  1
  O  O28  1  0.82869900  0.50000000  0.59871000  1
  O  O29  1  0.91956050  0.75044250  0.10181200  1
  O  O30  1  0.97791600  0.50000000  0.85180500  1
  O  O31  1  0.91956050  0.24955750  0.10181200  1
  O  O32  1  0.08821800  0.75091200  0.60015300  1
  O  O33  1  0.02146300  0.50000000  0.32965800  1
  O  O34  1  0.16366900  0.50000000  0.10152500  1
  O  O35  1  0.00546100  0.00000000  0.31648600  1
  O  O36  1  0.00892400  0.00000000  0.81549800  1
  O  O37  1  0.08821800  0.24908800  0.60015300  1
  O  O38  1  0.23587550  0.72280050  0.34034200  1
  O  O39  1  0.23587550  0.27719950  0.34034200  1
  O  O40  1  0.16314800  0.00000000  0.10995900  1
  O  O41  1  0.33034300  0.50000000  0.59960900  1
  O  O42  1  0.25357100  0.21375600  0.84270800  1
  O  O43  1  0.25357100  0.78624400  0.84270800  1
  O  O44  1  0.32869900  0.00000000  0.59871000  1
  O  O45  1  0.41956050  0.25044250  0.10181200  1
  O  O46  1  0.47791600  0.00000000  0.85180500  1
  O  O47  1  0.41956050  0.74955750  0.10181200  1
