# generated using pymatgen
data_LiCo(CO3)2
_symmetry_space_group_name_H-M   'P 1'
_cell_length_a   5.70109062
_cell_length_b   11.34522164
_cell_length_c   7.70459582
_cell_angle_alpha   90.00000000
_cell_angle_beta   97.67437325
_cell_angle_gamma   90.00000000
_symmetry_Int_Tables_number   1
_chemical_formula_structural   LiCo(CO3)2
_chemical_formula_sum   'Li4 Co4 C8 O24'
_cell_volume   493.87074460
_cell_formula_units_Z   4
loop_
 _symmetry_equiv_pos_site_id
 _symmetry_equiv_pos_as_xyz
  1  'x, y, z'
loop_
 _atom_site_type_symbol
 _atom_site_label
 _atom_site_symmetry_multiplicity
 _atom_site_fract_x
 _atom_site_fract_y
 _atom_site_fract_z
 _atom_site_occupancy
  Li  Li0  1  0.63447350  0.92404700  0.66163700  1
  Li  Li1  1  0.63447350  0.07595300  0.16163700  1
  Li  Li2  1  0.13447350  0.42404700  0.66163700  1
  Li  Li3  1  0.13447350  0.57595300  0.16163700  1
  Co  Co4  1  0.64203425  0.35723225  0.99772000  1
  Co  Co5  1  0.14203425  0.14276775  0.49772000  1
  Co  Co6  1  0.14203425  0.85723225  0.99772000  1
  Co  Co7  1  0.64203425  0.64276775  0.49772000  1
  C  C8  1  0.49946275  0.16003125  0.78014000  1
  C  C9  1  0.99946275  0.33996875  0.28014000  1
  C  C10  1  0.16166800  0.93112950  0.70680000  1
  C  C11  1  0.16166800  0.06887050  0.20680000  1
  C  C12  1  0.99946275  0.66003125  0.78014000  1
  C  C13  1  0.49946275  0.83996875  0.28014000  1
  C  C14  1  0.66166800  0.43112950  0.70680000  1
  C  C15  1  0.66166800  0.56887050  0.20680000  1
  O  O16  1  0.57392300  0.19703350  0.94402800  1
  O  O17  1  0.07392300  0.30296650  0.44402800  1
  O  O18  1  0.97022600  0.90865750  0.77700300  1
  O  O19  1  0.97022600  0.09134250  0.27700300  1
  O  O20  1  0.35611800  0.89586450  0.79473300  1
  O  O21  1  0.35611800  0.10413550  0.29473300  1
  O  O22  1  0.62896375  0.10065875  0.69584400  1
  O  O23  1  0.62896375  0.89934125  0.19584400  1
  O  O24  1  0.27958600  0.18903400  0.72192700  1
  O  O25  1  0.77958600  0.31096600  0.22192700  1
  O  O26  1  0.14794125  0.98107875  0.55564600  1
  O  O27  1  0.14794125  0.01892125  0.05564600  1
  O  O28  1  0.07392300  0.69703350  0.94402800  1
  O  O29  1  0.57392300  0.80296650  0.44402800  1
  O  O30  1  0.47022600  0.40865750  0.77700300  1
  O  O31  1  0.47022600  0.59134250  0.27700300  1
  O  O32  1  0.85611800  0.39586450  0.79473300  1
  O  O33  1  0.85611800  0.60413550  0.29473300  1
  O  O34  1  0.12896375  0.60065875  0.69584400  1
  O  O35  1  0.12896375  0.39934125  0.19584400  1
  O  O36  1  0.77958600  0.68903400  0.72192700  1
  O  O37  1  0.27958600  0.81096600  0.22192700  1
  O  O38  1  0.64794125  0.48107875  0.55564600  1
  O  O39  1  0.64794125  0.51892125  0.05564600  1
