# generated using pymatgen
data_Na2NiPCO7
_symmetry_space_group_name_H-M   'P 1'
_cell_length_a   9.01195400
_cell_length_b   6.51687200
_cell_length_c   10.36609694
_cell_angle_alpha   90.00000000
_cell_angle_beta   91.45296545
_cell_angle_gamma   90.00000000
_symmetry_Int_Tables_number   1
_chemical_formula_structural   Na2NiPCO7
_chemical_formula_sum   'Na8 Ni4 P4 C4 O28'
_cell_volume   608.60254616
_cell_formula_units_Z   4
loop_
 _symmetry_equiv_pos_site_id
 _symmetry_equiv_pos_as_xyz
  1  'x, y, z'
loop_
 _atom_site_type_symbol
 _atom_site_label
 _atom_site_symmetry_multiplicity
 _atom_site_fract_x
 _atom_site_fract_y
 _atom_site_fract_z
 _atom_site_occupancy
  Na  Na0  1  0.26180300  0.76605300  0.87616600  1
  Na  Na1  1  0.26133900  0.23132300  0.87415900  1
  Na  Na2  1  0.26133900  0.76867700  0.37415900  1
  Na  Na3  1  0.26180300  0.23394700  0.37616600  1
  Na  Na4  1  0.73276500  0.26975800  0.62784400  1
  Na  Na5  1  0.73276500  0.73024200  0.12784400  1
  Na  Na6  1  0.90996700  0.49568400  0.89472100  1
  Na  Na7  1  0.90996700  0.50431600  0.39472100  1
  Ni  Ni8  1  0.34838500  0.50264400  0.61092200  1
  Ni  Ni9  1  0.34838500  0.49735600  0.11092200  1
  Ni  Ni10  1  0.65762600  0.99822100  0.88967400  1
  Ni  Ni11  1  0.65762600  0.00177900  0.38967400  1
  P  P12  1  0.42646300  0.99931000  0.64096300  1
  P  P13  1  0.42646300  0.00069000  0.14096300  1
  P  P14  1  0.57710300  0.49835600  0.85615600  1
  P  P15  1  0.57710300  0.50164400  0.35615600  1
  C  C16  1  0.07341800  0.49373200  0.64404000  1
  C  C17  1  0.07341800  0.50626800  0.14404000  1
  C  C18  1  0.92877300  0.99622000  0.85789700  1
  C  C19  1  0.92877300  0.00378000  0.35789700  1
  O  O20  1  0.06720600  0.99820600  0.83995200  1
  O  O21  1  0.06720600  0.00179400  0.33995200  1
  O  O22  1  0.13425900  0.49899500  0.53043500  1
  O  O23  1  0.13425900  0.50100500  0.03043500  1
  O  O24  1  0.16701100  0.50026900  0.74243500  1
  O  O25  1  0.16701100  0.49973100  0.24243500  1
  O  O26  1  0.32820200  0.81210200  0.60350300  1
  O  O27  1  0.32841700  0.18886000  0.60556400  1
  O  O28  1  0.32841700  0.81114000  0.10556400  1
  O  O29  1  0.32820200  0.18789800  0.10350300  1
  O  O30  1  0.42983400  0.49437600  0.92874800  1
  O  O31  1  0.42983400  0.50562400  0.42874800  1
  O  O32  1  0.45915300  0.99712200  0.79025400  1
  O  O33  1  0.45915300  0.00287800  0.29025400  1
  O  O34  1  0.53852300  0.50136700  0.70809400  1
  O  O35  1  0.53852300  0.49863300  0.20809400  1
  O  O36  1  0.57268300  0.00380500  0.56742500  1
  O  O37  1  0.57268300  0.99619500  0.06742500  1
  O  O38  1  0.67833800  0.30888600  0.88094400  1
  O  O39  1  0.67483000  0.68515800  0.89695800  1
  O  O40  1  0.67483000  0.31484200  0.39695800  1
  O  O41  1  0.67833800  0.69111400  0.38094400  1
  O  O42  1  0.82948800  0.00412100  0.76384500  1
  O  O43  1  0.82948800  0.99587900  0.26384500  1
  O  O44  1  0.86965600  0.98759400  0.97077300  1
  O  O45  1  0.86965600  0.01240600  0.47077300  1
  O  O46  1  0.93443400  0.48290700  0.65649400  1
  O  O47  1  0.93443400  0.51709300  0.15649400  1
