# generated using pymatgen
data_LiVF6
_symmetry_space_group_name_H-M   'P 1'
_cell_length_a   9.43068800
_cell_length_b   5.40844200
_cell_length_c   9.86627608
_cell_angle_alpha   90.00000000
_cell_angle_beta   90.90512419
_cell_angle_gamma   90.00000000
_symmetry_Int_Tables_number   1
_chemical_formula_structural   LiVF6
_chemical_formula_sum   'Li4 V4 F24'
_cell_volume   503.16986650
_cell_formula_units_Z   4
loop_
 _symmetry_equiv_pos_site_id
 _symmetry_equiv_pos_as_xyz
  1  'x, y, z'
loop_
 _atom_site_type_symbol
 _atom_site_label
 _atom_site_symmetry_multiplicity
 _atom_site_fract_x
 _atom_site_fract_y
 _atom_site_fract_z
 _atom_site_occupancy
  Li  Li0  1  0.67630850  0.66455450  0.82567300  1
  Li  Li1  1  0.67630850  0.33544550  0.32567300  1
  Li  Li2  1  0.17630850  0.16455450  0.82567300  1
  Li  Li3  1  0.17630850  0.83544550  0.32567300  1
  V  V4  1  0.85258650  0.82056950  0.14686900  1
  V  V5  1  0.85258650  0.17943050  0.64686900  1
  V  V6  1  0.35258650  0.32056950  0.14686900  1
  V  V7  1  0.35258650  0.67943050  0.64686900  1
  F  F8  1  0.92105250  0.52850850  0.09929300  1
  F  F9  1  0.73220850  0.18978050  0.49915800  1
  F  F10  1  0.72459950  0.65777150  0.25565300  1
  F  F11  1  0.72459950  0.34222850  0.75565300  1
  F  F12  1  0.97365250  0.83300750  0.29382600  1
  F  F13  1  0.98225450  0.98311450  0.05430100  1
  F  F14  1  0.98225450  0.01688550  0.55430100  1
  F  F15  1  0.97365250  0.16699250  0.79382600  1
  F  F16  1  0.76609350  0.10914750  0.19987300  1
  F  F17  1  0.76609350  0.89085250  0.69987300  1
  F  F18  1  0.73220850  0.81021950  0.99915800  1
  F  F19  1  0.92105250  0.47149150  0.59929300  1
  F  F20  1  0.42105250  0.02850850  0.09929300  1
  F  F21  1  0.23220850  0.68978050  0.49915800  1
  F  F22  1  0.22459950  0.15777150  0.25565300  1
  F  F23  1  0.22459950  0.84222850  0.75565300  1
  F  F24  1  0.47365250  0.33300750  0.29382600  1
  F  F25  1  0.48225450  0.48311450  0.05430100  1
  F  F26  1  0.48225450  0.51688550  0.55430100  1
  F  F27  1  0.47365250  0.66699250  0.79382600  1
  F  F28  1  0.26609350  0.60914750  0.19987300  1
  F  F29  1  0.26609350  0.39085250  0.69987300  1
  F  F30  1  0.23220850  0.31021950  0.99915800  1
  F  F31  1  0.42105250  0.97149150  0.59929300  1
