# generated using pymatgen
data_Li2Ti3FeO8
_symmetry_space_group_name_H-M   'P 1'
_cell_length_a   5.99598215
_cell_length_b   5.99598215
_cell_length_c   14.68785315
_cell_angle_alpha   90.00000000
_cell_angle_beta   90.00000000
_cell_angle_gamma   120.00000000
_symmetry_Int_Tables_number   1
_chemical_formula_structural   Li2Ti3FeO8
_chemical_formula_sum   'Li6 Ti9 Fe3 O24'
_cell_volume   457.30885982
_cell_formula_units_Z   3
loop_
 _symmetry_equiv_pos_site_id
 _symmetry_equiv_pos_as_xyz
  1  'x, y, z'
loop_
 _atom_site_type_symbol
 _atom_site_label
 _atom_site_symmetry_multiplicity
 _atom_site_fract_x
 _atom_site_fract_y
 _atom_site_fract_z
 _atom_site_occupancy
  Li  Li0  1  0.66666667  0.33333333  0.21558933  1
  Li  Li1  1  0.33333333  0.66666667  0.16685467  1
  Li  Li2  1  0.33333333  0.66666667  0.54892267  1
  Li  Li3  1  0.00000000  0.00000000  0.50018800  1
  Li  Li4  1  0.00000000  0.00000000  0.88225600  1
  Li  Li5  1  0.66666667  0.33333333  0.83352133  1
  Ti  Ti6  1  0.16903650  0.83096350  0.33309400  1
  Ti  Ti7  1  0.66192700  0.83096350  0.33309400  1
  Ti  Ti8  1  0.16903650  0.33807300  0.33309400  1
  Ti  Ti9  1  0.83570317  0.16429683  0.66642733  1
  Ti  Ti10  1  0.32859367  0.16429683  0.66642733  1
  Ti  Ti11  1  0.83570317  0.67140633  0.66642733  1
  Ti  Ti12  1  0.50236983  0.49763017  0.99976067  1
  Ti  Ti13  1  0.99526033  0.49763017  0.99976067  1
  Ti  Ti14  1  0.50236983  0.00473967  0.99976067  1
  Fe  Fe15  1  0.00000000  0.00000000  0.11837400  1
  Fe  Fe16  1  0.66666667  0.33333333  0.45170733  1
  Fe  Fe17  1  0.33333333  0.66666667  0.78504067  1
  O  O18  1  0.66666667  0.33333333  0.07450067  1
  O  O19  1  0.48670700  0.97341400  0.26547100  1
  O  O20  1  0.48670700  0.51329300  0.26547100  1
  O  O21  1  0.02658600  0.51329300  0.26547100  1
  O  O22  1  0.63585567  0.81792783  0.07400533  1
  O  O23  1  0.18207217  0.81792783  0.07400533  1
  O  O24  1  0.18207217  0.36414433  0.07400533  1
  O  O25  1  0.00000000  0.00000000  0.25989733  1
  O  O26  1  0.33333333  0.66666667  0.40783400  1
  O  O27  1  0.15337367  0.30674733  0.59880433  1
  O  O28  1  0.15337367  0.84662633  0.59880433  1
  O  O29  1  0.69325267  0.84662633  0.59880433  1
  O  O30  1  0.30252233  0.15126117  0.40733867  1
  O  O31  1  0.84873883  0.15126117  0.40733867  1
  O  O32  1  0.84873883  0.69747767  0.40733867  1
  O  O33  1  0.66666667  0.33333333  0.59323067  1
  O  O34  1  0.00000000  0.00000000  0.74116733  1
  O  O35  1  0.82004033  0.64008067  0.93213767  1
  O  O36  1  0.82004033  0.17995967  0.93213767  1
  O  O37  1  0.35991933  0.17995967  0.93213767  1
  O  O38  1  0.96918900  0.48459450  0.74067200  1
  O  O39  1  0.51540550  0.48459450  0.74067200  1
  O  O40  1  0.51540550  0.03081100  0.74067200  1
  O  O41  1  0.33333333  0.66666667  0.92656400  1
