# generated using pymatgen
data_Li2V3NiO8
_symmetry_space_group_name_H-M   'P 1'
_cell_length_a   12.12445200
_cell_length_b   4.01696200
_cell_length_c   6.47193035
_cell_angle_alpha   90.00000000
_cell_angle_beta   106.75193989
_cell_angle_gamma   90.00000000
_symmetry_Int_Tables_number   1
_chemical_formula_structural   Li2V3NiO8
_chemical_formula_sum   'Li4 V6 Ni2 O16'
_cell_volume   301.82860727
_cell_formula_units_Z   2
loop_
 _symmetry_equiv_pos_site_id
 _symmetry_equiv_pos_as_xyz
  1  'x, y, z'
loop_
 _atom_site_type_symbol
 _atom_site_label
 _atom_site_symmetry_multiplicity
 _atom_site_fract_x
 _atom_site_fract_y
 _atom_site_fract_z
 _atom_site_occupancy
  Li  Li0  1  0.06138000  0.00000000  0.34300100  1
  Li  Li1  1  0.44071500  0.50000000  0.63991200  1
  Li  Li2  1  0.56138000  0.50000000  0.34300100  1
  Li  Li3  1  0.94071500  0.00000000  0.63991200  1
  V  V4  1  0.39284800  0.00000000  0.29803400  1
  V  V5  1  0.11156000  0.50000000  0.72519400  1
  V  V6  1  0.28945750  0.00000000  0.70784500  1
  V  V7  1  0.89284800  0.50000000  0.29803400  1
  V  V8  1  0.61156000  0.00000000  0.72519400  1
  V  V9  1  0.78945750  0.50000000  0.70784500  1
  Ni  Ni10  1  0.21314800  0.50000000  0.30931900  1
  Ni  Ni11  1  0.71314800  0.00000000  0.30931900  1
  O  O12  1  0.12097200  0.00000000  0.67133200  1
  O  O13  1  0.24089600  0.00000000  0.35897800  1
  O  O14  1  0.34453400  0.00000000  0.98531200  1
  O  O15  1  0.44043800  0.00000000  0.64037200  1
  O  O16  1  0.04786800  0.50000000  0.35092900  1
  O  O17  1  0.14512600  0.50000000  0.99395100  1
  O  O18  1  0.26447600  0.50000000  0.65717000  1
  O  O19  1  0.38658200  0.50000000  0.31865100  1
  O  O20  1  0.62097200  0.50000000  0.67133200  1
  O  O21  1  0.74089600  0.50000000  0.35897800  1
  O  O22  1  0.84453400  0.50000000  0.98531200  1
  O  O23  1  0.94043800  0.50000000  0.64037200  1
  O  O24  1  0.54786800  0.00000000  0.35092900  1
  O  O25  1  0.64512600  0.00000000  0.99395100  1
  O  O26  1  0.76447600  0.00000000  0.65717000  1
  O  O27  1  0.88658200  0.00000000  0.31865100  1
