# generated using pymatgen
data_LiMn2O2F3
_symmetry_space_group_name_H-M   'P 1'
_cell_length_a   3.79600900
_cell_length_b   9.84963900
_cell_length_c   10.57562800
_cell_angle_alpha   90.00000000
_cell_angle_beta   90.00000000
_cell_angle_gamma   90.00000000
_symmetry_Int_Tables_number   1
_chemical_formula_structural   LiMn2O2F3
_chemical_formula_sum   'Li4 Mn8 O8 F12'
_cell_volume   395.41552149
_cell_formula_units_Z   4
loop_
 _symmetry_equiv_pos_site_id
 _symmetry_equiv_pos_as_xyz
  1  'x, y, z'
loop_
 _atom_site_type_symbol
 _atom_site_label
 _atom_site_symmetry_multiplicity
 _atom_site_fract_x
 _atom_site_fract_y
 _atom_site_fract_z
 _atom_site_occupancy
  Li  Li0  1  0.50000000  0.16893850  0.75000000  1
  Li  Li1  1  0.00000000  0.33106150  0.25000000  1
  Li  Li2  1  0.00000000  0.66893850  0.75000000  1
  Li  Li3  1  0.50000000  0.83106150  0.25000000  1
  Mn  Mn4  1  0.50000000  0.15593850  0.44192550  1
  Mn  Mn5  1  0.00000000  0.34406150  0.94192550  1
  Mn  Mn6  1  0.50000000  0.15593850  0.05807450  1
  Mn  Mn7  1  0.00000000  0.34406150  0.55807450  1
  Mn  Mn8  1  0.00000000  0.65593850  0.44192550  1
  Mn  Mn9  1  0.50000000  0.84406150  0.94192550  1
  Mn  Mn10  1  0.00000000  0.65593850  0.05807450  1
  Mn  Mn11  1  0.50000000  0.84406150  0.55807450  1
  O  O12  1  0.50000000  0.30842450  0.94305150  1
  O  O13  1  0.50000000  0.30842450  0.55694850  1
  O  O14  1  0.00000000  0.19157550  0.05694850  1
  O  O15  1  0.00000000  0.19157550  0.44305150  1
  O  O16  1  0.00000000  0.80842450  0.94305150  1
  O  O17  1  0.00000000  0.80842450  0.55694850  1
  O  O18  1  0.50000000  0.69157550  0.05694850  1
  O  O19  1  0.50000000  0.69157550  0.44305150  1
  F  F20  1  0.50000000  0.24929400  0.25000000  1
  F  F21  1  0.00000000  0.25070600  0.75000000  1
  F  F22  1  0.50000000  0.02804000  0.62026650  1
  F  F23  1  0.50000000  0.02804000  0.87973350  1
  F  F24  1  0.00000000  0.47196000  0.12026650  1
  F  F25  1  0.00000000  0.47196000  0.37973350  1
  F  F26  1  0.00000000  0.74929400  0.25000000  1
  F  F27  1  0.50000000  0.75070600  0.75000000  1
  F  F28  1  0.00000000  0.52804000  0.62026650  1
  F  F29  1  0.00000000  0.52804000  0.87973350  1
  F  F30  1  0.50000000  0.97196000  0.12026650  1
  F  F31  1  0.50000000  0.97196000  0.37973350  1
