# generated using pymatgen
data_V3OF11
_symmetry_space_group_name_H-M   'P 1'
_cell_length_a   5.45710800
_cell_length_b   5.25500600
_cell_length_c   14.75627094
_cell_angle_alpha   90.00000000
_cell_angle_beta   100.36809892
_cell_angle_gamma   90.00000000
_symmetry_Int_Tables_number   1
_chemical_formula_structural   V3OF11
_chemical_formula_sum   'V6 O2 F22'
_cell_volume   416.25802473
_cell_formula_units_Z   2
loop_
 _symmetry_equiv_pos_site_id
 _symmetry_equiv_pos_as_xyz
  1  'x, y, z'
loop_
 _atom_site_type_symbol
 _atom_site_label
 _atom_site_symmetry_multiplicity
 _atom_site_fract_x
 _atom_site_fract_y
 _atom_site_fract_z
 _atom_site_occupancy
  V  V0  1  0.00012000  0.24998500  0.99993700  1
  V  V1  1  0.88277100  0.72941400  0.66916800  1
  V  V2  1  0.66646100  0.24992400  0.33341200  1
  V  V3  1  0.50012000  0.75001500  0.99993700  1
  V  V4  1  0.38277100  0.27058600  0.66916800  1
  V  V5  1  0.16646100  0.75007600  0.33341200  1
  O  O6  1  0.62242400  0.47002800  0.68914400  1
  O  O7  1  0.12242400  0.52997200  0.68914400  1
  F  F8  1  0.97883700  0.44538500  0.35817100  1
  F  F9  1  0.81251000  0.55436000  0.02489900  1
  F  F10  1  0.85352000  0.94568900  0.30836900  1
  F  F11  1  0.95826700  0.33859700  0.88246200  1
  F  F12  1  0.76981900  0.67858700  0.55031500  1
  F  F13  1  0.62502400  0.33785400  0.21596700  1
  F  F14  1  0.86432800  0.83673200  0.78199100  1
  F  F15  1  0.70621900  0.16393000  0.45080800  1
  F  F16  1  0.54086200  0.83772400  0.11712200  1
  F  F17  1  0.47883700  0.55461500  0.35817100  1
  F  F18  1  0.31251000  0.44564000  0.02489900  1
  F  F19  1  0.68735000  0.05421700  0.97474900  1
  F  F20  1  0.53149200  0.97367300  0.64348600  1
  F  F21  1  0.35352000  0.05431100  0.30836900  1
  F  F22  1  0.45826700  0.66140300  0.88246200  1
  F  F23  1  0.26981900  0.32141300  0.55031500  1
  F  F24  1  0.12502400  0.66214600  0.21596700  1
  F  F25  1  0.36432800  0.16326800  0.78199100  1
  F  F26  1  0.20621900  0.83607000  0.45080800  1
  F  F27  1  0.04086200  0.16227600  0.11712200  1
  F  F28  1  0.18735000  0.94578300  0.97474900  1
  F  F29  1  0.03149200  0.02632700  0.64348600  1
