# generated using pymatgen
data_P4WO12
_symmetry_space_group_name_H-M   'P 1'
_cell_length_a   5.34084700
_cell_length_b   13.87436300
_cell_length_c   7.27955394
_cell_angle_alpha   90.00000000
_cell_angle_beta   97.89960280
_cell_angle_gamma   90.00000000
_symmetry_Int_Tables_number   1
_chemical_formula_structural   P4WO12
_chemical_formula_sum   'P8 W2 O24'
_cell_volume   534.30225234
_cell_formula_units_Z   2
loop_
 _symmetry_equiv_pos_site_id
 _symmetry_equiv_pos_as_xyz
  1  'x, y, z'
loop_
 _atom_site_type_symbol
 _atom_site_label
 _atom_site_symmetry_multiplicity
 _atom_site_fract_x
 _atom_site_fract_y
 _atom_site_fract_z
 _atom_site_occupancy
  P  P0  1  0.00810800  0.12393400  0.55684300  1
  P  P1  1  0.03057700  0.90406400  0.56075400  1
  P  P2  1  0.13476200  0.32898400  0.09149000  1
  P  P3  1  0.21644100  0.67649900  0.10602900  1
  P  P4  1  0.78355900  0.17649900  0.89397100  1
  P  P5  1  0.86523800  0.82898400  0.90851000  1
  P  P6  1  0.96942300  0.40406400  0.43924600  1
  P  P7  1  0.99189200  0.62393400  0.44315700  1
  W  W8  1  0.48910400  0.26520100  0.49601800  1
  W  W9  1  0.51089600  0.76520100  0.50398200  1
  O  O10  1  0.00854700  0.13883300  0.77181000  1
  O  O11  1  0.04916700  0.73664900  0.94771700  1
  O  O12  1  0.03512800  0.89284400  0.77733400  1
  O  O13  1  0.04817500  0.51280100  0.48349900  1
  O  O14  1  0.18606100  0.38474000  0.93117300  1
  O  O15  1  0.16881900  0.34231900  0.54753100  1
  O  O16  1  0.20130800  0.67901300  0.55788000  1
  O  O17  1  0.27277700  0.14240200  0.50885800  1
  O  O18  1  0.29632800  0.88938500  0.51234700  1
  O  O19  1  0.35750800  0.28597800  0.22427800  1
  O  O20  1  0.35013300  0.59662000  0.03100000  1
  O  O21  1  0.37342000  0.75016700  0.23290400  1
  O  O22  1  0.62658000  0.25016700  0.76709600  1
  O  O23  1  0.64986700  0.09662000  0.96900000  1
  O  O24  1  0.64249200  0.78597800  0.77572200  1
  O  O25  1  0.70367200  0.38938500  0.48765300  1
  O  O26  1  0.72722300  0.64240200  0.49114200  1
  O  O27  1  0.79869200  0.17901300  0.44212000  1
  O  O28  1  0.83118100  0.84231900  0.45246900  1
  O  O29  1  0.81393900  0.88474000  0.06882700  1
  O  O30  1  0.95182500  0.01280100  0.51650100  1
  O  O31  1  0.96487200  0.39284400  0.22266600  1
  O  O32  1  0.95083300  0.23664900  0.05228300  1
  O  O33  1  0.99145300  0.63883300  0.22819000  1
