# generated using pymatgen
data_Dy2CuO4
_symmetry_space_group_name_H-M   'P 1'
_cell_length_a   5.49423800
_cell_length_b   11.86162000
_cell_length_c   5.49076900
_cell_angle_alpha   90.00000000
_cell_angle_beta   90.00000000
_cell_angle_gamma   90.00000000
_symmetry_Int_Tables_number   1
_chemical_formula_structural   Dy2CuO4
_chemical_formula_sum   'Dy8 Cu4 O16'
_cell_volume   357.83650893
_cell_formula_units_Z   4
loop_
 _symmetry_equiv_pos_site_id
 _symmetry_equiv_pos_as_xyz
  1  'x, y, z'
loop_
 _atom_site_type_symbol
 _atom_site_label
 _atom_site_symmetry_multiplicity
 _atom_site_fract_x
 _atom_site_fract_y
 _atom_site_fract_z
 _atom_site_occupancy
  Dy  Dy0  1  0.00000000  0.34642000  0.00000000  1
  Dy  Dy1  1  0.50000000  0.15358000  0.00000000  1
  Dy  Dy2  1  0.00000000  0.15358000  0.50000000  1
  Dy  Dy3  1  0.50000000  0.34642000  0.50000000  1
  Dy  Dy4  1  0.50000000  0.84642000  0.00000000  1
  Dy  Dy5  1  0.00000000  0.65358000  0.00000000  1
  Dy  Dy6  1  0.50000000  0.65358000  0.50000000  1
  Dy  Dy7  1  0.00000000  0.84642000  0.50000000  1
  Cu  Cu8  1  0.00000000  0.00000000  0.00000000  1
  Cu  Cu9  1  0.50000000  0.00000000  0.50000000  1
  Cu  Cu10  1  0.50000000  0.50000000  0.00000000  1
  Cu  Cu11  1  0.00000000  0.50000000  0.50000000  1
  O  O12  1  0.29339400  0.00000000  0.20727100  1
  O  O13  1  0.24083600  0.25000000  0.25000000  1
  O  O14  1  0.74083600  0.25000000  0.25000000  1
  O  O15  1  0.79339400  0.00000000  0.29272900  1
  O  O16  1  0.20660600  0.00000000  0.70727100  1
  O  O17  1  0.75916400  0.25000000  0.75000000  1
  O  O18  1  0.25916400  0.25000000  0.75000000  1
  O  O19  1  0.70660600  0.00000000  0.79272900  1
  O  O20  1  0.79339400  0.50000000  0.20727100  1
  O  O21  1  0.74083600  0.75000000  0.25000000  1
  O  O22  1  0.24083600  0.75000000  0.25000000  1
  O  O23  1  0.29339400  0.50000000  0.29272900  1
  O  O24  1  0.70660600  0.50000000  0.70727100  1
  O  O25  1  0.25916400  0.75000000  0.75000000  1
  O  O26  1  0.75916400  0.75000000  0.75000000  1
  O  O27  1  0.20660600  0.50000000  0.79272900  1
