# generated using pymatgen
data_V5Cr(PO4)6
_symmetry_space_group_name_H-M   'P 1'
_cell_length_a   8.60642804
_cell_length_b   8.60642804
_cell_length_c   20.81912300
_cell_angle_alpha   90.00000000
_cell_angle_beta   90.00000000
_cell_angle_gamma   120.00000000
_symmetry_Int_Tables_number   1
_chemical_formula_structural   V5Cr(PO4)6
_chemical_formula_sum   'V15 Cr3 P18 O72'
_cell_volume   1335.48479198
_cell_formula_units_Z   3
loop_
 _symmetry_equiv_pos_site_id
 _symmetry_equiv_pos_as_xyz
  1  'x, y, z'
loop_
 _atom_site_type_symbol
 _atom_site_label
 _atom_site_symmetry_multiplicity
 _atom_site_fract_x
 _atom_site_fract_y
 _atom_site_fract_z
 _atom_site_occupancy
  V  V0  1  0.33333333  0.66666667  0.66642567  1
  V  V1  1  0.33333333  0.66666667  0.30987667  1
  V  V2  1  0.33333333  0.66666667  0.16752767  1
  V  V3  1  0.33333333  0.66666667  0.52369067  1
  V  V4  1  0.33333333  0.66666667  0.02321867  1
  V  V5  1  0.00000000  0.00000000  0.99975900  1
  V  V6  1  0.00000000  0.00000000  0.64321000  1
  V  V7  1  0.00000000  0.00000000  0.50086100  1
  V  V8  1  0.00000000  0.00000000  0.85702400  1
  V  V9  1  0.00000000  0.00000000  0.35655200  1
  V  V10  1  0.66666667  0.33333333  0.33309233  1
  V  V11  1  0.66666667  0.33333333  0.97654333  1
  V  V12  1  0.66666667  0.33333333  0.83419433  1
  V  V13  1  0.66666667  0.33333333  0.19035733  1
  V  V14  1  0.66666667  0.33333333  0.68988533  1
  Cr  Cr15  1  0.33333333  0.66666667  0.80838667  1
  Cr  Cr16  1  0.00000000  0.00000000  0.14172000  1
  Cr  Cr17  1  0.66666667  0.33333333  0.47505333  1
  P  P18  1  0.70752600  0.70866200  0.24946800  1
  P  P19  1  0.29133800  0.99886400  0.24946800  1
  P  P20  1  0.00113600  0.29247400  0.24946800  1
  P  P21  1  0.66706800  0.03954100  0.08310800  1
  P  P22  1  0.37247300  0.33293200  0.08310800  1
  P  P23  1  0.96045900  0.62752700  0.08310800  1
  P  P24  1  0.37419267  0.04199533  0.58280133  1
  P  P25  1  0.95800467  0.33219733  0.58280133  1
  P  P26  1  0.66780267  0.62580733  0.58280133  1
  P  P27  1  0.33373467  0.37287433  0.41644133  1
  P  P28  1  0.03913967  0.66626533  0.41644133  1
  P  P29  1  0.62712567  0.96086033  0.41644133  1
  P  P30  1  0.04085933  0.37532867  0.91613467  1
  P  P31  1  0.62467133  0.66553067  0.91613467  1
  P  P32  1  0.33446933  0.95914067  0.91613467  1
  P  P33  1  0.00040133  0.70620767  0.74977467  1
  P  P34  1  0.70580633  0.99959867  0.74977467  1
  P  P35  1  0.29379233  0.29419367  0.74977467  1
  O  O36  1  0.52365933  0.66201367  0.97793267  1
  O  O37  1  0.33798633  0.86164567  0.97793267  1
  O  O38  1  0.13835433  0.47634067  0.97793267  1
  O  O39  1  0.68450467  0.51654633  0.25800933  1
  O  O40  1  0.80447967  0.80286733  0.18862933  1
  O  O41  1  0.51500633  0.68143267  0.24335067  1
  O  O42  1  0.48345367  0.16795833  0.25800933  1
  O  O43  1  0.31856733  0.83357367  0.24335067  1
  O  O44  1  0.67058300  0.13957900  0.14451500  1
  O  O45  1  0.16642633  0.48499367  0.24335067  1
  O  O46  1  0.83476067  0.01661433  0.07537433  1
  O  O47  1  0.46899600  0.32941700  0.14451500  1
  O  O48  1  0.19713267  0.00161233  0.18862933  1
  O  O49  1  0.83204167  0.31549533  0.25800933  1
  O  O50  1  0.49820867  0.84676533  0.09019033  1
  O  O51  1  0.99838767  0.19552033  0.18862933  1
  O  O52  1  0.34855667  0.50179133  0.09019033  1
  O  O53  1  0.18185367  0.16523933  0.07537433  1
  O  O54  1  0.15323467  0.65144333  0.09019033  1
  O  O55  1  0.86042100  0.53100400  0.14451500  1
  O  O56  1  0.98338567  0.81814633  0.07537433  1
  O  O57  1  0.53256367  0.85847133  0.35637633  1
  O  O58  1  0.32590767  0.46743633  0.35637633  1
  O  O59  1  0.14152867  0.67409233  0.35637633  1
  O  O60  1  0.19032600  0.99534700  0.31126600  1
  O  O61  1  0.00465300  0.19497900  0.31126600  1
  O  O62  1  0.80502100  0.80967400  0.31126600  1
  O  O63  1  0.35117133  0.84987967  0.59134267  1
  O  O64  1  0.47114633  0.13620067  0.52196267  1
  O  O65  1  0.18167300  0.01476600  0.57668400  1
  O  O66  1  0.15012033  0.50129167  0.59134267  1
  O  O67  1  0.98523400  0.16690700  0.57668400  1
  O  O68  1  0.33724967  0.47291233  0.47784833  1
  O  O69  1  0.83309300  0.81832700  0.57668400  1
  O  O70  1  0.50142733  0.34994767  0.40870767  1
  O  O71  1  0.13566267  0.66275033  0.47784833  1
  O  O72  1  0.86379933  0.33494567  0.52196267  1
  O  O73  1  0.49870833  0.64882867  0.59134267  1
  O  O74  1  0.16487533  0.18009867  0.42352367  1
  O  O75  1  0.66505433  0.52885367  0.52196267  1
  O  O76  1  0.01522333  0.83512467  0.42352367  1
  O  O77  1  0.84852033  0.49857267  0.40870767  1
  O  O78  1  0.81990133  0.98477667  0.42352367  1
  O  O79  1  0.52708767  0.86433733  0.47784833  1
  O  O80  1  0.65005233  0.15147967  0.40870767  1
  O  O81  1  0.19923033  0.19180467  0.68970967  1
  O  O82  1  0.99257433  0.80076967  0.68970967  1
  O  O83  1  0.80819533  0.00742567  0.68970967  1
  O  O84  1  0.85699267  0.32868033  0.64459933  1
  O  O85  1  0.67131967  0.52831233  0.64459933  1
  O  O86  1  0.47168767  0.14300733  0.64459933  1
  O  O87  1  0.01783800  0.18321300  0.92467600  1
  O  O88  1  0.13781300  0.46953400  0.85529600  1
  O  O89  1  0.84833967  0.34809933  0.91001733  1
  O  O90  1  0.81678700  0.83462500  0.92467600  1
  O  O91  1  0.65190067  0.50024033  0.91001733  1
  O  O92  1  0.00391633  0.80624567  0.81118167  1
  O  O93  1  0.49975967  0.15166033  0.91001733  1
  O  O94  1  0.16809400  0.68328100  0.74204100  1
  O  O95  1  0.80232933  0.99608367  0.81118167  1
  O  O96  1  0.53046600  0.66827900  0.85529600  1
  O  O97  1  0.16537500  0.98216200  0.92467600  1
  O  O98  1  0.83154200  0.51343200  0.75685700  1
  O  O99  1  0.33172100  0.86218700  0.85529600  1
  O  O100  1  0.68189000  0.16845800  0.75685700  1
  O  O101  1  0.51518700  0.83190600  0.74204100  1
  O  O102  1  0.48656800  0.31811000  0.75685700  1
  O  O103  1  0.19375433  0.19767067  0.81118167  1
  O  O104  1  0.31671900  0.48481300  0.74204100  1
  O  O105  1  0.86589700  0.52513800  0.02304300  1
  O  O106  1  0.65924100  0.13410300  0.02304300  1
  O  O107  1  0.47486200  0.34075900  0.02304300  1
