# generated using pymatgen
data_Li3Fe2(PO4)3
_symmetry_space_group_name_H-M   'P 1'
_cell_length_a   14.25548200
_cell_length_b   13.39901400
_cell_length_c   9.78082705
_cell_angle_alpha   90.00000000
_cell_angle_beta   94.73574705
_cell_angle_gamma   90.00000000
_symmetry_Int_Tables_number   1
_chemical_formula_structural   Li3Fe2(PO4)3
_chemical_formula_sum   'Li24 Fe16 P24 O96'
_cell_volume   1861.85193011
_cell_formula_units_Z   8
loop_
 _symmetry_equiv_pos_site_id
 _symmetry_equiv_pos_as_xyz
  1  'x, y, z'
loop_
 _atom_site_type_symbol
 _atom_site_label
 _atom_site_symmetry_multiplicity
 _atom_site_fract_x
 _atom_site_fract_y
 _atom_site_fract_z
 _atom_site_occupancy
  Li  Li0  1  0.36536050  0.90530650  0.89934900  1
  Li  Li1  1  0.34584300  0.66999600  0.02929200  1
  Li  Li2  1  0.63463950  0.90530650  0.10065100  1
  Li  Li3  1  0.65415700  0.66999600  0.97070800  1
  Li  Li4  1  0.75834650  0.77366350  0.24316700  1
  Li  Li5  1  0.24165350  0.77366350  0.75683300  1
  Li  Li6  1  0.19446200  0.03720200  0.23283400  1
  Li  Li7  1  0.80553800  0.03720200  0.76716600  1
  Li  Li8  1  0.33145850  0.33099650  0.50742400  1
  Li  Li9  1  0.37736450  0.12258950  0.40293800  1
  Li  Li10  1  0.66854150  0.33099650  0.49257600  1
  Li  Li11  1  0.62263550  0.12258950  0.59706200  1
  Li  Li12  1  0.86536050  0.40530650  0.89934900  1
  Li  Li13  1  0.84584300  0.16999600  0.02929200  1
  Li  Li14  1  0.13463950  0.40530650  0.10065100  1
  Li  Li15  1  0.15415700  0.16999600  0.97070800  1
  Li  Li16  1  0.25834650  0.27366350  0.24316700  1
  Li  Li17  1  0.74165350  0.27366350  0.75683300  1
  Li  Li18  1  0.69446200  0.53720200  0.23283400  1
  Li  Li19  1  0.30553800  0.53720200  0.76716600  1
  Li  Li20  1  0.83145850  0.83099650  0.50742400  1
  Li  Li21  1  0.87736450  0.62258950  0.40293800  1
  Li  Li22  1  0.16854150  0.83099650  0.49257600  1
  Li  Li23  1  0.12263550  0.62258950  0.59706200  1
  Fe  Fe24  1  0.38902400  0.86085500  0.27894200  1
  Fe  Fe25  1  0.38289000  0.13804800  0.77650400  1
  Fe  Fe26  1  0.50000000  0.47033800  0.00000000  1
  Fe  Fe27  1  0.50000000  0.24772500  0.00000000  1
  Fe  Fe28  1  0.50000000  0.74920000  0.50000000  1
  Fe  Fe29  1  0.61097600  0.86085500  0.72105800  1
  Fe  Fe30  1  0.50000000  0.52674500  0.50000000  1
  Fe  Fe31  1  0.61711000  0.13804800  0.22349600  1
  Fe  Fe32  1  0.88902400  0.36085500  0.27894200  1
  Fe  Fe33  1  0.88289000  0.63804800  0.77650400  1
  Fe  Fe34  1  0.00000000  0.97033800  0.00000000  1
  Fe  Fe35  1  0.00000000  0.74772500  0.00000000  1
  Fe  Fe36  1  0.00000000  0.24920000  0.50000000  1
  Fe  Fe37  1  0.11097600  0.36085500  0.72105800  1
  Fe  Fe38  1  0.00000000  0.02674500  0.50000000  1
  Fe  Fe39  1  0.11711000  0.63804800  0.22349600  1
  P  P40  1  0.61118100  0.06127300  0.90096300  1
  P  P41  1  0.48930200  0.66262400  0.80182700  1
  P  P42  1  0.80096800  0.85054900  0.92240500  1
  P  P43  1  0.51069800  0.66262400  0.19817300  1
  P  P44  1  0.61432250  0.93528350  0.40294900  1
  P  P45  1  0.80214650  0.14880350  0.42687500  1
  P  P46  1  0.19903200  0.85054900  0.07759500  1
  P  P47  1  0.38881900  0.06127300  0.09903700  1
  P  P48  1  0.49022800  0.32995100  0.30058700  1
  P  P49  1  0.19785350  0.14880350  0.57312500  1
  P  P50  1  0.50977200  0.32995100  0.69941300  1
  P  P51  1  0.38567750  0.93528350  0.59705100  1
  P  P52  1  0.11118100  0.56127300  0.90096300  1
  P  P53  1  0.98930200  0.16262400  0.80182700  1
  P  P54  1  0.30096800  0.35054900  0.92240500  1
  P  P55  1  0.01069800  0.16262400  0.19817300  1
  P  P56  1  0.11432250  0.43528350  0.40294900  1
  P  P57  1  0.30214650  0.64880350  0.42687500  1
  P  P58  1  0.69903200  0.35054900  0.07759500  1
  P  P59  1  0.88881900  0.56127300  0.09903700  1
  P  P60  1  0.99022800  0.82995100  0.30058700  1
  P  P61  1  0.69785350  0.64880350  0.57312500  1
  P  P62  1  0.00977200  0.82995100  0.69941300  1
  P  P63  1  0.88567750  0.43528350  0.59705100  1
  O  O64  1  0.69167200  0.09702400  0.81886600  1
  O  O65  1  0.57382250  0.95617450  0.85694800  1
  O  O66  1  0.38964550  0.67717150  0.84616600  1
  O  O67  1  0.55972700  0.74967300  0.83824800  1
  O  O68  1  0.63823400  0.05091000  0.05812100  1
  O  O69  1  0.74603700  0.86343600  0.77903000  1
  O  O70  1  0.53917050  0.57029450  0.87172200  1
  O  O71  1  0.44027300  0.74967300  0.16175200  1
  O  O72  1  0.86205700  0.94718400  0.93722300  1
  O  O73  1  0.57837400  0.03989300  0.35331300  1
  O  O74  1  0.74904250  0.14087050  0.28232000  1
  O  O75  1  0.73587750  0.83068550  0.03622100  1
  O  O76  1  0.46082950  0.57029450  0.12827800  1
  O  O77  1  0.52407900  0.35088200  0.85937600  1
  O  O78  1  0.36587150  0.25497650  0.91913200  1
  O  O79  1  0.36773700  0.74494000  0.41975900  1
  O  O80  1  0.52782750  0.86081050  0.37365000  1
  O  O81  1  0.61035450  0.67717150  0.15383400  1
  O  O82  1  0.69379450  0.89393850  0.32438600  1
  O  O83  1  0.73691850  0.17168450  0.53947800  1
  O  O84  1  0.52051950  0.64466150  0.35789600  1
  O  O85  1  0.47217250  0.86081050  0.62635000  1
  O  O86  1  0.13794300  0.94718400  0.06277700  1
  O  O87  1  0.36176600  0.05091000  0.94187900  1
  O  O88  1  0.63891450  0.94930350  0.56032700  1
  O  O89  1  0.86205800  0.05381200  0.45508500  1
  O  O90  1  0.52798750  0.13804150  0.87146500  1
  O  O91  1  0.47592100  0.35088200  0.14062400  1
  O  O92  1  0.26412250  0.83068550  0.96377900  1
  O  O93  1  0.30832800  0.09702400  0.18113400  1
  O  O94  1  0.39548400  0.29679900  0.34824200  1
  O  O95  1  0.63412850  0.25497650  0.08086800  1
  O  O96  1  0.47201250  0.13804150  0.12853500  1
  O  O97  1  0.63226300  0.74494000  0.58024100  1
  O  O98  1  0.47948050  0.64466150  0.64210400  1
  O  O99  1  0.53278100  0.42653600  0.36777100  1
  O  O100  1  0.26308150  0.17168450  0.46052200  1
  O  O101  1  0.42617750  0.95617450  0.14305200  1
  O  O102  1  0.25396300  0.86343600  0.22097000  1
  O  O103  1  0.13794200  0.05381200  0.54491500  1
  O  O104  1  0.56781450  0.24951950  0.33540800  1
  O  O105  1  0.46721900  0.42653600  0.63222900  1
  O  O106  1  0.25095750  0.14087050  0.71768000  1
  O  O107  1  0.36108550  0.94930350  0.43967300  1
  O  O108  1  0.43218550  0.24951950  0.66459200  1
  O  O109  1  0.60451600  0.29679900  0.65175800  1
  O  O110  1  0.42162600  0.03989300  0.64668700  1
  O  O111  1  0.30620550  0.89393850  0.67561400  1
  O  O112  1  0.19167200  0.59702400  0.81886600  1
  O  O113  1  0.07382250  0.45617450  0.85694800  1
  O  O114  1  0.88964550  0.17717150  0.84616600  1
  O  O115  1  0.05972700  0.24967300  0.83824800  1
  O  O116  1  0.13823400  0.55091000  0.05812100  1
  O  O117  1  0.24603700  0.36343600  0.77903000  1
  O  O118  1  0.03917050  0.07029450  0.87172200  1
  O  O119  1  0.94027300  0.24967300  0.16175200  1
  O  O120  1  0.36205700  0.44718400  0.93722300  1
  O  O121  1  0.07837400  0.53989300  0.35331300  1
  O  O122  1  0.24904250  0.64087050  0.28232000  1
  O  O123  1  0.23587750  0.33068550  0.03622100  1
  O  O124  1  0.96082950  0.07029450  0.12827800  1
  O  O125  1  0.02407900  0.85088200  0.85937600  1
  O  O126  1  0.86587150  0.75497650  0.91913200  1
  O  O127  1  0.86773700  0.24494000  0.41975900  1
  O  O128  1  0.02782750  0.36081050  0.37365000  1
  O  O129  1  0.11035450  0.17717150  0.15383400  1
  O  O130  1  0.19379450  0.39393850  0.32438600  1
  O  O131  1  0.23691850  0.67168450  0.53947800  1
  O  O132  1  0.02051950  0.14466150  0.35789600  1
  O  O133  1  0.97217250  0.36081050  0.62635000  1
  O  O134  1  0.63794300  0.44718400  0.06277700  1
  O  O135  1  0.86176600  0.55091000  0.94187900  1
  O  O136  1  0.13891450  0.44930350  0.56032700  1
  O  O137  1  0.36205800  0.55381200  0.45508500  1
  O  O138  1  0.02798750  0.63804150  0.87146500  1
  O  O139  1  0.97592100  0.85088200  0.14062400  1
  O  O140  1  0.76412250  0.33068550  0.96377900  1
  O  O141  1  0.80832800  0.59702400  0.18113400  1
  O  O142  1  0.89548400  0.79679900  0.34824200  1
  O  O143  1  0.13412850  0.75497650  0.08086800  1
  O  O144  1  0.97201250  0.63804150  0.12853500  1
  O  O145  1  0.13226300  0.24494000  0.58024100  1
  O  O146  1  0.97948050  0.14466150  0.64210400  1
  O  O147  1  0.03278100  0.92653600  0.36777100  1
  O  O148  1  0.76308150  0.67168450  0.46052200  1
  O  O149  1  0.92617750  0.45617450  0.14305200  1
  O  O150  1  0.75396300  0.36343600  0.22097000  1
  O  O151  1  0.63794200  0.55381200  0.54491500  1
  O  O152  1  0.06781450  0.74951950  0.33540800  1
  O  O153  1  0.96721900  0.92653600  0.63222900  1
  O  O154  1  0.75095750  0.64087050  0.71768000  1
  O  O155  1  0.86108550  0.44930350  0.43967300  1
  O  O156  1  0.93218550  0.74951950  0.66459200  1
  O  O157  1  0.10451600  0.79679900  0.65175800  1
  O  O158  1  0.92162600  0.53989300  0.64668700  1
  O  O159  1  0.80620550  0.39393850  0.67561400  1
