# generated using pymatgen
data_LiCr2(SO4)3
_symmetry_space_group_name_H-M   'P 1'
_cell_length_a   8.67011182
_cell_length_b   8.67011182
_cell_length_c   21.50650404
_cell_angle_alpha   90.00000000
_cell_angle_beta   90.00000000
_cell_angle_gamma   120.00000000
_symmetry_Int_Tables_number   1
_chemical_formula_structural   LiCr2(SO4)3
_chemical_formula_sum   'Li6 Cr12 S18 O72'
_cell_volume   1400.07032017
_cell_formula_units_Z   6
loop_
 _symmetry_equiv_pos_site_id
 _symmetry_equiv_pos_as_xyz
  1  'x, y, z'
loop_
 _atom_site_type_symbol
 _atom_site_label
 _atom_site_symmetry_multiplicity
 _atom_site_fract_x
 _atom_site_fract_y
 _atom_site_fract_z
 _atom_site_occupancy
  Li  Li0  1  0.33333333  0.66666667  0.16666667  1
  Li  Li1  1  0.00000000  0.00000000  0.00000000  1
  Li  Li2  1  1.00000000  0.00000000  0.50000000  1
  Li  Li3  1  0.66666667  0.33333333  0.33333333  1
  Li  Li4  1  0.66666667  0.33333333  0.83333333  1
  Li  Li5  1  0.33333333  0.66666667  0.66666667  1
  Cr  Cr6  1  0.66666667  0.33333333  0.19000733  1
  Cr  Cr7  1  0.33333333  0.66666667  0.30999267  1
  Cr  Cr8  1  0.00000000  0.00000000  0.14332600  1
  Cr  Cr9  1  0.33333333  0.66666667  0.02334067  1
  Cr  Cr10  1  0.33333333  0.66666667  0.52334067  1
  Cr  Cr11  1  0.00000000  0.00000000  0.64332600  1
  Cr  Cr12  1  0.66666667  0.33333333  0.47665933  1
  Cr  Cr13  1  0.00000000  0.00000000  0.35667400  1
  Cr  Cr14  1  0.00000000  0.00000000  0.85667400  1
  Cr  Cr15  1  0.66666667  0.33333333  0.97665933  1
  Cr  Cr16  1  0.33333333  0.66666667  0.80999267  1
  Cr  Cr17  1  0.66666667  0.33333333  0.69000733  1
  S  S18  1  0.00000000  0.29451900  0.25000000  1
  S  S19  1  0.37214767  0.33333333  0.08333333  1
  S  S20  1  0.96118567  0.62785233  0.08333333  1
  S  S21  1  0.70548100  0.70548100  0.25000000  1
  S  S22  1  0.29451900  0.00000000  0.25000000  1
  S  S23  1  0.66666667  0.03881433  0.08333333  1
  S  S24  1  0.66666667  0.62785233  0.58333333  1
  S  S25  1  0.03881433  0.66666667  0.41666667  1
  S  S26  1  0.62785233  0.96118567  0.41666667  1
  S  S27  1  0.37214767  0.03881433  0.58333333  1
  S  S28  1  0.96118567  0.33333333  0.58333333  1
  S  S29  1  0.33333333  0.37214767  0.41666667  1
  S  S30  1  0.33333333  0.96118567  0.91666667  1
  S  S31  1  0.70548100  0.00000000  0.75000000  1
  S  S32  1  0.29451900  0.29451900  0.75000000  1
  S  S33  1  0.03881433  0.37214767  0.91666667  1
  S  S34  1  0.62785233  0.66666667  0.91666667  1
  S  S35  1  0.00000000  0.70548100  0.75000000  1
  O  O36  1  0.16244900  0.47542800  0.24625500  1
  O  O37  1  0.14209467  0.64631233  0.08707833  1
  O  O38  1  0.20090433  0.99959167  0.19294567  1
  O  O39  1  0.20131267  0.00040833  0.30705433  1
  O  O40  1  0.83755100  0.31297900  0.25374500  1
  O  O41  1  0.19123867  0.17088433  0.07958833  1
  O  O42  1  0.35368767  0.49578233  0.08707833  1
  O  O43  1  0.66707500  0.13242900  0.02627900  1
  O  O44  1  0.86797933  0.53423767  0.14038767  1
  O  O45  1  0.66625833  0.13202067  0.14038767  1
  O  O46  1  0.86757100  0.53464600  0.02627900  1
  O  O47  1  0.97964567  0.80876133  0.07958833  1
  O  O48  1  0.68702100  0.52457200  0.25374500  1
  O  O49  1  0.00040833  0.20131267  0.19294567  1
  O  O50  1  0.79909567  0.79868733  0.30705433  1
  O  O51  1  0.99959167  0.20090433  0.30705433  1
  O  O52  1  0.79868733  0.79909567  0.19294567  1
  O  O53  1  0.31297900  0.83755100  0.24625500  1
  O  O54  1  0.47542800  0.16244900  0.25374500  1
  O  O55  1  0.82911567  0.02035433  0.07958833  1
  O  O56  1  0.46576233  0.33374167  0.14038767  1
  O  O57  1  0.46535400  0.33292500  0.02627900  1
  O  O58  1  0.52457200  0.68702100  0.24625500  1
  O  O59  1  0.50421767  0.85790533  0.08707833  1
  O  O60  1  0.82911567  0.80876133  0.57958833  1
  O  O61  1  0.80876133  0.97964567  0.42041167  1
  O  O62  1  0.86757100  0.33292500  0.52627900  1
  O  O63  1  0.86797933  0.33374167  0.64038767  1
  O  O64  1  0.50421767  0.64631233  0.58707833  1
  O  O65  1  0.85790533  0.50421767  0.41292167  1
  O  O66  1  0.02035433  0.82911567  0.42041167  1
  O  O67  1  0.33374167  0.46576233  0.35961233  1
  O  O68  1  0.53464600  0.86757100  0.47372100  1
  O  O69  1  0.33292500  0.46535400  0.47372100  1
  O  O70  1  0.53423767  0.86797933  0.35961233  1
  O  O71  1  0.64631233  0.14209467  0.41292167  1
  O  O72  1  0.35368767  0.85790533  0.58707833  1
  O  O73  1  0.66707500  0.53464600  0.52627900  1
  O  O74  1  0.46576233  0.13202067  0.64038767  1
  O  O75  1  0.66625833  0.53423767  0.64038767  1
  O  O76  1  0.46535400  0.13242900  0.52627900  1
  O  O77  1  0.97964567  0.17088433  0.57958833  1
  O  O78  1  0.14209467  0.49578233  0.58707833  1
  O  O79  1  0.49578233  0.35368767  0.41292167  1
  O  O80  1  0.13242900  0.66707500  0.47372100  1
  O  O81  1  0.13202067  0.66625833  0.35961233  1
  O  O82  1  0.19123867  0.02035433  0.57958833  1
  O  O83  1  0.17088433  0.19123867  0.42041167  1
  O  O84  1  0.49578233  0.14209467  0.91292167  1
  O  O85  1  0.47542800  0.31297900  0.75374500  1
  O  O86  1  0.53423767  0.66625833  0.85961233  1
  O  O87  1  0.53464600  0.66707500  0.97372100  1
  O  O88  1  0.17088433  0.97964567  0.92041167  1
  O  O89  1  0.52457200  0.83755100  0.74625500  1
  O  O90  1  0.68702100  0.16244900  0.75374500  1
  O  O91  1  0.00040833  0.79909567  0.69294567  1
  O  O92  1  0.20131267  0.20090433  0.80705433  1
  O  O93  1  0.99959167  0.79868733  0.80705433  1
  O  O94  1  0.20090433  0.20131267  0.69294567  1
  O  O95  1  0.31297900  0.47542800  0.74625500  1
  O  O96  1  0.02035433  0.19123867  0.92041167  1
  O  O97  1  0.33374167  0.86797933  0.85961233  1
  O  O98  1  0.13242900  0.46535400  0.97372100  1
  O  O99  1  0.33292500  0.86757100  0.97372100  1
  O  O100  1  0.13202067  0.46576233  0.85961233  1
  O  O101  1  0.64631233  0.50421767  0.91292167  1
  O  O102  1  0.80876133  0.82911567  0.92041167  1
  O  O103  1  0.16244900  0.68702100  0.74625500  1
  O  O104  1  0.79909567  0.00040833  0.80705433  1
  O  O105  1  0.79868733  0.99959167  0.69294567  1
  O  O106  1  0.85790533  0.35368767  0.91292167  1
  O  O107  1  0.83755100  0.52457200  0.75374500  1
