# generated using pymatgen
data_Li12V3FeP4(CO7)4
_symmetry_space_group_name_H-M   'P 1'
_cell_length_a   8.48456500
_cell_length_b   6.59927200
_cell_length_c   10.01196074
_cell_angle_alpha   90.00000000
_cell_angle_beta   95.11703436
_cell_angle_gamma   90.00000000
_symmetry_Int_Tables_number   1
_chemical_formula_structural   Li12V3FeP4(CO7)4
_chemical_formula_sum   'Li12 V3 Fe1 P4 C4 O28'
_cell_volume   558.35505123
_cell_formula_units_Z   1
loop_
 _symmetry_equiv_pos_site_id
 _symmetry_equiv_pos_as_xyz
  1  'x, y, z'
loop_
 _atom_site_type_symbol
 _atom_site_label
 _atom_site_symmetry_multiplicity
 _atom_site_fract_x
 _atom_site_fract_y
 _atom_site_fract_z
 _atom_site_occupancy
  Li  Li0  1  0.09414600  0.00000000  0.61922100  1
  Li  Li1  1  0.09304300  0.00000000  0.11945700  1
  Li  Li2  1  0.27710200  0.77808100  0.87648200  1
  Li  Li3  1  0.27710200  0.22191900  0.87648200  1
  Li  Li4  1  0.27619000  0.77881400  0.37674400  1
  Li  Li5  1  0.27619000  0.22118600  0.37674400  1
  Li  Li6  1  0.72340900  0.27501800  0.62365800  1
  Li  Li7  1  0.72340900  0.72498200  0.62365800  1
  Li  Li8  1  0.72369700  0.27655000  0.12334900  1
  Li  Li9  1  0.72369700  0.72345000  0.12334900  1
  Li  Li10  1  0.90649500  0.50000000  0.88104500  1
  Li  Li11  1  0.90819900  0.50000000  0.38067400  1
  V  V12  1  0.32998400  0.50000000  0.60371900  1
  V  V13  1  0.32988800  0.50000000  0.10330300  1
  V  V14  1  0.66987600  0.00000000  0.89637000  1
  Fe  Fe15  1  0.66543100  0.00000000  0.39473200  1
  P  P16  1  0.41132200  0.00000000  0.64029300  1
  P  P17  1  0.41100900  0.00000000  0.13998500  1
  P  P18  1  0.58920400  0.50000000  0.85966200  1
  P  P19  1  0.58892900  0.50000000  0.35958900  1
  C  C20  1  0.03419800  0.50000000  0.64993500  1
  C  C21  1  0.03438300  0.50000000  0.15001200  1
  C  C22  1  0.96565200  0.00000000  0.85013100  1
  C  C23  1  0.96549000  0.00000000  0.35099200  1
  O  O24  1  0.07423000  0.50000000  0.52752200  1
  O  O25  1  0.11206100  0.00000000  0.82300700  1
  O  O26  1  0.07409100  0.50000000  0.02744800  1
  O  O27  1  0.14761400  0.50000000  0.74692700  1
  O  O28  1  0.11212000  0.00000000  0.32183100  1
  O  O29  1  0.14785100  0.50000000  0.24685400  1
  O  O30  1  0.30846300  0.81698500  0.58652800  1
  O  O31  1  0.30846300  0.18301500  0.58652800  1
  O  O32  1  0.30826500  0.81688000  0.08654200  1
  O  O33  1  0.30826500  0.18312000  0.08654200  1
  O  O34  1  0.42168200  0.50000000  0.90934000  1
  O  O35  1  0.42881200  0.00000000  0.79724100  1
  O  O36  1  0.42177000  0.50000000  0.40973000  1
  O  O37  1  0.42926000  0.00000000  0.29668000  1
  O  O38  1  0.57076200  0.50000000  0.70308100  1
  O  O39  1  0.57872700  0.00000000  0.59130900  1
  O  O40  1  0.57096300  0.50000000  0.20291600  1
  O  O41  1  0.57817100  0.00000000  0.08996800  1
  O  O42  1  0.69195600  0.68290700  0.91350500  1
  O  O43  1  0.69195600  0.31709300  0.91350500  1
  O  O44  1  0.69049800  0.31466900  0.41263500  1
  O  O45  1  0.69049800  0.68533100  0.41263500  1
  O  O46  1  0.85235800  0.00000000  0.75334600  1
  O  O47  1  0.88788600  0.50000000  0.67693700  1
  O  O48  1  0.85200400  0.00000000  0.25421500  1
  O  O49  1  0.92595500  0.00000000  0.97269600  1
  O  O50  1  0.88815500  0.50000000  0.17721400  1
  O  O51  1  0.92911500  0.00000000  0.47373100  1
