# generated using pymatgen
data_LiVCoO4
_symmetry_space_group_name_H-M   'P 1'
_cell_length_a   5.87614366
_cell_length_b   5.95530428
_cell_length_c   8.35874401
_cell_angle_alpha   90.00000000
_cell_angle_beta   90.00000000
_cell_angle_gamma   90.00000000
_symmetry_Int_Tables_number   1
_chemical_formula_structural   LiVCoO4
_chemical_formula_sum   'Li4 V4 Co4 O16'
_cell_volume   292.50775627
_cell_formula_units_Z   4
loop_
 _symmetry_equiv_pos_site_id
 _symmetry_equiv_pos_as_xyz
  1  'x, y, z'
loop_
 _atom_site_type_symbol
 _atom_site_label
 _atom_site_symmetry_multiplicity
 _atom_site_fract_x
 _atom_site_fract_y
 _atom_site_fract_z
 _atom_site_occupancy
  Li  Li0  1  0.75000000  0.25000000  0.75000000  1
  Li  Li1  1  0.25000000  0.25000000  0.75000000  1
  Li  Li2  1  0.25000000  0.75000000  0.25000000  1
  Li  Li3  1  0.75000000  0.75000000  0.25000000  1
  V  V4  1  0.00000000  0.25000000  0.12615600  1
  V  V5  1  0.00000000  0.75000000  0.87384400  1
  V  V6  1  0.50000000  0.75000000  0.62615600  1
  V  V7  1  0.50000000  0.25000000  0.37384400  1
  Co  Co8  1  0.50000000  0.00000000  0.00000000  1
  Co  Co9  1  0.50000000  0.50000000  0.00000000  1
  Co  Co10  1  0.00000000  0.50000000  0.50000000  1
  Co  Co11  1  0.00000000  0.00000000  0.50000000  1
  O  O12  1  0.50000000  0.48664700  0.25297000  1
  O  O13  1  0.00000000  0.51335300  0.75297000  1
  O  O14  1  0.00000000  0.48664700  0.24703000  1
  O  O15  1  0.50000000  0.51335300  0.74703000  1
  O  O16  1  0.24935700  0.25000000  0.00293600  1
  O  O17  1  0.24935700  0.75000000  0.99706400  1
  O  O18  1  0.75064300  0.25000000  0.00293600  1
  O  O19  1  0.75064300  0.75000000  0.99706400  1
  O  O20  1  0.00000000  0.98664700  0.75297000  1
  O  O21  1  0.50000000  0.01335300  0.25297000  1
  O  O22  1  0.50000000  0.98664700  0.74703000  1
  O  O23  1  0.00000000  0.01335300  0.24703000  1
  O  O24  1  0.74935700  0.75000000  0.50293600  1
  O  O25  1  0.74935700  0.25000000  0.49706400  1
  O  O26  1  0.25064300  0.75000000  0.50293600  1
  O  O27  1  0.25064300  0.25000000  0.49706400  1
