# generated using pymatgen
data_TlCoO3
_symmetry_space_group_name_H-M   'P 1'
_cell_length_a   5.22905178
_cell_length_b   5.22905178
_cell_length_c   14.81044148
_cell_angle_alpha   90.00000000
_cell_angle_beta   90.00000000
_cell_angle_gamma   120.00000000
_symmetry_Int_Tables_number   1
_chemical_formula_structural   TlCoO3
_chemical_formula_sum   'Tl6 Co6 O18'
_cell_volume   350.70707006
_cell_formula_units_Z   6
loop_
 _symmetry_equiv_pos_site_id
 _symmetry_equiv_pos_as_xyz
  1  'x, y, z'
loop_
 _atom_site_type_symbol
 _atom_site_label
 _atom_site_symmetry_multiplicity
 _atom_site_fract_x
 _atom_site_fract_y
 _atom_site_fract_z
 _atom_site_occupancy
  Tl  Tl0  1  0.66666667  0.33333333  0.20668333  1
  Tl  Tl1  1  0.00000000  0.00000000  0.12665000  1
  Tl  Tl2  1  0.33333333  0.66666667  0.54001667  1
  Tl  Tl3  1  0.66666667  0.33333333  0.45998333  1
  Tl  Tl4  1  0.00000000  0.00000000  0.87335000  1
  Tl  Tl5  1  0.33333333  0.66666667  0.79331667  1
  Co  Co6  1  0.33333333  0.66666667  0.32746767  1
  Co  Co7  1  0.33333333  0.66666667  0.00586567  1
  Co  Co8  1  0.00000000  0.00000000  0.66080100  1
  Co  Co9  1  0.00000000  0.00000000  0.33919900  1
  Co  Co10  1  0.66666667  0.33333333  0.99413433  1
  Co  Co11  1  0.66666667  0.33333333  0.67253233  1
  O  O12  1  0.04854633  0.31698167  0.26127067  1
  O  O13  1  0.68301833  0.73156467  0.26127067  1
  O  O14  1  0.26843533  0.95145367  0.26127067  1
  O  O15  1  0.39823133  0.38187967  0.07206267  1
  O  O16  1  0.98364833  0.60176867  0.07206267  1
  O  O17  1  0.61812033  0.01635167  0.07206267  1
  O  O18  1  0.71521300  0.65031500  0.59460400  1
  O  O19  1  0.34968500  0.06489800  0.59460400  1
  O  O20  1  0.93510200  0.28478700  0.59460400  1
  O  O21  1  0.06489800  0.71521300  0.40539600  1
  O  O22  1  0.65031500  0.93510200  0.40539600  1
  O  O23  1  0.28478700  0.34968500  0.40539600  1
  O  O24  1  0.38187967  0.98364833  0.92793733  1
  O  O25  1  0.01635167  0.39823133  0.92793733  1
  O  O26  1  0.60176867  0.61812033  0.92793733  1
  O  O27  1  0.73156467  0.04854633  0.73872933  1
  O  O28  1  0.31698167  0.26843533  0.73872933  1
  O  O29  1  0.95145367  0.68301833  0.73872933  1
