# generated using pymatgen
data_LiMn2(PO4)2
_symmetry_space_group_name_H-M   'P 1'
_cell_length_a   7.32672221
_cell_length_b   8.47626741
_cell_length_c   8.56841594
_cell_angle_alpha   119.47013225
_cell_angle_beta   92.76840591
_cell_angle_gamma   92.58639726
_symmetry_Int_Tables_number   1
_chemical_formula_structural   LiMn2(PO4)2
_chemical_formula_sum   'Li3 Mn6 P6 O24'
_cell_volume   461.28099107
_cell_formula_units_Z   3
loop_
 _symmetry_equiv_pos_site_id
 _symmetry_equiv_pos_as_xyz
  1  'x, y, z'
loop_
 _atom_site_type_symbol
 _atom_site_label
 _atom_site_symmetry_multiplicity
 _atom_site_fract_x
 _atom_site_fract_y
 _atom_site_fract_z
 _atom_site_occupancy
  Li  Li0  1  0.06507954  0.66519522  0.02240760  1
  Li  Li1  1  0.08764420  0.30609910  0.66366150  1
  Li  Li2  1  0.59319915  0.34717864  0.98174323  1
  Mn  Mn3  1  0.74394727  0.98111252  0.02655368  1
  Mn  Mn4  1  0.27903885  0.98572729  0.00971725  1
  Mn  Mn5  1  0.79522529  0.32623636  0.34970913  1
  Mn  Mn6  1  0.21937680  0.32679681  0.32838903  1
  Mn  Mn7  1  0.71271285  0.68722702  0.64557974  1
  Mn  Mn8  1  0.30383253  0.65640428  0.67053600  1
  P  P9  1  0.50169267  0.03601662  0.31985199  1
  P  P10  1  0.49820098  0.64516611  0.03957830  1
  P  P11  1  0.99815711  0.68018256  0.35645871  1
  P  P12  1  0.50954123  0.32617195  0.65272058  1
  P  P13  1  0.98944993  0.35737192  0.95180432  1
  P  P14  1  0.01814082  0.95877422  0.67646598  1
  O  O15  1  0.95393296  0.15397124  0.03079633  1
  O  O16  1  0.02155474  0.41124671  0.09986467  1
  O  O17  1  0.66205972  0.18012899  0.25952145  1
  O  O18  1  0.32121055  0.13284281  0.28841660  1
  O  O19  1  0.32547163  0.58877987  0.14312185  1
  O  O20  1  0.67532951  0.54774045  0.15702371  1
  O  O21  1  0.98740040  0.12269928  0.48166758  1
  O  O22  1  0.00521512  0.79627783  0.14963079  1
  O  O23  1  0.99153839  0.47224404  0.40535074  1
  O  O24  1  0.50123749  0.95298226  0.19615615  1
  O  O25  1  0.67195445  0.29398764  0.57324976  1
  O  O26  1  0.32360953  0.29679134  0.57370530  1
  O  O27  1  0.83309867  0.72967937  0.41870976  1
  O  O28  1  0.18209465  0.70859472  0.44427887  1
  O  O29  1  0.06096059  0.03549057  0.80637268  1
  O  O30  1  0.50666404  0.53400640  0.61169990  1
  O  O31  1  0.51935926  0.20523704  0.86079447  1
  O  O32  1  0.53350267  0.88514010  0.52078412  1
  O  O33  1  0.14739320  0.41418993  0.82509089  1
  O  O34  1  0.80986765  0.45919809  0.83669388  1
  O  O35  1  0.84693609  0.83465083  0.73693428  1
  O  O36  1  0.18216262  0.83537562  0.70586777  1
  O  O37  1  0.47816225  0.59107465  0.88605745  1
  O  O38  1  0.52286663  0.85122659  0.95568495  1
