# generated using pymatgen
data_Mg5Ti13O30
_symmetry_space_group_name_H-M   'P 1'
_cell_length_a   5.25633800
_cell_length_b   10.10629800
_cell_length_c   10.67672207
_cell_angle_alpha   90.00000000
_cell_angle_beta   96.19062860
_cell_angle_gamma   90.00000000
_symmetry_Int_Tables_number   1
_chemical_formula_structural   Mg5Ti13O30
_chemical_formula_sum   'Mg5 Ti13 O30'
_cell_volume   563.86270517
_cell_formula_units_Z   1
loop_
 _symmetry_equiv_pos_site_id
 _symmetry_equiv_pos_as_xyz
  1  'x, y, z'
loop_
 _atom_site_type_symbol
 _atom_site_label
 _atom_site_symmetry_multiplicity
 _atom_site_fract_x
 _atom_site_fract_y
 _atom_site_fract_z
 _atom_site_occupancy
  Mg  Mg0  1  0.32309400  0.00000000  0.93425500  1
  Mg  Mg1  1  0.34035100  0.50000000  0.73147800  1
  Mg  Mg2  1  0.00942000  0.50000000  0.39972200  1
  Mg  Mg3  1  0.99143600  0.00000000  0.60360900  1
  Mg  Mg4  1  0.67277800  0.50000000  0.06418000  1
  Ti  Ti5  1  0.22701600  0.31691400  0.95444700  1
  Ti  Ti6  1  0.22701600  0.68308600  0.95444700  1
  Ti  Ti7  1  0.44280800  0.81773400  0.71121900  1
  Ti  Ti8  1  0.44280800  0.18226600  0.71121900  1
  Ti  Ti9  1  0.10760300  0.81137600  0.38105400  1
  Ti  Ti10  1  0.10760300  0.18862400  0.38105400  1
  Ti  Ti11  1  0.89027200  0.31730300  0.62335800  1
  Ti  Ti12  1  0.56177400  0.68191800  0.28652300  1
  Ti  Ti13  1  0.89027200  0.68269700  0.62335800  1
  Ti  Ti14  1  0.56177400  0.31808200  0.28652300  1
  Ti  Ti15  1  0.65848500  0.00000000  0.26789100  1
  Ti  Ti16  1  0.77800100  0.81195800  0.04213300  1
  Ti  Ti17  1  0.77800100  0.18804200  0.04213300  1
  O  O18  1  0.07483400  0.13661800  0.98497300  1
  O  O19  1  0.07483400  0.86338200  0.98497300  1
  O  O20  1  0.14583500  0.68696900  0.77063400  1
  O  O21  1  0.14583500  0.31303100  0.77063400  1
  O  O22  1  0.36711400  0.50000000  0.92626300  1
  O  O23  1  0.03350600  0.50000000  0.59269900  1
  O  O24  1  0.29919600  0.00000000  0.74037400  1
  O  O25  1  0.52238400  0.81590000  0.89683500  1
  O  O26  1  0.52238400  0.18410000  0.89683500  1
  O  O27  1  0.18808200  0.18326300  0.56119300  1
  O  O28  1  0.18808200  0.81673700  0.56119300  1
  O  O29  1  0.59080200  0.36331800  0.68196300  1
  O  O30  1  0.59080200  0.63668200  0.68196300  1
  O  O31  1  0.25913300  0.36100000  0.34748900  1
  O  O32  1  0.25913300  0.63900000  0.34748900  1
  O  O33  1  0.74200200  0.13696300  0.65116400  1
  O  O34  1  0.74200200  0.86303700  0.65116400  1
  O  O35  1  0.41457000  0.13011400  0.31715800  1
  O  O36  1  0.41457000  0.86988600  0.31715800  1
  O  O37  1  0.47909000  0.68545200  0.10454800  1
  O  O38  1  0.81597400  0.31201000  0.43659300  1
  O  O39  1  0.81597400  0.68799000  0.43659300  1
  O  O40  1  0.47909000  0.31454800  0.10454800  1
  O  O41  1  0.70256200  0.50000000  0.26029300  1
  O  O42  1  0.95019100  0.00000000  0.40235700  1
  O  O43  1  0.62501700  0.00000000  0.08268900  1
  O  O44  1  0.84842500  0.81927700  0.22994000  1
  O  O45  1  0.84842500  0.18072300  0.22994000  1
  O  O46  1  0.92481900  0.36339500  0.01587000  1
  O  O47  1  0.92481900  0.63660500  0.01587000  1
