# generated using pymatgen
data_Mn2Fe3Co(PO4)6
_symmetry_space_group_name_H-M   'P 1'
_cell_length_a   8.60158179
_cell_length_b   8.60158179
_cell_length_c   20.80650051
_cell_angle_alpha   90.00000000
_cell_angle_beta   90.00000000
_cell_angle_gamma   120.00000000
_symmetry_Int_Tables_number   1
_chemical_formula_structural   Mn2Fe3Co(PO4)6
_chemical_formula_sum   'Mn6 Fe9 Co3 P18 O72'
_cell_volume   1333.17241859
_cell_formula_units_Z   3
loop_
 _symmetry_equiv_pos_site_id
 _symmetry_equiv_pos_as_xyz
  1  'x, y, z'
loop_
 _atom_site_type_symbol
 _atom_site_label
 _atom_site_symmetry_multiplicity
 _atom_site_fract_x
 _atom_site_fract_y
 _atom_site_fract_z
 _atom_site_occupancy
  Mn  Mn0  1  0.33333333  0.66666667  0.66651567  1
  Mn  Mn1  1  0.33333333  0.66666667  0.16692167  1
  Mn  Mn2  1  0.00000000  0.00000000  0.99984900  1
  Mn  Mn3  1  0.00000000  0.00000000  0.50025500  1
  Mn  Mn4  1  0.66666667  0.33333333  0.33318233  1
  Mn  Mn5  1  0.66666667  0.33333333  0.83358833  1
  Fe  Fe6  1  0.33333333  0.66666667  0.31285467  1
  Fe  Fe7  1  0.33333333  0.66666667  0.52272467  1
  Fe  Fe8  1  0.33333333  0.66666667  0.02186867  1
  Fe  Fe9  1  0.00000000  0.00000000  0.64618800  1
  Fe  Fe10  1  0.00000000  0.00000000  0.85605800  1
  Fe  Fe11  1  0.00000000  0.00000000  0.35520200  1
  Fe  Fe12  1  0.66666667  0.33333333  0.97952133  1
  Fe  Fe13  1  0.66666667  0.33333333  0.18939133  1
  Fe  Fe14  1  0.66666667  0.33333333  0.68853533  1
  Co  Co15  1  0.33333333  0.66666667  0.80748167  1
  Co  Co16  1  0.00000000  0.00000000  0.14081500  1
  Co  Co17  1  0.66666667  0.33333333  0.47414833  1
  P  P18  1  0.71020533  0.71149767  0.24813967  1
  P  P19  1  0.28850233  0.99870767  0.24813967  1
  P  P20  1  0.00129233  0.28979467  0.24813967  1
  P  P21  1  0.66908867  0.03811733  0.08533533  1
  P  P22  1  0.36902867  0.33091133  0.08533533  1
  P  P23  1  0.96188267  0.63097133  0.08533533  1
  P  P24  1  0.37687200  0.04483100  0.58147300  1
  P  P25  1  0.95516900  0.33204100  0.58147300  1
  P  P26  1  0.66795900  0.62312800  0.58147300  1
  P  P27  1  0.33575533  0.37145067  0.41866867  1
  P  P28  1  0.03569533  0.66424467  0.41866867  1
  P  P29  1  0.62854933  0.96430467  0.41866867  1
  P  P30  1  0.04353867  0.37816433  0.91480633  1
  P  P31  1  0.62183567  0.66537433  0.91480633  1
  P  P32  1  0.33462567  0.95646133  0.91480633  1
  P  P33  1  0.00242200  0.70478400  0.75200200  1
  P  P34  1  0.70236200  0.99757800  0.75200200  1
  P  P35  1  0.29521600  0.29763800  0.75200200  1
  O  O36  1  0.52327033  0.65609867  0.97680267  1
  O  O37  1  0.34390133  0.86717167  0.97680267  1
  O  O38  1  0.13282833  0.47672967  0.97680267  1
  O  O39  1  0.68755033  0.52068967  0.25636267  1
  O  O40  1  0.80840267  0.80737233  0.18647833  1
  O  O41  1  0.51720067  0.68623233  0.24123433  1
  O  O42  1  0.47931033  0.16686067  0.25636267  1
  O  O43  1  0.31376767  0.83096833  0.24123433  1
  O  O44  1  0.67274900  0.13832700  0.14579500  1
  O  O45  1  0.16903167  0.48279933  0.24123433  1
  O  O46  1  0.83914300  0.01596700  0.07839900  1
  O  O47  1  0.46557800  0.32725100  0.14579500  1
  O  O48  1  0.19262767  0.00103033  0.18647833  1
  O  O49  1  0.83313933  0.31244967  0.25636267  1
  O  O50  1  0.50121800  0.84657700  0.09190100  1
  O  O51  1  0.99896967  0.19159733  0.18647833  1
  O  O52  1  0.34535900  0.49878200  0.09190100  1
  O  O53  1  0.17682400  0.16085700  0.07839900  1
  O  O54  1  0.15342300  0.65464100  0.09190100  1
  O  O55  1  0.86167300  0.53442200  0.14579500  1
  O  O56  1  0.98403300  0.82317600  0.07839900  1
  O  O57  1  0.53394433  0.86752767  0.35676367  1
  O  O58  1  0.33358333  0.46605567  0.35676367  1
  O  O59  1  0.13247233  0.66641667  0.35676367  1
  O  O60  1  0.18993700  0.98943200  0.31013600  1
  O  O61  1  0.01056800  0.20050500  0.31013600  1
  O  O62  1  0.79949500  0.81006300  0.31013600  1
  O  O63  1  0.35421700  0.85402300  0.58969600  1
  O  O64  1  0.47506933  0.14070567  0.51981167  1
  O  O65  1  0.18386733  0.01956567  0.57456767  1
  O  O66  1  0.14597700  0.50019400  0.58969600  1
  O  O67  1  0.98043433  0.16430167  0.57456767  1
  O  O68  1  0.33941567  0.47166033  0.47912833  1
  O  O69  1  0.83569833  0.81613267  0.57456767  1
  O  O70  1  0.50580967  0.34930033  0.41173233  1
  O  O71  1  0.13224467  0.66058433  0.47912833  1
  O  O72  1  0.85929433  0.33436367  0.51981167  1
  O  O73  1  0.49980600  0.64578300  0.58969600  1
  O  O74  1  0.16788467  0.17991033  0.42523433  1
  O  O75  1  0.66563633  0.52493067  0.51981167  1
  O  O76  1  0.01202567  0.83211533  0.42523433  1
  O  O77  1  0.84349067  0.49419033  0.41173233  1
  O  O78  1  0.82008967  0.98797433  0.42523433  1
  O  O79  1  0.52833967  0.86775533  0.47912833  1
  O  O80  1  0.65069967  0.15650933  0.41173233  1
  O  O81  1  0.20061100  0.20086100  0.69009700  1
  O  O82  1  0.00025000  0.79938900  0.69009700  1
  O  O83  1  0.79913900  0.99975000  0.69009700  1
  O  O84  1  0.85660367  0.32276533  0.64346933  1
  O  O85  1  0.67723467  0.53383833  0.64346933  1
  O  O86  1  0.46616167  0.14339633  0.64346933  1
  O  O87  1  0.02088367  0.18735633  0.92302933  1
  O  O88  1  0.14173600  0.47403900  0.85314500  1
  O  O89  1  0.85053400  0.35289900  0.90790100  1
  O  O90  1  0.81264367  0.83352733  0.92302933  1
  O  O91  1  0.64710100  0.49763500  0.90790100  1
  O  O92  1  0.00608233  0.80499367  0.81246167  1
  O  O93  1  0.50236500  0.14946600  0.90790100  1
  O  O94  1  0.17247633  0.68263367  0.74506567  1
  O  O95  1  0.79891133  0.99391767  0.81246167  1
  O  O96  1  0.52596100  0.66769700  0.85314500  1
  O  O97  1  0.16647267  0.97911633  0.92302933  1
  O  O98  1  0.83455133  0.51324367  0.75856767  1
  O  O99  1  0.33230300  0.85826400  0.85314500  1
  O  O100  1  0.67869233  0.16544867  0.75856767  1
  O  O101  1  0.51015733  0.82752367  0.74506567  1
  O  O102  1  0.48675633  0.32130767  0.75856767  1
  O  O103  1  0.19500633  0.20108867  0.81246167  1
  O  O104  1  0.31736633  0.48984267  0.74506567  1
  O  O105  1  0.86727767  0.53419433  0.02343033  1
  O  O106  1  0.66691667  0.13272233  0.02343033  1
  O  O107  1  0.46580567  0.33308333  0.02343033  1
