# generated using pymatgen
data_Li5FeO3F
_symmetry_space_group_name_H-M   'P 1'
_cell_length_a   7.43947824
_cell_length_b   8.00747233
_cell_length_c   6.66700000
_cell_angle_alpha   90.00000000
_cell_angle_beta   90.00000000
_cell_angle_gamma   90.00000000
_symmetry_Int_Tables_number   1
_chemical_formula_structural   Li5FeO3F
_chemical_formula_sum   'Li20 Fe4 O12 F4'
_cell_volume   397.16263158
_cell_formula_units_Z   4
loop_
 _symmetry_equiv_pos_site_id
 _symmetry_equiv_pos_as_xyz
  1  'x, y, z'
loop_
 _atom_site_type_symbol
 _atom_site_label
 _atom_site_symmetry_multiplicity
 _atom_site_fract_x
 _atom_site_fract_y
 _atom_site_fract_z
 _atom_site_occupancy
  Li  Li0  1  0.94448450  0.93525100  0.25000000  1
  Li  Li1  1  0.98950900  0.64578400  0.25000000  1
  Li  Li2  1  0.98950900  0.35421600  0.75000000  1
  Li  Li3  1  0.94448450  0.06474900  0.75000000  1
  Li  Li4  1  0.66995100  0.50000000  0.00000000  1
  Li  Li5  1  0.66995100  0.50000000  0.50000000  1
  Li  Li6  1  0.24149000  0.64778500  0.02070100  1
  Li  Li7  1  0.24149000  0.64778500  0.47929900  1
  Li  Li8  1  0.24149000  0.35221500  0.97929900  1
  Li  Li9  1  0.24149000  0.35221500  0.52070100  1
  Li  Li10  1  0.44448450  0.43525100  0.25000000  1
  Li  Li11  1  0.48950900  0.14578400  0.25000000  1
  Li  Li12  1  0.48950900  0.85421600  0.75000000  1
  Li  Li13  1  0.44448450  0.56474900  0.75000000  1
  Li  Li14  1  0.16995100  0.00000000  0.00000000  1
  Li  Li15  1  0.16995100  0.00000000  0.50000000  1
  Li  Li16  1  0.74149000  0.14778500  0.02070100  1
  Li  Li17  1  0.74149000  0.14778500  0.47929900  1
  Li  Li18  1  0.74149000  0.85221500  0.97929900  1
  Li  Li19  1  0.74149000  0.85221500  0.52070100  1
  Fe  Fe20  1  0.00489600  0.69892500  0.75000000  1
  Fe  Fe21  1  0.00489600  0.30107500  0.25000000  1
  Fe  Fe22  1  0.50489600  0.19892500  0.75000000  1
  Fe  Fe23  1  0.50489600  0.80107500  0.25000000  1
  O  O24  1  0.19690500  0.50705300  0.75000000  1
  O  O25  1  0.19690500  0.49294700  0.25000000  1
  O  O26  1  0.00635050  0.79904200  0.48545000  1
  O  O27  1  0.00635050  0.79904200  0.01455000  1
  O  O28  1  0.00635050  0.20095800  0.98545000  1
  O  O29  1  0.00635050  0.20095800  0.51455000  1
  O  O30  1  0.69690500  0.00705300  0.75000000  1
  O  O31  1  0.69690500  0.99294700  0.25000000  1
  O  O32  1  0.50635050  0.29904200  0.48545000  1
  O  O33  1  0.50635050  0.29904200  0.01455000  1
  O  O34  1  0.50635050  0.70095800  0.98545000  1
  O  O35  1  0.50635050  0.70095800  0.51455000  1
  F  F36  1  0.79135450  0.49936700  0.75000000  1
  F  F37  1  0.79135450  0.50063300  0.25000000  1
  F  F38  1  0.29135450  0.99936700  0.75000000  1
  F  F39  1  0.29135450  0.00063300  0.25000000  1
