# generated using pymatgen
data_Li3V2(PO4)3
_symmetry_space_group_name_H-M   'P 1'
_cell_length_a   14.90801800
_cell_length_b   8.77831000
_cell_length_c   8.69052782
_cell_angle_alpha   90.00000000
_cell_angle_beta   123.60361223
_cell_angle_gamma   90.00000000
_symmetry_Int_Tables_number   1
_chemical_formula_structural   Li3V2(PO4)3
_chemical_formula_sum   'Li12 V8 P12 O48'
_cell_volume   947.24587138
_cell_formula_units_Z   4
loop_
 _symmetry_equiv_pos_site_id
 _symmetry_equiv_pos_as_xyz
  1  'x, y, z'
loop_
 _atom_site_type_symbol
 _atom_site_label
 _atom_site_symmetry_multiplicity
 _atom_site_fract_x
 _atom_site_fract_y
 _atom_site_fract_z
 _atom_site_occupancy
  Li  Li0  1  0.69175800  0.92963500  0.69758200  1
  Li  Li1  1  0.54378550  0.35002550  0.26520300  1
  Li  Li2  1  0.69175800  0.07036500  0.19758200  1
  Li  Li3  1  0.54378550  0.64997450  0.76520300  1
  Li  Li4  1  0.28648400  0.77382000  0.58713700  1
  Li  Li5  1  0.28648400  0.22618000  0.08713700  1
  Li  Li6  1  0.19175800  0.42963500  0.69758200  1
  Li  Li7  1  0.04378550  0.85002550  0.26520300  1
  Li  Li8  1  0.19175800  0.57036500  0.19758200  1
  Li  Li9  1  0.04378550  0.14997450  0.76520300  1
  Li  Li10  1  0.78648400  0.27382000  0.58713700  1
  Li  Li11  1  0.78648400  0.72618000  0.08713700  1
  V  V12  1  0.60685650  0.24914050  0.64124200  1
  V  V13  1  0.60685650  0.75085950  0.14124200  1
  V  V14  1  0.39280500  0.24859600  0.85921400  1
  V  V15  1  0.39280500  0.75140400  0.35921400  1
  V  V16  1  0.10685650  0.74914050  0.64124200  1
  V  V17  1  0.10685650  0.25085950  0.14124200  1
  V  V18  1  0.89280500  0.74859600  0.85921400  1
  V  V19  1  0.89280500  0.25140400  0.35921400  1
  P  P20  1  0.14505500  0.10513500  0.54364500  1
  P  P21  1  0.14505500  0.89486500  0.04364500  1
  P  P22  1  0.50310700  0.04499800  0.24994000  1
  P  P23  1  0.50310700  0.95500200  0.74994000  1
  P  P24  1  0.85448950  0.10552250  0.95952100  1
  P  P25  1  0.85448950  0.89447750  0.45952100  1
  P  P26  1  0.64505500  0.60513500  0.54364500  1
  P  P27  1  0.64505500  0.39486500  0.04364500  1
  P  P28  1  0.00310700  0.54499800  0.24994000  1
  P  P29  1  0.00310700  0.45500200  0.74994000  1
  P  P30  1  0.35448950  0.60552250  0.95952100  1
  P  P31  1  0.35448950  0.39447750  0.45952100  1
  O  O32  1  0.23395400  0.18564500  0.72391600  1
  O  O33  1  0.64116800  0.65315300  0.37146400  1
  O  O34  1  0.15991050  0.92817650  0.55467300  1
  O  O35  1  0.15991050  0.07182350  0.05467300  1
  O  O36  1  0.23395400  0.81435500  0.22391600  1
  O  O37  1  0.58816350  0.15151250  0.40917900  1
  O  O38  1  0.53952650  0.34934850  0.02868700  1
  O  O39  1  0.64116800  0.34684700  0.87146400  1
  O  O40  1  0.56825100  0.95995200  0.18631600  1
  O  O41  1  0.53952650  0.65065150  0.52868700  1
  O  O42  1  0.44573050  0.93929050  0.30593600  1
  O  O43  1  0.41816000  0.15617500  0.09803100  1
  O  O44  1  0.58816350  0.84848750  0.90917900  1
  O  O45  1  0.56825100  0.04004800  0.68631600  1
  O  O46  1  0.44573050  0.06070950  0.80593600  1
  O  O47  1  0.45961550  0.34156950  0.48295300  1
  O  O48  1  0.84621250  0.14822550  0.12179100  1
  O  O49  1  0.45961550  0.65843050  0.98295300  1
  O  O50  1  0.41816000  0.84382500  0.59803100  1
  O  O51  1  0.83722600  0.92860700  0.93777700  1
  O  O52  1  0.76154050  0.17070950  0.76840500  1
  O  O53  1  0.83722600  0.07139300  0.43777700  1
  O  O54  1  0.84621250  0.85177450  0.62179100  1
  O  O55  1  0.76154050  0.82929050  0.26840500  1
  O  O56  1  0.73395400  0.68564500  0.72391600  1
  O  O57  1  0.14116800  0.15315300  0.37146400  1
  O  O58  1  0.65991050  0.42817650  0.55467300  1
  O  O59  1  0.65991050  0.57182350  0.05467300  1
  O  O60  1  0.73395400  0.31435500  0.22391600  1
  O  O61  1  0.08816350  0.65151250  0.40917900  1
  O  O62  1  0.03952650  0.84934850  0.02868700  1
  O  O63  1  0.14116800  0.84684700  0.87146400  1
  O  O64  1  0.06825100  0.45995200  0.18631600  1
  O  O65  1  0.03952650  0.15065150  0.52868700  1
  O  O66  1  0.94573050  0.43929050  0.30593600  1
  O  O67  1  0.91816000  0.65617500  0.09803100  1
  O  O68  1  0.08816350  0.34848750  0.90917900  1
  O  O69  1  0.06825100  0.54004800  0.68631600  1
  O  O70  1  0.94573050  0.56070950  0.80593600  1
  O  O71  1  0.95961550  0.84156950  0.48295300  1
  O  O72  1  0.34621250  0.64822550  0.12179100  1
  O  O73  1  0.95961550  0.15843050  0.98295300  1
  O  O74  1  0.91816000  0.34382500  0.59803100  1
  O  O75  1  0.33722600  0.42860700  0.93777700  1
  O  O76  1  0.26154050  0.67070950  0.76840500  1
  O  O77  1  0.33722600  0.57139300  0.43777700  1
  O  O78  1  0.34621250  0.35177450  0.62179100  1
  O  O79  1  0.26154050  0.32929050  0.26840500  1
