# generated using pymatgen
data_Li3V(FeO3)2
_symmetry_space_group_name_H-M   'P 1'
_cell_length_a   12.97693800
_cell_length_b   3.00188800
_cell_length_c   6.02210589
_cell_angle_alpha   90.00000000
_cell_angle_beta   103.82193915
_cell_angle_gamma   90.00000000
_symmetry_Int_Tables_number   1
_chemical_formula_structural   Li3V(FeO3)2
_chemical_formula_sum   'Li6 V2 Fe4 O12'
_cell_volume   227.79988833
_cell_formula_units_Z   2
loop_
 _symmetry_equiv_pos_site_id
 _symmetry_equiv_pos_as_xyz
  1  'x, y, z'
loop_
 _atom_site_type_symbol
 _atom_site_label
 _atom_site_symmetry_multiplicity
 _atom_site_fract_x
 _atom_site_fract_y
 _atom_site_fract_z
 _atom_site_occupancy
  Li  Li0  1  0.00000000  0.00000000  0.00000000  1
  Li  Li1  1  0.16508300  0.50000000  0.32848700  1
  Li  Li2  1  0.33491700  0.00000000  0.67151300  1
  Li  Li3  1  0.50000000  0.50000000  0.00000000  1
  Li  Li4  1  0.66508300  0.00000000  0.32848700  1
  Li  Li5  1  0.83491700  0.50000000  0.67151300  1
  V  V6  1  0.00000000  0.00000000  0.50000000  1
  V  V7  1  0.50000000  0.50000000  0.50000000  1
  Fe  Fe8  1  0.16902600  0.50000000  0.84502800  1
  Fe  Fe9  1  0.33097400  0.00000000  0.15497200  1
  Fe  Fe10  1  0.66902600  0.00000000  0.84502800  1
  Fe  Fe11  1  0.83097400  0.50000000  0.15497200  1
  O  O12  1  0.15238900  0.00000000  0.58436500  1
  O  O13  1  0.33262600  0.50000000  0.92350900  1
  O  O14  1  0.34761100  0.50000000  0.41563500  1
  O  O15  1  0.49960300  0.00000000  0.27546900  1
  O  O16  1  0.00039700  0.50000000  0.72453100  1
  O  O17  1  0.16737400  0.00000000  0.07649100  1
  O  O18  1  0.65238900  0.50000000  0.58436500  1
  O  O19  1  0.83262600  0.00000000  0.92350900  1
  O  O20  1  0.84761100  0.00000000  0.41563500  1
  O  O21  1  0.99960300  0.50000000  0.27546900  1
  O  O22  1  0.50039700  0.00000000  0.72453100  1
  O  O23  1  0.66737400  0.50000000  0.07649100  1
