# generated using pymatgen
data_Li2MnFe(BO3)2
_symmetry_space_group_name_H-M   'P 1'
_cell_length_a   5.17081659
_cell_length_b   5.24091680
_cell_length_c   11.05133545
_cell_angle_alpha   76.85824082
_cell_angle_beta   78.86301750
_cell_angle_gamma   60.67927473
_symmetry_Int_Tables_number   1
_chemical_formula_structural   Li2MnFe(BO3)2
_chemical_formula_sum   'Li4 Mn2 Fe2 B4 O12'
_cell_volume   253.10028442
_cell_formula_units_Z   2
loop_
 _symmetry_equiv_pos_site_id
 _symmetry_equiv_pos_as_xyz
  1  'x, y, z'
loop_
 _atom_site_type_symbol
 _atom_site_label
 _atom_site_symmetry_multiplicity
 _atom_site_fract_x
 _atom_site_fract_y
 _atom_site_fract_z
 _atom_site_occupancy
  Li  Li0  1  0.39182100  0.53967700  0.84037400  1
  Li  Li1  1  0.60817900  0.46032300  0.15962600  1
  Li  Li2  1  0.09875600  0.96635200  0.66668000  1
  Li  Li3  1  0.90124400  0.03364800  0.33332000  1
  Mn  Mn4  1  0.22409800  0.36324300  0.38328700  1
  Mn  Mn5  1  0.77590200  0.63675700  0.61671300  1
  Fe  Fe6  1  0.71937200  0.86420700  0.88348800  1
  Fe  Fe7  1  0.28062800  0.13579300  0.11651200  1
  B  B8  1  0.05570000  0.21026900  0.87262300  1
  B  B9  1  0.94430000  0.78973100  0.12737700  1
  B  B10  1  0.43957100  0.29360600  0.63362200  1
  B  B11  1  0.56042900  0.70639400  0.36637800  1
  O  O12  1  0.79655700  0.47535100  0.84582400  1
  O  O13  1  0.20344300  0.52464900  0.15417600  1
  O  O14  1  0.29303600  0.21693000  0.91309700  1
  O  O15  1  0.70696400  0.78307000  0.08690300  1
  O  O16  1  0.08255500  0.94691100  0.85364700  1
  O  O17  1  0.91744500  0.05308900  0.14635300  1
  O  O18  1  0.69761700  0.03300200  0.66256300  1
  O  O19  1  0.30238300  0.96699800  0.33743700  1
  O  O20  1  0.40256100  0.56254100  0.65174700  1
  O  O21  1  0.59743900  0.43745900  0.34825300  1
  O  O22  1  0.21029900  0.28078200  0.58876100  1
  O  O23  1  0.78970100  0.71921800  0.41123900  1
