# generated using pymatgen
data_Li2V3WO8
_symmetry_space_group_name_H-M   'P 1'
_cell_length_a   6.03942663
_cell_length_b   6.03942663
_cell_length_c   15.08021252
_cell_angle_alpha   90.00000000
_cell_angle_beta   90.00000000
_cell_angle_gamma   120.00000000
_symmetry_Int_Tables_number   1
_chemical_formula_structural   Li2V3WO8
_chemical_formula_sum   'Li6 V9 W3 O24'
_cell_volume   476.35366683
_cell_formula_units_Z   3
loop_
 _symmetry_equiv_pos_site_id
 _symmetry_equiv_pos_as_xyz
  1  'x, y, z'
loop_
 _atom_site_type_symbol
 _atom_site_label
 _atom_site_symmetry_multiplicity
 _atom_site_fract_x
 _atom_site_fract_y
 _atom_site_fract_z
 _atom_site_occupancy
  Li  Li0  1  0.66666667  0.33333333  0.46264450  1
  Li  Li1  1  0.33333333  0.66666667  0.53735550  1
  Li  Li2  1  0.33333333  0.66666667  0.79597783  1
  Li  Li3  1  0.00000000  0.00000000  0.87068883  1
  Li  Li4  1  0.00000000  0.00000000  0.12931117  1
  Li  Li5  1  0.66666667  0.33333333  0.20402217  1
  V  V6  1  0.16666667  0.33333333  0.33333333  1
  V  V7  1  0.33333333  0.16666667  0.66666667  1
  V  V8  1  0.16666667  0.83333333  0.33333333  1
  V  V9  1  0.83333333  0.66666667  0.66666667  1
  V  V10  1  0.00000000  0.50000000  0.00000000  1
  V  V11  1  0.83333333  0.16666667  0.66666667  1
  V  V12  1  0.50000000  0.00000000  0.00000000  1
  V  V13  1  0.66666667  0.83333333  0.33333333  1
  V  V14  1  0.50000000  0.50000000  0.00000000  1
  W  W15  1  0.00000000  0.00000000  0.50000000  1
  W  W16  1  0.66666667  0.33333333  0.83333333  1
  W  W17  1  0.33333333  0.66666667  0.16666667  1
  O  O18  1  0.66666667  0.33333333  0.59951417  1
  O  O19  1  0.33333333  0.66666667  0.40048583  1
  O  O20  1  0.84992367  0.15007633  0.41858083  1
  O  O21  1  0.30015267  0.15007633  0.41858083  1
  O  O22  1  0.84992367  0.69984733  0.41858083  1
  O  O23  1  0.15007633  0.30015267  0.58141917  1
  O  O24  1  0.69984733  0.84992367  0.58141917  1
  O  O25  1  0.15007633  0.84992367  0.58141917  1
  O  O26  1  0.33333333  0.66666667  0.93284750  1
  O  O27  1  0.00000000  0.00000000  0.73381917  1
  O  O28  1  0.51659033  0.48340967  0.75191417  1
  O  O29  1  0.96681933  0.48340967  0.75191417  1
  O  O30  1  0.51659033  0.03318067  0.75191417  1
  O  O31  1  0.81674300  0.63348600  0.91475250  1
  O  O32  1  0.36651400  0.18325700  0.91475250  1
  O  O33  1  0.81674300  0.18325700  0.91475250  1
  O  O34  1  0.00000000  0.00000000  0.26618083  1
  O  O35  1  0.66666667  0.33333333  0.06715250  1
  O  O36  1  0.18325700  0.81674300  0.08524750  1
  O  O37  1  0.63348600  0.81674300  0.08524750  1
  O  O38  1  0.18325700  0.36651400  0.08524750  1
  O  O39  1  0.48340967  0.96681933  0.24808583  1
  O  O40  1  0.03318067  0.51659033  0.24808583  1
  O  O41  1  0.48340967  0.51659033  0.24808583  1
