# generated using pymatgen
data_LiVF4
_symmetry_space_group_name_H-M   'P 1'
_cell_length_a   5.85866400
_cell_length_b   8.40343000
_cell_length_c   6.37776300
_cell_angle_alpha   90.00000000
_cell_angle_beta   90.00000000
_cell_angle_gamma   90.00000000
_symmetry_Int_Tables_number   1
_chemical_formula_structural   LiVF4
_chemical_formula_sum   'Li4 V4 F16'
_cell_volume   313.99559464
_cell_formula_units_Z   4
loop_
 _symmetry_equiv_pos_site_id
 _symmetry_equiv_pos_as_xyz
  1  'x, y, z'
loop_
 _atom_site_type_symbol
 _atom_site_label
 _atom_site_symmetry_multiplicity
 _atom_site_fract_x
 _atom_site_fract_y
 _atom_site_fract_z
 _atom_site_occupancy
  Li  Li0  1  0.50000000  0.14258900  0.75000000  1
  Li  Li1  1  0.50000000  0.85741100  0.25000000  1
  Li  Li2  1  0.00000000  0.64258900  0.75000000  1
  Li  Li3  1  0.00000000  0.35741100  0.25000000  1
  V  V4  1  0.00000000  0.00000000  0.00000000  1
  V  V5  1  0.00000000  0.00000000  0.50000000  1
  V  V6  1  0.50000000  0.50000000  0.00000000  1
  V  V7  1  0.50000000  0.50000000  0.50000000  1
  F  F8  1  0.22087650  0.98764750  0.25000000  1
  F  F9  1  0.22087650  0.01235250  0.75000000  1
  F  F10  1  0.50000000  0.27478500  0.51755300  1
  F  F11  1  0.50000000  0.27478500  0.98244700  1
  F  F12  1  0.50000000  0.72521500  0.01755300  1
  F  F13  1  0.50000000  0.72521500  0.48244700  1
  F  F14  1  0.77912350  0.98764750  0.25000000  1
  F  F15  1  0.77912350  0.01235250  0.75000000  1
  F  F16  1  0.72087650  0.48764750  0.25000000  1
  F  F17  1  0.72087650  0.51235250  0.75000000  1
  F  F18  1  0.00000000  0.77478500  0.51755300  1
  F  F19  1  0.00000000  0.77478500  0.98244700  1
  F  F20  1  0.00000000  0.22521500  0.01755300  1
  F  F21  1  0.00000000  0.22521500  0.48244700  1
  F  F22  1  0.27912350  0.48764750  0.25000000  1
  F  F23  1  0.27912350  0.51235250  0.75000000  1
