# generated using pymatgen
data_MnP6(WO8)3
_symmetry_space_group_name_H-M   'P 1'
_cell_length_a   8.82492230
_cell_length_b   8.82492230
_cell_length_c   22.19904186
_cell_angle_alpha   90.00000000
_cell_angle_beta   90.00000000
_cell_angle_gamma   120.00000000
_symmetry_Int_Tables_number   1
_chemical_formula_structural   MnP6(WO8)3
_chemical_formula_sum   'Mn3 P18 W9 O72'
_cell_volume   1497.22352369
_cell_formula_units_Z   3
loop_
 _symmetry_equiv_pos_site_id
 _symmetry_equiv_pos_as_xyz
  1  'x, y, z'
loop_
 _atom_site_type_symbol
 _atom_site_label
 _atom_site_symmetry_multiplicity
 _atom_site_fract_x
 _atom_site_fract_y
 _atom_site_fract_z
 _atom_site_occupancy
  Mn  Mn0  1  0.66666667  0.33333333  0.19396633  1
  Mn  Mn1  1  0.33333333  0.66666667  0.52729967  1
  Mn  Mn2  1  0.00000000  0.00000000  0.86063300  1
  P  P3  1  0.66777767  0.62032933  0.08421633  1
  P  P4  1  0.95255167  0.33222233  0.08421633  1
  P  P5  1  0.37967067  0.04744833  0.08421633  1
  P  P6  1  0.28394467  0.28802433  0.25023533  1
  P  P7  1  0.71197567  0.99592033  0.25023533  1
  P  P8  1  0.00407967  0.71605533  0.25023533  1
  P  P9  1  0.33444433  0.95366267  0.41754967  1
  P  P10  1  0.61921833  0.66555567  0.41754967  1
  P  P11  1  0.04633733  0.38078167  0.41754967  1
  P  P12  1  0.95061133  0.62135767  0.58356867  1
  P  P13  1  0.37864233  0.32925367  0.58356867  1
  P  P14  1  0.67074633  0.04938867  0.58356867  1
  P  P15  1  0.00111100  0.28699600  0.75088300  1
  P  P16  1  0.28588500  0.99888900  0.75088300  1
  P  P17  1  0.71300400  0.71411500  0.75088300  1
  P  P18  1  0.61727800  0.95469100  0.91690200  1
  P  P19  1  0.04530900  0.66258700  0.91690200  1
  P  P20  1  0.33741300  0.38272200  0.91690200  1
  W  W21  1  0.00000000  0.00000000  0.14321700  1
  W  W22  1  0.33333333  0.66666667  0.02391467  1
  W  W23  1  0.33333333  0.66666667  0.31011467  1
  W  W24  1  0.66666667  0.33333333  0.47655033  1
  W  W25  1  0.00000000  0.00000000  0.35724800  1
  W  W26  1  0.00000000  0.00000000  0.64344800  1
  W  W27  1  0.33333333  0.66666667  0.80988367  1
  W  W28  1  0.66666667  0.33333333  0.69058133  1
  W  W29  1  0.66666667  0.33333333  0.97678133  1
  O  O30  1  0.99744833  0.82339267  0.30581667  1
  O  O31  1  0.17660733  0.17405567  0.30581667  1
  O  O32  1  0.83301767  0.80508333  0.08958133  1
  O  O33  1  0.82594433  0.00255167  0.30581667  1
  O  O34  1  0.51035033  0.65482867  0.07060467  1
  O  O35  1  0.62240333  0.50967167  0.13906767  1
  O  O36  1  0.97206567  0.16698233  0.08958133  1
  O  O37  1  0.14447833  0.48964967  0.07060467  1
  O  O38  1  0.34517133  0.85552167  0.07060467  1
  O  O39  1  0.16946133  0.20247067  0.19291267  1
  O  O40  1  0.45581667  0.29670933  0.24955533  1
  O  O41  1  0.79752933  0.96699067  0.19291267  1
  O  O42  1  0.88726833  0.37759667  0.13906767  1
  O  O43  1  0.19491667  0.02793433  0.08958133  1
  O  O44  1  0.49032833  0.11273167  0.13906767  1
  O  O45  1  0.29479300  0.46845600  0.25737100  1
  O  O46  1  0.53154400  0.82633700  0.25737100  1
  O  O47  1  0.70329067  0.15910733  0.24955533  1
  O  O48  1  0.03300933  0.83053867  0.19291267  1
  O  O49  1  0.17366300  0.70520700  0.25737100  1
  O  O50  1  0.84371167  0.30681533  0.02579133  1
  O  O51  1  0.84089267  0.54418333  0.24955533  1
  O  O52  1  0.46310367  0.15628833  0.02579133  1
  O  O53  1  0.69318467  0.53689633  0.02579133  1
  O  O54  1  0.66411500  0.15672600  0.63915000  1
  O  O55  1  0.84327400  0.50738900  0.63915000  1
  O  O56  1  0.49968433  0.13841667  0.42291467  1
  O  O57  1  0.49261100  0.33588500  0.63915000  1
  O  O58  1  0.17701700  0.98816200  0.40393800  1
  O  O59  1  0.28907000  0.84300500  0.47240100  1
  O  O60  1  0.63873233  0.50031567  0.42291467  1
  O  O61  1  0.81114500  0.82298300  0.40393800  1
  O  O62  1  0.01183800  0.18885500  0.40393800  1
  O  O63  1  0.83612800  0.53580400  0.52624600  1
  O  O64  1  0.12248333  0.63004267  0.58288867  1
  O  O65  1  0.46419600  0.30032400  0.52624600  1
  O  O66  1  0.55393500  0.71093000  0.47240100  1
  O  O67  1  0.86158333  0.36126767  0.42291467  1
  O  O68  1  0.15699500  0.44606500  0.47240100  1
  O  O69  1  0.96145967  0.80178933  0.59070433  1
  O  O70  1  0.19821067  0.15967033  0.59070433  1
  O  O71  1  0.36995733  0.49244067  0.58288867  1
  O  O72  1  0.69967600  0.16387200  0.52624600  1
  O  O73  1  0.84032967  0.03854033  0.59070433  1
  O  O74  1  0.51037833  0.64014867  0.35912467  1
  O  O75  1  0.50755933  0.87751667  0.58288867  1
  O  O76  1  0.12977033  0.48962167  0.35912467  1
  O  O77  1  0.35985133  0.87022967  0.35912467  1
  O  O78  1  0.33078167  0.49005933  0.97248333  1
  O  O79  1  0.50994067  0.84072233  0.97248333  1
  O  O80  1  0.16635100  0.47175000  0.75624800  1
  O  O81  1  0.15927767  0.66921833  0.97248333  1
  O  O82  1  0.84368367  0.32149533  0.73727133  1
  O  O83  1  0.95573667  0.17633833  0.80573433  1
  O  O84  1  0.30539900  0.83364900  0.75624800  1
  O  O85  1  0.47781167  0.15631633  0.73727133  1
  O  O86  1  0.67850467  0.52218833  0.73727133  1
  O  O87  1  0.50279467  0.86913733  0.85957933  1
  O  O88  1  0.78915000  0.96337600  0.91622200  1
  O  O89  1  0.13086267  0.63365733  0.85957933  1
  O  O90  1  0.22060167  0.04426333  0.80573433  1
  O  O91  1  0.52825000  0.69460100  0.75624800  1
  O  O92  1  0.82366167  0.77939833  0.80573433  1
  O  O93  1  0.62812633  0.13512267  0.92403767  1
  O  O94  1  0.86487733  0.49300367  0.92403767  1
  O  O95  1  0.03662400  0.82577400  0.91622200  1
  O  O96  1  0.36634267  0.49720533  0.85957933  1
  O  O97  1  0.50699633  0.37187367  0.92403767  1
  O  O98  1  0.17704500  0.97348200  0.69245800  1
  O  O99  1  0.17422600  0.21085000  0.91622200  1
  O  O100  1  0.79643700  0.82295500  0.69245800  1
  O  O101  1  0.02651800  0.20356300  0.69245800  1
