# generated using pymatgen
data_LiTiSiO4
_symmetry_space_group_name_H-M   'P 1'
_cell_length_a   5.67931200
_cell_length_b   5.80105400
_cell_length_c   8.07520000
_cell_angle_alpha   90.00000000
_cell_angle_beta   90.00000000
_cell_angle_gamma   90.00000000
_symmetry_Int_Tables_number   1
_chemical_formula_structural   LiTiSiO4
_chemical_formula_sum   'Li4 Ti4 Si4 O16'
_cell_volume   266.04550363
_cell_formula_units_Z   4
loop_
 _symmetry_equiv_pos_site_id
 _symmetry_equiv_pos_as_xyz
  1  'x, y, z'
loop_
 _atom_site_type_symbol
 _atom_site_label
 _atom_site_symmetry_multiplicity
 _atom_site_fract_x
 _atom_site_fract_y
 _atom_site_fract_z
 _atom_site_occupancy
  Li  Li0  1  0.00000000  0.00000000  0.50000000  1
  Li  Li1  1  0.50000000  0.00000000  0.00000000  1
  Li  Li2  1  0.50000000  0.50000000  0.00000000  1
  Li  Li3  1  0.00000000  0.50000000  0.50000000  1
  Ti  Ti4  1  0.25000000  0.75000000  0.25000000  1
  Ti  Ti5  1  0.75000000  0.75000000  0.25000000  1
  Ti  Ti6  1  0.75000000  0.25000000  0.75000000  1
  Ti  Ti7  1  0.25000000  0.25000000  0.75000000  1
  Si  Si8  1  0.50000000  0.25000000  0.38381500  1
  Si  Si9  1  0.50000000  0.75000000  0.61618500  1
  Si  Si10  1  0.00000000  0.75000000  0.88381500  1
  Si  Si11  1  0.00000000  0.25000000  0.11618500  1
  O  O12  1  0.73663450  0.75000000  0.49655650  1
  O  O13  1  0.26336550  0.75000000  0.49655650  1
  O  O14  1  0.50000000  0.98432300  0.73766100  1
  O  O15  1  0.00000000  0.01567700  0.23766100  1
  O  O16  1  0.50000000  0.01567700  0.26233900  1
  O  O17  1  0.00000000  0.98432300  0.76233900  1
  O  O18  1  0.73663450  0.25000000  0.50344350  1
  O  O19  1  0.26336550  0.25000000  0.50344350  1
  O  O20  1  0.23663450  0.25000000  0.99655650  1
  O  O21  1  0.76336550  0.25000000  0.99655650  1
  O  O22  1  0.00000000  0.48432300  0.23766100  1
  O  O23  1  0.50000000  0.51567700  0.73766100  1
  O  O24  1  0.00000000  0.51567700  0.76233900  1
  O  O25  1  0.50000000  0.48432300  0.26233900  1
  O  O26  1  0.23663450  0.75000000  0.00344350  1
  O  O27  1  0.76336550  0.75000000  0.00344350  1
