# generated using pymatgen
data_Li3Co2(SiO4)2
_symmetry_space_group_name_H-M   'P 1'
_cell_length_a   5.05312400
_cell_length_b   6.43082300
_cell_length_c   10.59416108
_cell_angle_alpha   90.00000000
_cell_angle_beta   90.48213418
_cell_angle_gamma   90.00000000
_symmetry_Int_Tables_number   1
_chemical_formula_structural   Li3Co2(SiO4)2
_chemical_formula_sum   'Li6 Co4 Si4 O16'
_cell_volume   344.25297947
_cell_formula_units_Z   2
loop_
 _symmetry_equiv_pos_site_id
 _symmetry_equiv_pos_as_xyz
  1  'x, y, z'
loop_
 _atom_site_type_symbol
 _atom_site_label
 _atom_site_symmetry_multiplicity
 _atom_site_fract_x
 _atom_site_fract_y
 _atom_site_fract_z
 _atom_site_occupancy
  Li  Li0  1  0.24048700  0.75882800  0.15891500  1
  Li  Li1  1  0.24048700  0.24117200  0.65891500  1
  Li  Li2  1  0.74051300  0.24845900  0.34060400  1
  Li  Li3  1  0.74669300  0.49196200  0.57727800  1
  Li  Li4  1  0.74669300  0.50803800  0.07727800  1
  Li  Li5  1  0.74051300  0.75154100  0.84060400  1
  Co  Co6  1  0.72909100  0.76623100  0.33473400  1
  Co  Co7  1  0.72909100  0.23376900  0.83473400  1
  Co  Co8  1  0.24691600  0.25590600  0.16780500  1
  Co  Co9  1  0.24691600  0.74409400  0.66780500  1
  Si  Si10  1  0.73722800  0.99453300  0.58941700  1
  Si  Si11  1  0.73722800  0.00546700  0.08941700  1
  Si  Si12  1  0.23558900  0.48774400  0.90814200  1
  Si  Si13  1  0.23558900  0.51225600  0.40814200  1
  O  O14  1  0.86321500  0.78044000  0.65731600  1
  O  O15  1  0.84645000  0.78833000  0.15743400  1
  O  O16  1  0.80110400  0.00047300  0.94016400  1
  O  O17  1  0.41480400  0.98641400  0.61542500  1
  O  O18  1  0.41480400  0.01358600  0.11542500  1
  O  O19  1  0.80110400  0.99952700  0.44016400  1
  O  O20  1  0.84645000  0.21167000  0.65743400  1
  O  O21  1  0.86321500  0.21956000  0.15731600  1
  O  O22  1  0.35528300  0.28918700  0.83171000  1
  O  O23  1  0.34566200  0.30006000  0.33674200  1
  O  O24  1  0.33927800  0.50819900  0.55780500  1
  O  O25  1  0.90822500  0.48336200  0.90407100  1
  O  O26  1  0.90822500  0.51663800  0.40407100  1
  O  O27  1  0.33927800  0.49180100  0.05780500  1
  O  O28  1  0.34566200  0.69994000  0.83674200  1
  O  O29  1  0.35528300  0.71081300  0.33171000  1
