# generated using pymatgen
data_LiFeSi3O8
_symmetry_space_group_name_H-M   'P 1'
_cell_length_a   8.20616000
_cell_length_b   13.23203200
_cell_length_c   7.29239635
_cell_angle_alpha   90.00000000
_cell_angle_beta   117.03690366
_cell_angle_gamma   90.00000000
_symmetry_Int_Tables_number   1
_chemical_formula_structural   LiFeSi3O8
_chemical_formula_sum   'Li4 Fe4 Si12 O32'
_cell_volume   705.30186375
_cell_formula_units_Z   4
loop_
 _symmetry_equiv_pos_site_id
 _symmetry_equiv_pos_as_xyz
  1  'x, y, z'
loop_
 _atom_site_type_symbol
 _atom_site_label
 _atom_site_symmetry_multiplicity
 _atom_site_fract_x
 _atom_site_fract_y
 _atom_site_fract_z
 _atom_site_occupancy
  Li  Li0  1  0.69378650  0.05954150  0.83727000  1
  Li  Li1  1  0.30621350  0.05954150  0.16273000  1
  Li  Li2  1  0.19378650  0.55954150  0.83727000  1
  Li  Li3  1  0.80621350  0.55954150  0.16273000  1
  Fe  Fe4  1  0.67659600  0.11190800  0.33690200  1
  Fe  Fe5  1  0.32340400  0.11190800  0.66309800  1
  Fe  Fe6  1  0.17659600  0.61190800  0.33690200  1
  Fe  Fe7  1  0.82340400  0.61190800  0.66309800  1
  Si  Si8  1  0.68695650  0.88098950  0.33781000  1
  Si  Si9  1  0.49330150  0.32613250  0.21478500  1
  Si  Si10  1  0.51541800  0.66628000  0.22266100  1
  Si  Si11  1  0.48458200  0.66628000  0.77733900  1
  Si  Si12  1  0.50669850  0.32613250  0.78521500  1
  Si  Si13  1  0.31304350  0.88098950  0.66219000  1
  Si  Si14  1  0.18695650  0.38098950  0.33781000  1
  Si  Si15  1  0.99330150  0.82613250  0.21478500  1
  Si  Si16  1  0.01541800  0.16628000  0.22266100  1
  Si  Si17  1  0.98458200  0.16628000  0.77733900  1
  Si  Si18  1  0.00669850  0.82613250  0.78521500  1
  Si  Si19  1  0.81304350  0.38098950  0.66219000  1
  O  O20  1  0.81244650  0.88010050  0.21369600  1
  O  O21  1  0.82266450  0.12973150  0.20854100  1
  O  O22  1  0.80252200  0.10436400  0.62341600  1
  O  O23  1  0.82214500  0.87023600  0.58763900  1
  O  O24  1  0.56132450  0.98340750  0.27641000  1
  O  O25  1  0.47905350  0.20357850  0.23238600  1
  O  O26  1  0.54209450  0.78714650  0.26395300  1
  O  O27  1  0.45790550  0.78714650  0.73604700  1
  O  O28  1  0.52094650  0.20357850  0.76761400  1
  O  O29  1  0.50000000  0.63318300  0.00000000  1
  O  O30  1  0.50000000  0.35998500  0.00000000  1
  O  O31  1  0.43867550  0.98340750  0.72359000  1
  O  O32  1  0.19747800  0.10436400  0.37658400  1
  O  O33  1  0.17785500  0.87023600  0.41236100  1
  O  O34  1  0.17733550  0.12973150  0.79145900  1
  O  O35  1  0.18755350  0.88010050  0.78630400  1
  O  O36  1  0.31244650  0.38010050  0.21369600  1
  O  O37  1  0.32266450  0.62973150  0.20854100  1
  O  O38  1  0.30252200  0.60436400  0.62341600  1
  O  O39  1  0.32214500  0.37023600  0.58763900  1
  O  O40  1  0.06132450  0.48340750  0.27641000  1
  O  O41  1  0.97905350  0.70357850  0.23238600  1
  O  O42  1  0.04209450  0.28714650  0.26395300  1
  O  O43  1  0.95790550  0.28714650  0.73604700  1
  O  O44  1  0.02094650  0.70357850  0.76761400  1
  O  O45  1  0.00000000  0.13318300  0.00000000  1
  O  O46  1  0.00000000  0.85998500  0.00000000  1
  O  O47  1  0.93867550  0.48340750  0.72359000  1
  O  O48  1  0.69747800  0.60436400  0.37658400  1
  O  O49  1  0.67785500  0.37023600  0.41236100  1
  O  O50  1  0.67733550  0.62973150  0.79145900  1
  O  O51  1  0.68755350  0.38010050  0.78630400  1
