# generated using pymatgen
data_Li2Cr3CuO8
_symmetry_space_group_name_H-M   'P 1'
_cell_length_a   5.86202111
_cell_length_b   5.86202111
_cell_length_c   14.53008382
_cell_angle_alpha   90.00000000
_cell_angle_beta   90.00000000
_cell_angle_gamma   120.00000000
_symmetry_Int_Tables_number   1
_chemical_formula_structural   Li2Cr3CuO8
_chemical_formula_sum   'Li6 Cr9 Cu3 O24'
_cell_volume   432.40778832
_cell_formula_units_Z   3
loop_
 _symmetry_equiv_pos_site_id
 _symmetry_equiv_pos_as_xyz
  1  'x, y, z'
loop_
 _atom_site_type_symbol
 _atom_site_label
 _atom_site_symmetry_multiplicity
 _atom_site_fract_x
 _atom_site_fract_y
 _atom_site_fract_z
 _atom_site_occupancy
  Li  Li0  1  0.00000000  0.00000000  0.12383100  1
  Li  Li1  1  0.33333333  0.66666667  0.16646567  1
  Li  Li2  1  0.66666667  0.33333333  0.45716433  1
  Li  Li3  1  0.00000000  0.00000000  0.49979900  1
  Li  Li4  1  0.33333333  0.66666667  0.79049767  1
  Li  Li5  1  0.66666667  0.33333333  0.83313233  1
  Cr  Cr6  1  0.49714800  0.99429600  0.00133200  1
  Cr  Cr7  1  0.00570400  0.50285200  0.00133200  1
  Cr  Cr8  1  0.49714800  0.50285200  0.00133200  1
  Cr  Cr9  1  0.16381467  0.32762933  0.33466533  1
  Cr  Cr10  1  0.67237067  0.83618533  0.33466533  1
  Cr  Cr11  1  0.16381467  0.83618533  0.33466533  1
  Cr  Cr12  1  0.83048133  0.66096267  0.66799867  1
  Cr  Cr13  1  0.33903733  0.16951867  0.66799867  1
  Cr  Cr14  1  0.83048133  0.16951867  0.66799867  1
  Cu  Cu15  1  0.66666667  0.33333333  0.21233433  1
  Cu  Cu16  1  0.33333333  0.66666667  0.54566767  1
  Cu  Cu17  1  0.00000000  0.00000000  0.87900100  1
  O  O18  1  0.00000000  0.00000000  0.25999600  1
  O  O19  1  0.17924900  0.82075100  0.06900300  1
  O  O20  1  0.64150200  0.82075100  0.06900300  1
  O  O21  1  0.17924900  0.35849800  0.06900300  1
  O  O22  1  0.48665767  0.97331533  0.26155833  1
  O  O23  1  0.02668467  0.51334233  0.26155833  1
  O  O24  1  0.48665767  0.51334233  0.26155833  1
  O  O25  1  0.66666667  0.33333333  0.07502633  1
  O  O26  1  0.66666667  0.33333333  0.59332933  1
  O  O27  1  0.84591567  0.15408433  0.40233633  1
  O  O28  1  0.30816867  0.15408433  0.40233633  1
  O  O29  1  0.84591567  0.69183133  0.40233633  1
  O  O30  1  0.15332433  0.30664867  0.59489167  1
  O  O31  1  0.69335133  0.84667567  0.59489167  1
  O  O32  1  0.15332433  0.84667567  0.59489167  1
  O  O33  1  0.33333333  0.66666667  0.40835967  1
  O  O34  1  0.33333333  0.66666667  0.92666267  1
  O  O35  1  0.51258233  0.48741767  0.73566967  1
  O  O36  1  0.97483533  0.48741767  0.73566967  1
  O  O37  1  0.51258233  0.02516467  0.73566967  1
  O  O38  1  0.81999100  0.63998200  0.92822500  1
  O  O39  1  0.36001800  0.18000900  0.92822500  1
  O  O40  1  0.81999100  0.18000900  0.92822500  1
  O  O41  1  0.00000000  0.00000000  0.74169300  1
