# generated using pymatgen
data_ZnCoO3
_symmetry_space_group_name_H-M   'P 1'
_cell_length_a   4.93915770
_cell_length_b   4.93915770
_cell_length_c   13.72446108
_cell_angle_alpha   90.00000000
_cell_angle_beta   90.00000000
_cell_angle_gamma   120.00000000
_symmetry_Int_Tables_number   1
_chemical_formula_structural   ZnCoO3
_chemical_formula_sum   'Zn6 Co6 O18'
_cell_volume   289.95574449
_cell_formula_units_Z   6
loop_
 _symmetry_equiv_pos_site_id
 _symmetry_equiv_pos_as_xyz
  1  'x, y, z'
loop_
 _atom_site_type_symbol
 _atom_site_label
 _atom_site_symmetry_multiplicity
 _atom_site_fract_x
 _atom_site_fract_y
 _atom_site_fract_z
 _atom_site_occupancy
  Zn  Zn0  1  0.33333333  0.66666667  0.03294367  1
  Zn  Zn1  1  0.33333333  0.66666667  0.30038967  1
  Zn  Zn2  1  0.00000000  0.00000000  0.36627700  1
  Zn  Zn3  1  0.00000000  0.00000000  0.63372300  1
  Zn  Zn4  1  0.66666667  0.33333333  0.69961033  1
  Zn  Zn5  1  0.66666667  0.33333333  0.96705633  1
  Co  Co6  1  0.00000000  0.00000000  0.16080100  1
  Co  Co7  1  0.66666667  0.33333333  0.17253233  1
  Co  Co8  1  0.66666667  0.33333333  0.49413433  1
  Co  Co9  1  0.33333333  0.66666667  0.50586567  1
  Co  Co10  1  0.33333333  0.66666667  0.82746767  1
  Co  Co11  1  0.00000000  0.00000000  0.83919900  1
  O  O12  1  0.34815867  0.04613533  0.08999833  1
  O  O13  1  0.69797667  0.65184133  0.08999833  1
  O  O14  1  0.95386467  0.30202333  0.08999833  1
  O  O15  1  0.71280200  0.03131000  0.24333500  1
  O  O16  1  0.96869000  0.68149200  0.24333500  1
  O  O17  1  0.31850800  0.28719800  0.24333500  1
  O  O18  1  0.01482533  0.37946867  0.42333167  1
  O  O19  1  0.36464333  0.98517467  0.42333167  1
  O  O20  1  0.62053133  0.63535667  0.42333167  1
  O  O21  1  0.37946867  0.36464333  0.57666833  1
  O  O22  1  0.63535667  0.01482533  0.57666833  1
  O  O23  1  0.98517467  0.62053133  0.57666833  1
  O  O24  1  0.68149200  0.71280200  0.75666500  1
  O  O25  1  0.03131000  0.31850800  0.75666500  1
  O  O26  1  0.28719800  0.96869000  0.75666500  1
  O  O27  1  0.04613533  0.69797667  0.91000167  1
  O  O28  1  0.30202333  0.34815867  0.91000167  1
  O  O29  1  0.65184133  0.95386467  0.91000167  1
