# generated using pymatgen
data_Li12Mn3VP4(CO7)4
_symmetry_space_group_name_H-M   'P 1'
_cell_length_a   8.52927400
_cell_length_b   6.62103000
_cell_length_c   10.00008452
_cell_angle_alpha   90.00000000
_cell_angle_beta   94.55628733
_cell_angle_gamma   90.00000000
_symmetry_Int_Tables_number   1
_chemical_formula_structural   Li12Mn3VP4(CO7)4
_chemical_formula_sum   'Li12 Mn3 V1 P4 C4 O28'
_cell_volume   562.94588758
_cell_formula_units_Z   1
loop_
 _symmetry_equiv_pos_site_id
 _symmetry_equiv_pos_as_xyz
  1  'x, y, z'
loop_
 _atom_site_type_symbol
 _atom_site_label
 _atom_site_symmetry_multiplicity
 _atom_site_fract_x
 _atom_site_fract_y
 _atom_site_fract_z
 _atom_site_occupancy
  Li  Li0  1  0.09065400  0.00000000  0.62065300  1
  Li  Li1  1  0.09218400  0.00000000  0.12030800  1
  Li  Li2  1  0.27330000  0.77727000  0.87719600  1
  Li  Li3  1  0.27330000  0.22273000  0.87719600  1
  Li  Li4  1  0.27436400  0.77712800  0.37685100  1
  Li  Li5  1  0.27436400  0.22287200  0.37685100  1
  Li  Li6  1  0.72648300  0.27773800  0.62290200  1
  Li  Li7  1  0.72648300  0.72226200  0.62290200  1
  Li  Li8  1  0.72606600  0.27700000  0.12336700  1
  Li  Li9  1  0.72606600  0.72300000  0.12336700  1
  Li  Li10  1  0.90863000  0.50000000  0.87912000  1
  Li  Li11  1  0.90837600  0.50000000  0.37905000  1
  Mn  Mn12  1  0.34061300  0.50000000  0.61022700  1
  Mn  Mn13  1  0.34052800  0.50000000  0.11027400  1
  Mn  Mn14  1  0.65942800  0.00000000  0.89011700  1
  V  V15  1  0.66871500  0.00000000  0.39595200  1
  P  P16  1  0.40933200  0.00000000  0.63911100  1
  P  P17  1  0.41129300  0.00000000  0.14087700  1
  P  P18  1  0.59005100  0.50000000  0.86013700  1
  P  P19  1  0.58977400  0.50000000  0.35987100  1
  C  C20  1  0.03288400  0.50000000  0.64789100  1
  C  C21  1  0.03282500  0.50000000  0.14791200  1
  C  C22  1  0.96703500  0.00000000  0.85202700  1
  C  C23  1  0.96550600  0.00000000  0.35082600  1
  O  O24  1  0.06979500  0.50000000  0.52460900  1
  O  O25  1  0.11288400  0.00000000  0.82249100  1
  O  O26  1  0.06979100  0.50000000  0.02495800  1
  O  O27  1  0.14457900  0.50000000  0.74476100  1
  O  O28  1  0.11125600  0.00000000  0.32349000  1
  O  O29  1  0.14446700  0.50000000  0.24508200  1
  O  O30  1  0.30967000  0.81608000  0.58598700  1
  O  O31  1  0.30967000  0.18392000  0.58598700  1
  O  O32  1  0.31063300  0.81654500  0.08706400  1
  O  O33  1  0.31063300  0.18345500  0.08706400  1
  O  O34  1  0.42044000  0.50000000  0.90576800  1
  O  O35  1  0.42439500  0.00000000  0.79599700  1
  O  O36  1  0.42035800  0.50000000  0.40595100  1
  O  O37  1  0.42704900  0.00000000  0.29800800  1
  O  O38  1  0.57625100  0.50000000  0.70296200  1
  O  O39  1  0.57823700  0.00000000  0.59214000  1
  O  O40  1  0.57599300  0.50000000  0.20291200  1
  O  O41  1  0.57934000  0.00000000  0.09257000  1
  O  O42  1  0.68949900  0.68382800  0.91361600  1
  O  O43  1  0.68949900  0.31617200  0.91361600  1
  O  O44  1  0.68965200  0.31681100  0.41371400  1
  O  O45  1  0.68965200  0.68318900  0.41371400  1
  O  O46  1  0.85536500  0.00000000  0.75483600  1
  O  O47  1  0.88710300  0.50000000  0.67725200  1
  O  O48  1  0.85354100  0.00000000  0.25425700  1
  O  O49  1  0.93013000  0.00000000  0.97503700  1
  O  O50  1  0.88696600  0.50000000  0.17745500  1
  O  O51  1  0.92489800  0.00000000  0.47371500  1
