# generated using pymatgen
data_V(SO4)2
_symmetry_space_group_name_H-M   'P 1'
_cell_length_a   8.37671182
_cell_length_b   8.37671182
_cell_length_c   22.38751424
_cell_angle_alpha   90.00000000
_cell_angle_beta   90.00000000
_cell_angle_gamma   120.00000000
_symmetry_Int_Tables_number   1
_chemical_formula_structural   V(SO4)2
_chemical_formula_sum   'V9 S18 O72'
_cell_volume   1360.45335518
_cell_formula_units_Z   9
loop_
 _symmetry_equiv_pos_site_id
 _symmetry_equiv_pos_as_xyz
  1  'x, y, z'
loop_
 _atom_site_type_symbol
 _atom_site_label
 _atom_site_symmetry_multiplicity
 _atom_site_fract_x
 _atom_site_fract_y
 _atom_site_fract_z
 _atom_site_occupancy
  V  V0  1  0.33333333  0.66666667  0.31197067  1
  V  V1  1  0.33333333  0.66666667  0.02231767  1
  V  V2  1  0.00000000  0.00000000  0.14786900  1
  V  V3  1  0.00000000  0.00000000  0.64530400  1
  V  V4  1  0.00000000  0.00000000  0.35565100  1
  V  V5  1  0.66666667  0.33333333  0.48120233  1
  V  V6  1  0.66666667  0.33333333  0.97863733  1
  V  V7  1  0.66666667  0.33333333  0.68898433  1
  V  V8  1  0.33333333  0.66666667  0.81453567  1
  S  S9  1  0.00511400  0.28520300  0.24987200  1
  S  S10  1  0.71479700  0.71991100  0.24987200  1
  S  S11  1  0.28008900  0.99488600  0.24987200  1
  S  S12  1  0.38596167  0.34061633  0.08433533  1
  S  S13  1  0.95465467  0.61403833  0.08433533  1
  S  S14  1  0.65938367  0.04534533  0.08433533  1
  S  S15  1  0.67178067  0.61853633  0.58320533  1
  S  S16  1  0.38146367  0.05324433  0.58320533  1
  S  S17  1  0.94675567  0.32821933  0.58320533  1
  S  S18  1  0.05262833  0.67394967  0.41766867  1
  S  S19  1  0.62132133  0.94737167  0.41766867  1
  S  S20  1  0.32605033  0.37867867  0.41766867  1
  S  S21  1  0.33844733  0.95186967  0.91653867  1
  S  S22  1  0.04813033  0.38657767  0.91653867  1
  S  S23  1  0.61342233  0.66155267  0.91653867  1
  S  S24  1  0.71929500  0.00728300  0.75100200  1
  S  S25  1  0.28798800  0.28070500  0.75100200  1
  S  S26  1  0.99271700  0.71201200  0.75100200  1
  O  O27  1  0.67989267  0.14330133  0.02544533  1
  O  O28  1  0.46340867  0.32010733  0.02544533  1
  O  O29  1  0.82219300  0.24978700  0.24118800  1
  O  O30  1  0.85669867  0.53659133  0.02544533  1
  O  O31  1  0.08303800  0.22234900  0.20136200  1
  O  O32  1  0.14552400  0.48538500  0.25840600  1
  O  O33  1  0.51461500  0.66013900  0.25840600  1
  O  O34  1  0.75021300  0.57240600  0.24118800  1
  O  O35  1  0.33986100  0.85447600  0.25840600  1
  O  O36  1  0.22552733  0.15525167  0.09596067  1
  O  O37  1  0.51791533  0.42017767  0.13115967  1
  O  O38  1  0.90226233  0.48208467  0.13115967  1
  O  O39  1  0.77765100  0.86068900  0.20136200  1
  O  O40  1  0.13931100  0.91696200  0.20136200  1
  O  O41  1  0.42759400  0.17780700  0.24118800  1
  O  O42  1  0.30660467  0.46805433  0.07054233  1
  O  O43  1  0.92972433  0.77447267  0.09596067  1
  O  O44  1  0.16144967  0.69339533  0.07054233  1
  O  O45  1  0.53194567  0.83855033  0.07054233  1
  O  O46  1  0.57982233  0.09773767  0.13115967  1
  O  O47  1  0.80621467  0.82449433  0.30800133  1
  O  O48  1  0.84474833  0.07027567  0.09596067  1
  O  O49  1  0.17550567  0.98172033  0.30800133  1
  O  O50  1  0.01827967  0.19378533  0.30800133  1
  O  O51  1  0.34655933  0.47663467  0.35877867  1
  O  O52  1  0.13007533  0.65344067  0.35877867  1
  O  O53  1  0.48885967  0.58312033  0.57452133  1
  O  O54  1  0.52336533  0.86992467  0.35877867  1
  O  O55  1  0.74970467  0.55568233  0.53469533  1
  O  O56  1  0.81219067  0.81871833  0.59173933  1
  O  O57  1  0.18128167  0.99347233  0.59173933  1
  O  O58  1  0.41687967  0.90573933  0.57452133  1
  O  O59  1  0.00652767  0.18780933  0.59173933  1
  O  O60  1  0.89219400  0.48858500  0.42929400  1
  O  O61  1  0.18458200  0.75351100  0.46449300  1
  O  O62  1  0.56892900  0.81541800  0.46449300  1
  O  O63  1  0.44431767  0.19402233  0.53469533  1
  O  O64  1  0.80597767  0.25029533  0.53469533  1
  O  O65  1  0.09426067  0.51114033  0.57452133  1
  O  O66  1  0.97327133  0.80138767  0.40387567  1
  O  O67  1  0.59639100  0.10780600  0.42929400  1
  O  O68  1  0.82811633  0.02672867  0.40387567  1
  O  O69  1  0.19861233  0.17188367  0.40387567  1
  O  O70  1  0.24648900  0.43107100  0.46449300  1
  O  O71  1  0.47288133  0.15782767  0.64133467  1
  O  O72  1  0.51141500  0.40360900  0.42929400  1
  O  O73  1  0.84217233  0.31505367  0.64133467  1
  O  O74  1  0.68494633  0.52711867  0.64133467  1
  O  O75  1  0.01322600  0.80996800  0.69211200  1
  O  O76  1  0.79674200  0.98677400  0.69211200  1
  O  O77  1  0.15552633  0.91645367  0.90785467  1
  O  O78  1  0.19003200  0.20325800  0.69211200  1
  O  O79  1  0.41637133  0.88901567  0.86802867  1
  O  O80  1  0.47885733  0.15205167  0.92507267  1
  O  O81  1  0.84794833  0.32680567  0.92507267  1
  O  O82  1  0.08354633  0.23907267  0.90785467  1
  O  O83  1  0.67319433  0.52114267  0.92507267  1
  O  O84  1  0.55886067  0.82191833  0.76262733  1
  O  O85  1  0.85124867  0.08684433  0.79782633  1
  O  O86  1  0.23559567  0.14875133  0.79782633  1
  O  O87  1  0.11098433  0.52735567  0.86802867  1
  O  O88  1  0.47264433  0.58362867  0.86802867  1
  O  O89  1  0.76092733  0.84447367  0.90785467  1
  O  O90  1  0.63993800  0.13472100  0.73720900  1
  O  O91  1  0.26305767  0.44113933  0.76262733  1
  O  O92  1  0.49478300  0.36006200  0.73720900  1
  O  O93  1  0.86527900  0.50521700  0.73720900  1
  O  O94  1  0.91315567  0.76440433  0.79782633  1
  O  O95  1  0.13954800  0.49116100  0.97466800  1
  O  O96  1  0.17808167  0.73694233  0.76262733  1
  O  O97  1  0.50883900  0.64838700  0.97466800  1
  O  O98  1  0.35161300  0.86045200  0.97466800  1
