# generated using pymatgen
data_Li3Ni2SbO6
_symmetry_space_group_name_H-M   'P 1'
_cell_length_a   12.79729800
_cell_length_b   3.06108000
_cell_length_c   6.17275344
_cell_angle_alpha   90.00000000
_cell_angle_beta   103.37665548
_cell_angle_gamma   90.00000000
_symmetry_Int_Tables_number   1
_chemical_formula_structural   Li3Ni2SbO6
_chemical_formula_sum   'Li6 Ni4 Sb2 O12'
_cell_volume   235.24846752
_cell_formula_units_Z   2
loop_
 _symmetry_equiv_pos_site_id
 _symmetry_equiv_pos_as_xyz
  1  'x, y, z'
loop_
 _atom_site_type_symbol
 _atom_site_label
 _atom_site_symmetry_multiplicity
 _atom_site_fract_x
 _atom_site_fract_y
 _atom_site_fract_z
 _atom_site_occupancy
  Li  Li0  1  0.00000000  0.00000000  0.00000000  1
  Li  Li1  1  0.82306300  0.50000000  0.69741000  1
  Li  Li2  1  0.67693700  0.00000000  0.30259000  1
  Li  Li3  1  0.50000000  0.50000000  0.00000000  1
  Li  Li4  1  0.32306300  0.00000000  0.69741000  1
  Li  Li5  1  0.17693700  0.50000000  0.30259000  1
  Ni  Ni6  1  0.82822300  0.50000000  0.14701600  1
  Ni  Ni7  1  0.67177700  0.00000000  0.85298400  1
  Ni  Ni8  1  0.32822300  0.00000000  0.14701600  1
  Ni  Ni9  1  0.17177700  0.50000000  0.85298400  1
  Sb  Sb10  1  0.00000000  0.00000000  0.50000000  1
  Sb  Sb11  1  0.50000000  0.50000000  0.50000000  1
  O  O12  1  0.84366500  0.00000000  0.40791900  1
  O  O13  1  0.66373000  0.50000000  0.07211900  1
  O  O14  1  0.65633500  0.50000000  0.59208100  1
  O  O15  1  0.99635900  0.50000000  0.72181100  1
  O  O16  1  0.50364100  0.00000000  0.27818900  1
  O  O17  1  0.83627000  0.00000000  0.92788100  1
  O  O18  1  0.34366500  0.50000000  0.40791900  1
  O  O19  1  0.16373000  0.00000000  0.07211900  1
  O  O20  1  0.15633500  0.00000000  0.59208100  1
  O  O21  1  0.49635900  0.00000000  0.72181100  1
  O  O22  1  0.00364100  0.50000000  0.27818900  1
  O  O23  1  0.33627000  0.50000000  0.92788100  1
