# generated using pymatgen
data_LiNiPO4
_symmetry_space_group_name_H-M   'P 1'
_cell_length_a   4.88639400
_cell_length_b   6.30512000
_cell_length_c   9.02897700
_cell_angle_alpha   90.00000000
_cell_angle_beta   90.00000000
_cell_angle_gamma   90.00000000
_symmetry_Int_Tables_number   1
_chemical_formula_structural   LiNiPO4
_chemical_formula_sum   'Li4 Ni4 P4 O16'
_cell_volume   278.17646595
_cell_formula_units_Z   4
loop_
 _symmetry_equiv_pos_site_id
 _symmetry_equiv_pos_as_xyz
  1  'x, y, z'
loop_
 _atom_site_type_symbol
 _atom_site_label
 _atom_site_symmetry_multiplicity
 _atom_site_fract_x
 _atom_site_fract_y
 _atom_site_fract_z
 _atom_site_occupancy
  Li  Li0  1  0.47931650  0.75000000  0.66343750  1
  Li  Li1  1  0.97931650  0.25000000  0.83656250  1
  Li  Li2  1  0.02068350  0.75000000  0.16343750  1
  Li  Li3  1  0.52068350  0.25000000  0.33656250  1
  Ni  Ni4  1  0.00000000  0.50000000  0.50000000  1
  Ni  Ni5  1  0.50000000  0.50000000  0.00000000  1
  Ni  Ni6  1  0.00000000  0.00000000  0.50000000  1
  Ni  Ni7  1  0.50000000  0.00000000  0.00000000  1
  P  P8  1  0.47597850  0.25000000  0.67861950  1
  P  P9  1  0.97597850  0.75000000  0.82138050  1
  P  P10  1  0.02402150  0.25000000  0.17861950  1
  P  P11  1  0.52402150  0.75000000  0.32138050  1
  O  O12  1  0.78713950  0.25000000  0.63516550  1
  O  O13  1  0.28713950  0.75000000  0.86483450  1
  O  O14  1  0.71286050  0.25000000  0.13516550  1
  O  O15  1  0.21286050  0.75000000  0.36483450  1
  O  O16  1  0.92440550  0.75000000  0.64760650  1
  O  O17  1  0.42440550  0.25000000  0.85239350  1
  O  O18  1  0.57559450  0.75000000  0.14760650  1
  O  O19  1  0.07559450  0.25000000  0.35239350  1
  O  O20  1  0.34019050  0.04734200  0.61945550  1
  O  O21  1  0.34019050  0.45265800  0.61945550  1
  O  O22  1  0.84019050  0.95265800  0.88054450  1
  O  O23  1  0.84019050  0.54734200  0.88054450  1
  O  O24  1  0.15980950  0.04734200  0.11945550  1
  O  O25  1  0.15980950  0.45265800  0.11945550  1
  O  O26  1  0.65980950  0.54734200  0.38054450  1
  O  O27  1  0.65980950  0.95265800  0.38054450  1
