# generated using pymatgen
data_Li6Cr5CuO12
_symmetry_space_group_name_H-M   'P 1'
_cell_length_a   5.08990909
_cell_length_b   8.82701500
_cell_length_c   9.99949147
_cell_angle_alpha   90.00000000
_cell_angle_beta   98.60052815
_cell_angle_gamma   90.00000000
_symmetry_Int_Tables_number   1
_chemical_formula_structural   Li6Cr5CuO12
_chemical_formula_sum   'Li12 Cr10 Cu2 O24'
_cell_volume   444.21221665
_cell_formula_units_Z   2
loop_
 _symmetry_equiv_pos_site_id
 _symmetry_equiv_pos_as_xyz
  1  'x, y, z'
loop_
 _atom_site_type_symbol
 _atom_site_label
 _atom_site_symmetry_multiplicity
 _atom_site_fract_x
 _atom_site_fract_y
 _atom_site_fract_z
 _atom_site_occupancy
  Li  Li0  1  0.38564850  0.50000000  0.74869800  1
  Li  Li1  1  0.11376900  0.66553500  0.25779800  1
  Li  Li2  1  0.61376900  0.83446500  0.25779800  1
  Li  Li3  1  0.88623100  0.66553500  0.74220200  1
  Li  Li4  1  0.38623100  0.83446500  0.74220200  1
  Li  Li5  1  0.61435150  0.50000000  0.25130200  1
  Li  Li6  1  0.88564850  0.00000000  0.74869800  1
  Li  Li7  1  0.61376900  0.16553500  0.25779800  1
  Li  Li8  1  0.11376900  0.33446500  0.25779800  1
  Li  Li9  1  0.38623100  0.16553500  0.74220200  1
  Li  Li10  1  0.88623100  0.33446500  0.74220200  1
  Li  Li11  1  0.11435150  0.00000000  0.25130200  1
  Cr  Cr12  1  0.50000000  0.66658400  0.50000000  1
  Cr  Cr13  1  0.00000000  0.50000000  0.50000000  1
  Cr  Cr14  1  0.00000000  0.83341600  0.50000000  1
  Cr  Cr15  1  0.50000000  0.83329400  0.00000000  1
  Cr  Cr16  1  0.00000000  0.66670600  0.00000000  1
  Cr  Cr17  1  0.00000000  0.16658400  0.50000000  1
  Cr  Cr18  1  0.50000000  0.00000000  0.50000000  1
  Cr  Cr19  1  0.50000000  0.33341600  0.50000000  1
  Cr  Cr20  1  0.00000000  0.33329400  0.00000000  1
  Cr  Cr21  1  0.50000000  0.16670600  0.00000000  1
  Cu  Cu22  1  0.00000000  0.00000000  0.00000000  1
  Cu  Cu23  1  0.50000000  0.50000000  0.00000000  1
  O  O24  1  0.30147050  0.50000000  0.38951200  1
  O  O25  1  0.63302200  0.66856300  0.88814200  1
  O  O26  1  0.13302200  0.83143700  0.88814200  1
  O  O27  1  0.19824450  0.66676850  0.61066700  1
  O  O28  1  0.69824450  0.83323150  0.61066700  1
  O  O29  1  0.12253950  0.50000000  0.88614700  1
  O  O30  1  0.87746050  0.50000000  0.11385300  1
  O  O31  1  0.80175550  0.66676850  0.38933300  1
  O  O32  1  0.30175550  0.83323150  0.38933300  1
  O  O33  1  0.36697800  0.66856300  0.11185800  1
  O  O34  1  0.86697800  0.83143700  0.11185800  1
  O  O35  1  0.69852950  0.50000000  0.61048800  1
  O  O36  1  0.80147050  0.00000000  0.38951200  1
  O  O37  1  0.13302200  0.16856300  0.88814200  1
  O  O38  1  0.63302200  0.33143700  0.88814200  1
  O  O39  1  0.69824450  0.16676850  0.61066700  1
  O  O40  1  0.19824450  0.33323150  0.61066700  1
  O  O41  1  0.62253950  0.00000000  0.88614700  1
  O  O42  1  0.37746050  0.00000000  0.11385300  1
  O  O43  1  0.30175550  0.16676850  0.38933300  1
  O  O44  1  0.80175550  0.33323150  0.38933300  1
  O  O45  1  0.86697800  0.16856300  0.11185800  1
  O  O46  1  0.36697800  0.33143700  0.11185800  1
  O  O47  1  0.19852950  0.00000000  0.61048800  1
