# generated using pymatgen
data_LiFeSbO4
_symmetry_space_group_name_H-M   'P 1'
_cell_length_a   6.09310503
_cell_length_b   6.23423146
_cell_length_c   8.98046850
_cell_angle_alpha   90.00000000
_cell_angle_beta   90.00000000
_cell_angle_gamma   90.00000000
_symmetry_Int_Tables_number   1
_chemical_formula_structural   LiFeSbO4
_chemical_formula_sum   'Li4 Fe4 Sb4 O16'
_cell_volume   341.13052348
_cell_formula_units_Z   4
loop_
 _symmetry_equiv_pos_site_id
 _symmetry_equiv_pos_as_xyz
  1  'x, y, z'
loop_
 _atom_site_type_symbol
 _atom_site_label
 _atom_site_symmetry_multiplicity
 _atom_site_fract_x
 _atom_site_fract_y
 _atom_site_fract_z
 _atom_site_occupancy
  Li  Li0  1  0.00000000  0.25000000  0.85282125  1
  Li  Li1  1  0.00000000  0.75000000  0.14717875  1
  Li  Li2  1  0.50000000  0.75000000  0.35282125  1
  Li  Li3  1  0.50000000  0.25000000  0.64717875  1
  Fe  Fe4  1  0.75000000  0.75000000  0.75000000  1
  Fe  Fe5  1  0.25000000  0.75000000  0.75000000  1
  Fe  Fe6  1  0.25000000  0.25000000  0.25000000  1
  Fe  Fe7  1  0.75000000  0.25000000  0.25000000  1
  Sb  Sb8  1  0.50000000  0.00000000  0.00000000  1
  Sb  Sb9  1  0.50000000  0.50000000  0.00000000  1
  Sb  Sb10  1  0.00000000  0.50000000  0.50000000  1
  Sb  Sb11  1  0.00000000  0.00000000  0.50000000  1
  O  O12  1  0.27525500  0.25000000  0.00079725  1
  O  O13  1  0.72474500  0.25000000  0.00079725  1
  O  O14  1  0.27525500  0.75000000  0.99920275  1
  O  O15  1  0.72474500  0.75000000  0.99920275  1
  O  O16  1  0.50000000  0.01475600  0.21977525  1
  O  O17  1  0.50000000  0.48524400  0.21977525  1
  O  O18  1  0.50000000  0.98524400  0.78022475  1
  O  O19  1  0.50000000  0.51475600  0.78022475  1
  O  O20  1  0.77525500  0.75000000  0.50079725  1
  O  O21  1  0.22474500  0.75000000  0.50079725  1
  O  O22  1  0.77525500  0.25000000  0.49920275  1
  O  O23  1  0.22474500  0.25000000  0.49920275  1
  O  O24  1  0.00000000  0.51475600  0.71977525  1
  O  O25  1  0.00000000  0.98524400  0.71977525  1
  O  O26  1  0.00000000  0.48524400  0.28022475  1
  O  O27  1  0.00000000  0.01475600  0.28022475  1
