# generated using pymatgen
data_Li2Fe3CoO8
_symmetry_space_group_name_H-M   'P 1'
_cell_length_a   5.92631643
_cell_length_b   5.92631643
_cell_length_c   14.40002839
_cell_angle_alpha   90.00000000
_cell_angle_beta   90.00000000
_cell_angle_gamma   120.00000000
_symmetry_Int_Tables_number   1
_chemical_formula_structural   Li2Fe3CoO8
_chemical_formula_sum   'Li6 Fe9 Co3 O24'
_cell_volume   437.98945309
_cell_formula_units_Z   3
loop_
 _symmetry_equiv_pos_site_id
 _symmetry_equiv_pos_as_xyz
  1  'x, y, z'
loop_
 _atom_site_type_symbol
 _atom_site_label
 _atom_site_symmetry_multiplicity
 _atom_site_fract_x
 _atom_site_fract_y
 _atom_site_fract_z
 _atom_site_occupancy
  Li  Li0  1  0.33333333  0.66666667  0.54685167  1
  Li  Li1  1  0.33333333  0.66666667  0.16793267  1
  Li  Li2  1  0.00000000  0.00000000  0.88018500  1
  Li  Li3  1  0.00000000  0.00000000  0.50126600  1
  Li  Li4  1  0.66666667  0.33333333  0.21351833  1
  Li  Li5  1  0.66666667  0.33333333  0.83459933  1
  Fe  Fe6  1  0.66011800  0.83005900  0.33292000  1
  Fe  Fe7  1  0.16994100  0.83005900  0.33292000  1
  Fe  Fe8  1  0.16994100  0.33988200  0.33292000  1
  Fe  Fe9  1  0.32678467  0.16339233  0.66625333  1
  Fe  Fe10  1  0.83660767  0.16339233  0.66625333  1
  Fe  Fe11  1  0.83660767  0.67321533  0.66625333  1
  Fe  Fe12  1  0.99345133  0.49672567  0.99958667  1
  Fe  Fe13  1  0.50327433  0.49672567  0.99958667  1
  Fe  Fe14  1  0.50327433  0.00654867  0.99958667  1
  Co  Co15  1  0.33333333  0.66666667  0.78337867  1
  Co  Co16  1  0.00000000  0.00000000  0.11671200  1
  Co  Co17  1  0.66666667  0.33333333  0.45004533  1
  O  O18  1  0.33333333  0.66666667  0.41260867  1
  O  O19  1  0.48474033  0.96948067  0.26240067  1
  O  O20  1  0.48474033  0.51525967  0.26240067  1
  O  O21  1  0.03051933  0.51525967  0.26240067  1
  O  O22  1  0.63988733  0.81994367  0.07235867  1
  O  O23  1  0.18005633  0.81994367  0.07235867  1
  O  O24  1  0.18005633  0.36011267  0.07235867  1
  O  O25  1  0.33333333  0.66666667  0.91952367  1
  O  O26  1  0.00000000  0.00000000  0.74594200  1
  O  O27  1  0.15140700  0.30281400  0.59573400  1
  O  O28  1  0.15140700  0.84859300  0.59573400  1
  O  O29  1  0.69718600  0.84859300  0.59573400  1
  O  O30  1  0.30655400  0.15327700  0.40569200  1
  O  O31  1  0.84672300  0.15327700  0.40569200  1
  O  O32  1  0.84672300  0.69344600  0.40569200  1
  O  O33  1  0.00000000  0.00000000  0.25285700  1
  O  O34  1  0.66666667  0.33333333  0.07927533  1
  O  O35  1  0.81807367  0.63614733  0.92906733  1
  O  O36  1  0.81807367  0.18192633  0.92906733  1
  O  O37  1  0.36385267  0.18192633  0.92906733  1
  O  O38  1  0.97322067  0.48661033  0.73902533  1
  O  O39  1  0.51338967  0.48661033  0.73902533  1
  O  O40  1  0.51338967  0.02677933  0.73902533  1
  O  O41  1  0.66666667  0.33333333  0.58619033  1
