# generated using pymatgen
data_Li7Mn3Co3O16
_symmetry_space_group_name_H-M   'P 1'
_cell_length_a   9.83668730
_cell_length_b   5.66513535
_cell_length_c   9.92152476
_cell_angle_alpha   90.00000000
_cell_angle_beta   92.81826248
_cell_angle_gamma   90.00000000
_symmetry_Int_Tables_number   1
_chemical_formula_structural   Li7Mn3Co3O16
_chemical_formula_sum   'Li14 Mn6 Co6 O32'
_cell_volume   552.21981535
_cell_formula_units_Z   2
loop_
 _symmetry_equiv_pos_site_id
 _symmetry_equiv_pos_as_xyz
  1  'x, y, z'
loop_
 _atom_site_type_symbol
 _atom_site_label
 _atom_site_symmetry_multiplicity
 _atom_site_fract_x
 _atom_site_fract_y
 _atom_site_fract_z
 _atom_site_occupancy
  Li  Li0  1  0.47557000  0.50000000  0.49086200  1
  Li  Li1  1  0.16268900  0.50000000  0.97786500  1
  Li  Li2  1  0.16607150  0.50000000  0.42108000  1
  Li  Li3  1  0.16497600  0.50000000  0.20338400  1
  Li  Li4  1  0.41558650  0.24333750  0.95592300  1
  Li  Li5  1  0.31495350  0.00000000  0.49914000  1
  Li  Li6  1  0.41558650  0.75666250  0.95592300  1
  Li  Li7  1  0.97557000  0.00000000  0.49086200  1
  Li  Li8  1  0.66268900  0.00000000  0.97786500  1
  Li  Li9  1  0.66607150  0.00000000  0.42108000  1
  Li  Li10  1  0.66497600  0.00000000  0.20338400  1
  Li  Li11  1  0.91558650  0.74333750  0.95592300  1
  Li  Li12  1  0.81495350  0.50000000  0.49914000  1
  Li  Li13  1  0.91558650  0.25666250  0.95592300  1
  Mn  Mn14  1  0.07800500  0.74850100  0.71795300  1
  Mn  Mn15  1  0.07800500  0.25149900  0.71795300  1
  Mn  Mn16  1  0.16328300  0.00000000  0.20555500  1
  Mn  Mn17  1  0.57800500  0.24850100  0.71795300  1
  Mn  Mn18  1  0.57800500  0.75149900  0.71795300  1
  Mn  Mn19  1  0.66328300  0.50000000  0.20555500  1
  Co  Co20  1  0.33087300  0.50000000  0.70968000  1
  Co  Co21  1  0.41389400  0.24813400  0.21237600  1
  Co  Co22  1  0.41389400  0.75186600  0.21237600  1
  Co  Co23  1  0.83087300  0.00000000  0.70968000  1
  Co  Co24  1  0.91389400  0.74813400  0.21237600  1
  Co  Co25  1  0.91389400  0.25186600  0.21237600  1
  O  O26  1  0.49684150  0.50000000  0.82085800  1
  O  O27  1  0.00268250  0.00000000  0.30970500  1
  O  O28  1  0.33693100  0.50000000  0.10524900  1
  O  O29  1  0.24781300  0.71081900  0.82487500  1
  O  O30  1  0.24781300  0.28918100  0.82487500  1
  O  O31  1  0.15568650  0.50000000  0.61195100  1
  O  O32  1  0.06663950  0.75519050  0.10447800  1
  O  O33  1  0.01133950  0.50000000  0.83207200  1
  O  O34  1  0.40897550  0.26363550  0.61318400  1
  O  O35  1  0.49085300  0.00000000  0.31350100  1
  O  O36  1  0.06663950  0.24480950  0.10447800  1
  O  O37  1  0.25751700  0.23942100  0.31510800  1
  O  O38  1  0.32870600  0.00000000  0.10455400  1
  O  O39  1  0.40897550  0.73636450  0.61318400  1
  O  O40  1  0.25751700  0.76057900  0.31510800  1
  O  O41  1  0.14229900  0.00000000  0.61020800  1
  O  O42  1  0.99684150  0.00000000  0.82085800  1
  O  O43  1  0.50268250  0.50000000  0.30970500  1
  O  O44  1  0.83693100  0.00000000  0.10524900  1
  O  O45  1  0.74781300  0.21081900  0.82487500  1
  O  O46  1  0.74781300  0.78918100  0.82487500  1
  O  O47  1  0.65568650  0.00000000  0.61195100  1
  O  O48  1  0.56663950  0.25519050  0.10447800  1
  O  O49  1  0.51133950  0.00000000  0.83207200  1
  O  O50  1  0.90897550  0.76363550  0.61318400  1
  O  O51  1  0.99085300  0.50000000  0.31350100  1
  O  O52  1  0.56663950  0.74480950  0.10447800  1
  O  O53  1  0.75751700  0.73942100  0.31510800  1
  O  O54  1  0.82870600  0.50000000  0.10455400  1
  O  O55  1  0.90897550  0.23636450  0.61318400  1
  O  O56  1  0.75751700  0.26057900  0.31510800  1
  O  O57  1  0.64229900  0.50000000  0.61020800  1
