# generated using pymatgen
data_Li3MnFe2(BO3)3
_symmetry_space_group_name_H-M   'P 1'
_cell_length_a   8.22402755
_cell_length_b   3.15807651
_cell_length_c   8.23666296
_cell_angle_alpha   90.00000000
_cell_angle_beta   119.77641796
_cell_angle_gamma   90.00000000
_symmetry_Int_Tables_number   1
_chemical_formula_structural   Li3MnFe2(BO3)3
_chemical_formula_sum   'Li3 Mn1 Fe2 B3 O9'
_cell_volume   185.67916597
_cell_formula_units_Z   1
loop_
 _symmetry_equiv_pos_site_id
 _symmetry_equiv_pos_as_xyz
  1  'x, y, z'
loop_
 _atom_site_type_symbol
 _atom_site_label
 _atom_site_symmetry_multiplicity
 _atom_site_fract_x
 _atom_site_fract_y
 _atom_site_fract_z
 _atom_site_occupancy
  Li  Li0  1  0.71648900  0.00000000  0.69880600  1
  Li  Li1  1  0.98441050  0.00000000  0.28521300  1
  Li  Li2  1  0.30125050  0.00000000  0.01551550  1
  Mn  Mn3  1  0.62645300  0.50000000  0.98727900  1
  Fe  Fe4  1  0.35986900  0.50000000  0.36747400  1
  Fe  Fe5  1  0.00793300  0.50000000  0.63951350  1
  B  B6  1  0.00236350  0.50000000  0.00222550  1
  B  B7  1  0.66673950  0.00000000  0.33556600  1
  B  B8  1  0.33070650  0.00000000  0.66350400  1
  O  O9  1  0.89158150  0.50000000  0.80751850  1
  O  O10  1  0.86132700  0.00000000  0.44341250  1
  O  O11  1  0.91980250  0.50000000  0.11370700  1
  O  O12  1  0.55818650  0.00000000  0.42172500  1
  O  O13  1  0.58077000  0.00000000  0.14192350  1
  O  O14  1  0.52559600  0.00000000  0.77704950  1
  O  O15  1  0.19712000  0.50000000  0.08437550  1
  O  O16  1  0.21742900  0.00000000  0.74517300  1
  O  O17  1  0.25197250  0.00000000  0.47001800  1
