# generated using pymatgen
data_Mn3FeO8
_symmetry_space_group_name_H-M   'P 1'
_cell_length_a   5.82180222
_cell_length_b   5.82180222
_cell_length_c   14.60378121
_cell_angle_alpha   90.00000000
_cell_angle_beta   90.00000000
_cell_angle_gamma   120.00000000
_symmetry_Int_Tables_number   1
_chemical_formula_structural   Mn3FeO8
_chemical_formula_sum   'Mn9 Fe3 O24'
_cell_volume   428.65791261
_cell_formula_units_Z   3
loop_
 _symmetry_equiv_pos_site_id
 _symmetry_equiv_pos_as_xyz
  1  'x, y, z'
loop_
 _atom_site_type_symbol
 _atom_site_label
 _atom_site_symmetry_multiplicity
 _atom_site_fract_x
 _atom_site_fract_y
 _atom_site_fract_z
 _atom_site_occupancy
  Mn  Mn0  1  0.50000000  0.50000000  0.00000000  1
  Mn  Mn1  1  0.00000000  0.50000000  0.00000000  1
  Mn  Mn2  1  0.50000000  0.00000000  0.00000000  1
  Mn  Mn3  1  0.16666667  0.83333333  0.33333333  1
  Mn  Mn4  1  0.66666667  0.83333333  0.33333333  1
  Mn  Mn5  1  0.16666667  0.33333333  0.33333333  1
  Mn  Mn6  1  0.83333333  0.16666667  0.66666667  1
  Mn  Mn7  1  0.33333333  0.16666667  0.66666667  1
  Mn  Mn8  1  0.83333333  0.66666667  0.66666667  1
  Fe  Fe9  1  0.33333333  0.66666667  0.16666667  1
  Fe  Fe10  1  1.00000000  1.00000000  0.50000000  1
  Fe  Fe11  1  0.66666667  0.33333333  0.83333333  1
  O  O12  1  0.66666667  0.33333333  0.06731133  1
  O  O13  1  0.48185067  0.96370133  0.25756133  1
  O  O14  1  0.03629867  0.51814933  0.25756133  1
  O  O15  1  0.48185067  0.51814933  0.25756133  1
  O  O16  1  0.18481600  0.81518400  0.07577200  1
  O  O17  1  0.63036800  0.81518400  0.07577200  1
  O  O18  1  0.18481600  0.36963200  0.07577200  1
  O  O19  1  0.00000000  0.00000000  0.26602200  1
  O  O20  1  0.33333333  0.66666667  0.40064467  1
  O  O21  1  0.14851733  0.29703467  0.59089467  1
  O  O22  1  0.70296533  0.85148267  0.59089467  1
  O  O23  1  0.14851733  0.85148267  0.59089467  1
  O  O24  1  0.85148267  0.14851733  0.40910533  1
  O  O25  1  0.29703467  0.14851733  0.40910533  1
  O  O26  1  0.85148267  0.70296533  0.40910533  1
  O  O27  1  0.66666667  0.33333333  0.59935533  1
  O  O28  1  0.00000000  0.00000000  0.73397800  1
  O  O29  1  0.81518400  0.63036800  0.92422800  1
  O  O30  1  0.36963200  0.18481600  0.92422800  1
  O  O31  1  0.81518400  0.18481600  0.92422800  1
  O  O32  1  0.51814933  0.48185067  0.74243867  1
  O  O33  1  0.96370133  0.48185067  0.74243867  1
  O  O34  1  0.51814933  0.03629867  0.74243867  1
  O  O35  1  0.33333333  0.66666667  0.93268867  1
