# generated using pymatgen
data_Li2Cu2F7
_symmetry_space_group_name_H-M   'P 1'
_cell_length_a   7.49047500
_cell_length_b   5.06350100
_cell_length_c   12.91262337
_cell_angle_alpha   90.00000000
_cell_angle_beta   97.56873288
_cell_angle_gamma   90.00000000
_symmetry_Int_Tables_number   1
_chemical_formula_structural   Li2Cu2F7
_chemical_formula_sum   'Li8 Cu8 F28'
_cell_volume   485.48341911
_cell_formula_units_Z   4
loop_
 _symmetry_equiv_pos_site_id
 _symmetry_equiv_pos_as_xyz
  1  'x, y, z'
loop_
 _atom_site_type_symbol
 _atom_site_label
 _atom_site_symmetry_multiplicity
 _atom_site_fract_x
 _atom_site_fract_y
 _atom_site_fract_z
 _atom_site_occupancy
  Li  Li0  1  0.85826200  0.23522300  0.44372500  1
  Li  Li1  1  0.77783000  0.72490500  0.09793900  1
  Li  Li2  1  0.70929000  0.25884000  0.86346300  1
  Li  Li3  1  0.60447800  0.70081000  0.57170200  1
  Li  Li4  1  0.39552200  0.20081000  0.42829800  1
  Li  Li5  1  0.29071000  0.75884000  0.13653700  1
  Li  Li6  1  0.22217000  0.22490500  0.90206100  1
  Li  Li7  1  0.14173800  0.73522300  0.55627500  1
  Cu  Cu8  1  0.97527100  0.73765400  0.89359300  1
  Cu  Cu9  1  0.92037100  0.24606300  0.68157400  1
  Cu  Cu10  1  0.58463300  0.72969800  0.31700300  1
  Cu  Cu11  1  0.52728900  0.23447400  0.10881000  1
  Cu  Cu12  1  0.47271100  0.73447400  0.89119000  1
  Cu  Cu13  1  0.41536700  0.22969800  0.68299700  1
  Cu  Cu14  1  0.07962900  0.74606300  0.31842600  1
  Cu  Cu15  1  0.02472900  0.23765400  0.10640700  1
  F  F16  1  0.98229500  0.55475700  0.18672300  1
  F  F17  1  0.94359500  0.97173000  0.58673800  1
  F  F18  1  0.83442400  0.87809400  0.33283500  1
  F  F19  1  0.77267300  0.09717000  0.11932000  1
  F  F20  1  0.92765500  0.42604300  0.97919400  1
  F  F21  1  0.87852500  0.52559500  0.77797300  1
  F  F22  1  0.82105900  0.45922400  0.56945900  1
  F  F23  1  0.61048900  0.57015200  0.17927000  1
  F  F24  1  0.63271700  0.40448800  0.38381800  1
  F  F25  1  0.72210000  0.88068400  0.91398400  1
  F  F26  1  0.67900700  0.11262400  0.70816400  1
  F  F27  1  0.56268000  0.90459500  0.44470200  1
  F  F28  1  0.48157900  0.03109000  0.23298900  1
  F  F29  1  0.43091100  0.92359700  0.02505800  1
  F  F30  1  0.56908900  0.42359700  0.97494200  1
  F  F31  1  0.51842100  0.53109000  0.76701100  1
  F  F32  1  0.43732000  0.40459500  0.55529800  1
  F  F33  1  0.32099300  0.61262400  0.29183600  1
  F  F34  1  0.27790000  0.38068400  0.08601600  1
  F  F35  1  0.36728300  0.90448800  0.61618200  1
  F  F36  1  0.38951100  0.07015200  0.82073000  1
  F  F37  1  0.17894100  0.95922400  0.43054100  1
  F  F38  1  0.12147500  0.02559500  0.22202700  1
  F  F39  1  0.07234500  0.92604300  0.02080600  1
  F  F40  1  0.22732700  0.59717000  0.88068000  1
  F  F41  1  0.16557600  0.37809400  0.66716500  1
  F  F42  1  0.05640500  0.47173000  0.41326200  1
  F  F43  1  0.01770500  0.05475700  0.81327700  1
