# generated using pymatgen
data_Tm2WO6
_symmetry_space_group_name_H-M   'P 1'
_cell_length_a   16.19266600
_cell_length_b   10.98387000
_cell_length_c   5.34113025
_cell_angle_alpha   90.00000000
_cell_angle_beta   107.20225476
_cell_angle_gamma   90.00000000
_symmetry_Int_Tables_number   1
_chemical_formula_structural   Tm2WO6
_chemical_formula_sum   'Tm16 W8 O48'
_cell_volume   907.46850465
_cell_formula_units_Z   8
loop_
 _symmetry_equiv_pos_site_id
 _symmetry_equiv_pos_as_xyz
  1  'x, y, z'
loop_
 _atom_site_type_symbol
 _atom_site_label
 _atom_site_symmetry_multiplicity
 _atom_site_fract_x
 _atom_site_fract_y
 _atom_site_fract_z
 _atom_site_occupancy
  Tm  Tm0  1  0.83069350  0.88581350  0.61846300  1
  Tm  Tm1  1  0.83069350  0.11418650  0.11846300  1
  Tm  Tm2  1  0.50000000  0.13483600  0.75000000  1
  Tm  Tm3  1  0.50000000  0.60409000  0.75000000  1
  Tm  Tm4  1  0.50000000  0.39591000  0.25000000  1
  Tm  Tm5  1  0.50000000  0.86516400  0.25000000  1
  Tm  Tm6  1  0.16930650  0.88581350  0.88153700  1
  Tm  Tm7  1  0.16930650  0.11418650  0.38153700  1
  Tm  Tm8  1  0.33069350  0.38581350  0.61846300  1
  Tm  Tm9  1  0.33069350  0.61418650  0.11846300  1
  Tm  Tm10  1  0.00000000  0.63483600  0.75000000  1
  Tm  Tm11  1  0.00000000  0.10409000  0.75000000  1
  Tm  Tm12  1  0.00000000  0.89591000  0.25000000  1
  Tm  Tm13  1  0.00000000  0.36516400  0.25000000  1
  Tm  Tm14  1  0.66930650  0.38581350  0.88153700  1
  Tm  Tm15  1  0.66930650  0.61418650  0.38153700  1
  W  W16  1  0.65352850  0.85288550  0.93236600  1
  W  W17  1  0.65352850  0.14711450  0.43236600  1
  W  W18  1  0.34647150  0.85288550  0.56763400  1
  W  W19  1  0.34647150  0.14711450  0.06763400  1
  W  W20  1  0.15352850  0.35288550  0.93236600  1
  W  W21  1  0.15352850  0.64711450  0.43236600  1
  W  W22  1  0.84647150  0.35288550  0.56763400  1
  W  W23  1  0.84647150  0.64711450  0.06763400  1
  O  O24  1  0.90897750  0.01674350  0.92199100  1
  O  O25  1  0.90897750  0.98325650  0.42199100  1
  O  O26  1  0.73377200  0.20757200  0.74241900  1
  O  O27  1  0.73587000  0.95082500  0.85250500  1
  O  O28  1  0.73377200  0.79242800  0.24241900  1
  O  O29  1  0.73587000  0.04917500  0.35250500  1
  O  O30  1  0.60106500  0.77792500  0.60915700  1
  O  O31  1  0.60106500  0.22207500  0.10915700  1
  O  O32  1  0.57747150  0.96750550  0.98119000  1
  O  O33  1  0.57553500  0.26569200  0.57789800  1
  O  O34  1  0.57747150  0.03249450  0.48119000  1
  O  O35  1  0.57553500  0.73430800  0.07789800  1
  O  O36  1  0.42446500  0.26569200  0.92210200  1
  O  O37  1  0.42252850  0.96750550  0.51881000  1
  O  O38  1  0.42446500  0.73430800  0.42210200  1
  O  O39  1  0.42252850  0.03249450  0.01881000  1
  O  O40  1  0.39893500  0.77792500  0.89084300  1
  O  O41  1  0.39893500  0.22207500  0.39084300  1
  O  O42  1  0.26413000  0.95082500  0.64749500  1
  O  O43  1  0.26622800  0.20757200  0.75758100  1
  O  O44  1  0.26413000  0.04917500  0.14749500  1
  O  O45  1  0.26622800  0.79242800  0.25758100  1
  O  O46  1  0.09102250  0.01674350  0.57800900  1
  O  O47  1  0.09102250  0.98325650  0.07800900  1
  O  O48  1  0.40897750  0.51674350  0.92199100  1
  O  O49  1  0.40897750  0.48325650  0.42199100  1
  O  O50  1  0.23377200  0.70757200  0.74241900  1
  O  O51  1  0.23587000  0.45082500  0.85250500  1
  O  O52  1  0.23377200  0.29242800  0.24241900  1
  O  O53  1  0.23587000  0.54917500  0.35250500  1
  O  O54  1  0.10106500  0.27792500  0.60915700  1
  O  O55  1  0.10106500  0.72207500  0.10915700  1
  O  O56  1  0.07747150  0.46750550  0.98119000  1
  O  O57  1  0.07553500  0.76569200  0.57789800  1
  O  O58  1  0.07747150  0.53249450  0.48119000  1
  O  O59  1  0.07553500  0.23430800  0.07789800  1
  O  O60  1  0.92446500  0.76569200  0.92210200  1
  O  O61  1  0.92252850  0.46750550  0.51881000  1
  O  O62  1  0.92446500  0.23430800  0.42210200  1
  O  O63  1  0.92252850  0.53249450  0.01881000  1
  O  O64  1  0.89893500  0.27792500  0.89084300  1
  O  O65  1  0.89893500  0.72207500  0.39084300  1
  O  O66  1  0.76413000  0.45082500  0.64749500  1
  O  O67  1  0.76622800  0.70757200  0.75758100  1
  O  O68  1  0.76413000  0.54917500  0.14749500  1
  O  O69  1  0.76622800  0.29242800  0.25758100  1
  O  O70  1  0.59102250  0.51674350  0.57800900  1
  O  O71  1  0.59102250  0.48325650  0.07800900  1
