# generated using pymatgen
data_MnCr(PO4)2
_symmetry_space_group_name_H-M   'P 1'
_cell_length_a   8.60464621
_cell_length_b   8.60464621
_cell_length_c   20.32332054
_cell_angle_alpha   90.00000000
_cell_angle_beta   90.00000000
_cell_angle_gamma   120.00000000
_symmetry_Int_Tables_number   1
_chemical_formula_structural   MnCr(PO4)2
_chemical_formula_sum   'Mn9 Cr9 P18 O72'
_cell_volume   1303.14078009
_cell_formula_units_Z   9
loop_
 _symmetry_equiv_pos_site_id
 _symmetry_equiv_pos_as_xyz
  1  'x, y, z'
loop_
 _atom_site_type_symbol
 _atom_site_label
 _atom_site_symmetry_multiplicity
 _atom_site_fract_x
 _atom_site_fract_y
 _atom_site_fract_z
 _atom_site_occupancy
  Mn  Mn0  1  0.33333333  0.66666667  0.31140267  1
  Mn  Mn1  1  0.33333333  0.66666667  0.52185767  1
  Mn  Mn2  1  0.33333333  0.66666667  0.02150767  1
  Mn  Mn3  1  0.00000000  0.00000000  0.64473600  1
  Mn  Mn4  1  0.00000000  0.00000000  0.85519100  1
  Mn  Mn5  1  0.00000000  0.00000000  0.35484100  1
  Mn  Mn6  1  0.66666667  0.33333333  0.97806933  1
  Mn  Mn7  1  0.66666667  0.33333333  0.18852433  1
  Mn  Mn8  1  0.66666667  0.33333333  0.68817433  1
  Cr  Cr9  1  0.33333333  0.66666667  0.66622167  1
  Cr  Cr10  1  0.33333333  0.66666667  0.80896767  1
  Cr  Cr11  1  0.33333333  0.66666667  0.16647867  1
  Cr  Cr12  1  0.00000000  0.00000000  0.99955500  1
  Cr  Cr13  1  0.00000000  0.00000000  0.14230100  1
  Cr  Cr14  1  0.00000000  0.00000000  0.49981200  1
  Cr  Cr15  1  0.66666667  0.33333333  0.33288833  1
  Cr  Cr16  1  0.66666667  0.33333333  0.47563433  1
  Cr  Cr17  1  0.66666667  0.33333333  0.83314533  1
  P  P18  1  0.70338900  0.70304400  0.24972000  1
  P  P19  1  0.29695600  0.00034500  0.24972000  1
  P  P20  1  0.99965500  0.29661100  0.24972000  1
  P  P21  1  0.66626933  0.03461367  0.08346667  1
  P  P22  1  0.36834433  0.33373067  0.08346667  1
  P  P23  1  0.96538633  0.63165567  0.08346667  1
  P  P24  1  0.37005567  0.03637733  0.58305333  1
  P  P25  1  0.96362267  0.33367833  0.58305333  1
  P  P26  1  0.66632167  0.62994433  0.58305333  1
  P  P27  1  0.33293600  0.36794700  0.41680000  1
  P  P28  1  0.03501100  0.66706400  0.41680000  1
  P  P29  1  0.63205300  0.96498900  0.41680000  1
  P  P30  1  0.03672233  0.36971067  0.91638667  1
  P  P31  1  0.63028933  0.66701167  0.91638667  1
  P  P32  1  0.33298833  0.96327767  0.91638667  1
  P  P33  1  0.99960267  0.70128033  0.75013333  1
  P  P34  1  0.70167767  0.00039733  0.75013333  1
  P  P35  1  0.29871967  0.29832233  0.75013333  1
  O  O36  1  0.53301800  0.65959500  0.97939700  1
  O  O37  1  0.34040500  0.87342300  0.97939700  1
  O  O38  1  0.12657700  0.46698200  0.97939700  1
  O  O39  1  0.67608267  0.51036233  0.26084833  1
  O  O40  1  0.80803033  0.79697267  0.18838067  1
  O  O41  1  0.51121267  0.67792233  0.23820633  1
  O  O42  1  0.48963767  0.16572033  0.26084833  1
  O  O43  1  0.32207767  0.83329033  0.23820633  1
  O  O44  1  0.67617100  0.13554100  0.14585100  1
  O  O45  1  0.16670967  0.48878733  0.23820633  1
  O  O46  1  0.83346900  0.00785100  0.07306800  1
  O  O47  1  0.45937000  0.32382900  0.14585100  1
  O  O48  1  0.20302733  0.01105767  0.18838067  1
  O  O49  1  0.83427967  0.32391733  0.26084833  1
  O  O50  1  0.50196067  0.84239333  0.09492033  1
  O  O51  1  0.98894233  0.19196967  0.18838067  1
  O  O52  1  0.34043267  0.49803933  0.09492033  1
  O  O53  1  0.17438200  0.16653100  0.07306800  1
  O  O54  1  0.15760667  0.65956733  0.09492033  1
  O  O55  1  0.86445900  0.54063000  0.14585100  1
  O  O56  1  0.99214900  0.82561800  0.07306800  1
  O  O57  1  0.54232567  0.86561133  0.35399433  1
  O  O58  1  0.32328567  0.45767433  0.35399433  1
  O  O59  1  0.13438867  0.67671433  0.35399433  1
  O  O60  1  0.19968467  0.99292833  0.31273033  1
  O  O61  1  0.00707167  0.20675633  0.31273033  1
  O  O62  1  0.79324367  0.80031533  0.31273033  1
  O  O63  1  0.34274933  0.84369567  0.59418167  1
  O  O64  1  0.47469700  0.13030600  0.52171400  1
  O  O65  1  0.17787933  0.01125567  0.57153967  1
  O  O66  1  0.15630433  0.49905367  0.59418167  1
  O  O67  1  0.98874433  0.16662367  0.57153967  1
  O  O68  1  0.34283767  0.46887433  0.47918433  1
  O  O69  1  0.83337633  0.82212067  0.57153967  1
  O  O70  1  0.50013567  0.34118433  0.40640133  1
  O  O71  1  0.12603667  0.65716233  0.47918433  1
  O  O72  1  0.86969400  0.34439100  0.52171400  1
  O  O73  1  0.50094633  0.65725067  0.59418167  1
  O  O74  1  0.16862733  0.17572667  0.42825367  1
  O  O75  1  0.65560900  0.52530300  0.52171400  1
  O  O76  1  0.00709933  0.83137267  0.42825367  1
  O  O77  1  0.84104867  0.49986433  0.40640133  1
  O  O78  1  0.82427333  0.99290067  0.42825367  1
  O  O79  1  0.53112567  0.87396333  0.47918433  1
  O  O80  1  0.65881567  0.15895133  0.40640133  1
  O  O81  1  0.20899233  0.19894467  0.68732767  1
  O  O82  1  0.98995233  0.79100767  0.68732767  1
  O  O83  1  0.80105533  0.01004767  0.68732767  1
  O  O84  1  0.86635133  0.32626167  0.64606367  1
  O  O85  1  0.67373833  0.54008967  0.64606367  1
  O  O86  1  0.45991033  0.13364867  0.64606367  1
  O  O87  1  0.00941600  0.17702900  0.92751500  1
  O  O88  1  0.14136367  0.46363933  0.85504733  1
  O  O89  1  0.84454600  0.34458900  0.90487300  1
  O  O90  1  0.82297100  0.83238700  0.92751500  1
  O  O91  1  0.65541100  0.49995700  0.90487300  1
  O  O92  1  0.00950433  0.80220767  0.81251767  1
  O  O93  1  0.50004300  0.15545400  0.90487300  1
  O  O94  1  0.16680233  0.67451767  0.73973467  1
  O  O95  1  0.79270333  0.99049567  0.81251767  1
  O  O96  1  0.53636067  0.67772433  0.85504733  1
  O  O97  1  0.16761300  0.99058400  0.92751500  1
  O  O98  1  0.83529400  0.50906000  0.76158700  1
  O  O99  1  0.32227567  0.85863633  0.85504733  1
  O  O100  1  0.67376600  0.16470600  0.76158700  1
  O  O101  1  0.50771533  0.83319767  0.73973467  1
  O  O102  1  0.49094000  0.32623400  0.76158700  1
  O  O103  1  0.19779233  0.20729667  0.81251767  1
  O  O104  1  0.32548233  0.49228467  0.73973467  1
  O  O105  1  0.87565900  0.53227800  0.02066100  1
  O  O106  1  0.65661900  0.12434100  0.02066100  1
  O  O107  1  0.46772200  0.34338100  0.02066100  1
