# generated using pymatgen
data_Na5Fe6(SiO3)12
_symmetry_space_group_name_H-M   'P 1'
_cell_length_a   16.61574200
_cell_length_b   8.89042800
_cell_length_c   9.63702518
_cell_angle_alpha   90.00000000
_cell_angle_beta   109.99580065
_cell_angle_gamma   90.00000000
_symmetry_Int_Tables_number   1
_chemical_formula_structural   Na5Fe6(SiO3)12
_chemical_formula_sum   'Na10 Fe12 Si24 O72'
_cell_volume   1337.77416135
_cell_formula_units_Z   2
loop_
 _symmetry_equiv_pos_site_id
 _symmetry_equiv_pos_as_xyz
  1  'x, y, z'
loop_
 _atom_site_type_symbol
 _atom_site_label
 _atom_site_symmetry_multiplicity
 _atom_site_fract_x
 _atom_site_fract_y
 _atom_site_fract_z
 _atom_site_occupancy
  Na  Na0  1  0.33320550  0.95378750  0.33230900  1
  Na  Na1  1  0.00000000  0.04578900  0.50000000  1
  Na  Na2  1  0.16679450  0.45378750  0.66769100  1
  Na  Na3  1  0.33416400  0.04741300  0.83298800  1
  Na  Na4  1  0.16583600  0.54741300  0.16701200  1
  Na  Na5  1  0.83320550  0.45378750  0.33230900  1
  Na  Na6  1  0.50000000  0.54578900  0.50000000  1
  Na  Na7  1  0.66679450  0.95378750  0.66769100  1
  Na  Na8  1  0.83416400  0.54741300  0.83298800  1
  Na  Na9  1  0.66583600  0.04741300  0.16701200  1
  Fe  Fe10  1  0.33255650  0.34954950  0.33262600  1
  Fe  Fe11  1  0.00000000  0.65036100  0.50000000  1
  Fe  Fe12  1  0.16744350  0.84954950  0.66737400  1
  Fe  Fe13  1  0.33703700  0.64533200  0.83632400  1
  Fe  Fe14  1  0.00000000  0.34863800  0.00000000  1
  Fe  Fe15  1  0.16296300  0.14533200  0.16367600  1
  Fe  Fe16  1  0.83255650  0.84954950  0.33262600  1
  Fe  Fe17  1  0.50000000  0.15036100  0.50000000  1
  Fe  Fe18  1  0.66744350  0.34954950  0.66737400  1
  Fe  Fe19  1  0.83703700  0.14533200  0.83632400  1
  Fe  Fe20  1  0.50000000  0.84863800  0.00000000  1
  Fe  Fe21  1  0.66296300  0.64533200  0.16367600  1
  Si  Si22  1  0.39897400  0.33922600  0.69010600  1
  Si  Si23  1  0.26808100  0.66101300  0.47820400  1
  Si  Si24  1  0.43474050  0.83860650  0.64346600  1
  Si  Si25  1  0.39909300  0.66034400  0.18859500  1
  Si  Si26  1  0.26787550  0.33767550  0.97777400  1
  Si  Si27  1  0.06525950  0.33860650  0.35653400  1
  Si  Si28  1  0.43585400  0.16389700  0.14286200  1
  Si  Si29  1  0.23191900  0.16101300  0.52179600  1
  Si  Si30  1  0.10102600  0.83922600  0.30989400  1
  Si  Si31  1  0.06414600  0.66389700  0.85713800  1
  Si  Si32  1  0.23212450  0.83767550  0.02222600  1
  Si  Si33  1  0.10090700  0.16034400  0.81140500  1
  Si  Si34  1  0.89897400  0.83922600  0.69010600  1
  Si  Si35  1  0.76808100  0.16101300  0.47820400  1
  Si  Si36  1  0.93474050  0.33860650  0.64346600  1
  Si  Si37  1  0.89909300  0.16034400  0.18859500  1
  Si  Si38  1  0.76787550  0.83767550  0.97777400  1
  Si  Si39  1  0.56525950  0.83860650  0.35653400  1
  Si  Si40  1  0.93585400  0.66389700  0.14286200  1
  Si  Si41  1  0.73191900  0.66101300  0.52179600  1
  Si  Si42  1  0.60102600  0.33922600  0.30989400  1
  Si  Si43  1  0.56414600  0.16389700  0.85713800  1
  Si  Si44  1  0.73212450  0.33767550  0.02222600  1
  Si  Si45  1  0.60090700  0.66034400  0.81140500  1
  O  O46  1  0.30484700  0.25549700  0.65589100  1
  O  O47  1  0.26939900  0.49538100  0.40938600  1
  O  O48  1  0.25768800  0.17132500  0.37127200  1
  O  O49  1  0.36124400  0.74580900  0.50916600  1
  O  O50  1  0.43671850  0.00425650  0.57553800  1
  O  O51  1  0.42430450  0.32764150  0.53852500  1
  O  O52  1  0.02791950  0.25351850  0.67589100  1
  O  O53  1  0.10412850  0.99514450  0.74328200  1
  O  O54  1  0.09074550  0.67247150  0.70678400  1
  O  O55  1  0.30575300  0.74589100  0.15759700  1
  O  O56  1  0.40925450  0.17247150  0.29321600  1
  O  O57  1  0.39587150  0.49514450  0.25671800  1
  O  O58  1  0.47208050  0.75351850  0.32410900  1
  O  O59  1  0.07569550  0.82764150  0.46147500  1
  O  O60  1  0.06328150  0.50425650  0.42446200  1
  O  O61  1  0.27112600  0.50378600  0.91066300  1
  O  O62  1  0.13875600  0.24580900  0.49083400  1
  O  O63  1  0.25865450  0.82876550  0.87265800  1
  O  O64  1  0.24231200  0.67132500  0.62872800  1
  O  O65  1  0.35974450  0.25036250  0.00894000  1
  O  O66  1  0.23060100  0.99538100  0.59061400  1
  O  O67  1  0.43783350  0.99621250  0.07709500  1
  O  O68  1  0.42411650  0.67648650  0.03873100  1
  O  O69  1  0.03020250  0.74245250  0.17817800  1
  O  O70  1  0.10567950  0.00881450  0.25418100  1
  O  O71  1  0.09114600  0.32941500  0.20629700  1
  O  O72  1  0.19515300  0.75549700  0.34410900  1
  O  O73  1  0.40885400  0.82941500  0.79370300  1
  O  O74  1  0.39432050  0.50881450  0.74581900  1
  O  O75  1  0.46979750  0.24245250  0.82182200  1
  O  O76  1  0.07588350  0.17648650  0.96126900  1
  O  O77  1  0.06216650  0.49621250  0.92290500  1
  O  O78  1  0.14025550  0.75036250  0.99106000  1
  O  O79  1  0.24134550  0.32876550  0.12734200  1
  O  O80  1  0.22887400  0.00378600  0.08933700  1
  O  O81  1  0.19424700  0.24589100  0.84240300  1
  O  O82  1  0.80484700  0.75549700  0.65589100  1
  O  O83  1  0.76939900  0.99538100  0.40938600  1
  O  O84  1  0.75768800  0.67132500  0.37127200  1
  O  O85  1  0.86124400  0.24580900  0.50916600  1
  O  O86  1  0.93671850  0.50425650  0.57553800  1
  O  O87  1  0.92430450  0.82764150  0.53852500  1
  O  O88  1  0.52791950  0.75351850  0.67589100  1
  O  O89  1  0.60412850  0.49514450  0.74328200  1
  O  O90  1  0.59074550  0.17247150  0.70678400  1
  O  O91  1  0.80575300  0.24589100  0.15759700  1
  O  O92  1  0.90925450  0.67247150  0.29321600  1
  O  O93  1  0.89587150  0.99514450  0.25671800  1
  O  O94  1  0.97208050  0.25351850  0.32410900  1
  O  O95  1  0.57569550  0.32764150  0.46147500  1
  O  O96  1  0.56328150  0.00425650  0.42446200  1
  O  O97  1  0.77112600  0.00378600  0.91066300  1
  O  O98  1  0.63875600  0.74580900  0.49083400  1
  O  O99  1  0.75865450  0.32876550  0.87265800  1
  O  O100  1  0.74231200  0.17132500  0.62872800  1
  O  O101  1  0.85974450  0.75036250  0.00894000  1
  O  O102  1  0.73060100  0.49538100  0.59061400  1
  O  O103  1  0.93783350  0.49621250  0.07709500  1
  O  O104  1  0.92411650  0.17648650  0.03873100  1
  O  O105  1  0.53020250  0.24245250  0.17817800  1
  O  O106  1  0.60567950  0.50881450  0.25418100  1
  O  O107  1  0.59114600  0.82941500  0.20629700  1
  O  O108  1  0.69515300  0.25549700  0.34410900  1
  O  O109  1  0.90885400  0.32941500  0.79370300  1
  O  O110  1  0.89432050  0.00881450  0.74581900  1
  O  O111  1  0.96979750  0.74245250  0.82182200  1
  O  O112  1  0.57588350  0.67648650  0.96126900  1
  O  O113  1  0.56216650  0.99621250  0.92290500  1
  O  O114  1  0.64025550  0.25036250  0.99106000  1
  O  O115  1  0.74134550  0.82876550  0.12734200  1
  O  O116  1  0.72887400  0.50378600  0.08933700  1
  O  O117  1  0.69424700  0.74589100  0.84240300  1
