# generated using pymatgen
data_TiFe2O5
_symmetry_space_group_name_H-M   'P 1'
_cell_length_a   3.79856400
_cell_length_b   9.96240000
_cell_length_c   10.06644000
_cell_angle_alpha   90.00000000
_cell_angle_beta   90.00000000
_cell_angle_gamma   90.00000000
_symmetry_Int_Tables_number   1
_chemical_formula_structural   TiFe2O5
_chemical_formula_sum   'Ti4 Fe8 O20'
_cell_volume   380.94241650
_cell_formula_units_Z   4
loop_
 _symmetry_equiv_pos_site_id
 _symmetry_equiv_pos_as_xyz
  1  'x, y, z'
loop_
 _atom_site_type_symbol
 _atom_site_label
 _atom_site_symmetry_multiplicity
 _atom_site_fract_x
 _atom_site_fract_y
 _atom_site_fract_z
 _atom_site_occupancy
  Ti  Ti0  1  0.50000000  0.36825900  0.93913900  1
  Ti  Ti1  1  0.00000000  0.13174100  0.43913900  1
  Ti  Ti2  1  0.00000000  0.86825900  0.93913900  1
  Ti  Ti3  1  0.50000000  0.63174100  0.43913900  1
  Fe  Fe4  1  0.50000000  0.36027300  0.56604900  1
  Fe  Fe5  1  0.50000000  0.30831400  0.24911700  1
  Fe  Fe6  1  0.00000000  0.19168600  0.74911700  1
  Fe  Fe7  1  0.00000000  0.13972700  0.06604900  1
  Fe  Fe8  1  0.00000000  0.86027300  0.56604900  1
  Fe  Fe9  1  0.00000000  0.80831400  0.24911700  1
  Fe  Fe10  1  0.50000000  0.69168600  0.74911700  1
  Fe  Fe11  1  0.50000000  0.63972700  0.06604900  1
  O  O12  1  0.50000000  0.45556200  0.38322100  1
  O  O13  1  0.50000000  0.44909100  0.11264000  1
  O  O14  1  0.00000000  0.31413900  0.92653900  1
  O  O15  1  0.00000000  0.30444700  0.56946600  1
  O  O16  1  0.50000000  0.26458100  0.75383000  1
  O  O17  1  0.00000000  0.23541900  0.25383000  1
  O  O18  1  0.50000000  0.19555300  0.06946600  1
  O  O19  1  0.50000000  0.18586100  0.42653900  1
  O  O20  1  0.00000000  0.05090900  0.61264000  1
  O  O21  1  0.00000000  0.04443800  0.88322100  1
  O  O22  1  0.00000000  0.95556200  0.38322100  1
  O  O23  1  0.00000000  0.94909100  0.11264000  1
  O  O24  1  0.50000000  0.81413900  0.92653900  1
  O  O25  1  0.50000000  0.80444700  0.56946600  1
  O  O26  1  0.00000000  0.76458100  0.75383000  1
  O  O27  1  0.50000000  0.73541900  0.25383000  1
  O  O28  1  0.00000000  0.69555300  0.06946600  1
  O  O29  1  0.00000000  0.68586100  0.42653900  1
  O  O30  1  0.50000000  0.55090900  0.61264000  1
  O  O31  1  0.50000000  0.54443800  0.88322100  1
