# generated using pymatgen
data_Fe6OF11
_symmetry_space_group_name_H-M   'P 1'
_cell_length_a   9.46509800
_cell_length_b   6.83610800
_cell_length_c   7.50707481
_cell_angle_alpha   90.00000000
_cell_angle_beta   109.96850741
_cell_angle_gamma   90.00000000
_symmetry_Int_Tables_number   1
_chemical_formula_structural   Fe6OF11
_chemical_formula_sum   'Fe12 O2 F22'
_cell_volume   456.53849132
_cell_formula_units_Z   2
loop_
 _symmetry_equiv_pos_site_id
 _symmetry_equiv_pos_as_xyz
  1  'x, y, z'
loop_
 _atom_site_type_symbol
 _atom_site_label
 _atom_site_symmetry_multiplicity
 _atom_site_fract_x
 _atom_site_fract_y
 _atom_site_fract_z
 _atom_site_occupancy
  Fe  Fe0  1  0.16890500  0.50000000  0.16320800  1
  Fe  Fe1  1  0.83636400  0.50000000  0.34571500  1
  Fe  Fe2  1  0.14632500  0.50000000  0.66564500  1
  Fe  Fe3  1  0.83943800  0.50000000  0.82799700  1
  Fe  Fe4  1  0.49699400  0.50000000  0.50262400  1
  Fe  Fe5  1  0.50339400  0.50000000  0.99817500  1
  Fe  Fe6  1  0.66890500  0.00000000  0.16320800  1
  Fe  Fe7  1  0.33636400  0.00000000  0.34571500  1
  Fe  Fe8  1  0.64632500  0.00000000  0.66564500  1
  Fe  Fe9  1  0.33943800  0.00000000  0.82799700  1
  Fe  Fe10  1  0.99699400  0.00000000  0.50262400  1
  Fe  Fe11  1  0.00339400  0.00000000  0.99817500  1
  O  O12  1  0.94528900  0.50000000  0.63901500  1
  O  O13  1  0.44528900  0.00000000  0.63901500  1
  F  F14  1  0.83508550  0.19906650  0.32486300  1
  F  F15  1  0.16346600  0.20520000  0.66862800  1
  F  F16  1  0.38042900  0.50000000  0.68983300  1
  F  F17  1  0.73759400  0.50000000  0.03239800  1
  F  F18  1  0.08147800  0.50000000  0.37932300  1
  F  F19  1  0.25919300  0.50000000  0.94953500  1
  F  F20  1  0.60065600  0.50000000  0.30387700  1
  F  F21  1  0.16346600  0.79480000  0.66862800  1
  F  F22  1  0.83508550  0.80093350  0.32486300  1
  F  F23  1  0.00341900  0.29534500  0.00783600  1
  F  F24  1  0.00341900  0.70465500  0.00783600  1
  F  F25  1  0.33508550  0.69906650  0.32486300  1
  F  F26  1  0.66346600  0.70520000  0.66862800  1
  F  F27  1  0.88042900  0.00000000  0.68983300  1
  F  F28  1  0.23759400  0.00000000  0.03239800  1
  F  F29  1  0.58147800  0.00000000  0.37932300  1
  F  F30  1  0.75919300  0.00000000  0.94953500  1
  F  F31  1  0.10065600  0.00000000  0.30387700  1
  F  F32  1  0.66346600  0.29480000  0.66862800  1
  F  F33  1  0.33508550  0.30093350  0.32486300  1
  F  F34  1  0.50341900  0.79534500  0.00783600  1
  F  F35  1  0.50341900  0.20465500  0.00783600  1
