# generated using pymatgen
data_LiFeO3
_symmetry_space_group_name_H-M   'P 1'
_cell_length_a   5.02913200
_cell_length_b   8.44439800
_cell_length_c   9.70886556
_cell_angle_alpha   90.00000000
_cell_angle_beta   97.44772844
_cell_angle_gamma   90.00000000
_symmetry_Int_Tables_number   1
_chemical_formula_structural   LiFeO3
_chemical_formula_sum   'Li8 Fe8 O24'
_cell_volume   408.83753481
_cell_formula_units_Z   8
loop_
 _symmetry_equiv_pos_site_id
 _symmetry_equiv_pos_as_xyz
  1  'x, y, z'
loop_
 _atom_site_type_symbol
 _atom_site_label
 _atom_site_symmetry_multiplicity
 _atom_site_fract_x
 _atom_site_fract_y
 _atom_site_fract_z
 _atom_site_occupancy
  Li  Li0  1  0.50000000  0.24342300  0.75000000  1
  Li  Li1  1  0.50000000  0.75657700  0.25000000  1
  Li  Li2  1  0.50000000  0.88607600  0.75000000  1
  Li  Li3  1  0.50000000  0.11392400  0.25000000  1
  Li  Li4  1  0.00000000  0.74342300  0.75000000  1
  Li  Li5  1  0.00000000  0.25657700  0.25000000  1
  Li  Li6  1  0.00000000  0.38607600  0.75000000  1
  Li  Li7  1  0.00000000  0.61392400  0.25000000  1
  Fe  Fe8  1  0.75080050  0.08057050  0.00116000  1
  Fe  Fe9  1  0.24919950  0.91942950  0.99884000  1
  Fe  Fe10  1  0.24919950  0.08057050  0.49884000  1
  Fe  Fe11  1  0.75080050  0.91942950  0.50116000  1
  Fe  Fe12  1  0.25080050  0.58057050  0.00116000  1
  Fe  Fe13  1  0.74919950  0.41942950  0.99884000  1
  Fe  Fe14  1  0.74919950  0.58057050  0.49884000  1
  Fe  Fe15  1  0.25080050  0.41942950  0.50116000  1
  O  O16  1  0.66116850  0.24847750  0.11486200  1
  O  O17  1  0.33883150  0.75152250  0.88513800  1
  O  O18  1  0.08831850  0.93014750  0.60919700  1
  O  O19  1  0.91168150  0.93014750  0.89080300  1
  O  O20  1  0.91168150  0.06985250  0.39080300  1
  O  O21  1  0.41392500  0.93921700  0.39076400  1
  O  O22  1  0.08831850  0.06985250  0.10919700  1
  O  O23  1  0.58607500  0.93921700  0.10923600  1
  O  O24  1  0.58607500  0.06078300  0.60923600  1
  O  O25  1  0.41392500  0.06078300  0.89076400  1
  O  O26  1  0.66116850  0.75152250  0.61486200  1
  O  O27  1  0.33883150  0.24847750  0.38513800  1
  O  O28  1  0.16116850  0.74847750  0.11486200  1
  O  O29  1  0.83883150  0.25152250  0.88513800  1
  O  O30  1  0.58831850  0.43014750  0.60919700  1
  O  O31  1  0.41168150  0.43014750  0.89080300  1
  O  O32  1  0.41168150  0.56985250  0.39080300  1
  O  O33  1  0.91392500  0.43921700  0.39076400  1
  O  O34  1  0.58831850  0.56985250  0.10919700  1
  O  O35  1  0.08607500  0.43921700  0.10923600  1
  O  O36  1  0.08607500  0.56078300  0.60923600  1
  O  O37  1  0.91392500  0.56078300  0.89076400  1
  O  O38  1  0.16116850  0.25152250  0.61486200  1
  O  O39  1  0.83883150  0.74847750  0.38513800  1
