# generated using pymatgen
data_Li6MnV3(PO4)6
_symmetry_space_group_name_H-M   'P 1'
_cell_length_a   8.59625000
_cell_length_b   8.81058000
_cell_length_c   12.24814261
_cell_angle_alpha   90.00000000
_cell_angle_beta   90.95395062
_cell_angle_gamma   90.00000000
_symmetry_Int_Tables_number   1
_chemical_formula_structural   Li6MnV3(PO4)6
_chemical_formula_sum   'Li12 Mn2 V6 P12 O48'
_cell_volume   927.52061857
_cell_formula_units_Z   2
loop_
 _symmetry_equiv_pos_site_id
 _symmetry_equiv_pos_as_xyz
  1  'x, y, z'
loop_
 _atom_site_type_symbol
 _atom_site_label
 _atom_site_symmetry_multiplicity
 _atom_site_fract_x
 _atom_site_fract_y
 _atom_site_fract_z
 _atom_site_occupancy
  Li  Li0  1  0.31273500  0.48709000  0.59565800  1
  Li  Li1  1  0.33123600  0.91424300  0.94117400  1
  Li  Li2  1  0.42756300  0.21937000  0.42745100  1
  Li  Li3  1  0.57243700  0.71937000  0.57254900  1
  Li  Li4  1  0.66876400  0.41424300  0.05882600  1
  Li  Li5  1  0.68726500  0.98709000  0.40434200  1
  Li  Li6  1  0.81366100  0.01416800  0.09647300  1
  Li  Li7  1  0.83041700  0.58681000  0.44253300  1
  Li  Li8  1  0.93211100  0.28250600  0.92663700  1
  Li  Li9  1  0.06788900  0.78250600  0.07336300  1
  Li  Li10  1  0.16958300  0.08681000  0.55746700  1
  Li  Li11  1  0.18633900  0.51416800  0.90352700  1
  Mn  Mn12  1  0.99169600  0.52528900  0.64574700  1
  Mn  Mn13  1  0.00830400  0.02528900  0.35425300  1
  V  V14  1  0.49425300  0.97402100  0.14564700  1
  V  V15  1  0.49536200  0.53607600  0.35892600  1
  V  V16  1  0.50574700  0.47402100  0.85435300  1
  V  V17  1  0.50463800  0.03607600  0.64107400  1
  V  V18  1  0.99516300  0.96451900  0.85649400  1
  V  V19  1  0.00483700  0.46451900  0.14350600  1
  P  P20  1  0.29228000  0.75339500  0.74022900  1
  P  P21  1  0.36513200  0.61726000  0.09975500  1
  P  P22  1  0.36634000  0.88764800  0.39523900  1
  P  P23  1  0.63486800  0.11726000  0.90024500  1
  P  P24  1  0.63366000  0.38764800  0.60476100  1
  P  P25  1  0.70772000  0.25339500  0.25977100  1
  P  P26  1  0.78651000  0.74783500  0.24159400  1
  P  P27  1  0.86602600  0.60971100  0.90006600  1
  P  P28  1  0.86230300  0.88316900  0.60147800  1
  P  P29  1  0.13397400  0.10971100  0.09993400  1
  P  P30  1  0.13769700  0.38316900  0.39852200  1
  P  P31  1  0.21349000  0.24783500  0.75840600  1
  O  O32  1  0.30122000  0.10578100  0.14460000  1
  O  O33  1  0.30515400  0.12610600  0.69570400  1
  O  O34  1  0.30671800  0.33412900  0.84817000  1
  O  O35  1  0.31001600  0.42676000  0.43271500  1
  O  O36  1  0.35366700  0.64377200  0.83124100  1
  O  O37  1  0.37703500  0.79314200  0.08369800  1
  O  O38  1  0.39159800  0.57819200  0.22052900  1
  O  O39  1  0.37866700  0.00165500  0.49523900  1
  O  O40  1  0.42957300  0.72977800  0.43462600  1
  O  O41  1  0.43827800  0.83049100  0.68836300  1
  O  O42  1  0.47766500  0.52875500  0.02607300  1
  O  O43  1  0.48621200  0.95239000  0.31215900  1
  O  O44  1  0.51378800  0.45239000  0.68784100  1
  O  O45  1  0.52233500  0.02875500  0.97392700  1
  O  O46  1  0.56172200  0.33049100  0.31163700  1
  O  O47  1  0.57042700  0.22977800  0.56537400  1
  O  O48  1  0.60840200  0.07819200  0.77947100  1
  O  O49  1  0.62133300  0.50165500  0.50476100  1
  O  O50  1  0.62296500  0.29314200  0.91630200  1
  O  O51  1  0.64633300  0.14377200  0.16875900  1
  O  O52  1  0.69328200  0.83412900  0.15183000  1
  O  O53  1  0.68998400  0.92676000  0.56728500  1
  O  O54  1  0.69878000  0.60578100  0.85540000  1
  O  O55  1  0.69484600  0.62610600  0.30429600  1
  O  O56  1  0.80247200  0.37119100  0.19498300  1
  O  O57  1  0.79857400  0.38105100  0.64856000  1
  O  O58  1  0.80901900  0.08003100  0.93505100  1
  O  O59  1  0.79794200  0.17131000  0.35109300  1
  O  O60  1  0.84492900  0.85583300  0.33267200  1
  O  O61  1  0.86472700  0.70891600  0.58348500  1
  O  O62  1  0.87620900  0.49634300  0.00114900  1
  O  O63  1  0.88854400  0.91831600  0.72572000  1
  O  O64  1  0.91916600  0.77104300  0.93805500  1
  O  O65  1  0.93013700  0.67314400  0.18597600  1
  O  O66  1  0.97842000  0.97225500  0.53363600  1
  O  O67  1  0.98670900  0.54650700  0.81941600  1
  O  O68  1  0.01329100  0.04650700  0.18058400  1
  O  O69  1  0.02158000  0.47225500  0.46636400  1
  O  O70  1  0.06986300  0.17314400  0.81402400  1
  O  O71  1  0.08083400  0.27104300  0.06194500  1
  O  O72  1  0.12379100  0.99634300  0.99885100  1
  O  O73  1  0.11145600  0.41831600  0.27428000  1
  O  O74  1  0.13527300  0.20891600  0.41651500  1
  O  O75  1  0.15507100  0.35583300  0.66732800  1
  O  O76  1  0.19098100  0.58003100  0.06494900  1
  O  O77  1  0.20205800  0.67131000  0.64890700  1
  O  O78  1  0.19752800  0.87119100  0.80501700  1
  O  O79  1  0.20142600  0.88105100  0.35144000  1
