# generated using pymatgen
data_Li8WO6
_symmetry_space_group_name_H-M   'P 1'
_cell_length_a   5.52276940
_cell_length_b   5.52276940
_cell_length_c   15.52514557
_cell_angle_alpha   90.00000000
_cell_angle_beta   90.00000000
_cell_angle_gamma   120.00000000
_symmetry_Int_Tables_number   1
_chemical_formula_structural   Li8WO6
_chemical_formula_sum   'Li24 W3 O18'
_cell_volume   410.09090095
_cell_formula_units_Z   3
loop_
 _symmetry_equiv_pos_site_id
 _symmetry_equiv_pos_as_xyz
  1  'x, y, z'
loop_
 _atom_site_type_symbol
 _atom_site_label
 _atom_site_symmetry_multiplicity
 _atom_site_fract_x
 _atom_site_fract_y
 _atom_site_fract_z
 _atom_site_occupancy
  Li  Li0  1  0.98181800  0.35583200  0.11939100  1
  Li  Li1  1  0.29265267  0.31515133  0.21394233  1
  Li  Li2  1  0.02249867  0.70734733  0.21394233  1
  Li  Li3  1  0.33333333  0.66666667  0.32243667  1
  Li  Li4  1  0.33333333  0.66666667  0.01089667  1
  Li  Li5  1  0.64416800  0.62598600  0.11939100  1
  Li  Li6  1  0.37401400  0.01818200  0.11939100  1
  Li  Li7  1  0.68484867  0.97750133  0.21394233  1
  Li  Li8  1  0.64848467  0.68916533  0.45272433  1
  Li  Li9  1  0.95931933  0.64848467  0.54727567  1
  Li  Li10  1  0.68916533  0.04068067  0.54727567  1
  Li  Li11  1  0.00000000  0.00000000  0.65577000  1
  Li  Li12  1  0.00000000  0.00000000  0.34423000  1
  Li  Li13  1  0.31083467  0.95931933  0.45272433  1
  Li  Li14  1  0.04068067  0.35151533  0.45272433  1
  Li  Li15  1  0.35151533  0.31083467  0.54727567  1
  Li  Li16  1  0.31515133  0.02249867  0.78605767  1
  Li  Li17  1  0.62598600  0.98181800  0.88060900  1
  Li  Li18  1  0.35583200  0.37401400  0.88060900  1
  Li  Li19  1  0.66666667  0.33333333  0.98910333  1
  Li  Li20  1  0.66666667  0.33333333  0.67756333  1
  Li  Li21  1  0.97750133  0.29265267  0.78605767  1
  Li  Li22  1  0.70734733  0.68484867  0.78605767  1
  Li  Li23  1  0.01818200  0.64416800  0.88060900  1
  W  W24  1  0.00000000  0.00000000  0.00000000  1
  W  W25  1  0.66666667  0.33333333  0.33333333  1
  W  W26  1  0.33333333  0.66666667  0.66666667  1
  O  O27  1  0.97943100  0.34531300  0.25171700  1
  O  O28  1  0.30078467  0.31276433  0.08161633  1
  O  O29  1  0.01197967  0.69921533  0.08161633  1
  O  O30  1  0.65468700  0.63411800  0.25171700  1
  O  O31  1  0.36588200  0.02056900  0.25171700  1
  O  O32  1  0.68723567  0.98802033  0.08161633  1
  O  O33  1  0.64609767  0.67864633  0.58505033  1
  O  O34  1  0.96745133  0.64609767  0.41494967  1
  O  O35  1  0.67864633  0.03254867  0.41494967  1
  O  O36  1  0.32135367  0.96745133  0.58505033  1
  O  O37  1  0.03254867  0.35390233  0.58505033  1
  O  O38  1  0.35390233  0.32135367  0.41494967  1
  O  O39  1  0.31276433  0.01197967  0.91838367  1
  O  O40  1  0.63411800  0.97943100  0.74828300  1
  O  O41  1  0.34531300  0.36588200  0.74828300  1
  O  O42  1  0.98802033  0.30078467  0.91838367  1
  O  O43  1  0.69921533  0.68723567  0.91838367  1
  O  O44  1  0.02056900  0.65468700  0.74828300  1
