# generated using pymatgen
data_Li4Fe3Ni3(TeO8)2
_symmetry_space_group_name_H-M   'P 1'
_cell_length_a   10.29299200
_cell_length_b   5.93787600
_cell_length_c   9.70661918
_cell_angle_alpha   90.00000000
_cell_angle_beta   90.35487580
_cell_angle_gamma   90.00000000
_symmetry_Int_Tables_number   1
_chemical_formula_structural   Li4Fe3Ni3(TeO8)2
_chemical_formula_sum   'Li8 Fe6 Ni6 Te4 O32'
_cell_volume   593.24272398
_cell_formula_units_Z   2
loop_
 _symmetry_equiv_pos_site_id
 _symmetry_equiv_pos_as_xyz
  1  'x, y, z'
loop_
 _atom_site_type_symbol
 _atom_site_label
 _atom_site_symmetry_multiplicity
 _atom_site_fract_x
 _atom_site_fract_y
 _atom_site_fract_z
 _atom_site_occupancy
  Li  Li0  1  0.66488800  0.00000000  0.90876800  1
  Li  Li1  1  0.99707800  0.00000000  0.98364400  1
  Li  Li2  1  0.99799300  0.00000000  0.48704400  1
  Li  Li3  1  0.83294500  0.50000000  0.41233200  1
  Li  Li4  1  0.16488800  0.50000000  0.90876800  1
  Li  Li5  1  0.49707800  0.50000000  0.98364400  1
  Li  Li6  1  0.49799300  0.50000000  0.48704400  1
  Li  Li7  1  0.33294500  0.00000000  0.41233200  1
  Fe  Fe8  1  0.58606300  0.24498700  0.21258100  1
  Fe  Fe9  1  0.58606300  0.75501300  0.21258100  1
  Fe  Fe10  1  0.67069400  0.50000000  0.71319500  1
  Fe  Fe11  1  0.08606300  0.74498700  0.21258100  1
  Fe  Fe12  1  0.08606300  0.25501300  0.21258100  1
  Fe  Fe13  1  0.17069400  0.00000000  0.71319500  1
  Ni  Ni14  1  0.82833700  0.00000000  0.21128200  1
  Ni  Ni15  1  0.91474750  0.74397050  0.71211600  1
  Ni  Ni16  1  0.91474750  0.25602950  0.71211600  1
  Ni  Ni17  1  0.32833700  0.50000000  0.21128200  1
  Ni  Ni18  1  0.41474750  0.24397050  0.71211600  1
  Ni  Ni19  1  0.41474750  0.75602950  0.71211600  1
  Te  Te20  1  0.66943100  0.00000000  0.48535200  1
  Te  Te21  1  0.83593800  0.50000000  0.98161200  1
  Te  Te22  1  0.16943100  0.50000000  0.48535200  1
  Te  Te23  1  0.33593800  0.00000000  0.98161200  1
  O  O24  1  0.58830650  0.24351650  0.59126300  1
  O  O25  1  0.51922600  0.00000000  0.35266600  1
  O  O26  1  0.66052500  0.00000000  0.10859300  1
  O  O27  1  0.50270300  0.50000000  0.29827300  1
  O  O28  1  0.50176400  0.50000000  0.79636900  1
  O  O29  1  0.58830650  0.75648350  0.59126300  1
  O  O30  1  0.73856950  0.22362850  0.35317500  1
  O  O31  1  0.73856950  0.77637150  0.35317500  1
  O  O32  1  0.67341000  0.50000000  0.09234600  1
  O  O33  1  0.83101100  0.00000000  0.59005700  1
  O  O34  1  0.75681000  0.72060300  0.85324900  1
  O  O35  1  0.75681000  0.27939700  0.85324900  1
  O  O36  1  0.83042900  0.50000000  0.61196200  1
  O  O37  1  0.91631050  0.74208350  0.08943700  1
  O  O38  1  0.98112300  0.50000000  0.85054600  1
  O  O39  1  0.91631050  0.25791650  0.08943700  1
  O  O40  1  0.08830650  0.74351650  0.59126300  1
  O  O41  1  0.01922600  0.50000000  0.35266600  1
  O  O42  1  0.16052500  0.50000000  0.10859300  1
  O  O43  1  0.00270300  0.00000000  0.29827300  1
  O  O44  1  0.00176400  0.00000000  0.79636900  1
  O  O45  1  0.08830650  0.25648350  0.59126300  1
  O  O46  1  0.23856950  0.72362850  0.35317500  1
  O  O47  1  0.23856950  0.27637150  0.35317500  1
  O  O48  1  0.17341000  0.00000000  0.09234600  1
  O  O49  1  0.33101100  0.50000000  0.59005700  1
  O  O50  1  0.25681000  0.22060300  0.85324900  1
  O  O51  1  0.25681000  0.77939700  0.85324900  1
  O  O52  1  0.33042900  0.00000000  0.61196200  1
  O  O53  1  0.41631050  0.24208350  0.08943700  1
  O  O54  1  0.48112300  0.00000000  0.85054600  1
  O  O55  1  0.41631050  0.75791650  0.08943700  1
