# generated using pymatgen
data_Li8VO6
_symmetry_space_group_name_H-M   'P 1'
_cell_length_a   5.34276976
_cell_length_b   5.44103454
_cell_length_c   5.85607250
_cell_angle_alpha   91.14889503
_cell_angle_beta   116.07083447
_cell_angle_gamma   119.15992012
_symmetry_Int_Tables_number   1
_chemical_formula_structural   Li8VO6
_chemical_formula_sum   'Li8 V1 O6'
_cell_volume   127.44556073
_cell_formula_units_Z   1
loop_
 _symmetry_equiv_pos_site_id
 _symmetry_equiv_pos_as_xyz
  1  'x, y, z'
loop_
 _atom_site_type_symbol
 _atom_site_label
 _atom_site_symmetry_multiplicity
 _atom_site_fract_x
 _atom_site_fract_y
 _atom_site_fract_z
 _atom_site_occupancy
  Li  Li0  1  0.30451750  0.64340875  0.97811275  1
  Li  Li1  1  0.69548250  0.35659125  0.02188725  1
  Li  Li2  1  0.25822600  0.49265375  0.35888050  1
  Li  Li3  1  0.13666600  0.23874525  0.64754350  1
  Li  Li4  1  0.41231900  0.89899400  0.64862750  1
  Li  Li5  1  0.58768100  0.10100600  0.35137250  1
  Li  Li6  1  0.86333400  0.76125475  0.35245650  1
  Li  Li7  1  0.74177400  0.50734625  0.64111950  1
  V  V8  1  0.00000000  0.00000000  0.00000000  1
  O  O9  1  0.53150950  0.62208575  0.76721725  1
  O  O10  1  0.86841950  0.09073050  0.23356375  1
  O  O11  1  0.15055500  0.76790825  0.23480550  1
  O  O12  1  0.84944500  0.23209175  0.76519450  1
  O  O13  1  0.13158050  0.90926950  0.76643625  1
  O  O14  1  0.46849050  0.37791425  0.23278275  1
