# generated using pymatgen
data_LiVF4
_symmetry_space_group_name_H-M   'P 1'
_cell_length_a   6.66834400
_cell_length_b   6.66834400
_cell_length_c   6.19829400
_cell_angle_alpha   90.00000000
_cell_angle_beta   90.00000000
_cell_angle_gamma   90.00000000
_symmetry_Int_Tables_number   1
_chemical_formula_structural   LiVF4
_chemical_formula_sum   'Li4 V4 F16'
_cell_volume   275.61837217
_cell_formula_units_Z   4
loop_
 _symmetry_equiv_pos_site_id
 _symmetry_equiv_pos_as_xyz
  1  'x, y, z'
loop_
 _atom_site_type_symbol
 _atom_site_label
 _atom_site_symmetry_multiplicity
 _atom_site_fract_x
 _atom_site_fract_y
 _atom_site_fract_z
 _atom_site_occupancy
  Li  Li0  1  0.50000000  0.00000000  0.48864000  1
  Li  Li1  1  0.00000000  0.00000000  0.23864000  1
  Li  Li2  1  0.00000000  0.50000000  0.98864000  1
  Li  Li3  1  0.50000000  0.50000000  0.73864000  1
  V  V4  1  0.50000000  0.00000000  0.01222000  1
  V  V5  1  0.50000000  0.50000000  0.26222000  1
  V  V6  1  0.00000000  0.50000000  0.51222000  1
  V  V7  1  0.00000000  0.00000000  0.76222000  1
  F  F8  1  0.50000000  0.70082600  0.01098400  1
  F  F9  1  0.50000000  0.29917400  0.01098400  1
  F  F10  1  0.50000000  0.30133100  0.48858600  1
  F  F11  1  0.69866900  0.00000000  0.23858600  1
  F  F12  1  0.70082600  0.00000000  0.76098400  1
  F  F13  1  0.79917400  0.50000000  0.26098400  1
  F  F14  1  0.80133100  0.50000000  0.73858600  1
  F  F15  1  0.00000000  0.19866900  0.98858600  1
  F  F16  1  0.00000000  0.20082600  0.51098400  1
  F  F17  1  0.00000000  0.79917400  0.51098400  1
  F  F18  1  0.00000000  0.80133100  0.98858600  1
  F  F19  1  0.19866900  0.50000000  0.73858600  1
  F  F20  1  0.20082600  0.50000000  0.26098400  1
  F  F21  1  0.29917400  0.00000000  0.76098400  1
  F  F22  1  0.30133100  0.00000000  0.23858600  1
  F  F23  1  0.50000000  0.69866900  0.48858600  1
