# generated using pymatgen
data_Li7V3P8O29
_symmetry_space_group_name_H-M   'P 1'
_cell_length_a   17.08213000
_cell_length_b   9.83984000
_cell_length_c   13.90191804
_cell_angle_alpha   90.00000000
_cell_angle_beta   90.68930516
_cell_angle_gamma   90.00000000
_symmetry_Int_Tables_number   1
_chemical_formula_structural   Li7V3P8O29
_chemical_formula_sum   'Li28 V12 P32 O116'
_cell_volume   2336.54071613
_cell_formula_units_Z   4
loop_
 _symmetry_equiv_pos_site_id
 _symmetry_equiv_pos_as_xyz
  1  'x, y, z'
loop_
 _atom_site_type_symbol
 _atom_site_label
 _atom_site_symmetry_multiplicity
 _atom_site_fract_x
 _atom_site_fract_y
 _atom_site_fract_z
 _atom_site_occupancy
  Li  Li0  1  0.88399050  0.79498750  0.56262300  1
  Li  Li1  1  0.84078100  0.49319500  0.38824800  1
  Li  Li2  1  0.84078100  0.50680500  0.88824800  1
  Li  Li3  1  0.88399050  0.20501250  0.06262300  1
  Li  Li4  1  0.66302750  0.57084650  0.06229800  1
  Li  Li5  1  0.82984050  0.06645450  0.44035700  1
  Li  Li6  1  0.66302750  0.42915350  0.56229800  1
  Li  Li7  1  0.82984050  0.93354550  0.94035700  1
  Li  Li8  1  0.61725900  0.28135900  0.94271200  1
  Li  Li9  1  0.54913150  0.21916450  0.43647400  1
  Li  Li10  1  0.61725900  0.71864100  0.44271200  1
  Li  Li11  1  0.54913150  0.78083550  0.93647400  1
  Li  Li12  1  0.99191250  0.94945850  0.01032000  1
  Li  Li13  1  0.99191250  0.05054150  0.51032000  1
  Li  Li14  1  0.38399050  0.29498750  0.56262300  1
  Li  Li15  1  0.34078100  0.99319500  0.38824800  1
  Li  Li16  1  0.34078100  0.00680500  0.88824800  1
  Li  Li17  1  0.38399050  0.70501250  0.06262300  1
  Li  Li18  1  0.16302750  0.07084650  0.06229800  1
  Li  Li19  1  0.32984050  0.56645450  0.44035700  1
  Li  Li20  1  0.16302750  0.92915350  0.56229800  1
  Li  Li21  1  0.32984050  0.43354550  0.94035700  1
  Li  Li22  1  0.11725900  0.78135900  0.94271200  1
  Li  Li23  1  0.04913150  0.71916450  0.43647400  1
  Li  Li24  1  0.11725900  0.21864100  0.44271200  1
  Li  Li25  1  0.04913150  0.28083550  0.93647400  1
  Li  Li26  1  0.49191250  0.44945850  0.01032000  1
  Li  Li27  1  0.49191250  0.55054150  0.51032000  1
  V  V28  1  0.78223500  0.21798100  0.24926900  1
  V  V29  1  0.71766850  0.28012750  0.74834400  1
  V  V30  1  0.78223500  0.78201900  0.74926900  1
  V  V31  1  0.71766850  0.71987250  0.24834400  1
  V  V32  1  0.99980900  0.56275900  0.24757900  1
  V  V33  1  0.99980900  0.43724100  0.74757900  1
  V  V34  1  0.28223500  0.71798100  0.24926900  1
  V  V35  1  0.21766850  0.78012750  0.74834400  1
  V  V36  1  0.28223500  0.28201900  0.74926900  1
  V  V37  1  0.21766850  0.21987250  0.24834400  1
  V  V38  1  0.49980900  0.06275900  0.24757900  1
  V  V39  1  0.49980900  0.93724100  0.74757900  1
  P  P40  1  0.95633000  0.73810200  0.84044000  1
  P  P41  1  0.88743950  0.79727150  0.34164400  1
  P  P42  1  0.95633000  0.26189800  0.34044000  1
  P  P43  1  0.83055450  0.49956150  0.12907200  1
  P  P44  1  0.83055450  0.50043850  0.62907200  1
  P  P45  1  0.88743950  0.20272850  0.84164400  1
  P  P46  1  0.84405950  0.06975550  0.65580800  1
  P  P47  1  0.65977950  0.56491850  0.84421700  1
  P  P48  1  0.84405950  0.93024450  0.15580800  1
  P  P49  1  0.65977950  0.43508150  0.34421700  1
  P  P50  1  0.61234250  0.30209550  0.15902300  1
  P  P51  1  0.66903150  0.99884350  0.37243900  1
  P  P52  1  0.66903150  0.00115650  0.87243900  1
  P  P53  1  0.54137950  0.23166450  0.65314100  1
  P  P54  1  0.61234250  0.69790450  0.65902300  1
  P  P55  1  0.54137950  0.76833550  0.15314100  1
  P  P56  1  0.45633000  0.23810200  0.84044000  1
  P  P57  1  0.38743950  0.29727150  0.34164400  1
  P  P58  1  0.45633000  0.76189800  0.34044000  1
  P  P59  1  0.33055450  0.99956150  0.12907200  1
  P  P60  1  0.33055450  0.00043850  0.62907200  1
  P  P61  1  0.38743950  0.70272850  0.84164400  1
  P  P62  1  0.34405950  0.56975550  0.65580800  1
  P  P63  1  0.15977950  0.06491850  0.84421700  1
  P  P64  1  0.34405950  0.43024450  0.15580800  1
  P  P65  1  0.15977950  0.93508150  0.34421700  1
  P  P66  1  0.11234250  0.80209550  0.15902300  1
  P  P67  1  0.16903150  0.49884350  0.37243900  1
  P  P68  1  0.16903150  0.50115650  0.87243900  1
  P  P69  1  0.04137950  0.73166450  0.65314100  1
  P  P70  1  0.11234250  0.19790450  0.65902300  1
  P  P71  1  0.04137950  0.26833550  0.15314100  1
  O  O72  1  0.99957500  0.77858800  0.56183600  1
  O  O73  1  0.96016050  0.70660550  0.34529700  1
  O  O74  1  0.88871800  0.90093000  0.06539700  1
  O  O75  1  0.87085800  0.79428600  0.84297400  1
  O  O76  1  0.95101600  0.58209300  0.83751000  1
  O  O77  1  0.90117600  0.57673300  0.17041400  1
  O  O78  1  0.95101600  0.41790700  0.33751000  1
  O  O79  1  0.99957500  0.22141200  0.06183600  1
  O  O80  1  0.96016050  0.29339450  0.84529700  1
  O  O81  1  0.83553700  0.65210200  0.66681500  1
  O  O82  1  0.81403550  0.70542650  0.32693100  1
  O  O83  1  0.90117600  0.42326700  0.67041400  1
  O  O84  1  0.82288800  0.49637500  0.02101600  1
  O  O85  1  0.82288800  0.50362500  0.52101600  1
  O  O86  1  0.83553700  0.34789800  0.16681500  1
  O  O87  1  0.74197250  0.62900250  0.83006700  1
  O  O88  1  0.75332950  0.56801750  0.17043800  1
  O  O89  1  0.87085800  0.20571400  0.34297400  1
  O  O90  1  0.89763900  0.10605100  0.74896800  1
  O  O91  1  0.88871800  0.09907000  0.56539700  1
  O  O92  1  0.88102550  0.11380350  0.92998500  1
  O  O93  1  0.81403550  0.29457350  0.82693100  1
  O  O94  1  0.75332950  0.43198250  0.67043800  1
  O  O95  1  0.83154500  0.08623300  0.16213800  1
  O  O96  1  0.74197250  0.37099750  0.33006700  1
  O  O97  1  0.66857950  0.59067450  0.34719100  1
  O  O98  1  0.89763900  0.89394900  0.24896800  1
  O  O99  1  0.88102550  0.88619650  0.42998500  1
  O  O100  1  0.61230650  0.61029450  0.56866200  1
  O  O101  1  0.83154500  0.91376700  0.66213800  1
  O  O102  1  0.76681300  0.14856300  0.66437600  1
  O  O103  1  0.66857950  0.40932550  0.84719100  1
  O  O104  1  0.74339800  0.07156100  0.33173900  1
  O  O105  1  0.69168800  0.22638600  0.17312000  1
  O  O106  1  0.61230650  0.38970550  0.06866200  1
  O  O107  1  0.61808000  0.38185500  0.43182900  1
  O  O108  1  0.60644550  0.40391750  0.25035600  1
  O  O109  1  0.62357150  0.29693050  0.65915700  1
  O  O110  1  0.74339800  0.92843900  0.83173900  1
  O  O111  1  0.76681300  0.85143700  0.16437600  1
  O  O112  1  0.66726400  0.14930800  0.82272100  1
  O  O113  1  0.67669950  0.02079650  0.97870700  1
  O  O114  1  0.67669950  0.97920350  0.47870700  1
  O  O115  1  0.59477950  0.07585950  0.33799200  1
  O  O116  1  0.69168800  0.77361400  0.67312000  1
  O  O117  1  0.66726400  0.85069200  0.32272100  1
  O  O118  1  0.54345800  0.20724400  0.16080500  1
  O  O119  1  0.99120150  0.79490750  0.74100000  1
  O  O120  1  0.50489050  0.29928950  0.92040300  1
  O  O121  1  0.54600750  0.07890450  0.66571000  1
  O  O122  1  0.59477950  0.92414050  0.83799200  1
  O  O123  1  0.54600750  0.92109550  0.16571000  1
  O  O124  1  0.62357150  0.70306950  0.15915700  1
  O  O125  1  0.61808000  0.61814500  0.93182900  1
  O  O126  1  0.60644550  0.59608250  0.75035600  1
  O  O127  1  0.54345800  0.79275600  0.66080500  1
  O  O128  1  0.50489050  0.70071050  0.42040300  1
  O  O129  1  0.99120150  0.20509250  0.24100000  1
  O  O130  1  0.49957500  0.27858800  0.56183600  1
  O  O131  1  0.46016050  0.20660550  0.34529700  1
  O  O132  1  0.38871800  0.40093000  0.06539700  1
  O  O133  1  0.37085800  0.29428600  0.84297400  1
  O  O134  1  0.45101600  0.08209300  0.83751000  1
  O  O135  1  0.40117600  0.07673300  0.17041400  1
  O  O136  1  0.45101600  0.91790700  0.33751000  1
  O  O137  1  0.49957500  0.72141200  0.06183600  1
  O  O138  1  0.46016050  0.79339450  0.84529700  1
  O  O139  1  0.33553700  0.15210200  0.66681500  1
  O  O140  1  0.31403550  0.20542650  0.32693100  1
  O  O141  1  0.40117600  0.92326700  0.67041400  1
  O  O142  1  0.32288800  0.99637500  0.02101600  1
  O  O143  1  0.32288800  0.00362500  0.52101600  1
  O  O144  1  0.33553700  0.84789800  0.16681500  1
  O  O145  1  0.24197250  0.12900250  0.83006700  1
  O  O146  1  0.25332950  0.06801750  0.17043800  1
  O  O147  1  0.37085800  0.70571400  0.34297400  1
  O  O148  1  0.39763900  0.60605100  0.74896800  1
  O  O149  1  0.38871800  0.59907000  0.56539700  1
  O  O150  1  0.38102550  0.61380350  0.92998500  1
  O  O151  1  0.31403550  0.79457350  0.82693100  1
  O  O152  1  0.25332950  0.93198250  0.67043800  1
  O  O153  1  0.33154500  0.58623300  0.16213800  1
  O  O154  1  0.24197250  0.87099750  0.33006700  1
  O  O155  1  0.16857950  0.09067450  0.34719100  1
  O  O156  1  0.39763900  0.39394900  0.24896800  1
  O  O157  1  0.38102550  0.38619650  0.42998500  1
  O  O158  1  0.11230650  0.11029450  0.56866200  1
  O  O159  1  0.33154500  0.41376700  0.66213800  1
  O  O160  1  0.26681300  0.64856300  0.66437600  1
  O  O161  1  0.16857950  0.90932550  0.84719100  1
  O  O162  1  0.24339800  0.57156100  0.33173900  1
  O  O163  1  0.19168800  0.72638600  0.17312000  1
  O  O164  1  0.11230650  0.88970550  0.06866200  1
  O  O165  1  0.11808000  0.88185500  0.43182900  1
  O  O166  1  0.10644550  0.90391750  0.25035600  1
  O  O167  1  0.12357150  0.79693050  0.65915700  1
  O  O168  1  0.24339800  0.42843900  0.83173900  1
  O  O169  1  0.26681300  0.35143700  0.16437600  1
  O  O170  1  0.16726400  0.64930800  0.82272100  1
  O  O171  1  0.17669950  0.52079650  0.97870700  1
  O  O172  1  0.17669950  0.47920350  0.47870700  1
  O  O173  1  0.09477950  0.57585950  0.33799200  1
  O  O174  1  0.19168800  0.27361400  0.67312000  1
  O  O175  1  0.16726400  0.35069200  0.32272100  1
  O  O176  1  0.04345800  0.70724400  0.16080500  1
  O  O177  1  0.49120150  0.29490750  0.74100000  1
  O  O178  1  0.00489050  0.79928950  0.92040300  1
  O  O179  1  0.04600750  0.57890450  0.66571000  1
  O  O180  1  0.09477950  0.42414050  0.83799200  1
  O  O181  1  0.04600750  0.42109550  0.16571000  1
  O  O182  1  0.12357150  0.20306950  0.15915700  1
  O  O183  1  0.11808000  0.11814500  0.93182900  1
  O  O184  1  0.10644550  0.09608250  0.75035600  1
  O  O185  1  0.04345800  0.29275600  0.66080500  1
  O  O186  1  0.00489050  0.20071050  0.42040300  1
  O  O187  1  0.49120150  0.70509250  0.24100000  1
