# generated using pymatgen
data_Li2MnFe(PO4)2
_symmetry_space_group_name_H-M   'P 1'
_cell_length_a   4.77237600
_cell_length_b   6.11810301
_cell_length_c   10.53094202
_cell_angle_alpha   90.00000000
_cell_angle_beta   90.00000000
_cell_angle_gamma   90.00000000
_symmetry_Int_Tables_number   1
_chemical_formula_structural   Li2MnFe(PO4)2
_chemical_formula_sum   'Li4 Mn2 Fe2 P4 O16'
_cell_volume   307.48126568
_cell_formula_units_Z   2
loop_
 _symmetry_equiv_pos_site_id
 _symmetry_equiv_pos_as_xyz
  1  'x, y, z'
loop_
 _atom_site_type_symbol
 _atom_site_label
 _atom_site_symmetry_multiplicity
 _atom_site_fract_x
 _atom_site_fract_y
 _atom_site_fract_z
 _atom_site_occupancy
  Li  Li0  1  0.75067900  0.74887300  0.00059400  1
  Li  Li1  1  0.75067900  0.25112700  0.00059400  1
  Li  Li2  1  0.24932100  0.74887300  0.50059400  1
  Li  Li3  1  0.24932100  0.25112700  0.50059400  1
  Mn  Mn4  1  0.72881500  0.00000000  0.71887500  1
  Mn  Mn5  1  0.27118500  0.00000000  0.21887500  1
  Fe  Fe6  1  0.77360400  0.50000000  0.28141700  1
  Fe  Fe7  1  0.22639600  0.50000000  0.78141700  1
  P  P8  1  0.33841800  0.50000000  0.09349300  1
  P  P9  1  0.66158200  0.50000000  0.59349300  1
  P  P10  1  0.83075400  0.00000000  0.40662600  1
  P  P11  1  0.16924600  0.00000000  0.90662600  1
  O  O12  1  0.04012100  0.00000000  0.04210700  1
  O  O13  1  0.95987900  0.00000000  0.54210700  1
  O  O14  1  0.01607800  0.50000000  0.09826900  1
  O  O15  1  0.98392200  0.50000000  0.59826900  1
  O  O16  1  0.50873400  0.00000000  0.40560500  1
  O  O17  1  0.49126600  0.00000000  0.90560500  1
  O  O18  1  0.54160200  0.50000000  0.45591600  1
  O  O19  1  0.45839800  0.50000000  0.95591600  1
  O  O20  1  0.47421200  0.70174600  0.16259800  1
  O  O21  1  0.47421200  0.29825400  0.16259800  1
  O  O22  1  0.52578800  0.70174600  0.66259800  1
  O  O23  1  0.52578800  0.29825400  0.66259800  1
  O  O24  1  0.96026200  0.20245900  0.33562000  1
  O  O25  1  0.96026200  0.79754100  0.33562000  1
  O  O26  1  0.03973800  0.20245900  0.83562000  1
  O  O27  1  0.03973800  0.79754100  0.83562000  1
