# generated using pymatgen
data_Li3Ti2(PO4)3
_symmetry_space_group_name_H-M   'P 1'
_cell_length_a   8.29417400
_cell_length_b   5.47317400
_cell_length_c   18.61473440
_cell_angle_alpha   90.00000000
_cell_angle_beta   90.44180531
_cell_angle_gamma   90.00000000
_symmetry_Int_Tables_number   1
_chemical_formula_structural   Li3Ti2(PO4)3
_chemical_formula_sum   'Li12 Ti8 P12 O48'
_cell_volume   844.99926226
_cell_formula_units_Z   4
loop_
 _symmetry_equiv_pos_site_id
 _symmetry_equiv_pos_as_xyz
  1  'x, y, z'
loop_
 _atom_site_type_symbol
 _atom_site_label
 _atom_site_symmetry_multiplicity
 _atom_site_fract_x
 _atom_site_fract_y
 _atom_site_fract_z
 _atom_site_occupancy
  Li  Li0  1  0.99990700  0.00000000  0.83247900  1
  Li  Li1  1  0.32937200  0.00000000  0.08750700  1
  Li  Li2  1  0.33009200  0.00000000  0.75444500  1
  Li  Li3  1  0.00009300  0.00000000  0.16752100  1
  Li  Li4  1  0.66990800  0.00000000  0.24555500  1
  Li  Li5  1  0.67062800  0.00000000  0.91249300  1
  Li  Li6  1  0.49990700  0.50000000  0.83247900  1
  Li  Li7  1  0.82937200  0.50000000  0.08750700  1
  Li  Li8  1  0.83009200  0.50000000  0.75444500  1
  Li  Li9  1  0.50009300  0.50000000  0.16752100  1
  Li  Li10  1  0.16990800  0.50000000  0.24555500  1
  Li  Li11  1  0.17062800  0.50000000  0.91249300  1
  Ti  Ti12  1  0.00000000  0.00000000  0.50000000  1
  Ti  Ti13  1  0.99833600  0.00000000  0.66360900  1
  Ti  Ti14  1  0.00166400  0.00000000  0.33639100  1
  Ti  Ti15  1  0.00000000  0.00000000  0.00000000  1
  Ti  Ti16  1  0.50000000  0.50000000  0.50000000  1
  Ti  Ti17  1  0.49833600  0.50000000  0.66360900  1
  Ti  Ti18  1  0.50166400  0.50000000  0.33639100  1
  Ti  Ti19  1  0.50000000  0.50000000  0.00000000  1
  P  P20  1  0.34771800  0.00000000  0.25285000  1
  P  P21  1  0.34625300  0.00000000  0.58319800  1
  P  P22  1  0.35104900  0.00000000  0.91942500  1
  P  P23  1  0.65374700  0.00000000  0.41680200  1
  P  P24  1  0.64895100  0.00000000  0.08057500  1
  P  P25  1  0.65228200  0.00000000  0.74715000  1
  P  P26  1  0.84771800  0.50000000  0.25285000  1
  P  P27  1  0.84625300  0.50000000  0.58319800  1
  P  P28  1  0.85104900  0.50000000  0.91942500  1
  P  P29  1  0.15374700  0.50000000  0.41680200  1
  P  P30  1  0.14895100  0.50000000  0.08057500  1
  P  P31  1  0.15228200  0.50000000  0.74715000  1
  O  O32  1  0.45820600  0.76767500  0.58227800  1
  O  O33  1  0.46372500  0.77145100  0.25857300  1
  O  O34  1  0.46700550  0.77182250  0.92303300  1
  O  O35  1  0.54179400  0.76767500  0.41772200  1
  O  O36  1  0.53299450  0.77182250  0.07696700  1
  O  O37  1  0.53627500  0.77145100  0.74142700  1
  O  O38  1  0.76405400  0.00000000  0.48282300  1
  O  O39  1  0.74991100  0.00000000  0.14871500  1
  O  O40  1  0.24493900  0.00000000  0.65272000  1
  O  O41  1  0.23207300  0.00000000  0.31760300  1
  O  O42  1  0.23594600  0.00000000  0.51717700  1
  O  O43  1  0.74698800  0.00000000  0.81699000  1
  O  O44  1  0.75722200  0.00000000  0.01253300  1
  O  O45  1  0.75506100  0.00000000  0.34728000  1
  O  O46  1  0.25301200  0.00000000  0.18301000  1
  O  O47  1  0.24277800  0.00000000  0.98746700  1
  O  O48  1  0.76792700  0.00000000  0.68239700  1
  O  O49  1  0.25008900  0.00000000  0.85128500  1
  O  O50  1  0.54179400  0.23232500  0.41772200  1
  O  O51  1  0.53627500  0.22854900  0.74142700  1
  O  O52  1  0.45820600  0.23232500  0.58227800  1
  O  O53  1  0.53299450  0.22817750  0.07696700  1
  O  O54  1  0.46700550  0.22817750  0.92303300  1
  O  O55  1  0.46372500  0.22854900  0.25857300  1
  O  O56  1  0.95820600  0.26767500  0.58227800  1
  O  O57  1  0.96372500  0.27145100  0.25857300  1
  O  O58  1  0.96700550  0.27182250  0.92303300  1
  O  O59  1  0.04179400  0.26767500  0.41772200  1
  O  O60  1  0.03299450  0.27182250  0.07696700  1
  O  O61  1  0.03627500  0.27145100  0.74142700  1
  O  O62  1  0.26405400  0.50000000  0.48282300  1
  O  O63  1  0.24991100  0.50000000  0.14871500  1
  O  O64  1  0.74493900  0.50000000  0.65272000  1
  O  O65  1  0.73207300  0.50000000  0.31760300  1
  O  O66  1  0.73594600  0.50000000  0.51717700  1
  O  O67  1  0.24698800  0.50000000  0.81699000  1
  O  O68  1  0.25722200  0.50000000  0.01253300  1
  O  O69  1  0.25506100  0.50000000  0.34728000  1
  O  O70  1  0.75301200  0.50000000  0.18301000  1
  O  O71  1  0.74277800  0.50000000  0.98746700  1
  O  O72  1  0.26792700  0.50000000  0.68239700  1
  O  O73  1  0.75008900  0.50000000  0.85128500  1
  O  O74  1  0.04179400  0.73232500  0.41772200  1
  O  O75  1  0.03627500  0.72854900  0.74142700  1
  O  O76  1  0.95820600  0.73232500  0.58227800  1
  O  O77  1  0.03299450  0.72817750  0.07696700  1
  O  O78  1  0.96700550  0.72817750  0.92303300  1
  O  O79  1  0.96372500  0.72854900  0.25857300  1
