# generated using pymatgen
data_Li2Co3NiO8
_symmetry_space_group_name_H-M   'P 1'
_cell_length_a   9.71599456
_cell_length_b   5.73235520
_cell_length_c   5.82440289
_cell_angle_alpha   90.00000000
_cell_angle_beta   123.80623560
_cell_angle_gamma   90.00000000
_symmetry_Int_Tables_number   1
_chemical_formula_structural   Li2Co3NiO8
_chemical_formula_sum   'Li4 Co6 Ni2 O16'
_cell_volume   269.54608415
_cell_formula_units_Z   2
loop_
 _symmetry_equiv_pos_site_id
 _symmetry_equiv_pos_as_xyz
  1  'x, y, z'
loop_
 _atom_site_type_symbol
 _atom_site_label
 _atom_site_symmetry_multiplicity
 _atom_site_fract_x
 _atom_site_fract_y
 _atom_site_fract_z
 _atom_site_occupancy
  Li  Li0  1  0.00000000  0.50000000  0.50000000  1
  Li  Li1  1  0.00000000  0.00000000  0.50000000  1
  Li  Li2  1  0.50000000  0.00000000  0.50000000  1
  Li  Li3  1  0.50000000  0.50000000  0.50000000  1
  Co  Co4  1  0.00000000  0.50000000  0.00000000  1
  Co  Co5  1  0.25000000  0.75000000  0.00000000  1
  Co  Co6  1  0.75000000  0.75000000  0.00000000  1
  Co  Co7  1  0.50000000  0.00000000  0.00000000  1
  Co  Co8  1  0.75000000  0.25000000  0.00000000  1
  Co  Co9  1  0.25000000  0.25000000  0.00000000  1
  Ni  Ni10  1  0.00000000  0.00000000  0.00000000  1
  Ni  Ni11  1  0.50000000  0.50000000  0.00000000  1
  O  O12  1  0.26362850  0.50000000  0.80150400  1
  O  O13  1  0.76176650  0.50000000  0.79680300  1
  O  O14  1  0.01931150  0.74070550  0.78877900  1
  O  O15  1  0.01931150  0.25929450  0.78877900  1
  O  O16  1  0.98068850  0.74070550  0.21122100  1
  O  O17  1  0.98068850  0.25929450  0.21122100  1
  O  O18  1  0.23823350  0.50000000  0.20319700  1
  O  O19  1  0.73637150  0.50000000  0.19849600  1
  O  O20  1  0.76362850  0.00000000  0.80150400  1
  O  O21  1  0.26176650  0.00000000  0.79680300  1
  O  O22  1  0.51931150  0.24070550  0.78877900  1
  O  O23  1  0.51931150  0.75929450  0.78877900  1
  O  O24  1  0.48068850  0.24070550  0.21122100  1
  O  O25  1  0.48068850  0.75929450  0.21122100  1
  O  O26  1  0.73823350  0.00000000  0.20319700  1
  O  O27  1  0.23637150  0.00000000  0.19849600  1
