# generated using pymatgen
data_Li2CoO2
_symmetry_space_group_name_H-M   'P 1'
_cell_length_a   2.82798200
_cell_length_b   3.88249600
_cell_length_c   8.85146600
_cell_angle_alpha   90.00000000
_cell_angle_beta   90.00000000
_cell_angle_gamma   90.00000000
_symmetry_Int_Tables_number   1
_chemical_formula_structural   Li2CoO2
_chemical_formula_sum   'Li4 Co2 O4'
_cell_volume   97.18581104
_cell_formula_units_Z   2
loop_
 _symmetry_equiv_pos_site_id
 _symmetry_equiv_pos_as_xyz
  1  'x, y, z'
loop_
 _atom_site_type_symbol
 _atom_site_label
 _atom_site_symmetry_multiplicity
 _atom_site_fract_x
 _atom_site_fract_y
 _atom_site_fract_z
 _atom_site_occupancy
  Li  Li0  1  0.50000000  0.00000000  0.80449500  1
  Li  Li1  1  0.00000000  0.50000000  0.69550500  1
  Li  Li2  1  0.00000000  0.50000000  0.30449500  1
  Li  Li3  1  0.50000000  0.00000000  0.19550500  1
  Co  Co4  1  0.00000000  0.50000000  0.00000000  1
  Co  Co5  1  0.50000000  0.00000000  0.50000000  1
  O  O6  1  0.50000000  0.50000000  0.85808100  1
  O  O7  1  0.00000000  0.00000000  0.64191900  1
  O  O8  1  0.00000000  0.00000000  0.35808100  1
  O  O9  1  0.50000000  0.50000000  0.14191900  1
