# generated using pymatgen
data_Li4Nb2Cr3Co3O16
_symmetry_space_group_name_H-M   'P 1'
_cell_length_a   10.27952199
_cell_length_b   5.94138101
_cell_length_c   9.66064600
_cell_angle_alpha   90.00000000
_cell_angle_beta   90.00806884
_cell_angle_gamma   90.00000000
_symmetry_Int_Tables_number   1
_chemical_formula_structural   Li4Nb2Cr3Co3O16
_chemical_formula_sum   'Li8 Nb4 Cr6 Co6 O32'
_cell_volume   590.01966693
_cell_formula_units_Z   2
loop_
 _symmetry_equiv_pos_site_id
 _symmetry_equiv_pos_as_xyz
  1  'x, y, z'
loop_
 _atom_site_type_symbol
 _atom_site_label
 _atom_site_symmetry_multiplicity
 _atom_site_fract_x
 _atom_site_fract_y
 _atom_site_fract_z
 _atom_site_occupancy
  Li  Li0  1  0.83101700  0.50000000  0.90326400  1
  Li  Li1  1  0.50556100  0.50000000  0.99252200  1
  Li  Li2  1  0.50535150  0.50000000  0.49209800  1
  Li  Li3  1  0.16404850  0.50000000  0.39632400  1
  Li  Li4  1  0.33101700  0.00000000  0.90326400  1
  Li  Li5  1  0.00556100  0.00000000  0.99252200  1
  Li  Li6  1  0.00535150  0.00000000  0.49209800  1
  Li  Li7  1  0.66404850  0.00000000  0.39632400  1
  Nb  Nb8  1  0.83219300  0.50000000  0.49243400  1
  Nb  Nb9  1  0.16722700  0.50000000  0.99754100  1
  Nb  Nb10  1  0.33219300  0.00000000  0.49243400  1
  Nb  Nb11  1  0.66722700  0.00000000  0.99754100  1
  Cr  Cr12  1  0.32880650  0.50000000  0.71322500  1
  Cr  Cr13  1  0.91478250  0.74510850  0.21606400  1
  Cr  Cr14  1  0.91478250  0.25489150  0.21606400  1
  Cr  Cr15  1  0.82880650  0.00000000  0.71322500  1
  Cr  Cr16  1  0.41478250  0.24510850  0.21606400  1
  Cr  Cr17  1  0.41478250  0.75489150  0.21606400  1
  Co  Co18  1  0.08557550  0.74337950  0.71928200  1
  Co  Co19  1  0.08557550  0.25662050  0.71928200  1
  Co  Co20  1  0.67120850  0.50000000  0.21512200  1
  Co  Co21  1  0.58557550  0.24337950  0.71928200  1
  Co  Co22  1  0.58557550  0.75662050  0.71928200  1
  Co  Co23  1  0.17120850  0.00000000  0.21512200  1
  O  O24  1  0.98047750  0.50000000  0.34042100  1
  O  O25  1  0.82951850  0.50000000  0.11050500  1
  O  O26  1  0.50506750  0.50000000  0.30662500  1
  O  O27  1  0.50432300  0.50000000  0.80282100  1
  O  O28  1  0.33669950  0.50000000  0.09297100  1
  O  O29  1  0.66838000  0.50000000  0.59163400  1
  O  O30  1  0.15794650  0.50000000  0.61064000  1
  O  O31  1  0.01863750  0.50000000  0.84888800  1
  O  O32  1  0.91138500  0.75521000  0.58995600  1
  O  O33  1  0.91138500  0.24479000  0.58995600  1
  O  O34  1  0.75567800  0.71758600  0.33603600  1
  O  O35  1  0.75567800  0.28241400  0.33603600  1
  O  O36  1  0.24291250  0.71882850  0.84265700  1
  O  O37  1  0.24291250  0.28117150  0.84265700  1
  O  O38  1  0.08658350  0.75331250  0.09640400  1
  O  O39  1  0.08658350  0.24668750  0.09640400  1
  O  O40  1  0.48047750  0.00000000  0.34042100  1
  O  O41  1  0.32951850  0.00000000  0.11050500  1
  O  O42  1  0.00506750  0.00000000  0.30662500  1
  O  O43  1  0.00432300  0.00000000  0.80282100  1
  O  O44  1  0.83669950  0.00000000  0.09297100  1
  O  O45  1  0.16838000  0.00000000  0.59163400  1
  O  O46  1  0.65794650  0.00000000  0.61064000  1
  O  O47  1  0.51863750  0.00000000  0.84888800  1
  O  O48  1  0.41138500  0.25521000  0.58995600  1
  O  O49  1  0.41138500  0.74479000  0.58995600  1
  O  O50  1  0.25567800  0.21758600  0.33603600  1
  O  O51  1  0.25567800  0.78241400  0.33603600  1
  O  O52  1  0.74291250  0.21882850  0.84265700  1
  O  O53  1  0.74291250  0.78117150  0.84265700  1
  O  O54  1  0.58658350  0.25331250  0.09640400  1
  O  O55  1  0.58658350  0.74668750  0.09640400  1
