# generated using pymatgen
data_Li4MnFe3(PO4)4
_symmetry_space_group_name_H-M   'P 1'
_cell_length_a   4.76208800
_cell_length_b   6.10508000
_cell_length_c   10.46704167
_cell_angle_alpha   90.00000000
_cell_angle_beta   90.12438952
_cell_angle_gamma   90.00000000
_symmetry_Int_Tables_number   1
_chemical_formula_structural   Li4MnFe3(PO4)4
_chemical_formula_sum   'Li4 Mn1 Fe3 P4 O16'
_cell_volume   304.30683378
_cell_formula_units_Z   1
loop_
 _symmetry_equiv_pos_site_id
 _symmetry_equiv_pos_as_xyz
  1  'x, y, z'
loop_
 _atom_site_type_symbol
 _atom_site_label
 _atom_site_symmetry_multiplicity
 _atom_site_fract_x
 _atom_site_fract_y
 _atom_site_fract_z
 _atom_site_occupancy
  Li  Li0  1  0.99998300  0.75062900  0.99946700  1
  Li  Li1  1  0.99998300  0.24937100  0.99946700  1
  Li  Li2  1  0.50021400  0.75086800  0.50030400  1
  Li  Li3  1  0.50021400  0.24913200  0.50030400  1
  Mn  Mn4  1  0.97798300  0.50000000  0.28149200  1
  Fe  Fe5  1  0.47491200  0.00000000  0.21841600  1
  Fe  Fe6  1  0.02491500  0.00000000  0.71851700  1
  Fe  Fe7  1  0.52549100  0.50000000  0.78144400  1
  P  P8  1  0.41993400  0.50000000  0.09258400  1
  P  P9  1  0.91560800  0.00000000  0.40612400  1
  P  P10  1  0.08226200  0.50000000  0.59580800  1
  P  P11  1  0.58153400  0.00000000  0.90515300  1
  O  O12  1  0.70723500  0.00000000  0.04270100  1
  O  O13  1  0.74192700  0.50000000  0.09468800  1
  O  O14  1  0.28913200  0.70300400  0.16392500  1
  O  O15  1  0.28913200  0.29699600  0.16392500  1
  O  O16  1  0.77961700  0.20155000  0.33597700  1
  O  O17  1  0.77961700  0.79845000  0.33597700  1
  O  O18  1  0.23836500  0.00000000  0.40320600  1
  O  O19  1  0.20944300  0.50000000  0.45879600  1
  O  O20  1  0.79401200  0.00000000  0.54421800  1
  O  O21  1  0.75988300  0.50000000  0.59661700  1
  O  O22  1  0.21458600  0.70309400  0.66644200  1
  O  O23  1  0.21458600  0.29690600  0.66644200  1
  O  O24  1  0.71435300  0.20288800  0.83447900  1
  O  O25  1  0.71435300  0.79711200  0.83447900  1
  O  O26  1  0.25902200  0.00000000  0.90319500  1
  O  O27  1  0.29170400  0.50000000  0.95585000  1
