# generated using pymatgen
data_Li2NbCo3O8
_symmetry_space_group_name_H-M   'P 1'
_cell_length_a   5.77939442
_cell_length_b   5.77939442
_cell_length_c   9.40659400
_cell_angle_alpha   90.00000000
_cell_angle_beta   90.00000000
_cell_angle_gamma   120.00000000
_symmetry_Int_Tables_number   1
_chemical_formula_structural   Li2NbCo3O8
_chemical_formula_sum   'Li4 Nb2 Co6 O16'
_cell_volume   272.09947293
_cell_formula_units_Z   2
loop_
 _symmetry_equiv_pos_site_id
 _symmetry_equiv_pos_as_xyz
  1  'x, y, z'
loop_
 _atom_site_type_symbol
 _atom_site_label
 _atom_site_symmetry_multiplicity
 _atom_site_fract_x
 _atom_site_fract_y
 _atom_site_fract_z
 _atom_site_occupancy
  Li  Li0  1  0.66666667  0.33333333  0.39600200  1
  Li  Li1  1  0.00000000  0.00000000  0.49606100  1
  Li  Li2  1  0.00000000  0.00000000  0.99606100  1
  Li  Li3  1  0.33333333  0.66666667  0.89600200  1
  Nb  Nb4  1  0.66666667  0.33333333  0.99648700  1
  Nb  Nb5  1  0.33333333  0.66666667  0.49648700  1
  Co  Co6  1  0.83018600  0.66037200  0.71583900  1
  Co  Co7  1  0.33962800  0.16981400  0.71583900  1
  Co  Co8  1  0.83018600  0.16981400  0.71583900  1
  Co  Co9  1  0.16981400  0.83018600  0.21583900  1
  Co  Co10  1  0.66037200  0.83018600  0.21583900  1
  Co  Co11  1  0.16981400  0.33962800  0.21583900  1
  O  O12  1  0.83506400  0.67012800  0.09965800  1
  O  O13  1  0.51896950  0.48103050  0.83408200  1
  O  O14  1  0.66666667  0.33333333  0.61227400  1
  O  O15  1  0.00000000  0.00000000  0.80777800  1
  O  O16  1  0.00000000  0.00000000  0.30777800  1
  O  O17  1  0.32987200  0.16493600  0.09965800  1
  O  O18  1  0.96206100  0.48103050  0.83408200  1
  O  O19  1  0.51896950  0.03793900  0.83408200  1
  O  O20  1  0.16493600  0.83506400  0.59965800  1
  O  O21  1  0.83506400  0.16493600  0.09965800  1
  O  O22  1  0.48103050  0.96206100  0.33408200  1
  O  O23  1  0.03793900  0.51896950  0.33408200  1
  O  O24  1  0.33333333  0.66666667  0.11227400  1
  O  O25  1  0.67012800  0.83506400  0.59965800  1
  O  O26  1  0.48103050  0.51896950  0.33408200  1
  O  O27  1  0.16493600  0.32987200  0.59965800  1
