# generated using pymatgen
data_Mn5Cr3O16
_symmetry_space_group_name_H-M   'P 1'
_cell_length_a   10.08462600
_cell_length_b   5.80857000
_cell_length_c   8.88540462
_cell_angle_alpha   90.00000000
_cell_angle_beta   90.48825205
_cell_angle_gamma   90.00000000
_symmetry_Int_Tables_number   1
_chemical_formula_structural   Mn5Cr3O16
_chemical_formula_sum   'Mn10 Cr6 O32'
_cell_volume   520.46372329
_cell_formula_units_Z   2
loop_
 _symmetry_equiv_pos_site_id
 _symmetry_equiv_pos_as_xyz
  1  'x, y, z'
loop_
 _atom_site_type_symbol
 _atom_site_label
 _atom_site_symmetry_multiplicity
 _atom_site_fract_x
 _atom_site_fract_y
 _atom_site_fract_z
 _atom_site_occupancy
  Mn  Mn0  1  0.66804600  0.00000000  0.48359200  1
  Mn  Mn1  1  0.82914800  0.00000000  0.21431200  1
  Mn  Mn2  1  0.83345600  0.50000000  0.98209100  1
  Mn  Mn3  1  0.91415250  0.74859250  0.71150900  1
  Mn  Mn4  1  0.91415250  0.25140750  0.71150900  1
  Mn  Mn5  1  0.16804600  0.50000000  0.48359200  1
  Mn  Mn6  1  0.32914800  0.50000000  0.21431200  1
  Mn  Mn7  1  0.33345600  0.00000000  0.98209100  1
  Mn  Mn8  1  0.41415250  0.24859250  0.71150900  1
  Mn  Mn9  1  0.41415250  0.75140750  0.71150900  1
  Cr  Cr10  1  0.58040700  0.25162500  0.20401500  1
  Cr  Cr11  1  0.58040700  0.74837500  0.20401500  1
  Cr  Cr12  1  0.66309800  0.50000000  0.70121400  1
  Cr  Cr13  1  0.08040700  0.75162500  0.20401500  1
  Cr  Cr14  1  0.08040700  0.24837500  0.20401500  1
  Cr  Cr15  1  0.16309800  0.00000000  0.70121400  1
  O  O16  1  0.58593900  0.24800900  0.60545600  1
  O  O17  1  0.52643000  0.00000000  0.33823400  1
  O  O18  1  0.66998400  0.00000000  0.09749800  1
  O  O19  1  0.99643900  0.00000000  0.31666000  1
  O  O20  1  0.99671500  0.00000000  0.81674400  1
  O  O21  1  0.58593900  0.75199100  0.60545600  1
  O  O22  1  0.73835600  0.21726600  0.34163100  1
  O  O23  1  0.73835600  0.78273400  0.34163100  1
  O  O24  1  0.67257100  0.50000000  0.10888700  1
  O  O25  1  0.83417400  0.00000000  0.60059900  1
  O  O26  1  0.76104450  0.71560950  0.83958400  1
  O  O27  1  0.76104450  0.28439050  0.83958400  1
  O  O28  1  0.83655100  0.50000000  0.59961200  1
  O  O29  1  0.91725900  0.74530000  0.10509800  1
  O  O30  1  0.97853300  0.50000000  0.84171400  1
  O  O31  1  0.91725900  0.25470000  0.10509800  1
  O  O32  1  0.08593900  0.74800900  0.60545600  1
  O  O33  1  0.02643000  0.50000000  0.33823400  1
  O  O34  1  0.16998400  0.50000000  0.09749800  1
  O  O35  1  0.49643900  0.50000000  0.31666000  1
  O  O36  1  0.49671500  0.50000000  0.81674400  1
  O  O37  1  0.08593900  0.25199100  0.60545600  1
  O  O38  1  0.23835600  0.71726600  0.34163100  1
  O  O39  1  0.23835600  0.28273400  0.34163100  1
  O  O40  1  0.17257100  0.00000000  0.10888700  1
  O  O41  1  0.33417400  0.50000000  0.60059900  1
  O  O42  1  0.26104450  0.21560950  0.83958400  1
  O  O43  1  0.26104450  0.78439050  0.83958400  1
  O  O44  1  0.33655100  0.00000000  0.59961200  1
  O  O45  1  0.41725900  0.24530000  0.10509800  1
  O  O46  1  0.47853300  0.00000000  0.84171400  1
  O  O47  1  0.41725900  0.75470000  0.10509800  1
