# generated using pymatgen
data_Li2Cr3Ni(SO4)6
_symmetry_space_group_name_H-M   'P 1'
_cell_length_a   8.32469910
_cell_length_b   8.37885350
_cell_length_c   8.93145382
_cell_angle_alpha   91.00375511
_cell_angle_beta   116.85064032
_cell_angle_gamma   119.69055452
_symmetry_Int_Tables_number   1
_chemical_formula_structural   Li2Cr3Ni(SO4)6
_chemical_formula_sum   'Li2 Cr3 Ni1 S6 O24'
_cell_volume   458.86109820
_cell_formula_units_Z   1
loop_
 _symmetry_equiv_pos_site_id
 _symmetry_equiv_pos_as_xyz
  1  'x, y, z'
loop_
 _atom_site_type_symbol
 _atom_site_label
 _atom_site_symmetry_multiplicity
 _atom_site_fract_x
 _atom_site_fract_y
 _atom_site_fract_z
 _atom_site_occupancy
  Li  Li0  1  0.05208400  0.23418500  0.62616900  1
  Li  Li1  1  0.80672700  0.57194900  0.62323100  1
  Cr  Cr2  1  0.29733800  0.65386900  0.94060400  1
  Cr  Cr3  1  0.71353300  0.35491800  0.06955600  1
  Cr  Cr4  1  0.30026600  0.14661000  0.45063100  1
  Ni  Ni5  1  0.68201300  0.84431700  0.53396500  1
  S  S6  1  0.49958700  0.53552000  0.75256600  1
  S  S7  1  0.20256800  0.74362800  0.24872500  1
  S  S8  1  0.80056800  0.05174700  0.25122100  1
  S  S9  1  0.21017900  0.96664200  0.74570400  1
  S  S10  1  0.78395600  0.24472600  0.74785000  1
  S  S11  1  0.50110100  0.45262700  0.25060800  1
  O  O12  1  0.65489100  0.65541200  0.69981600  1
  O  O13  1  0.31514300  0.34113800  0.60817200  1
  O  O14  1  0.35512100  0.70907200  0.38652700  1
  O  O15  1  0.97771200  0.02345700  0.29350200  1
  O  O16  1  0.81630800  0.30609700  0.92012800  1
  O  O17  1  0.39040400  0.62262400  0.76981200  1
  O  O18  1  0.27561300  0.94975000  0.29597000  1
  O  O19  1  0.86871800  0.24799700  0.23218200  1
  O  O20  1  0.60533300  0.90156700  0.08878700  1
  O  O21  1  0.38367300  0.48449500  0.08902100  1
  O  O22  1  0.98389500  0.61788900  0.22686000  1
  O  O23  1  0.76609500  0.04704600  0.40300400  1
  O  O24  1  0.25953500  0.97745000  0.60313400  1
  O  O25  1  0.99533700  0.37055200  0.75811600  1
  O  O26  1  0.61580800  0.50498400  0.91914500  1
  O  O27  1  0.40983900  0.10410000  0.91806000  1
  O  O28  1  0.12510000  0.76720800  0.75576400  1
  O  O29  1  0.70157900  0.04075300  0.69844000  1
  O  O30  1  0.61192300  0.36514100  0.23065200  1
  O  O31  1  0.18051800  0.70039700  0.07712600  1
  O  O32  1  0.04107000  0.00684800  0.70285100  1
  O  O33  1  0.63229100  0.28861700  0.60856300  1
  O  O34  1  0.67989900  0.63754900  0.40206800  1
  O  O35  1  0.34268000  0.31782000  0.29668000  1
