# generated using pymatgen
data_Mn3O5F
_symmetry_space_group_name_H-M   'P 1'
_cell_length_a   8.89367200
_cell_length_b   6.31228800
_cell_length_c   7.23802322
_cell_angle_alpha   90.00000000
_cell_angle_beta   113.02072670
_cell_angle_gamma   90.00000000
_symmetry_Int_Tables_number   1
_chemical_formula_structural   Mn3O5F
_chemical_formula_sum   'Mn12 O20 F4'
_cell_volume   373.97902756
_cell_formula_units_Z   4
loop_
 _symmetry_equiv_pos_site_id
 _symmetry_equiv_pos_as_xyz
  1  'x, y, z'
loop_
 _atom_site_type_symbol
 _atom_site_label
 _atom_site_symmetry_multiplicity
 _atom_site_fract_x
 _atom_site_fract_y
 _atom_site_fract_z
 _atom_site_occupancy
  Mn  Mn0  1  0.17210800  0.50000000  0.15472400  1
  Mn  Mn1  1  0.00000000  0.00000000  0.00000000  1
  Mn  Mn2  1  0.17949200  0.50000000  0.67573600  1
  Mn  Mn3  1  0.00000000  0.00000000  0.50000000  1
  Mn  Mn4  1  0.82789200  0.50000000  0.84527600  1
  Mn  Mn5  1  0.82050800  0.50000000  0.32426400  1
  Mn  Mn6  1  0.67210800  0.00000000  0.15472400  1
  Mn  Mn7  1  0.50000000  0.50000000  0.00000000  1
  Mn  Mn8  1  0.67949200  0.00000000  0.67573600  1
  Mn  Mn9  1  0.50000000  0.50000000  0.50000000  1
  Mn  Mn10  1  0.32789200  0.00000000  0.84527600  1
  Mn  Mn11  1  0.32050800  0.00000000  0.32426400  1
  O  O12  1  0.00000000  0.69368500  0.00000000  1
  O  O13  1  0.16901950  0.19543650  0.66715300  1
  O  O14  1  0.27270500  0.50000000  0.96357700  1
  O  O15  1  0.59764900  0.50000000  0.29305200  1
  O  O16  1  0.72729500  0.50000000  0.03642300  1
  O  O17  1  0.40235100  0.50000000  0.70694800  1
  O  O18  1  0.16901950  0.80456350  0.66715300  1
  O  O19  1  0.00000000  0.30631500  0.00000000  1
  O  O20  1  0.83098050  0.80456350  0.33284700  1
  O  O21  1  0.83098050  0.19543650  0.33284700  1
  O  O22  1  0.50000000  0.19368500  0.00000000  1
  O  O23  1  0.66901950  0.69543650  0.66715300  1
  O  O24  1  0.77270500  0.00000000  0.96357700  1
  O  O25  1  0.09764900  0.00000000  0.29305200  1
  O  O26  1  0.22729500  0.00000000  0.03642300  1
  O  O27  1  0.90235100  0.00000000  0.70694800  1
  O  O28  1  0.66901950  0.30456350  0.66715300  1
  O  O29  1  0.50000000  0.80631500  0.00000000  1
  O  O30  1  0.33098050  0.30456350  0.33284700  1
  O  O31  1  0.33098050  0.69543650  0.33284700  1
  F  F32  1  0.93720000  0.50000000  0.63078800  1
  F  F33  1  0.06280000  0.50000000  0.36921200  1
  F  F34  1  0.43720000  0.00000000  0.63078800  1
  F  F35  1  0.56280000  0.00000000  0.36921200  1
