# generated using pymatgen
data_Li3Cr3CoO8
_symmetry_space_group_name_H-M   'P 1'
_cell_length_a   10.11957000
_cell_length_b   5.82577000
_cell_length_c   5.93686153
_cell_angle_alpha   90.00000000
_cell_angle_beta   125.13108165
_cell_angle_gamma   90.00000000
_symmetry_Int_Tables_number   1
_chemical_formula_structural   Li3Cr3CoO8
_chemical_formula_sum   'Li6 Cr6 Co2 O16'
_cell_volume   286.24599815
_cell_formula_units_Z   2
loop_
 _symmetry_equiv_pos_site_id
 _symmetry_equiv_pos_as_xyz
  1  'x, y, z'
loop_
 _atom_site_type_symbol
 _atom_site_label
 _atom_site_symmetry_multiplicity
 _atom_site_fract_x
 _atom_site_fract_y
 _atom_site_fract_z
 _atom_site_occupancy
  Li  Li0  1  0.50000000  0.00000000  0.50000000  1
  Li  Li1  1  0.75000000  0.25000000  0.50000000  1
  Li  Li2  1  0.75000000  0.75000000  0.50000000  1
  Li  Li3  1  0.00000000  0.50000000  0.50000000  1
  Li  Li4  1  0.25000000  0.75000000  0.50000000  1
  Li  Li5  1  0.25000000  0.25000000  0.50000000  1
  Cr  Cr6  1  0.75000000  0.25000000  0.00000000  1
  Cr  Cr7  1  0.00000000  0.50000000  0.00000000  1
  Cr  Cr8  1  0.75000000  0.75000000  0.00000000  1
  Cr  Cr9  1  0.25000000  0.75000000  0.00000000  1
  Cr  Cr10  1  0.50000000  0.00000000  0.00000000  1
  Cr  Cr11  1  0.25000000  0.25000000  0.00000000  1
  Co  Co12  1  0.00000000  0.00000000  0.00000000  1
  Co  Co13  1  0.50000000  0.50000000  0.00000000  1
  O  O14  1  0.23205500  0.50000000  0.21543300  1
  O  O15  1  0.23804400  0.00000000  0.22262800  1
  O  O16  1  0.49312150  0.75352950  0.21347000  1
  O  O17  1  0.50687850  0.75352950  0.78653000  1
  O  O18  1  0.49312150  0.24647050  0.21347000  1
  O  O19  1  0.50687850  0.24647050  0.78653000  1
  O  O20  1  0.76195600  0.00000000  0.77737200  1
  O  O21  1  0.76794500  0.50000000  0.78456700  1
  O  O22  1  0.73205500  0.00000000  0.21543300  1
  O  O23  1  0.73804400  0.50000000  0.22262800  1
  O  O24  1  0.99312150  0.25352950  0.21347000  1
  O  O25  1  0.00687850  0.25352950  0.78653000  1
  O  O26  1  0.99312150  0.74647050  0.21347000  1
  O  O27  1  0.00687850  0.74647050  0.78653000  1
  O  O28  1  0.26195600  0.50000000  0.77737200  1
  O  O29  1  0.26794500  0.00000000  0.78456700  1
