# generated using pymatgen
data_K7(Bi3O8)3
_symmetry_space_group_name_H-M   'P 1'
_cell_length_a   17.13412400
_cell_length_b   8.56437600
_cell_length_c   9.57835244
_cell_angle_alpha   90.00000000
_cell_angle_beta   116.55766511
_cell_angle_gamma   90.00000000
_symmetry_Int_Tables_number   1
_chemical_formula_structural   K7(Bi3O8)3
_chemical_formula_sum   'K14 Bi18 O48'
_cell_volume   1257.24936897
_cell_formula_units_Z   2
loop_
 _symmetry_equiv_pos_site_id
 _symmetry_equiv_pos_as_xyz
  1  'x, y, z'
loop_
 _atom_site_type_symbol
 _atom_site_label
 _atom_site_symmetry_multiplicity
 _atom_site_fract_x
 _atom_site_fract_y
 _atom_site_fract_z
 _atom_site_occupancy
  K  K0  1  0.00000000  0.50000000  0.50000000  1
  K  K1  1  0.12468300  0.50000000  0.00135900  1
  K  K2  1  0.12508900  0.00000000  0.99776400  1
  K  K3  1  0.37491100  0.50000000  0.00223600  1
  K  K4  1  0.25177500  0.50000000  0.50001200  1
  K  K5  1  0.24822500  0.00000000  0.49998800  1
  K  K6  1  0.37531700  0.00000000  0.99864100  1
  K  K7  1  0.50000000  0.00000000  0.50000000  1
  K  K8  1  0.62468300  0.00000000  0.00135900  1
  K  K9  1  0.62508900  0.50000000  0.99776400  1
  K  K10  1  0.87491100  0.00000000  0.00223600  1
  K  K11  1  0.75177500  0.00000000  0.50001200  1
  K  K12  1  0.74822500  0.50000000  0.49998800  1
  K  K13  1  0.87531700  0.50000000  0.99864100  1
  Bi  Bi14  1  0.18817250  0.25145050  0.75083300  1
  Bi  Bi15  1  0.06279100  0.74910100  0.24943300  1
  Bi  Bi16  1  0.18817250  0.74854950  0.75083300  1
  Bi  Bi17  1  0.43720900  0.24910100  0.75056700  1
  Bi  Bi18  1  0.31182750  0.24854950  0.24916700  1
  Bi  Bi19  1  0.00000000  0.00000000  0.50000000  1
  Bi  Bi20  1  0.06279100  0.25089900  0.24943300  1
  Bi  Bi21  1  0.31182750  0.75145050  0.24916700  1
  Bi  Bi22  1  0.43720900  0.75089900  0.75056700  1
  Bi  Bi23  1  0.68817250  0.75145050  0.75083300  1
  Bi  Bi24  1  0.56279100  0.24910100  0.24943300  1
  Bi  Bi25  1  0.68817250  0.24854950  0.75083300  1
  Bi  Bi26  1  0.93720900  0.74910100  0.75056700  1
  Bi  Bi27  1  0.81182750  0.74854950  0.24916700  1
  Bi  Bi28  1  0.50000000  0.50000000  0.50000000  1
  Bi  Bi29  1  0.56279100  0.75089900  0.24943300  1
  Bi  Bi30  1  0.81182750  0.25145050  0.24916700  1
  Bi  Bi31  1  0.93720900  0.25089900  0.75056700  1
  O  O32  1  0.18912250  0.25074350  0.25662000  1
  O  O33  1  0.18220800  0.50000000  0.74366200  1
  O  O34  1  0.43986400  0.00000000  0.74507500  1
  O  O35  1  0.06013600  0.50000000  0.25492500  1
  O  O36  1  0.18912250  0.74925650  0.25662000  1
  O  O37  1  0.44229400  0.27034800  0.26895300  1
  O  O38  1  0.31087750  0.24925650  0.74338000  1
  O  O39  1  0.00000000  0.75542700  0.00000000  1
  O  O40  1  0.05770600  0.77034800  0.73104700  1
  O  O41  1  0.25000000  0.25000000  0.00000000  1
  O  O42  1  0.38489800  0.27098400  0.50020000  1
  O  O43  1  0.11510200  0.77098400  0.49980000  1
  O  O44  1  0.05766800  0.00000000  0.26979200  1
  O  O45  1  0.44233200  0.50000000  0.73020800  1
  O  O46  1  0.32677800  0.50000000  0.26867100  1
  O  O47  1  0.17322200  0.00000000  0.73132900  1
  O  O48  1  0.38489800  0.72901600  0.50020000  1
  O  O49  1  0.05770600  0.22965200  0.73104700  1
  O  O50  1  0.11510200  0.22901600  0.49980000  1
  O  O51  1  0.00000000  0.24457300  0.00000000  1
  O  O52  1  0.44229400  0.72965200  0.26895300  1
  O  O53  1  0.31087750  0.75074350  0.74338000  1
  O  O54  1  0.25000000  0.75000000  0.00000000  1
  O  O55  1  0.31779200  0.00000000  0.25633800  1
  O  O56  1  0.68912250  0.75074350  0.25662000  1
  O  O57  1  0.68220800  0.00000000  0.74366200  1
  O  O58  1  0.93986400  0.50000000  0.74507500  1
  O  O59  1  0.56013600  0.00000000  0.25492500  1
  O  O60  1  0.68912250  0.24925650  0.25662000  1
  O  O61  1  0.94229400  0.77034800  0.26895300  1
  O  O62  1  0.81087750  0.74925650  0.74338000  1
  O  O63  1  0.50000000  0.25542700  0.00000000  1
  O  O64  1  0.55770600  0.27034800  0.73104700  1
  O  O65  1  0.75000000  0.75000000  0.00000000  1
  O  O66  1  0.88489800  0.77098400  0.50020000  1
  O  O67  1  0.61510200  0.27098400  0.49980000  1
  O  O68  1  0.55766800  0.50000000  0.26979200  1
  O  O69  1  0.94233200  0.00000000  0.73020800  1
  O  O70  1  0.82677800  0.00000000  0.26867100  1
  O  O71  1  0.67322200  0.50000000  0.73132900  1
  O  O72  1  0.88489800  0.22901600  0.50020000  1
  O  O73  1  0.55770600  0.72965200  0.73104700  1
  O  O74  1  0.61510200  0.72901600  0.49980000  1
  O  O75  1  0.50000000  0.74457300  0.00000000  1
  O  O76  1  0.94229400  0.22965200  0.26895300  1
  O  O77  1  0.81087750  0.25074350  0.74338000  1
  O  O78  1  0.75000000  0.25000000  0.00000000  1
  O  O79  1  0.81779200  0.50000000  0.25633800  1
