# generated using pymatgen
data_Li5VCr3O8
_symmetry_space_group_name_H-M   'P 1'
_cell_length_a   6.01354437
_cell_length_b   6.01354437
_cell_length_c   15.19506212
_cell_angle_alpha   90.00000000
_cell_angle_beta   90.00000000
_cell_angle_gamma   120.00000000
_symmetry_Int_Tables_number   1
_chemical_formula_structural   Li5VCr3O8
_chemical_formula_sum   'Li15 V3 Cr9 O24'
_cell_volume   475.87638240
_cell_formula_units_Z   3
loop_
 _symmetry_equiv_pos_site_id
 _symmetry_equiv_pos_as_xyz
  1  'x, y, z'
loop_
 _atom_site_type_symbol
 _atom_site_label
 _atom_site_symmetry_multiplicity
 _atom_site_fract_x
 _atom_site_fract_y
 _atom_site_fract_z
 _atom_site_occupancy
  Li  Li0  1  0.66666667  0.33333333  0.26789533  1
  Li  Li1  1  0.83333333  0.16666667  0.16666667  1
  Li  Li2  1  0.00000000  0.00000000  0.06543800  1
  Li  Li3  1  0.33333333  0.16666667  0.16666667  1
  Li  Li4  1  0.83333333  0.66666667  0.16666667  1
  Li  Li5  1  0.33333333  0.66666667  0.60122867  1
  Li  Li6  1  0.50000000  0.50000000  0.50000000  1
  Li  Li7  1  0.66666667  0.33333333  0.39877133  1
  Li  Li8  1  0.00000000  0.50000000  0.50000000  1
  Li  Li9  1  0.50000000  0.00000000  0.50000000  1
  Li  Li10  1  0.00000000  0.00000000  0.93456200  1
  Li  Li11  1  0.16666667  0.83333333  0.83333333  1
  Li  Li12  1  0.33333333  0.66666667  0.73210467  1
  Li  Li13  1  0.66666667  0.83333333  0.83333333  1
  Li  Li14  1  0.16666667  0.33333333  0.83333333  1
  V  V15  1  0.33333333  0.66666667  0.16666667  1
  V  V16  1  1.00000000  1.00000000  0.50000000  1
  V  V17  1  0.66666667  0.33333333  0.83333333  1
  Cr  Cr18  1  0.50000000  0.00000000  0.00000000  1
  Cr  Cr19  1  0.00000000  0.50000000  0.00000000  1
  Cr  Cr20  1  0.50000000  0.50000000  0.00000000  1
  Cr  Cr21  1  0.16666667  0.33333333  0.33333333  1
  Cr  Cr22  1  0.66666667  0.83333333  0.33333333  1
  Cr  Cr23  1  0.16666667  0.83333333  0.33333333  1
  Cr  Cr24  1  0.83333333  0.66666667  0.66666667  1
  Cr  Cr25  1  0.33333333  0.16666667  0.66666667  1
  Cr  Cr26  1  0.83333333  0.16666667  0.66666667  1
  O  O27  1  0.66666667  0.33333333  0.07483133  1
  O  O28  1  0.49113900  0.98227800  0.25644500  1
  O  O29  1  0.01772200  0.50886100  0.25644500  1
  O  O30  1  0.49113900  0.50886100  0.25644500  1
  O  O31  1  0.17552767  0.82447233  0.07688833  1
  O  O32  1  0.64894467  0.82447233  0.07688833  1
  O  O33  1  0.17552767  0.35105533  0.07688833  1
  O  O34  1  0.00000000  0.00000000  0.25850200  1
  O  O35  1  0.33333333  0.66666667  0.40816467  1
  O  O36  1  0.15780567  0.31561133  0.58977833  1
  O  O37  1  0.68438867  0.84219433  0.58977833  1
  O  O38  1  0.15780567  0.84219433  0.58977833  1
  O  O39  1  0.84219433  0.15780567  0.41022167  1
  O  O40  1  0.31561133  0.15780567  0.41022167  1
  O  O41  1  0.84219433  0.68438867  0.41022167  1
  O  O42  1  0.66666667  0.33333333  0.59183533  1
  O  O43  1  0.00000000  0.00000000  0.74149800  1
  O  O44  1  0.82447233  0.64894467  0.92311167  1
  O  O45  1  0.35105533  0.17552767  0.92311167  1
  O  O46  1  0.82447233  0.17552767  0.92311167  1
  O  O47  1  0.50886100  0.49113900  0.74355500  1
  O  O48  1  0.98227800  0.49113900  0.74355500  1
  O  O49  1  0.50886100  0.01772200  0.74355500  1
  O  O50  1  0.33333333  0.66666667  0.92516867  1
