# generated using pymatgen
data_Li2Fe2Si2O7
_symmetry_space_group_name_H-M   'P 1'
_cell_length_a   5.07312665
_cell_length_b   8.47104007
_cell_length_c   13.34065991
_cell_angle_alpha   90.00000000
_cell_angle_beta   90.00000000
_cell_angle_gamma   90.00000000
_symmetry_Int_Tables_number   1
_chemical_formula_structural   Li2Fe2Si2O7
_chemical_formula_sum   'Li8 Fe8 Si8 O28'
_cell_volume   573.31031250
_cell_formula_units_Z   4
loop_
 _symmetry_equiv_pos_site_id
 _symmetry_equiv_pos_as_xyz
  1  'x, y, z'
loop_
 _atom_site_type_symbol
 _atom_site_label
 _atom_site_symmetry_multiplicity
 _atom_site_fract_x
 _atom_site_fract_y
 _atom_site_fract_z
 _atom_site_occupancy
  Li  Li0  1  0.04893600  0.30073800  0.41778400  1
  Li  Li1  1  0.04893600  0.30073800  0.08221600  1
  Li  Li2  1  0.04893600  0.69926200  0.58221600  1
  Li  Li3  1  0.04893600  0.69926200  0.91778400  1
  Li  Li4  1  0.54893600  0.80073800  0.41778400  1
  Li  Li5  1  0.54893600  0.80073800  0.08221600  1
  Li  Li6  1  0.54893600  0.19926200  0.58221600  1
  Li  Li7  1  0.54893600  0.19926200  0.91778400  1
  Fe  Fe8  1  0.53328500  0.50000000  0.50000000  1
  Fe  Fe9  1  0.51740300  0.49642100  0.25000000  1
  Fe  Fe10  1  0.53328500  0.50000000  0.00000000  1
  Fe  Fe11  1  0.51740300  0.50357900  0.75000000  1
  Fe  Fe12  1  0.03328500  0.00000000  0.50000000  1
  Fe  Fe13  1  0.01740300  0.99642100  0.25000000  1
  Fe  Fe14  1  0.03328500  0.00000000  0.00000000  1
  Fe  Fe15  1  0.01740300  0.00357900  0.75000000  1
  Si  Si16  1  0.04728300  0.35207700  0.63760900  1
  Si  Si17  1  0.04728300  0.35207700  0.86239100  1
  Si  Si18  1  0.04728300  0.64792300  0.36239100  1
  Si  Si19  1  0.04728300  0.64792300  0.13760900  1
  Si  Si20  1  0.54728300  0.85207700  0.63760900  1
  Si  Si21  1  0.54728300  0.85207700  0.86239100  1
  Si  Si22  1  0.54728300  0.14792300  0.36239100  1
  Si  Si23  1  0.54728300  0.14792300  0.13760900  1
  O  O24  1  0.10804250  0.26426850  0.75000000  1
  O  O25  1  0.10804250  0.73573150  0.25000000  1
  O  O26  1  0.73422500  0.39561300  0.86568400  1
  O  O27  1  0.73422500  0.39561300  0.63431600  1
  O  O28  1  0.73422500  0.60438700  0.13431600  1
  O  O29  1  0.73422500  0.60438700  0.36568400  1
  O  O30  1  0.23141650  0.48896050  0.12970300  1
  O  O31  1  0.23141650  0.48896050  0.37029700  1
  O  O32  1  0.23141650  0.51103950  0.62970300  1
  O  O33  1  0.23141650  0.51103950  0.87029700  1
  O  O34  1  0.14742750  0.22435650  0.94484800  1
  O  O35  1  0.14742750  0.22435650  0.55515200  1
  O  O36  1  0.14742750  0.77564350  0.44484800  1
  O  O37  1  0.14742750  0.77564350  0.05515200  1
  O  O38  1  0.60804250  0.76426850  0.75000000  1
  O  O39  1  0.60804250  0.23573150  0.25000000  1
  O  O40  1  0.23422500  0.89561300  0.86568400  1
  O  O41  1  0.23422500  0.89561300  0.63431600  1
  O  O42  1  0.23422500  0.10438700  0.13431600  1
  O  O43  1  0.23422500  0.10438700  0.36568400  1
  O  O44  1  0.73141650  0.98896050  0.12970300  1
  O  O45  1  0.73141650  0.98896050  0.37029700  1
  O  O46  1  0.73141650  0.01103950  0.62970300  1
  O  O47  1  0.73141650  0.01103950  0.87029700  1
  O  O48  1  0.64742750  0.72435650  0.94484800  1
  O  O49  1  0.64742750  0.72435650  0.55515200  1
  O  O50  1  0.64742750  0.27564350  0.44484800  1
  O  O51  1  0.64742750  0.27564350  0.05515200  1
