# generated using pymatgen
data_Li2V(OF)2
_symmetry_space_group_name_H-M   'P 1'
_cell_length_a   5.85582219
_cell_length_b   5.85582219
_cell_length_c   14.76889037
_cell_angle_alpha   90.00000000
_cell_angle_beta   90.00000000
_cell_angle_gamma   120.00000000
_symmetry_Int_Tables_number   1
_chemical_formula_structural   Li2V(OF)2
_chemical_formula_sum   'Li12 V6 O12 F12'
_cell_volume   438.58549033
_cell_formula_units_Z   6
loop_
 _symmetry_equiv_pos_site_id
 _symmetry_equiv_pos_as_xyz
  1  'x, y, z'
loop_
 _atom_site_type_symbol
 _atom_site_label
 _atom_site_symmetry_multiplicity
 _atom_site_fract_x
 _atom_site_fract_y
 _atom_site_fract_z
 _atom_site_occupancy
  Li  Li0  1  0.00000000  0.00000000  0.26092633  1
  Li  Li1  1  0.49549925  0.99099850  0.12582150  1
  Li  Li2  1  0.00900150  0.50450075  0.12582150  1
  Li  Li3  1  0.49549925  0.50450075  0.12582150  1
  Li  Li4  1  0.66666667  0.33333333  0.59425967  1
  Li  Li5  1  0.16216592  0.32433183  0.45915483  1
  Li  Li6  1  0.67566817  0.83783408  0.45915483  1
  Li  Li7  1  0.16216592  0.83783408  0.45915483  1
  Li  Li8  1  0.33333333  0.66666667  0.92759300  1
  Li  Li9  1  0.82883258  0.65766517  0.79248817  1
  Li  Li10  1  0.34233483  0.17116742  0.79248817  1
  Li  Li11  1  0.82883258  0.17116742  0.79248817  1
  V  V12  1  0.33333333  0.66666667  0.29736567  1
  V  V13  1  0.66666667  0.33333333  0.33442450  1
  V  V14  1  0.00000000  0.00000000  0.63069900  1
  V  V15  1  0.33333333  0.66666667  0.66775783  1
  V  V16  1  0.66666667  0.33333333  0.96403233  1
  V  V17  1  0.00000000  0.00000000  0.00109117  1
  O  O18  1  0.66666667  0.33333333  0.22053100  1
  O  O19  1  0.33676983  0.16838492  0.03938417  1
  O  O20  1  0.83161508  0.16838492  0.03938417  1
  O  O21  1  0.83161508  0.66323017  0.03938417  1
  O  O22  1  0.33333333  0.66666667  0.55386433  1
  O  O23  1  0.00343650  0.50171825  0.37271750  1
  O  O24  1  0.49828175  0.50171825  0.37271750  1
  O  O25  1  0.49828175  0.99656350  0.37271750  1
  O  O26  1  0.00000000  0.00000000  0.88719767  1
  O  O27  1  0.67010317  0.83505158  0.70605083  1
  O  O28  1  0.16494842  0.83505158  0.70605083  1
  O  O29  1  0.16494842  0.32989683  0.70605083  1
  F  F30  1  0.33333333  0.66666667  0.05486383  1
  F  F31  1  0.17805925  0.82194075  0.21351900  1
  F  F32  1  0.64388150  0.82194075  0.21351900  1
  F  F33  1  0.17805925  0.35611850  0.21351900  1
  F  F34  1  0.00000000  0.00000000  0.38819717  1
  F  F35  1  0.84472592  0.15527408  0.54685233  1
  F  F36  1  0.31054817  0.15527408  0.54685233  1
  F  F37  1  0.84472592  0.68945183  0.54685233  1
  F  F38  1  0.66666667  0.33333333  0.72153050  1
  F  F39  1  0.51139258  0.48860742  0.88018567  1
  F  F40  1  0.97721483  0.48860742  0.88018567  1
  F  F41  1  0.51139258  0.02278517  0.88018567  1
