# generated using pymatgen
data_Zr3Zn3N
_symmetry_space_group_name_H-M   'P 1'
_cell_length_a   12.19853600
_cell_length_b   12.19853600
_cell_length_c   12.19853600
_cell_angle_alpha   90.00000000
_cell_angle_beta   90.00000000
_cell_angle_gamma   90.00000000
_symmetry_Int_Tables_number   1
_chemical_formula_structural   Zr3Zn3N
_chemical_formula_sum   'Zr48 Zn48 N16'
_cell_volume   1815.19437316
_cell_formula_units_Z   16
loop_
 _symmetry_equiv_pos_site_id
 _symmetry_equiv_pos_as_xyz
  1  'x, y, z'
loop_
 _atom_site_type_symbol
 _atom_site_label
 _atom_site_symmetry_multiplicity
 _atom_site_fract_x
 _atom_site_fract_y
 _atom_site_fract_z
 _atom_site_occupancy
  Zr  Zr0  1  0.18607000  0.00000000  0.50000000  1
  Zr  Zr1  1  0.50000000  0.68607000  0.50000000  1
  Zr  Zr2  1  0.00000000  0.00000000  0.31393000  1
  Zr  Zr3  1  0.81393000  0.00000000  0.50000000  1
  Zr  Zr4  1  0.50000000  0.31393000  0.50000000  1
  Zr  Zr5  1  0.50000000  0.00000000  0.18607000  1
  Zr  Zr6  1  0.06393000  0.75000000  0.25000000  1
  Zr  Zr7  1  0.25000000  0.56393000  0.25000000  1
  Zr  Zr8  1  0.25000000  0.75000000  0.43607000  1
  Zr  Zr9  1  0.43607000  0.75000000  0.25000000  1
  Zr  Zr10  1  0.25000000  0.93607000  0.25000000  1
  Zr  Zr11  1  0.25000000  0.75000000  0.06393000  1
  Zr  Zr12  1  0.18607000  0.50000000  0.00000000  1
  Zr  Zr13  1  0.50000000  0.18607000  0.00000000  1
  Zr  Zr14  1  0.00000000  0.50000000  0.81393000  1
  Zr  Zr15  1  0.81393000  0.50000000  0.00000000  1
  Zr  Zr16  1  0.50000000  0.81393000  0.00000000  1
  Zr  Zr17  1  0.50000000  0.50000000  0.68607000  1
  Zr  Zr18  1  0.06393000  0.25000000  0.75000000  1
  Zr  Zr19  1  0.25000000  0.06393000  0.75000000  1
  Zr  Zr20  1  0.25000000  0.25000000  0.93607000  1
  Zr  Zr21  1  0.43607000  0.25000000  0.75000000  1
  Zr  Zr22  1  0.25000000  0.43607000  0.75000000  1
  Zr  Zr23  1  0.25000000  0.25000000  0.56393000  1
  Zr  Zr24  1  0.68607000  0.00000000  0.00000000  1
  Zr  Zr25  1  0.00000000  0.68607000  0.00000000  1
  Zr  Zr26  1  0.50000000  0.00000000  0.81393000  1
  Zr  Zr27  1  0.31393000  0.00000000  0.00000000  1
  Zr  Zr28  1  0.00000000  0.31393000  0.00000000  1
  Zr  Zr29  1  0.00000000  0.00000000  0.68607000  1
  Zr  Zr30  1  0.56393000  0.75000000  0.75000000  1
  Zr  Zr31  1  0.75000000  0.56393000  0.75000000  1
  Zr  Zr32  1  0.75000000  0.75000000  0.93607000  1
  Zr  Zr33  1  0.93607000  0.75000000  0.75000000  1
  Zr  Zr34  1  0.75000000  0.93607000  0.75000000  1
  Zr  Zr35  1  0.75000000  0.75000000  0.56393000  1
  Zr  Zr36  1  0.68607000  0.50000000  0.50000000  1
  Zr  Zr37  1  0.00000000  0.18607000  0.50000000  1
  Zr  Zr38  1  0.50000000  0.50000000  0.31393000  1
  Zr  Zr39  1  0.31393000  0.50000000  0.50000000  1
  Zr  Zr40  1  0.00000000  0.81393000  0.50000000  1
  Zr  Zr41  1  0.00000000  0.50000000  0.18607000  1
  Zr  Zr42  1  0.56393000  0.25000000  0.25000000  1
  Zr  Zr43  1  0.75000000  0.06393000  0.25000000  1
  Zr  Zr44  1  0.75000000  0.25000000  0.43607000  1
  Zr  Zr45  1  0.93607000  0.25000000  0.25000000  1
  Zr  Zr46  1  0.75000000  0.43607000  0.25000000  1
  Zr  Zr47  1  0.75000000  0.25000000  0.06393000  1
  Zn  Zn48  1  0.58148367  0.08148367  0.41851633  1
  Zn  Zn49  1  0.41851633  0.91851633  0.41851633  1
  Zn  Zn50  1  0.91851633  0.08148367  0.08148367  1
  Zn  Zn51  1  0.08148367  0.91851633  0.08148367  1
  Zn  Zn52  1  0.16851633  0.16851633  0.33148367  1
  Zn  Zn53  1  0.33148367  0.33148367  0.33148367  1
  Zn  Zn54  1  0.33148367  0.16851633  0.16851633  1
  Zn  Zn55  1  0.16851633  0.33148367  0.16851633  1
  Zn  Zn56  1  0.87500000  0.87500000  0.12500000  1
  Zn  Zn57  1  0.12500000  0.12500000  0.12500000  1
  Zn  Zn58  1  0.62500000  0.87500000  0.37500000  1
  Zn  Zn59  1  0.37500000  0.12500000  0.37500000  1
  Zn  Zn60  1  0.58148367  0.58148367  0.91851633  1
  Zn  Zn61  1  0.41851633  0.41851633  0.91851633  1
  Zn  Zn62  1  0.91851633  0.58148367  0.58148367  1
  Zn  Zn63  1  0.08148367  0.41851633  0.58148367  1
  Zn  Zn64  1  0.16851633  0.66851633  0.83148367  1
  Zn  Zn65  1  0.33148367  0.83148367  0.83148367  1
  Zn  Zn66  1  0.33148367  0.66851633  0.66851633  1
  Zn  Zn67  1  0.16851633  0.83148367  0.66851633  1
  Zn  Zn68  1  0.87500000  0.37500000  0.62500000  1
  Zn  Zn69  1  0.12500000  0.62500000  0.62500000  1
  Zn  Zn70  1  0.62500000  0.37500000  0.87500000  1
  Zn  Zn71  1  0.37500000  0.62500000  0.87500000  1
  Zn  Zn72  1  0.08148367  0.08148367  0.91851633  1
  Zn  Zn73  1  0.91851633  0.91851633  0.91851633  1
  Zn  Zn74  1  0.41851633  0.08148367  0.58148367  1
  Zn  Zn75  1  0.58148367  0.91851633  0.58148367  1
  Zn  Zn76  1  0.66851633  0.16851633  0.83148367  1
  Zn  Zn77  1  0.83148367  0.33148367  0.83148367  1
  Zn  Zn78  1  0.83148367  0.16851633  0.66851633  1
  Zn  Zn79  1  0.66851633  0.33148367  0.66851633  1
  Zn  Zn80  1  0.37500000  0.87500000  0.62500000  1
  Zn  Zn81  1  0.62500000  0.12500000  0.62500000  1
  Zn  Zn82  1  0.12500000  0.87500000  0.87500000  1
  Zn  Zn83  1  0.87500000  0.12500000  0.87500000  1
  Zn  Zn84  1  0.08148367  0.58148367  0.41851633  1
  Zn  Zn85  1  0.91851633  0.41851633  0.41851633  1
  Zn  Zn86  1  0.41851633  0.58148367  0.08148367  1
  Zn  Zn87  1  0.58148367  0.41851633  0.08148367  1
  Zn  Zn88  1  0.66851633  0.66851633  0.33148367  1
  Zn  Zn89  1  0.83148367  0.83148367  0.33148367  1
  Zn  Zn90  1  0.83148367  0.66851633  0.16851633  1
  Zn  Zn91  1  0.66851633  0.83148367  0.16851633  1
  Zn  Zn92  1  0.37500000  0.37500000  0.12500000  1
  Zn  Zn93  1  0.62500000  0.62500000  0.12500000  1
  Zn  Zn94  1  0.12500000  0.37500000  0.37500000  1
  Zn  Zn95  1  0.87500000  0.62500000  0.37500000  1
  N  N96  1  0.37500000  0.87500000  0.12500000  1
  N  N97  1  0.12500000  0.62500000  0.12500000  1
  N  N98  1  0.12500000  0.87500000  0.37500000  1
  N  N99  1  0.37500000  0.62500000  0.37500000  1
  N  N100  1  0.37500000  0.37500000  0.62500000  1
  N  N101  1  0.12500000  0.12500000  0.62500000  1
  N  N102  1  0.12500000  0.37500000  0.87500000  1
  N  N103  1  0.37500000  0.12500000  0.87500000  1
  N  N104  1  0.87500000  0.87500000  0.62500000  1
  N  N105  1  0.62500000  0.62500000  0.62500000  1
  N  N106  1  0.62500000  0.87500000  0.87500000  1
  N  N107  1  0.87500000  0.62500000  0.87500000  1
  N  N108  1  0.87500000  0.37500000  0.12500000  1
  N  N109  1  0.62500000  0.12500000  0.12500000  1
  N  N110  1  0.62500000  0.37500000  0.37500000  1
  N  N111  1  0.87500000  0.12500000  0.37500000  1
