# generated using pymatgen
data_V2SiO4
_symmetry_space_group_name_H-M   'P 1'
_cell_length_a   5.86131522
_cell_length_b   5.96639524
_cell_length_c   8.33428765
_cell_angle_alpha   90.00000000
_cell_angle_beta   90.00000000
_cell_angle_gamma   90.00000000
_symmetry_Int_Tables_number   1
_chemical_formula_structural   V2SiO4
_chemical_formula_sum   'V8 Si4 O16'
_cell_volume   291.45773386
_cell_formula_units_Z   4
loop_
 _symmetry_equiv_pos_site_id
 _symmetry_equiv_pos_as_xyz
  1  'x, y, z'
loop_
 _atom_site_type_symbol
 _atom_site_label
 _atom_site_symmetry_multiplicity
 _atom_site_fract_x
 _atom_site_fract_y
 _atom_site_fract_z
 _atom_site_occupancy
  V  V0  1  0.00000000  0.50000000  0.00000000  1
  V  V1  1  0.75000000  0.25000000  0.25000000  1
  V  V2  1  0.50000000  0.50000000  0.50000000  1
  V  V3  1  0.25000000  0.25000000  0.25000000  1
  V  V4  1  0.50000000  0.00000000  0.50000000  1
  V  V5  1  0.25000000  0.75000000  0.75000000  1
  V  V6  1  0.00000000  0.00000000  0.00000000  1
  V  V7  1  0.75000000  0.75000000  0.75000000  1
  Si  Si8  1  0.50000000  0.25000000  0.87462250  1
  Si  Si9  1  0.00000000  0.25000000  0.62537750  1
  Si  Si10  1  0.00000000  0.75000000  0.37462250  1
  Si  Si11  1  0.50000000  0.75000000  0.12537750  1
  O  O12  1  0.73134450  0.25000000  0.99011700  1
  O  O13  1  0.00000000  0.52035700  0.26070650  1
  O  O14  1  0.00000000  0.97964300  0.26070650  1
  O  O15  1  0.26865550  0.25000000  0.99011700  1
  O  O16  1  0.50000000  0.52035700  0.23929350  1
  O  O17  1  0.23134450  0.25000000  0.50988300  1
  O  O18  1  0.50000000  0.97964300  0.23929350  1
  O  O19  1  0.76865550  0.25000000  0.50988300  1
  O  O20  1  0.23134450  0.75000000  0.49011700  1
  O  O21  1  0.50000000  0.02035700  0.76070650  1
  O  O22  1  0.50000000  0.47964300  0.76070650  1
  O  O23  1  0.76865550  0.75000000  0.49011700  1
  O  O24  1  0.00000000  0.02035700  0.73929350  1
  O  O25  1  0.73134450  0.75000000  0.00988300  1
  O  O26  1  0.00000000  0.47964300  0.73929350  1
  O  O27  1  0.26865550  0.75000000  0.00988300  1
