# generated using pymatgen
data_NbCrO4
_symmetry_space_group_name_H-M   'P 1'
_cell_length_a   6.69909464
_cell_length_b   6.69909464
_cell_length_c   6.11504900
_cell_angle_alpha   90.00000000
_cell_angle_beta   90.00000000
_cell_angle_gamma   90.00000000
_symmetry_Int_Tables_number   1
_chemical_formula_structural   NbCrO4
_chemical_formula_sum   'Nb4 Cr4 O16'
_cell_volume   274.43036818
_cell_formula_units_Z   4
loop_
 _symmetry_equiv_pos_site_id
 _symmetry_equiv_pos_as_xyz
  1  'x, y, z'
loop_
 _atom_site_type_symbol
 _atom_site_label
 _atom_site_symmetry_multiplicity
 _atom_site_fract_x
 _atom_site_fract_y
 _atom_site_fract_z
 _atom_site_occupancy
  Nb  Nb0  1  0.50000000  0.50000000  0.26224100  1
  Nb  Nb1  1  0.50000000  0.00000000  0.01224100  1
  Nb  Nb2  1  0.00000000  0.00000000  0.76224100  1
  Nb  Nb3  1  0.00000000  0.50000000  0.51224100  1
  Cr  Cr4  1  0.00000000  0.00000000  0.25188300  1
  Cr  Cr5  1  0.00000000  0.50000000  0.00188300  1
  Cr  Cr6  1  0.50000000  0.50000000  0.75188300  1
  Cr  Cr7  1  0.50000000  0.00000000  0.50188300  1
  O  O8  1  0.80480450  0.50000000  0.24926150  1
  O  O9  1  0.80147350  0.50000000  0.74367350  1
  O  O10  1  0.00000000  0.80480450  0.49926150  1
  O  O11  1  0.00000000  0.80147350  0.99367350  1
  O  O12  1  0.00000000  0.19519550  0.49926150  1
  O  O13  1  0.50000000  0.69852650  0.49367350  1
  O  O14  1  0.69852650  0.00000000  0.24367350  1
  O  O15  1  0.69519550  0.00000000  0.74926150  1
  O  O16  1  0.30480450  0.00000000  0.74926150  1
  O  O17  1  0.30147350  0.00000000  0.24367350  1
  O  O18  1  0.50000000  0.30480450  0.99926150  1
  O  O19  1  0.50000000  0.30147350  0.49367350  1
  O  O20  1  0.50000000  0.69519550  0.99926150  1
  O  O21  1  0.00000000  0.19852650  0.99367350  1
  O  O22  1  0.19852650  0.50000000  0.74367350  1
  O  O23  1  0.19519550  0.50000000  0.24926150  1
