# generated using pymatgen
data_Li3Mn(PO4)2
_symmetry_space_group_name_H-M   'P 1'
_cell_length_a   8.98951994
_cell_length_b   8.98951994
_cell_length_c   20.00718349
_cell_angle_alpha   90.00000000
_cell_angle_beta   90.00000000
_cell_angle_gamma   120.00000000
_symmetry_Int_Tables_number   1
_chemical_formula_structural   Li3Mn(PO4)2
_chemical_formula_sum   'Li27 Mn9 P18 O72'
_cell_volume   1400.19843339
_cell_formula_units_Z   9
loop_
 _symmetry_equiv_pos_site_id
 _symmetry_equiv_pos_as_xyz
  1  'x, y, z'
loop_
 _atom_site_type_symbol
 _atom_site_label
 _atom_site_symmetry_multiplicity
 _atom_site_fract_x
 _atom_site_fract_y
 _atom_site_fract_z
 _atom_site_occupancy
  Li  Li0  1  0.57019967  0.61165733  0.25661533  1
  Li  Li1  1  0.66588367  0.93126833  0.08105833  1
  Li  Li2  1  0.26538467  0.33411633  0.08105833  1
  Li  Li3  1  0.33333333  0.66666667  0.66408567  1
  Li  Li4  1  0.33333333  0.66666667  0.17543667  1
  Li  Li5  1  0.33333333  0.66666667  0.31757267  1
  Li  Li6  1  0.38834267  0.95854233  0.25661533  1
  Li  Li7  1  0.04145767  0.42980033  0.25661533  1
  Li  Li8  1  0.06873167  0.73461533  0.08105833  1
  Li  Li9  1  0.23686633  0.94499067  0.58994867  1
  Li  Li10  1  0.33255033  0.26460167  0.41439167  1
  Li  Li11  1  0.93205133  0.66744967  0.41439167  1
  Li  Li12  1  0.00000000  0.00000000  0.99741900  1
  Li  Li13  1  0.00000000  0.00000000  0.50877000  1
  Li  Li14  1  0.00000000  0.00000000  0.65090600  1
  Li  Li15  1  0.05500933  0.29187567  0.58994867  1
  Li  Li16  1  0.70812433  0.76313367  0.58994867  1
  Li  Li17  1  0.73539833  0.06794867  0.41439167  1
  Li  Li18  1  0.90353300  0.27832400  0.92328200  1
  Li  Li19  1  0.99921700  0.59793500  0.74772500  1
  Li  Li20  1  0.59871800  0.00078300  0.74772500  1
  Li  Li21  1  0.66666667  0.33333333  0.33075233  1
  Li  Li22  1  0.66666667  0.33333333  0.84210333  1
  Li  Li23  1  0.66666667  0.33333333  0.98423933  1
  Li  Li24  1  0.72167600  0.62520900  0.92328200  1
  Li  Li25  1  0.37479100  0.09646700  0.92328200  1
  Li  Li26  1  0.40206500  0.40128200  0.74772500  1
  Mn  Mn27  1  0.33333333  0.66666667  0.81147367  1
  Mn  Mn28  1  0.33333333  0.66666667  0.02224067  1
  Mn  Mn29  1  0.33333333  0.66666667  0.52052267  1
  Mn  Mn30  1  0.00000000  0.00000000  0.14480700  1
  Mn  Mn31  1  0.00000000  0.00000000  0.35557400  1
  Mn  Mn32  1  0.00000000  0.00000000  0.85385600  1
  Mn  Mn33  1  0.66666667  0.33333333  0.47814033  1
  Mn  Mn34  1  0.66666667  0.33333333  0.68890733  1
  Mn  Mn35  1  0.66666667  0.33333333  0.18718933  1
  P  P36  1  0.66582667  0.63559733  0.08173433  1
  P  P37  1  0.70091333  0.00100167  0.24907167  1
  P  P38  1  0.30008833  0.29908667  0.24907167  1
  P  P39  1  0.36440267  0.03022933  0.08173433  1
  P  P40  1  0.96977067  0.33417333  0.08173433  1
  P  P41  1  0.99899833  0.69991167  0.24907167  1
  P  P42  1  0.33249333  0.96893067  0.41506767  1
  P  P43  1  0.36758000  0.33433500  0.58240500  1
  P  P44  1  0.96675500  0.63242000  0.58240500  1
  P  P45  1  0.03106933  0.36356267  0.41506767  1
  P  P46  1  0.63643733  0.66750667  0.41506767  1
  P  P47  1  0.66566500  0.03324500  0.58240500  1
  P  P48  1  0.99916000  0.30226400  0.74840100  1
  P  P49  1  0.03424667  0.66766833  0.91573833  1
  P  P50  1  0.63342167  0.96575333  0.91573833  1
  P  P51  1  0.69773600  0.69689600  0.74840100  1
  P  P52  1  0.30310400  0.00084000  0.74840100  1
  P  P53  1  0.33233167  0.36657833  0.91573833  1
  O  O54  1  0.82779533  0.82423067  0.07708067  1
  O  O55  1  0.48503967  0.32732033  0.25621733  1
  O  O56  1  0.54422767  0.66352933  0.35140733  1
  O  O57  1  0.87753200  0.33998700  0.14560900  1
  O  O58  1  0.50882167  0.66561833  0.09035233  1
  O  O59  1  0.20432300  0.19497600  0.18576900  1
  O  O60  1  0.32642500  0.45860100  0.98045600  1
  O  O61  1  0.52437600  0.83739300  0.24085100  1
  O  O62  1  0.67267967  0.15771933  0.25621733  1
  O  O63  1  0.99065300  0.79567700  0.18576900  1
  O  O64  1  0.54139900  0.86782400  0.98045600  1
  O  O65  1  0.31301700  0.47562400  0.24085100  1
  O  O66  1  0.33438167  0.84320333  0.09035233  1
  O  O67  1  0.11930167  0.45577233  0.35140733  1
  O  O68  1  0.66001300  0.53754500  0.14560900  1
  O  O69  1  0.15679667  0.49117833  0.09035233  1
  O  O70  1  0.99643533  0.17220467  0.07708067  1
  O  O71  1  0.46245500  0.12246800  0.14560900  1
  O  O72  1  0.33647067  0.88069833  0.35140733  1
  O  O73  1  0.16260700  0.68698300  0.24085100  1
  O  O74  1  0.80502400  0.00934700  0.18576900  1
  O  O75  1  0.13217600  0.67357500  0.98045600  1
  O  O76  1  0.17576933  0.00356467  0.07708067  1
  O  O77  1  0.84228067  0.51496033  0.25621733  1
  O  O78  1  0.49446200  0.15756400  0.41041400  1
  O  O79  1  0.15170633  0.66065367  0.58955067  1
  O  O80  1  0.21089433  0.99686267  0.68474067  1
  O  O81  1  0.54419867  0.67332033  0.47894233  1
  O  O82  1  0.17548833  0.99895167  0.42368567  1
  O  O83  1  0.87098967  0.52830933  0.51910233  1
  O  O84  1  0.99309167  0.79193433  0.31378933  1
  O  O85  1  0.19104267  0.17072633  0.57418433  1
  O  O86  1  0.33934633  0.49105267  0.58955067  1
  O  O87  1  0.65731967  0.12901033  0.51910233  1
  O  O88  1  0.20806567  0.20115733  0.31378933  1
  O  O89  1  0.97968367  0.80895733  0.57418433  1
  O  O90  1  0.00104833  0.17653667  0.42368567  1
  O  O91  1  0.78596833  0.78910567  0.68474067  1
  O  O92  1  0.32667967  0.87087833  0.47894233  1
  O  O93  1  0.82346333  0.82451167  0.42368567  1
  O  O94  1  0.66310200  0.50553800  0.41041400  1
  O  O95  1  0.12912167  0.45580133  0.47894233  1
  O  O96  1  0.00313733  0.21403167  0.68474067  1
  O  O97  1  0.82927367  0.02031633  0.57418433  1
  O  O98  1  0.47169067  0.34268033  0.51910233  1
  O  O99  1  0.79884267  0.00690833  0.31378933  1
  O  O100  1  0.84243600  0.33689800  0.41041400  1
  O  O101  1  0.50894733  0.84829367  0.58955067  1
  O  O102  1  0.16112867  0.49089733  0.74374733  1
  O  O103  1  0.81837300  0.99398700  0.92288400  1
  O  O104  1  0.87756100  0.33019600  0.01807400  1
  O  O105  1  0.21086533  0.00665367  0.81227567  1
  O  O106  1  0.84215500  0.33228500  0.75701900  1
  O  O107  1  0.53765633  0.86164267  0.85243567  1
  O  O108  1  0.65975833  0.12526767  0.64712267  1
  O  O109  1  0.85770933  0.50405967  0.90751767  1
  O  O110  1  0.00601300  0.82438600  0.92288400  1
  O  O111  1  0.32398633  0.46234367  0.85243567  1
  O  O112  1  0.87473233  0.53449067  0.64712267  1
  O  O113  1  0.64635033  0.14229067  0.90751767  1
  O  O114  1  0.66771500  0.50987000  0.75701900  1
  O  O115  1  0.45263500  0.12243900  0.01807400  1
  O  O116  1  0.99334633  0.20421167  0.81227567  1
  O  O117  1  0.49013000  0.15784500  0.75701900  1
  O  O118  1  0.32976867  0.83887133  0.74374733  1
  O  O119  1  0.79578833  0.78913467  0.81227567  1
  O  O120  1  0.66980400  0.54736500  0.01807400  1
  O  O121  1  0.49594033  0.35364967  0.90751767  1
  O  O122  1  0.13835733  0.67601367  0.85243567  1
  O  O123  1  0.46550933  0.34024167  0.64712267  1
  O  O124  1  0.50910267  0.67023133  0.74374733  1
  O  O125  1  0.17561400  0.18162700  0.92288400  1
