# generated using pymatgen
data_Mn3Sn3(TeO8)2
_symmetry_space_group_name_H-M   'P 1'
_cell_length_a   11.02063200
_cell_length_b   6.24855800
_cell_length_c   9.32224822
_cell_angle_alpha   90.00000000
_cell_angle_beta   91.53406146
_cell_angle_gamma   90.00000000
_symmetry_Int_Tables_number   1
_chemical_formula_structural   Mn3Sn3(TeO8)2
_chemical_formula_sum   'Mn6 Sn6 Te4 O32'
_cell_volume   641.72843555
_cell_formula_units_Z   2
loop_
 _symmetry_equiv_pos_site_id
 _symmetry_equiv_pos_as_xyz
  1  'x, y, z'
loop_
 _atom_site_type_symbol
 _atom_site_label
 _atom_site_symmetry_multiplicity
 _atom_site_fract_x
 _atom_site_fract_y
 _atom_site_fract_z
 _atom_site_occupancy
  Mn  Mn0  1  0.83122800  0.00000000  0.20379700  1
  Mn  Mn1  1  0.91518700  0.74691900  0.70314200  1
  Mn  Mn2  1  0.91518700  0.25308100  0.70314200  1
  Mn  Mn3  1  0.33122800  0.50000000  0.20379700  1
  Mn  Mn4  1  0.41518700  0.24691900  0.70314200  1
  Mn  Mn5  1  0.41518700  0.75308100  0.70314200  1
  Sn  Sn6  1  0.58539950  0.24759350  0.20626400  1
  Sn  Sn7  1  0.58539950  0.75240650  0.20626400  1
  Sn  Sn8  1  0.66782000  0.50000000  0.70773800  1
  Sn  Sn9  1  0.08539950  0.74759350  0.20626400  1
  Sn  Sn10  1  0.08539950  0.25240650  0.20626400  1
  Sn  Sn11  1  0.16782000  0.00000000  0.70773800  1
  Te  Te12  1  0.67093700  0.00000000  0.48924800  1
  Te  Te13  1  0.83776000  0.50000000  0.98211400  1
  Te  Te14  1  0.17093700  0.50000000  0.48924800  1
  Te  Te15  1  0.33776000  0.00000000  0.98211400  1
  O  O16  1  0.59291050  0.22886350  0.59948100  1
  O  O17  1  0.52460900  0.00000000  0.35300100  1
  O  O18  1  0.66009300  0.00000000  0.09696100  1
  O  O19  1  0.50360200  0.50000000  0.29856000  1
  O  O20  1  0.99614900  0.00000000  0.78814300  1
  O  O21  1  0.59291050  0.77113650  0.59948100  1
  O  O22  1  0.73325650  0.21611850  0.35607900  1
  O  O23  1  0.73325650  0.78388150  0.35607900  1
  O  O24  1  0.68162800  0.50000000  0.10024000  1
  O  O25  1  0.82245200  0.00000000  0.60125200  1
  O  O26  1  0.75840950  0.71273950  0.85568400  1
  O  O27  1  0.75840950  0.28726050  0.85568400  1
  O  O28  1  0.83624100  0.50000000  0.60939100  1
  O  O29  1  0.91176450  0.72709250  0.09842900  1
  O  O30  1  0.97205800  0.50000000  0.84696000  1
  O  O31  1  0.91176450  0.27290750  0.09842900  1
  O  O32  1  0.09291050  0.72886350  0.59948100  1
  O  O33  1  0.02460900  0.50000000  0.35300100  1
  O  O34  1  0.16009300  0.50000000  0.09696100  1
  O  O35  1  0.00360200  0.00000000  0.29856000  1
  O  O36  1  0.49614900  0.50000000  0.78814300  1
  O  O37  1  0.09291050  0.27113650  0.59948100  1
  O  O38  1  0.23325650  0.71611850  0.35607900  1
  O  O39  1  0.23325650  0.28388150  0.35607900  1
  O  O40  1  0.18162800  0.00000000  0.10024000  1
  O  O41  1  0.32245200  0.50000000  0.60125200  1
  O  O42  1  0.25840950  0.21273950  0.85568400  1
  O  O43  1  0.25840950  0.78726050  0.85568400  1
  O  O44  1  0.33624100  0.00000000  0.60939100  1
  O  O45  1  0.41176450  0.22709250  0.09842900  1
  O  O46  1  0.47205800  0.00000000  0.84696000  1
  O  O47  1  0.41176450  0.77290750  0.09842900  1
