# generated using pymatgen
data_Li3CrO4
_symmetry_space_group_name_H-M   'P 1'
_cell_length_a   5.15087932
_cell_length_b   5.43654074
_cell_length_c   7.82545425
_cell_angle_alpha   82.92628756
_cell_angle_beta   108.16650208
_cell_angle_gamma   115.75851466
_symmetry_Int_Tables_number   1
_chemical_formula_structural   Li3CrO4
_chemical_formula_sum   'Li6 Cr2 O8'
_cell_volume   187.50410317
_cell_formula_units_Z   2
loop_
 _symmetry_equiv_pos_site_id
 _symmetry_equiv_pos_as_xyz
  1  'x, y, z'
loop_
 _atom_site_type_symbol
 _atom_site_label
 _atom_site_symmetry_multiplicity
 _atom_site_fract_x
 _atom_site_fract_y
 _atom_site_fract_z
 _atom_site_occupancy
  Li  Li0  1  0.77821600  0.29632300  0.19554600  1
  Li  Li1  1  0.01999400  0.79331500  0.45828400  1
  Li  Li2  1  0.97021800  0.29745200  0.53505900  1
  Li  Li3  1  0.53469500  0.72433600  0.57852300  1
  Li  Li4  1  0.20571300  0.67447800  0.82712000  1
  Li  Li5  1  0.19333300  0.20040300  0.99494100  1
  Cr  Cr6  1  0.41139000  0.71420400  0.22836900  1
  Cr  Cr7  1  0.59002400  0.27631900  0.76345600  1
  O  O8  1  0.27617500  0.87867100  0.04843600  1
  O  O9  1  0.50652400  0.47429300  0.18318000  1
  O  O10  1  0.73367100  0.96411600  0.37541400  1
  O  O11  1  0.16130700  0.56658200  0.36277000  1
  O  O12  1  0.80192000  0.51891900  0.63376100  1
  O  O13  1  0.40290800  0.95603100  0.66461000  1
  O  O14  1  0.31405800  0.37660200  0.76590000  1
  O  O15  1  0.84493700  0.27535400  0.96362100  1
