# generated using pymatgen
data_Ca3MnCoO6
_symmetry_space_group_name_H-M   'P 1'
_cell_length_a   9.21136382
_cell_length_b   9.21136382
_cell_length_c   10.70221166
_cell_angle_alpha   90.00000000
_cell_angle_beta   90.00000000
_cell_angle_gamma   120.00000000
_symmetry_Int_Tables_number   1
_chemical_formula_structural   Ca3MnCoO6
_chemical_formula_sum   'Ca18 Mn6 Co6 O36'
_cell_volume   786.41545313
_cell_formula_units_Z   6
loop_
 _symmetry_equiv_pos_site_id
 _symmetry_equiv_pos_as_xyz
  1  'x, y, z'
loop_
 _atom_site_type_symbol
 _atom_site_label
 _atom_site_symmetry_multiplicity
 _atom_site_fract_x
 _atom_site_fract_y
 _atom_site_fract_z
 _atom_site_occupancy
  Ca  Ca0  1  0.02833867  0.33333333  0.58333333  1
  Ca  Ca1  1  0.66666667  0.69500533  0.58333333  1
  Ca  Ca2  1  0.30499467  0.97166133  0.58333333  1
  Ca  Ca3  1  0.97166133  0.66666667  0.41666667  1
  Ca  Ca4  1  0.33333333  0.30499467  0.41666667  1
  Ca  Ca5  1  0.69500533  0.02833867  0.41666667  1
  Ca  Ca6  1  0.69500533  0.66666667  0.91666667  1
  Ca  Ca7  1  0.33333333  0.02833867  0.91666667  1
  Ca  Ca8  1  0.97166133  0.30499467  0.91666667  1
  Ca  Ca9  1  0.63832800  0.00000000  0.75000000  1
  Ca  Ca10  1  0.00000000  0.63832800  0.75000000  1
  Ca  Ca11  1  0.36167200  0.36167200  0.75000000  1
  Ca  Ca12  1  0.36167200  0.00000000  0.25000000  1
  Ca  Ca13  1  0.00000000  0.36167200  0.25000000  1
  Ca  Ca14  1  0.63832800  0.63832800  0.25000000  1
  Ca  Ca15  1  0.30499467  0.33333333  0.08333333  1
  Ca  Ca16  1  0.66666667  0.97166133  0.08333333  1
  Ca  Ca17  1  0.02833867  0.69500533  0.08333333  1
  Mn  Mn18  1  0.00000000  0.00000000  0.50000000  1
  Mn  Mn19  1  0.66666667  0.33333333  0.33333333  1
  Mn  Mn20  1  0.66666667  0.33333333  0.83333333  1
  Mn  Mn21  1  0.33333333  0.66666667  0.66666667  1
  Mn  Mn22  1  0.33333333  0.66666667  0.16666667  1
  Mn  Mn23  1  0.00000000  0.00000000  0.00000000  1
  Co  Co24  1  0.00000000  0.00000000  0.75000000  1
  Co  Co25  1  0.00000000  0.00000000  0.25000000  1
  Co  Co26  1  0.66666667  0.33333333  0.08333333  1
  Co  Co27  1  0.66666667  0.33333333  0.58333333  1
  Co  Co28  1  0.33333333  0.66666667  0.41666667  1
  Co  Co29  1  0.33333333  0.66666667  0.91666667  1
  O  O30  1  0.84509733  0.35926067  0.44203667  1
  O  O31  1  0.64073933  0.48583667  0.44203667  1
  O  O32  1  0.51416333  0.15490267  0.44203667  1
  O  O33  1  0.84749667  0.02592733  0.60870333  1
  O  O34  1  0.97407267  0.82156933  0.60870333  1
  O  O35  1  0.17843067  0.15250333  0.60870333  1
  O  O36  1  0.02592733  0.17843067  0.39129667  1
  O  O37  1  0.82156933  0.84749667  0.39129667  1
  O  O38  1  0.15250333  0.97407267  0.39129667  1
  O  O39  1  0.48583667  0.84509733  0.55796333  1
  O  O40  1  0.15490267  0.64073933  0.55796333  1
  O  O41  1  0.35926067  0.51416333  0.55796333  1
  O  O42  1  0.51176400  0.69259400  0.77537000  1
  O  O43  1  0.30740600  0.81917000  0.77537000  1
  O  O44  1  0.18083000  0.48823600  0.77537000  1
  O  O45  1  0.51416333  0.35926067  0.94203667  1
  O  O46  1  0.64073933  0.15490267  0.94203667  1
  O  O47  1  0.84509733  0.48583667  0.94203667  1
  O  O48  1  0.69259400  0.51176400  0.72463000  1
  O  O49  1  0.48823600  0.18083000  0.72463000  1
  O  O50  1  0.81917000  0.30740600  0.72463000  1
  O  O51  1  0.15250333  0.17843067  0.89129667  1
  O  O52  1  0.82156933  0.97407267  0.89129667  1
  O  O53  1  0.02592733  0.84749667  0.89129667  1
  O  O54  1  0.17843067  0.02592733  0.10870333  1
  O  O55  1  0.97407267  0.15250333  0.10870333  1
  O  O56  1  0.84749667  0.82156933  0.10870333  1
  O  O57  1  0.18083000  0.69259400  0.27537000  1
  O  O58  1  0.30740600  0.48823600  0.27537000  1
  O  O59  1  0.51176400  0.81917000  0.27537000  1
  O  O60  1  0.35926067  0.84509733  0.05796333  1
  O  O61  1  0.15490267  0.51416333  0.05796333  1
  O  O62  1  0.48583667  0.64073933  0.05796333  1
  O  O63  1  0.81917000  0.51176400  0.22463000  1
  O  O64  1  0.48823600  0.30740600  0.22463000  1
  O  O65  1  0.69259400  0.18083000  0.22463000  1
