# generated using pymatgen
data_V3(OF)4
_symmetry_space_group_name_H-M   'P 1'
_cell_length_a   4.79117800
_cell_length_b   2.99993200
_cell_length_c   9.67409776
_cell_angle_alpha   90.00000000
_cell_angle_beta   90.66966549
_cell_angle_gamma   90.00000000
_symmetry_Int_Tables_number   1
_chemical_formula_structural   V3(OF)4
_chemical_formula_sum   'V3 O4 F4'
_cell_volume   139.03832401
_cell_formula_units_Z   1
loop_
 _symmetry_equiv_pos_site_id
 _symmetry_equiv_pos_as_xyz
  1  'x, y, z'
loop_
 _atom_site_type_symbol
 _atom_site_label
 _atom_site_symmetry_multiplicity
 _atom_site_fract_x
 _atom_site_fract_y
 _atom_site_fract_z
 _atom_site_occupancy
  V  V0  1  0.01808000  0.50000000  0.13757200  1
  V  V1  1  0.44512900  0.50000000  0.62904300  1
  V  V2  1  0.53151900  0.00000000  0.36180900  1
  O  O3  1  0.28806600  0.00000000  0.52605800  1
  O  O4  1  0.32439900  0.50000000  0.27294200  1
  O  O5  1  0.69488900  0.50000000  0.46550100  1
  O  O6  1  0.83699400  0.00000000  0.23006200  1
  F  F7  1  0.20461800  0.50000000  0.76527600  1
  F  F8  1  0.22730800  0.00000000  0.05341500  1
  F  F9  1  0.66987800  0.00000000  0.70538300  1
  F  F10  1  0.78824200  0.50000000  0.99345700  1
