# generated using pymatgen
data_Li4Mn2Cu3Sn3O16
_symmetry_space_group_name_H-M   'P 1'
_cell_length_a   10.43417320
_cell_length_b   6.11455897
_cell_length_c   9.58827612
_cell_angle_alpha   90.00000000
_cell_angle_beta   90.20340248
_cell_angle_gamma   90.00000000
_symmetry_Int_Tables_number   1
_chemical_formula_structural   Li4Mn2Cu3Sn3O16
_chemical_formula_sum   'Li8 Mn4 Cu6 Sn6 O32'
_cell_volume   611.73168324
_cell_formula_units_Z   2
loop_
 _symmetry_equiv_pos_site_id
 _symmetry_equiv_pos_as_xyz
  1  'x, y, z'
loop_
 _atom_site_type_symbol
 _atom_site_label
 _atom_site_symmetry_multiplicity
 _atom_site_fract_x
 _atom_site_fract_y
 _atom_site_fract_z
 _atom_site_occupancy
  Li  Li0  1  0.32411450  0.00000000  0.10804300  1
  Li  Li1  1  0.02344800  0.00000000  0.01471300  1
  Li  Li2  1  0.01862750  0.00000000  0.50124100  1
  Li  Li3  1  0.66423300  0.00000000  0.59568600  1
  Li  Li4  1  0.82411450  0.50000000  0.10804300  1
  Li  Li5  1  0.52344800  0.50000000  0.01471300  1
  Li  Li6  1  0.51862750  0.50000000  0.50124100  1
  Li  Li7  1  0.16423300  0.50000000  0.59568600  1
  Mn  Mn8  1  0.33169800  0.00000000  0.50907200  1
  Mn  Mn9  1  0.65700350  0.00000000  0.01967800  1
  Mn  Mn10  1  0.83169800  0.50000000  0.50907200  1
  Mn  Mn11  1  0.15700350  0.50000000  0.01967800  1
  Cu  Cu12  1  0.16862000  0.00000000  0.78661600  1
  Cu  Cu13  1  0.58311050  0.75690250  0.28804700  1
  Cu  Cu14  1  0.58311050  0.24309750  0.28804700  1
  Cu  Cu15  1  0.66862000  0.50000000  0.78661600  1
  Cu  Cu16  1  0.08311050  0.25690250  0.28804700  1
  Cu  Cu17  1  0.08311050  0.74309750  0.28804700  1
  Sn  Sn18  1  0.41351350  0.75388550  0.78790900  1
  Sn  Sn19  1  0.41351350  0.24611450  0.78790900  1
  Sn  Sn20  1  0.82925050  0.00000000  0.28950000  1
  Sn  Sn21  1  0.91351350  0.25388550  0.78790900  1
  Sn  Sn22  1  0.91351350  0.74611450  0.78790900  1
  Sn  Sn23  1  0.32925050  0.50000000  0.28950000  1
  O  O24  1  0.41676850  0.75090950  0.40755400  1
  O  O25  1  0.48231000  0.00000000  0.65299700  1
  O  O26  1  0.32471000  0.00000000  0.89988300  1
  O  O27  1  0.00639500  0.00000000  0.69025200  1
  O  O28  1  0.00729200  0.00000000  0.20109500  1
  O  O29  1  0.41676850  0.24909050  0.40755400  1
  O  O30  1  0.26219150  0.78023450  0.64479200  1
  O  O31  1  0.26219150  0.21976550  0.64479200  1
  O  O32  1  0.83125750  0.00000000  0.90540900  1
  O  O33  1  0.17825200  0.00000000  0.40330200  1
  O  O34  1  0.73487100  0.78425800  0.14927700  1
  O  O35  1  0.73487100  0.21574200  0.14927700  1
  O  O36  1  0.65760050  0.00000000  0.39211200  1
  O  O37  1  0.57957400  0.75821800  0.90965600  1
  O  O38  1  0.51667500  0.00000000  0.14799000  1
  O  O39  1  0.57957400  0.24178200  0.90965600  1
  O  O40  1  0.91676850  0.25090950  0.40755400  1
  O  O41  1  0.98231000  0.50000000  0.65299700  1
  O  O42  1  0.82471000  0.50000000  0.89988300  1
  O  O43  1  0.50639500  0.50000000  0.69025200  1
  O  O44  1  0.50729200  0.50000000  0.20109500  1
  O  O45  1  0.91676850  0.74909050  0.40755400  1
  O  O46  1  0.76219150  0.28023450  0.64479200  1
  O  O47  1  0.76219150  0.71976550  0.64479200  1
  O  O48  1  0.33125750  0.50000000  0.90540900  1
  O  O49  1  0.67825200  0.50000000  0.40330200  1
  O  O50  1  0.23487100  0.28425800  0.14927700  1
  O  O51  1  0.23487100  0.71574200  0.14927700  1
  O  O52  1  0.15760050  0.50000000  0.39211200  1
  O  O53  1  0.07957400  0.25821800  0.90965600  1
  O  O54  1  0.01667500  0.50000000  0.14799000  1
  O  O55  1  0.07957400  0.74178200  0.90965600  1
