# generated using pymatgen
data_Li2VSi4O11
_symmetry_space_group_name_H-M   'P 1'
_cell_length_a   10.80490000
_cell_length_b   9.70642000
_cell_length_c   8.22152524
_cell_angle_alpha   90.00000000
_cell_angle_beta   101.79488507
_cell_angle_gamma   90.00000000
_symmetry_Int_Tables_number   1
_chemical_formula_structural   Li2VSi4O11
_chemical_formula_sum   'Li8 V4 Si16 O44'
_cell_volume   844.04224399
_cell_formula_units_Z   4
loop_
 _symmetry_equiv_pos_site_id
 _symmetry_equiv_pos_as_xyz
  1  'x, y, z'
loop_
 _atom_site_type_symbol
 _atom_site_label
 _atom_site_symmetry_multiplicity
 _atom_site_fract_x
 _atom_site_fract_y
 _atom_site_fract_z
 _atom_site_occupancy
  Li  Li0  1  0.00000000  0.08081600  0.75000000  1
  Li  Li1  1  0.00000000  0.35327400  0.75000000  1
  Li  Li2  1  0.00000000  0.64672600  0.25000000  1
  Li  Li3  1  0.00000000  0.91918400  0.25000000  1
  Li  Li4  1  0.50000000  0.58081600  0.75000000  1
  Li  Li5  1  0.50000000  0.85327400  0.75000000  1
  Li  Li6  1  0.50000000  0.14672600  0.25000000  1
  Li  Li7  1  0.50000000  0.41918400  0.25000000  1
  V  V8  1  0.25000000  0.75000000  0.50000000  1
  V  V9  1  0.75000000  0.75000000  0.00000000  1
  V  V10  1  0.75000000  0.25000000  0.50000000  1
  V  V11  1  0.25000000  0.25000000  0.00000000  1
  Si  Si12  1  0.78287850  0.56160250  0.65774100  1
  Si  Si13  1  0.78287850  0.43839750  0.15774100  1
  Si  Si14  1  0.95330200  0.79620700  0.56306800  1
  Si  Si15  1  0.04669800  0.79620700  0.93693200  1
  Si  Si16  1  0.95330200  0.20379300  0.06306800  1
  Si  Si17  1  0.04669800  0.20379300  0.43693200  1
  Si  Si18  1  0.21712150  0.56160250  0.84225900  1
  Si  Si19  1  0.21712150  0.43839750  0.34225900  1
  Si  Si20  1  0.28287850  0.06160250  0.65774100  1
  Si  Si21  1  0.28287850  0.93839750  0.15774100  1
  Si  Si22  1  0.45330200  0.29620700  0.56306800  1
  Si  Si23  1  0.54669800  0.29620700  0.93693200  1
  Si  Si24  1  0.45330200  0.70379300  0.06306800  1
  Si  Si25  1  0.54669800  0.70379300  0.43693200  1
  Si  Si26  1  0.71712150  0.06160250  0.84225900  1
  Si  Si27  1  0.71712150  0.93839750  0.34225900  1
  O  O28  1  0.64808500  0.59062600  0.52991500  1
  O  O29  1  0.76952600  0.62915500  0.83546500  1
  O  O30  1  0.64808500  0.40937400  0.02991500  1
  O  O31  1  0.76952600  0.37084500  0.33546500  1
  O  O32  1  0.81144450  0.39898850  0.67360700  1
  O  O33  1  0.81144450  0.60101150  0.17360700  1
  O  O34  1  0.89512400  0.64403000  0.58759000  1
  O  O35  1  0.94200900  0.21116000  0.55211300  1
  O  O36  1  0.89512400  0.35597000  0.08759000  1
  O  O37  1  0.00000000  0.86710900  0.75000000  1
  O  O38  1  0.05799100  0.21116000  0.94788700  1
  O  O39  1  0.94200900  0.78884000  0.05211300  1
  O  O40  1  0.00000000  0.13289100  0.25000000  1
  O  O41  1  0.10487600  0.64403000  0.91241000  1
  O  O42  1  0.05799100  0.78884000  0.44788700  1
  O  O43  1  0.10487600  0.35597000  0.41241000  1
  O  O44  1  0.18855550  0.39898850  0.82639300  1
  O  O45  1  0.18855550  0.60101150  0.32639300  1
  O  O46  1  0.23047400  0.62915500  0.66453500  1
  O  O47  1  0.35191500  0.59062600  0.97008500  1
  O  O48  1  0.23047400  0.37084500  0.16453500  1
  O  O49  1  0.35191500  0.40937400  0.47008500  1
  O  O50  1  0.14808500  0.09062600  0.52991500  1
  O  O51  1  0.26952600  0.12915500  0.83546500  1
  O  O52  1  0.14808500  0.90937400  0.02991500  1
  O  O53  1  0.26952600  0.87084500  0.33546500  1
  O  O54  1  0.31144450  0.89898850  0.67360700  1
  O  O55  1  0.31144450  0.10101150  0.17360700  1
  O  O56  1  0.39512400  0.14403000  0.58759000  1
  O  O57  1  0.44200900  0.71116000  0.55211300  1
  O  O58  1  0.39512400  0.85597000  0.08759000  1
  O  O59  1  0.50000000  0.36710900  0.75000000  1
  O  O60  1  0.55799100  0.71116000  0.94788700  1
  O  O61  1  0.44200900  0.28884000  0.05211300  1
  O  O62  1  0.50000000  0.63289100  0.25000000  1
  O  O63  1  0.60487600  0.14403000  0.91241000  1
  O  O64  1  0.55799100  0.28884000  0.44788700  1
  O  O65  1  0.60487600  0.85597000  0.41241000  1
  O  O66  1  0.68855550  0.89898850  0.82639300  1
  O  O67  1  0.68855550  0.10101150  0.32639300  1
  O  O68  1  0.73047400  0.12915500  0.66453500  1
  O  O69  1  0.85191500  0.09062600  0.97008500  1
  O  O70  1  0.73047400  0.87084500  0.16453500  1
  O  O71  1  0.85191500  0.90937400  0.47008500  1
