# generated using pymatgen
data_Li4Cr3Co3(SbO8)2
_symmetry_space_group_name_H-M   'P 1'
_cell_length_a   10.12572000
_cell_length_b   5.87957200
_cell_length_c   9.54492704
_cell_angle_alpha   90.00000000
_cell_angle_beta   90.69541727
_cell_angle_gamma   90.00000000
_symmetry_Int_Tables_number   1
_chemical_formula_structural   Li4Cr3Co3(SbO8)2
_chemical_formula_sum   'Li8 Cr6 Co6 Sb4 O32'
_cell_volume   568.21441943
_cell_formula_units_Z   2
loop_
 _symmetry_equiv_pos_site_id
 _symmetry_equiv_pos_as_xyz
  1  'x, y, z'
loop_
 _atom_site_type_symbol
 _atom_site_label
 _atom_site_symmetry_multiplicity
 _atom_site_fract_x
 _atom_site_fract_y
 _atom_site_fract_z
 _atom_site_occupancy
  Li  Li0  1  0.67027900  0.00000000  0.10131200  1
  Li  Li1  1  0.99424900  0.00000000  0.00816600  1
  Li  Li2  1  0.99516900  0.00000000  0.50563700  1
  Li  Li3  1  0.33608700  0.00000000  0.59704000  1
  Li  Li4  1  0.17027900  0.50000000  0.10131200  1
  Li  Li5  1  0.49424900  0.50000000  0.00816600  1
  Li  Li6  1  0.49516900  0.50000000  0.50563700  1
  Li  Li7  1  0.83608700  0.50000000  0.59704000  1
  Cr  Cr8  1  0.58480200  0.75446400  0.78541700  1
  Cr  Cr9  1  0.58480200  0.24553600  0.78541700  1
  Cr  Cr10  1  0.16943700  0.00000000  0.28575400  1
  Cr  Cr11  1  0.08480200  0.25446400  0.78541700  1
  Cr  Cr12  1  0.08480200  0.74553600  0.78541700  1
  Cr  Cr13  1  0.66943700  0.50000000  0.28575400  1
  Co  Co14  1  0.82851600  0.00000000  0.78490900  1
  Co  Co15  1  0.41428300  0.75573200  0.28547100  1
  Co  Co16  1  0.41428300  0.24426800  0.28547100  1
  Co  Co17  1  0.32851600  0.50000000  0.78490900  1
  Co  Co18  1  0.91428300  0.25573200  0.28547100  1
  Co  Co19  1  0.91428300  0.74426800  0.28547100  1
  Sb  Sb20  1  0.66702800  0.00000000  0.50907900  1
  Sb  Sb21  1  0.33471200  0.00000000  0.01321700  1
  Sb  Sb22  1  0.16702800  0.50000000  0.50907900  1
  Sb  Sb23  1  0.83471200  0.50000000  0.01321700  1
  O  O24  1  0.57967200  0.74447600  0.40395900  1
  O  O25  1  0.51805200  0.00000000  0.65473400  1
  O  O26  1  0.67066000  0.00000000  0.89264700  1
  O  O27  1  0.99401800  0.00000000  0.69172100  1
  O  O28  1  0.99344000  0.00000000  0.19406100  1
  O  O29  1  0.57967200  0.25552400  0.40395900  1
  O  O30  1  0.74528750  0.77902350  0.65864900  1
  O  O31  1  0.74528750  0.22097650  0.65864900  1
  O  O32  1  0.16332300  0.00000000  0.90779900  1
  O  O33  1  0.83608800  0.00000000  0.39813900  1
  O  O34  1  0.26250700  0.77395800  0.15971400  1
  O  O35  1  0.26250700  0.22604200  0.15971400  1
  O  O36  1  0.33894400  0.00000000  0.38873500  1
  O  O37  1  0.41661350  0.74556650  0.90318500  1
  O  O38  1  0.48339100  0.00000000  0.16636300  1
  O  O39  1  0.41661350  0.25443350  0.90318500  1
  O  O40  1  0.07967200  0.24447600  0.40395900  1
  O  O41  1  0.01805200  0.50000000  0.65473400  1
  O  O42  1  0.17066000  0.50000000  0.89264700  1
  O  O43  1  0.49401800  0.50000000  0.69172100  1
  O  O44  1  0.49344000  0.50000000  0.19406100  1
  O  O45  1  0.07967200  0.75552400  0.40395900  1
  O  O46  1  0.24528750  0.27902350  0.65864900  1
  O  O47  1  0.24528750  0.72097650  0.65864900  1
  O  O48  1  0.66332300  0.50000000  0.90779900  1
  O  O49  1  0.33608800  0.50000000  0.39813900  1
  O  O50  1  0.76250700  0.27395800  0.15971400  1
  O  O51  1  0.76250700  0.72604200  0.15971400  1
  O  O52  1  0.83894400  0.50000000  0.38873500  1
  O  O53  1  0.91661350  0.24556650  0.90318500  1
  O  O54  1  0.98339100  0.50000000  0.16636300  1
  O  O55  1  0.91661350  0.75443350  0.90318500  1
