# generated using pymatgen
data_Li3VFe3O8
_symmetry_space_group_name_H-M   'P 1'
_cell_length_a   5.90347228
_cell_length_b   5.90347228
_cell_length_c   9.62183124
_cell_angle_alpha   90.00000000
_cell_angle_beta   90.00000000
_cell_angle_gamma   120.00000000
_symmetry_Int_Tables_number   1
_chemical_formula_structural   Li3VFe3O8
_chemical_formula_sum   'Li6 V2 Fe6 O16'
_cell_volume   290.40455522
_cell_formula_units_Z   2
loop_
 _symmetry_equiv_pos_site_id
 _symmetry_equiv_pos_as_xyz
  1  'x, y, z'
loop_
 _atom_site_type_symbol
 _atom_site_label
 _atom_site_symmetry_multiplicity
 _atom_site_fract_x
 _atom_site_fract_y
 _atom_site_fract_z
 _atom_site_occupancy
  Li  Li0  1  0.17401050  0.82598950  0.94322200  1
  Li  Li1  1  0.17401050  0.34802100  0.94322200  1
  Li  Li2  1  0.65197900  0.82598950  0.94322200  1
  Li  Li3  1  0.34802100  0.17401050  0.44322200  1
  Li  Li4  1  0.82598950  0.65197900  0.44322200  1
  Li  Li5  1  0.82598950  0.17401050  0.44322200  1
  V  V6  1  0.33333333  0.66666667  0.49061200  1
  V  V7  1  0.66666667  0.33333333  0.99061200  1
  Fe  Fe8  1  0.16705400  0.83294600  0.21253600  1
  Fe  Fe9  1  0.16705400  0.33410800  0.21253600  1
  Fe  Fe10  1  0.66589200  0.83294600  0.21253600  1
  Fe  Fe11  1  0.33410800  0.16705400  0.71253600  1
  Fe  Fe12  1  0.83294600  0.66589200  0.71253600  1
  Fe  Fe13  1  0.83294600  0.16705400  0.71253600  1
  O  O14  1  0.00000000  0.00000000  0.32137300  1
  O  O15  1  0.16587750  0.83412250  0.59117200  1
  O  O16  1  0.03714900  0.51857450  0.34813900  1
  O  O17  1  0.48142550  0.96285100  0.34813900  1
  O  O18  1  0.16587750  0.33175500  0.59117200  1
  O  O19  1  0.33333333  0.66666667  0.09648100  1
  O  O20  1  0.48142550  0.51857450  0.34813900  1
  O  O21  1  0.66824500  0.83412250  0.59117200  1
  O  O22  1  0.33175500  0.16587750  0.09117200  1
  O  O23  1  0.51857450  0.48142550  0.84813900  1
  O  O24  1  0.51857450  0.03714900  0.84813900  1
  O  O25  1  0.00000000  0.00000000  0.82137300  1
  O  O26  1  0.66666667  0.33333333  0.59648100  1
  O  O27  1  0.83412250  0.66824500  0.09117200  1
  O  O28  1  0.96285100  0.48142550  0.84813900  1
  O  O29  1  0.83412250  0.16587750  0.09117200  1
