# generated using pymatgen
data_Li2MnF4
_symmetry_space_group_name_H-M   'P 1'
_cell_length_a   10.35095200
_cell_length_b   5.78361400
_cell_length_c   5.43434910
_cell_angle_alpha   90.00000000
_cell_angle_beta   93.51773458
_cell_angle_gamma   90.00000000
_symmetry_Int_Tables_number   1
_chemical_formula_structural   Li2MnF4
_chemical_formula_sum   'Li8 Mn4 F16'
_cell_volume   324.71928597
_cell_formula_units_Z   4
loop_
 _symmetry_equiv_pos_site_id
 _symmetry_equiv_pos_as_xyz
  1  'x, y, z'
loop_
 _atom_site_type_symbol
 _atom_site_label
 _atom_site_symmetry_multiplicity
 _atom_site_fract_x
 _atom_site_fract_y
 _atom_site_fract_z
 _atom_site_occupancy
  Li  Li0  1  0.79781750  0.14922350  0.71703600  1
  Li  Li1  1  0.79781750  0.85077650  0.21703600  1
  Li  Li2  1  0.70218250  0.64922350  0.78296400  1
  Li  Li3  1  0.70218250  0.35077650  0.28296400  1
  Li  Li4  1  0.29781750  0.64922350  0.71703600  1
  Li  Li5  1  0.29781750  0.35077650  0.21703600  1
  Li  Li6  1  0.20218250  0.14922350  0.78296400  1
  Li  Li7  1  0.20218250  0.85077650  0.28296400  1
  Mn  Mn8  1  0.00000000  0.66069400  0.75000000  1
  Mn  Mn9  1  0.00000000  0.33930600  0.25000000  1
  Mn  Mn10  1  0.50000000  0.16069400  0.75000000  1
  Mn  Mn11  1  0.50000000  0.83930600  0.25000000  1
  F  F12  1  0.64928700  0.36812000  0.61815000  1
  F  F13  1  0.64928700  0.63188000  0.11815000  1
  F  F14  1  0.61435500  0.88433300  0.58846400  1
  F  F15  1  0.61435500  0.11566700  0.08846400  1
  F  F16  1  0.88564500  0.38433300  0.91153600  1
  F  F17  1  0.88564500  0.61566700  0.41153600  1
  F  F18  1  0.85071300  0.86812000  0.88185000  1
  F  F19  1  0.85071300  0.13188000  0.38185000  1
  F  F20  1  0.14928700  0.86812000  0.61815000  1
  F  F21  1  0.14928700  0.13188000  0.11815000  1
  F  F22  1  0.11435500  0.38433300  0.58846400  1
  F  F23  1  0.11435500  0.61566700  0.08846400  1
  F  F24  1  0.38564500  0.88433300  0.91153600  1
  F  F25  1  0.38564500  0.11566700  0.41153600  1
  F  F26  1  0.35071300  0.36812000  0.88185000  1
  F  F27  1  0.35071300  0.63188000  0.38185000  1
