# generated using pymatgen
data_ScMn2O5
_symmetry_space_group_name_H-M   'P 1'
_cell_length_a   3.99129000
_cell_length_b   9.76438800
_cell_length_c   9.89139000
_cell_angle_alpha   90.00000000
_cell_angle_beta   90.00000000
_cell_angle_gamma   90.00000000
_symmetry_Int_Tables_number   1
_chemical_formula_structural   ScMn2O5
_chemical_formula_sum   'Sc4 Mn8 O20'
_cell_volume   385.49223813
_cell_formula_units_Z   4
loop_
 _symmetry_equiv_pos_site_id
 _symmetry_equiv_pos_as_xyz
  1  'x, y, z'
loop_
 _atom_site_type_symbol
 _atom_site_label
 _atom_site_symmetry_multiplicity
 _atom_site_fract_x
 _atom_site_fract_y
 _atom_site_fract_z
 _atom_site_occupancy
  Sc  Sc0  1  0.00000000  0.20355000  0.75000000  1
  Sc  Sc1  1  0.50000000  0.29645000  0.25000000  1
  Sc  Sc2  1  0.50000000  0.70355000  0.75000000  1
  Sc  Sc3  1  0.00000000  0.79645000  0.25000000  1
  Mn  Mn4  1  0.00000000  0.13826100  0.05585800  1
  Mn  Mn5  1  0.00000000  0.13826100  0.44414200  1
  Mn  Mn6  1  0.50000000  0.36173900  0.55585800  1
  Mn  Mn7  1  0.50000000  0.36173900  0.94414200  1
  Mn  Mn8  1  0.50000000  0.63826100  0.05585800  1
  Mn  Mn9  1  0.50000000  0.63826100  0.44414200  1
  Mn  Mn10  1  0.00000000  0.86173900  0.55585800  1
  Mn  Mn11  1  0.00000000  0.86173900  0.94414200  1
  O  O12  1  0.00000000  0.04783900  0.61508100  1
  O  O13  1  0.00000000  0.04783900  0.88491900  1
  O  O14  1  0.00000000  0.31249400  0.94570500  1
  O  O15  1  0.00000000  0.31249400  0.55429500  1
  O  O16  1  0.50000000  0.28060300  0.75000000  1
  O  O17  1  0.50000000  0.45216100  0.11508100  1
  O  O18  1  0.50000000  0.18750600  0.05429500  1
  O  O19  1  0.00000000  0.21939700  0.25000000  1
  O  O20  1  0.50000000  0.45216100  0.38491900  1
  O  O21  1  0.50000000  0.18750600  0.44570500  1
  O  O22  1  0.50000000  0.54783900  0.61508100  1
  O  O23  1  0.50000000  0.54783900  0.88491900  1
  O  O24  1  0.50000000  0.81249400  0.94570500  1
  O  O25  1  0.50000000  0.81249400  0.55429500  1
  O  O26  1  0.00000000  0.78060300  0.75000000  1
  O  O27  1  0.00000000  0.95216100  0.11508100  1
  O  O28  1  0.00000000  0.68750600  0.05429500  1
  O  O29  1  0.50000000  0.71939700  0.25000000  1
  O  O30  1  0.00000000  0.95216100  0.38491900  1
  O  O31  1  0.00000000  0.68750600  0.44570500  1
