# generated using pymatgen
data_LiVBO4
_symmetry_space_group_name_H-M   'P 1'
_cell_length_a   12.88874077
_cell_length_b   12.88874077
_cell_length_c   9.11414326
_cell_angle_alpha   90.00000000
_cell_angle_beta   90.00000000
_cell_angle_gamma   120.00000000
_symmetry_Int_Tables_number   1
_chemical_formula_structural   LiVBO4
_chemical_formula_sum   'Li18 V18 B18 O72'
_cell_volume   1311.19553029
_cell_formula_units_Z   18
loop_
 _symmetry_equiv_pos_site_id
 _symmetry_equiv_pos_as_xyz
  1  'x, y, z'
loop_
 _atom_site_type_symbol
 _atom_site_label
 _atom_site_symmetry_multiplicity
 _atom_site_fract_x
 _atom_site_fract_y
 _atom_site_fract_z
 _atom_site_occupancy
  Li  Li0  1  0.78982567  0.81914533  0.73461233  1
  Li  Li1  1  0.97068033  0.78982567  0.26538767  1
  Li  Li2  1  0.81914533  0.02931967  0.26538767  1
  Li  Li3  1  0.18085467  0.97068033  0.73461233  1
  Li  Li4  1  0.02931967  0.21017433  0.73461233  1
  Li  Li5  1  0.21017433  0.18085467  0.26538767  1
  Li  Li6  1  0.45649233  0.15247867  0.06794567  1
  Li  Li7  1  0.63734700  0.12315900  0.59872100  1
  Li  Li8  1  0.48581200  0.36265300  0.59872100  1
  Li  Li9  1  0.84752133  0.30401367  0.06794567  1
  Li  Li10  1  0.69598633  0.54350767  0.06794567  1
  Li  Li11  1  0.87684100  0.51418800  0.59872100  1
  Li  Li12  1  0.12315900  0.48581200  0.40127900  1
  Li  Li13  1  0.30401367  0.45649233  0.93205433  1
  Li  Li14  1  0.15247867  0.69598633  0.93205433  1
  Li  Li15  1  0.51418800  0.63734700  0.40127900  1
  Li  Li16  1  0.36265300  0.87684100  0.40127900  1
  Li  Li17  1  0.54350767  0.84752133  0.93205433  1
  V  V18  1  0.71152100  0.57311400  0.43597100  1
  V  V19  1  0.57311400  0.86159300  0.56402900  1
  V  V20  1  0.13840700  0.71152100  0.56402900  1
  V  V21  1  0.86159300  0.28847900  0.43597100  1
  V  V22  1  0.42688600  0.13840700  0.43597100  1
  V  V23  1  0.28847900  0.42688600  0.56402900  1
  V  V24  1  0.37818767  0.90644733  0.76930433  1
  V  V25  1  0.23978067  0.19492633  0.89736233  1
  V  V26  1  0.80507367  0.04485433  0.89736233  1
  V  V27  1  0.52825967  0.62181233  0.76930433  1
  V  V28  1  0.09355267  0.47174033  0.76930433  1
  V  V29  1  0.95514567  0.76021933  0.89736233  1
  V  V30  1  0.04485433  0.23978067  0.10263767  1
  V  V31  1  0.90644733  0.52825967  0.23069567  1
  V  V32  1  0.47174033  0.37818767  0.23069567  1
  V  V33  1  0.19492633  0.95514567  0.10263767  1
  V  V34  1  0.76021933  0.80507367  0.10263767  1
  V  V35  1  0.62181233  0.09355267  0.23069567  1
  B  B36  1  0.79714400  0.81760200  0.43409600  1
  B  B37  1  0.97954200  0.79714400  0.56590400  1
  B  B38  1  0.81760200  0.02045800  0.56590400  1
  B  B39  1  0.18239800  0.97954200  0.43409600  1
  B  B40  1  0.02045800  0.20285600  0.43409600  1
  B  B41  1  0.20285600  0.18239800  0.56590400  1
  B  B42  1  0.46381067  0.15093533  0.76742933  1
  B  B43  1  0.64620867  0.13047733  0.89923733  1
  B  B44  1  0.48426867  0.35379133  0.89923733  1
  B  B45  1  0.84906467  0.31287533  0.76742933  1
  B  B46  1  0.68712467  0.53618933  0.76742933  1
  B  B47  1  0.86952267  0.51573133  0.89923733  1
  B  B48  1  0.13047733  0.48426867  0.10076267  1
  B  B49  1  0.31287533  0.46381067  0.23257067  1
  B  B50  1  0.15093533  0.68712467  0.23257067  1
  B  B51  1  0.51573133  0.64620867  0.10076267  1
  B  B52  1  0.35379133  0.86952267  0.10076267  1
  B  B53  1  0.53618933  0.84906467  0.23257067  1
  O  O54  1  0.78122500  0.56164700  0.26779200  1
  O  O55  1  0.56164700  0.78042200  0.73220800  1
  O  O56  1  0.68442067  0.69910133  0.43684533  1
  O  O57  1  0.69910133  0.01468067  0.56315467  1
  O  O58  1  0.80831467  0.87014633  0.28323733  1
  O  O59  1  0.78802300  0.89299700  0.54749800  1
  O  O60  1  0.98531933  0.68442067  0.56315467  1
  O  O61  1  0.89502600  0.78802300  0.45250200  1
  O  O62  1  0.93816833  0.80831467  0.71676267  1
  O  O63  1  0.87014633  0.06183167  0.71676267  1
  O  O64  1  0.89299700  0.10497400  0.45250200  1
  O  O65  1  0.21957800  0.78122500  0.73220800  1
  O  O66  1  0.78042200  0.21877500  0.26779200  1
  O  O67  1  0.10700300  0.89502600  0.54749800  1
  O  O68  1  0.12985367  0.93816833  0.28323733  1
  O  O69  1  0.06183167  0.19168533  0.28323733  1
  O  O70  1  0.10497400  0.21197700  0.54749800  1
  O  O71  1  0.01468067  0.31557933  0.43684533  1
  O  O72  1  0.21197700  0.10700300  0.45250200  1
  O  O73  1  0.19168533  0.12985367  0.71676267  1
  O  O74  1  0.30089867  0.98531933  0.43684533  1
  O  O75  1  0.31557933  0.30089867  0.56315467  1
  O  O76  1  0.43835300  0.21957800  0.26779200  1
  O  O77  1  0.21877500  0.43835300  0.73220800  1
  O  O78  1  0.44789167  0.89498033  0.60112533  1
  O  O79  1  0.22831367  0.11375533  0.06554133  1
  O  O80  1  0.35108733  0.03243467  0.77017867  1
  O  O81  1  0.36576800  0.34801400  0.89648800  1
  O  O82  1  0.47498133  0.20347967  0.61657067  1
  O  O83  1  0.45468967  0.22633033  0.88083133  1
  O  O84  1  0.65198600  0.01775400  0.89648800  1
  O  O85  1  0.56169267  0.12135633  0.78583533  1
  O  O86  1  0.60483500  0.14164800  0.05009600  1
  O  O87  1  0.53681300  0.39516500  0.05009600  1
  O  O88  1  0.55966367  0.43830733  0.78583533  1
  O  O89  1  0.88624467  0.11455833  0.06554133  1
  O  O90  1  0.44708867  0.55210833  0.60112533  1
  O  O91  1  0.77366967  0.22835933  0.88083133  1
  O  O92  1  0.79652033  0.27150167  0.61657067  1
  O  O93  1  0.72849833  0.52501867  0.61657067  1
  O  O94  1  0.77164067  0.54531033  0.88083133  1
  O  O95  1  0.68134733  0.64891267  0.77017867  1
  O  O96  1  0.87864367  0.44033633  0.78583533  1
  O  O97  1  0.85835200  0.46318700  0.05009600  1
  O  O98  1  0.96756533  0.31865267  0.77017867  1
  O  O99  1  0.98224600  0.63423200  0.89648800  1
  O  O100  1  0.10501967  0.55291133  0.60112533  1
  O  O101  1  0.88544167  0.77168633  0.06554133  1
  O  O102  1  0.11455833  0.22831367  0.93445867  1
  O  O103  1  0.89498033  0.44708867  0.39887467  1
  O  O104  1  0.01775400  0.36576800  0.10351200  1
  O  O105  1  0.03243467  0.68134733  0.22982133  1
  O  O106  1  0.14164800  0.53681300  0.94990400  1
  O  O107  1  0.12135633  0.55966367  0.21416467  1
  O  O108  1  0.31865267  0.35108733  0.22982133  1
  O  O109  1  0.22835933  0.45468967  0.11916867  1
  O  O110  1  0.27150167  0.47498133  0.38342933  1
  O  O111  1  0.20347967  0.72849833  0.38342933  1
  O  O112  1  0.22633033  0.77164067  0.11916867  1
  O  O113  1  0.55291133  0.44789167  0.39887467  1
  O  O114  1  0.11375533  0.88544167  0.93445867  1
  O  O115  1  0.44033633  0.56169267  0.21416467  1
  O  O116  1  0.46318700  0.60483500  0.94990400  1
  O  O117  1  0.39516500  0.85835200  0.94990400  1
  O  O118  1  0.43830733  0.87864367  0.21416467  1
  O  O119  1  0.34801400  0.98224600  0.10351200  1
  O  O120  1  0.54531033  0.77366967  0.11916867  1
  O  O121  1  0.52501867  0.79652033  0.38342933  1
  O  O122  1  0.63423200  0.65198600  0.10351200  1
  O  O123  1  0.64891267  0.96756533  0.22982133  1
  O  O124  1  0.77168633  0.88624467  0.93445867  1
  O  O125  1  0.55210833  0.10501967  0.39887467  1
