# generated using pymatgen
data_Li2CoSiO4
_symmetry_space_group_name_H-M   'P 1'
_cell_length_a   7.35990700
_cell_length_b   7.63913600
_cell_length_c   6.30464300
_cell_angle_alpha   90.00000000
_cell_angle_beta   90.00000000
_cell_angle_gamma   90.00000000
_symmetry_Int_Tables_number   1
_chemical_formula_structural   Li2CoSiO4
_chemical_formula_sum   'Li8 Co4 Si4 O16'
_cell_volume   354.46802732
_cell_formula_units_Z   4
loop_
 _symmetry_equiv_pos_site_id
 _symmetry_equiv_pos_as_xyz
  1  'x, y, z'
loop_
 _atom_site_type_symbol
 _atom_site_label
 _atom_site_symmetry_multiplicity
 _atom_site_fract_x
 _atom_site_fract_y
 _atom_site_fract_z
 _atom_site_occupancy
  Li  Li0  1  0.81867100  0.00000000  0.50000000  1
  Li  Li1  1  0.18132900  0.00000000  0.00000000  1
  Li  Li2  1  0.00000000  0.68701400  0.75000000  1
  Li  Li3  1  0.00000000  0.31298600  0.25000000  1
  Li  Li4  1  0.31867100  0.50000000  0.50000000  1
  Li  Li5  1  0.68132900  0.50000000  0.00000000  1
  Li  Li6  1  0.50000000  0.18701400  0.75000000  1
  Li  Li7  1  0.50000000  0.81298600  0.25000000  1
  Co  Co8  1  0.00000000  0.67866550  0.25000000  1
  Co  Co9  1  0.00000000  0.32133450  0.75000000  1
  Co  Co10  1  0.50000000  0.17866550  0.25000000  1
  Co  Co11  1  0.50000000  0.82133450  0.75000000  1
  Si  Si12  1  0.82405175  0.00000000  0.00000000  1
  Si  Si13  1  0.17594825  0.00000000  0.50000000  1
  Si  Si14  1  0.32405175  0.50000000  0.00000000  1
  Si  Si15  1  0.67594825  0.50000000  0.50000000  1
  O  O16  1  0.69685100  0.99851900  0.21598725  1
  O  O17  1  0.69685100  0.00148100  0.78401275  1
  O  O18  1  0.30314900  0.00148100  0.71598725  1
  O  O19  1  0.30314900  0.99851900  0.28401275  1
  O  O20  1  0.96259600  0.82907000  0.00100825  1
  O  O21  1  0.96259600  0.17093000  0.99899175  1
  O  O22  1  0.03740400  0.82907000  0.49899175  1
  O  O23  1  0.03740400  0.17093000  0.50100825  1
  O  O24  1  0.19685100  0.49851900  0.21598725  1
  O  O25  1  0.19685100  0.50148100  0.78401275  1
  O  O26  1  0.80314900  0.50148100  0.71598725  1
  O  O27  1  0.80314900  0.49851900  0.28401275  1
  O  O28  1  0.46259600  0.32907000  0.00100825  1
  O  O29  1  0.46259600  0.67093000  0.99899175  1
  O  O30  1  0.53740400  0.32907000  0.49899175  1
  O  O31  1  0.53740400  0.67093000  0.50100825  1
