# generated using pymatgen
data_V3OF11
_symmetry_space_group_name_H-M   'P 1'
_cell_length_a   5.44221300
_cell_length_b   5.27528500
_cell_length_c   14.59581872
_cell_angle_alpha   90.00000000
_cell_angle_beta   100.45075957
_cell_angle_gamma   90.00000000
_symmetry_Int_Tables_number   1
_chemical_formula_structural   V3OF11
_chemical_formula_sum   'V6 O2 F22'
_cell_volume   412.08333884
_cell_formula_units_Z   2
loop_
 _symmetry_equiv_pos_site_id
 _symmetry_equiv_pos_as_xyz
  1  'x, y, z'
loop_
 _atom_site_type_symbol
 _atom_site_label
 _atom_site_symmetry_multiplicity
 _atom_site_fract_x
 _atom_site_fract_y
 _atom_site_fract_z
 _atom_site_occupancy
  V  V0  1  0.24996400  0.49996800  0.99998800  1
  V  V1  1  0.08444500  0.00682600  0.67243000  1
  V  V2  1  0.91555500  0.50682600  0.32757000  1
  V  V3  1  0.75003600  0.99996800  0.00001200  1
  V  V4  1  0.58256400  0.50167400  0.66580600  1
  V  V5  1  0.41743600  0.00167400  0.33419400  1
  O  O6  1  0.87337900  0.58210400  0.21829400  1
  O  O7  1  0.12662100  0.08210400  0.78170600  1
  F  F8  1  0.22181300  0.70044700  0.35915300  1
  F  F9  1  0.05884400  0.79958200  0.02502800  1
  F  F10  1  0.10961300  0.20446300  0.30879200  1
  F  F11  1  0.20660300  0.58624100  0.88118600  1
  F  F12  1  0.04030500  0.91309400  0.54912500  1
  F  F13  1  0.95969500  0.41309400  0.45087500  1
  F  F14  1  0.79339700  0.08624100  0.11881400  1
  F  F15  1  0.89038700  0.70446300  0.69120800  1
  F  F16  1  0.72358600  0.79385200  0.35898400  1
  F  F17  1  0.55851300  0.70053400  0.02494500  1
  F  F18  1  0.94115600  0.29958200  0.97497200  1
  F  F19  1  0.77818700  0.20044700  0.64084700  1
  F  F20  1  0.61174500  0.29871500  0.30849300  1
  F  F21  1  0.70652900  0.91350200  0.88121900  1
  F  F22  1  0.53936000  0.58497100  0.54753700  1
  F  F23  1  0.37319700  0.91402600  0.21536300  1
  F  F24  1  0.62680300  0.41402600  0.78463700  1
  F  F25  1  0.46064000  0.08497100  0.45246300  1
  F  F26  1  0.29347100  0.41350200  0.11878100  1
  F  F27  1  0.38825500  0.79871500  0.69150700  1
  F  F28  1  0.44148700  0.20053400  0.97505500  1
  F  F29  1  0.27641400  0.29385200  0.64101600  1
