# generated using pymatgen
data_Ca2FeP2(H2O3)4
_symmetry_space_group_name_H-M   'P 1'
_cell_length_a   5.98958395
_cell_length_b   6.48217922
_cell_length_c   6.90970786
_cell_angle_alpha   70.57538454
_cell_angle_beta   78.19953642
_cell_angle_gamma   75.37008312
_symmetry_Int_Tables_number   1
_chemical_formula_structural   Ca2FeP2(H2O3)4
_chemical_formula_sum   'Ca2 Fe1 P2 H8 O12'
_cell_volume   242.65602746
_cell_formula_units_Z   1
loop_
 _symmetry_equiv_pos_site_id
 _symmetry_equiv_pos_as_xyz
  1  'x, y, z'
loop_
 _atom_site_type_symbol
 _atom_site_label
 _atom_site_symmetry_multiplicity
 _atom_site_fract_x
 _atom_site_fract_y
 _atom_site_fract_z
 _atom_site_occupancy
  Ca  Ca0  1  0.70720025  0.66021050  0.78980800  1
  Ca  Ca1  1  0.29279975  0.33978950  0.21019200  1
  Fe  Fe2  1  0.00000000  0.00000000  0.00000000  1
  P  P3  1  0.77252325  0.56741100  0.28277925  1
  P  P4  1  0.22747675  0.43258900  0.71722075  1
  H  H5  1  0.67855600  0.94662600  0.32224500  1
  H  H6  1  0.32144400  0.05337400  0.67775500  1
  H  H7  1  0.23507800  0.82162100  0.71114500  1
  H  H8  1  0.76492200  0.17837900  0.28885500  1
  H  H9  1  0.18041950  0.85558300  0.37730600  1
  H  H10  1  0.81958050  0.14441700  0.62269400  1
  H  H11  1  0.37377750  0.83504450  0.19358575  1
  H  H12  1  0.62622250  0.16495550  0.80641425  1
  O  O13  1  0.30985200  0.90023000  0.77905200  1
  O  O14  1  0.69014800  0.09977000  0.22094800  1
  O  O15  1  0.23803400  0.94628950  0.23470525  1
  O  O16  1  0.76196600  0.05371050  0.76529475  1
  O  O17  1  0.68218075  0.68993300  0.44865775  1
  O  O18  1  0.31781925  0.31006700  0.55134225  1
  O  O19  1  0.97778450  0.66809500  0.12774950  1
  O  O20  1  0.02221550  0.33190500  0.87225050  1
  O  O21  1  0.11980625  0.68396200  0.62419625  1
  O  O22  1  0.88019375  0.31603800  0.37580375  1
  O  O23  1  0.42605525  0.40167500  0.84676175  1
  O  O24  1  0.57394475  0.59832500  0.15323825  1
