# generated using pymatgen
data_LiTi4O8
_symmetry_space_group_name_H-M   'P 1'
_cell_length_a   5.06662600
_cell_length_b   2.97441000
_cell_length_c   9.63663846
_cell_angle_alpha   90.00000000
_cell_angle_beta   91.11676496
_cell_angle_gamma   90.00000000
_symmetry_Int_Tables_number   1
_chemical_formula_structural   LiTi4O8
_chemical_formula_sum   'Li1 Ti4 O8'
_cell_volume   145.19870551
_cell_formula_units_Z   1
loop_
 _symmetry_equiv_pos_site_id
 _symmetry_equiv_pos_as_xyz
  1  'x, y, z'
loop_
 _atom_site_type_symbol
 _atom_site_label
 _atom_site_symmetry_multiplicity
 _atom_site_fract_x
 _atom_site_fract_y
 _atom_site_fract_z
 _atom_site_occupancy
  Li  Li0  1  0.93453900  0.50000000  0.46488900  1
  Ti  Ti1  1  0.03851800  0.00000000  0.86140700  1
  Ti  Ti2  1  0.46507100  0.00000000  0.35648700  1
  Ti  Ti3  1  0.52622400  0.50000000  0.64425500  1
  Ti  Ti4  1  0.95846500  0.50000000  0.13291700  1
  O  O5  1  0.16993500  0.00000000  0.22879200  1
  O  O6  1  0.19213500  0.50000000  0.96468900  1
  O  O7  1  0.30279300  0.50000000  0.46756600  1
  O  O8  1  0.32160700  0.00000000  0.72642500  1
  O  O9  1  0.69175000  0.50000000  0.28247100  1
  O  O10  1  0.70898400  0.00000000  0.53232700  1
  O  O11  1  0.80125800  0.00000000  0.03541100  1
  O  O12  1  0.82772100  0.50000000  0.77186300  1
