# generated using pymatgen
data_TaFeO4
_symmetry_space_group_name_H-M   'P 1'
_cell_length_a   6.76674400
_cell_length_b   10.25305200
_cell_length_c   4.94334596
_cell_angle_alpha   90.00000000
_cell_angle_beta   132.77410794
_cell_angle_gamma   90.00000000
_symmetry_Int_Tables_number   1
_chemical_formula_structural   TaFeO4
_chemical_formula_sum   'Ta4 Fe4 O16'
_cell_volume   251.75132406
_cell_formula_units_Z   4
loop_
 _symmetry_equiv_pos_site_id
 _symmetry_equiv_pos_as_xyz
  1  'x, y, z'
loop_
 _atom_site_type_symbol
 _atom_site_label
 _atom_site_symmetry_multiplicity
 _atom_site_fract_x
 _atom_site_fract_y
 _atom_site_fract_z
 _atom_site_occupancy
  Ta  Ta0  1  0.50000000  0.37168300  0.75000000  1
  Ta  Ta1  1  0.00000000  0.12831700  0.25000000  1
  Ta  Ta2  1  0.00000000  0.87168300  0.75000000  1
  Ta  Ta3  1  0.50000000  0.62831700  0.25000000  1
  Fe  Fe4  1  0.00000000  0.39419800  0.75000000  1
  Fe  Fe5  1  0.50000000  0.10580200  0.25000000  1
  Fe  Fe6  1  0.50000000  0.89419800  0.75000000  1
  Fe  Fe7  1  0.00000000  0.60580200  0.25000000  1
  O  O8  1  0.28149700  0.45921500  0.24845900  1
  O  O9  1  0.31800650  0.20574150  0.35334200  1
  O  O10  1  0.78149700  0.04078500  0.74845900  1
  O  O11  1  0.81800650  0.29425850  0.85334200  1
  O  O12  1  0.68199350  0.20574150  0.14665800  1
  O  O13  1  0.71850300  0.45921500  0.25154100  1
  O  O14  1  0.18199350  0.29425850  0.64665800  1
  O  O15  1  0.21850300  0.04078500  0.75154100  1
  O  O16  1  0.78149700  0.95921500  0.24845900  1
  O  O17  1  0.81800650  0.70574150  0.35334200  1
  O  O18  1  0.28149700  0.54078500  0.74845900  1
  O  O19  1  0.31800650  0.79425850  0.85334200  1
  O  O20  1  0.18199350  0.70574150  0.14665800  1
  O  O21  1  0.21850300  0.95921500  0.25154100  1
  O  O22  1  0.68199350  0.79425850  0.64665800  1
  O  O23  1  0.71850300  0.54078500  0.75154100  1
