# generated using pymatgen
data_V2Cu3H6O11
_symmetry_space_group_name_H-M   'P 1'
_cell_length_a   10.95052948
_cell_length_b   5.90890200
_cell_length_c   7.19674848
_cell_angle_alpha   90.00000000
_cell_angle_beta   96.84401347
_cell_angle_gamma   90.00000000
_symmetry_Int_Tables_number   1
_chemical_formula_structural   V2Cu3H6O11
_chemical_formula_sum   'V4 Cu6 H12 O22'
_cell_volume   462.35172522
_cell_formula_units_Z   2
loop_
 _symmetry_equiv_pos_site_id
 _symmetry_equiv_pos_as_xyz
  1  'x, y, z'
loop_
 _atom_site_type_symbol
 _atom_site_label
 _atom_site_symmetry_multiplicity
 _atom_site_fract_x
 _atom_site_fract_y
 _atom_site_fract_z
 _atom_site_occupancy
  V  V0  1  0.49460200  0.00000000  0.25040300  1
  V  V1  1  0.00539800  0.50000000  0.74959700  1
  V  V2  1  0.99460200  0.50000000  0.25040300  1
  V  V3  1  0.50539800  0.00000000  0.74959700  1
  Cu  Cu4  1  0.00000000  0.00000000  0.00000000  1
  Cu  Cu5  1  0.25000000  0.75000000  0.00000000  1
  Cu  Cu6  1  0.25000000  0.25000000  0.00000000  1
  Cu  Cu7  1  0.50000000  0.50000000  0.00000000  1
  Cu  Cu8  1  0.75000000  0.25000000  0.00000000  1
  Cu  Cu9  1  0.75000000  0.75000000  0.00000000  1
  H  H10  1  0.34957000  0.50000000  0.26051300  1
  H  H11  1  0.15043000  0.00000000  0.73948700  1
  H  H12  1  0.35366200  0.62936500  0.56071500  1
  H  H13  1  0.35366200  0.37063500  0.56071500  1
  H  H14  1  0.14633800  0.87063500  0.43928500  1
  H  H15  1  0.14633800  0.12936500  0.43928500  1
  H  H16  1  0.84957000  0.00000000  0.26051300  1
  H  H17  1  0.65043000  0.50000000  0.73948700  1
  H  H18  1  0.85366200  0.12936500  0.56071500  1
  H  H19  1  0.85366200  0.87063500  0.56071500  1
  H  H20  1  0.64633800  0.37063500  0.43928500  1
  H  H21  1  0.64633800  0.62936500  0.43928500  1
  O  O22  1  0.00000000  0.50000000  0.50000000  1
  O  O23  1  0.34675300  0.50000000  0.11753900  1
  O  O24  1  0.15324700  0.00000000  0.88246100  1
  O  O25  1  0.07047750  0.73597850  0.18939300  1
  O  O26  1  0.07047750  0.26402150  0.18939300  1
  O  O27  1  0.42952250  0.76402150  0.81060700  1
  O  O28  1  0.42952250  0.23597850  0.81060700  1
  O  O29  1  0.16247600  0.50000000  0.85419900  1
  O  O30  1  0.33752400  0.00000000  0.14580100  1
  O  O31  1  0.33004500  0.50000000  0.47858500  1
  O  O32  1  0.16995500  0.00000000  0.52141500  1
  O  O33  1  0.50000000  0.00000000  0.50000000  1
  O  O34  1  0.84675300  0.00000000  0.11753900  1
  O  O35  1  0.65324700  0.50000000  0.88246100  1
  O  O36  1  0.57047750  0.23597850  0.18939300  1
  O  O37  1  0.57047750  0.76402150  0.18939300  1
  O  O38  1  0.92952250  0.26402150  0.81060700  1
  O  O39  1  0.92952250  0.73597850  0.81060700  1
  O  O40  1  0.66247600  0.00000000  0.85419900  1
  O  O41  1  0.83752400  0.50000000  0.14580100  1
  O  O42  1  0.83004500  0.00000000  0.47858500  1
  O  O43  1  0.66995500  0.50000000  0.52141500  1
