# generated using pymatgen
data_Mn2AlO4
_symmetry_space_group_name_H-M   'P 1'
_cell_length_a   4.96663400
_cell_length_b   6.29404200
_cell_length_c   10.41957200
_cell_angle_alpha   90.00000000
_cell_angle_beta   90.00000000
_cell_angle_gamma   90.00000000
_symmetry_Int_Tables_number   1
_chemical_formula_structural   Mn2AlO4
_chemical_formula_sum   'Mn8 Al4 O16'
_cell_volume   325.71793585
_cell_formula_units_Z   4
loop_
 _symmetry_equiv_pos_site_id
 _symmetry_equiv_pos_as_xyz
  1  'x, y, z'
loop_
 _atom_site_type_symbol
 _atom_site_label
 _atom_site_symmetry_multiplicity
 _atom_site_fract_x
 _atom_site_fract_y
 _atom_site_fract_z
 _atom_site_occupancy
  Mn  Mn0  1  0.50000000  0.00000000  0.50000000  1
  Mn  Mn1  1  0.50000000  0.50000000  0.50000000  1
  Mn  Mn2  1  0.96962700  0.25000000  0.27778450  1
  Mn  Mn3  1  0.03037300  0.75000000  0.72221550  1
  Mn  Mn4  1  0.00000000  0.00000000  0.00000000  1
  Mn  Mn5  1  0.00000000  0.50000000  0.00000000  1
  Mn  Mn6  1  0.46962700  0.75000000  0.22221550  1
  Mn  Mn7  1  0.53037300  0.25000000  0.77778450  1
  Al  Al8  1  0.42139800  0.25000000  0.08881850  1
  Al  Al9  1  0.92139800  0.75000000  0.41118150  1
  Al  Al10  1  0.07860200  0.25000000  0.58881850  1
  Al  Al11  1  0.57860200  0.75000000  0.91118150  1
  O  O12  1  0.75599800  0.75000000  0.06437550  1
  O  O13  1  0.25599800  0.25000000  0.43562450  1
  O  O14  1  0.74400200  0.75000000  0.56437550  1
  O  O15  1  0.24400200  0.25000000  0.93562450  1
  O  O16  1  0.76921900  0.25000000  0.09349750  1
  O  O17  1  0.26921900  0.75000000  0.40650250  1
  O  O18  1  0.73078100  0.25000000  0.59349750  1
  O  O19  1  0.23078100  0.75000000  0.90650250  1
  O  O20  1  0.24779400  0.02062800  0.14882450  1
  O  O21  1  0.24779400  0.47937200  0.14882450  1
  O  O22  1  0.74779400  0.52062800  0.35117550  1
  O  O23  1  0.74779400  0.97937200  0.35117550  1
  O  O24  1  0.25220600  0.02062800  0.64882450  1
  O  O25  1  0.25220600  0.47937200  0.64882450  1
  O  O26  1  0.75220600  0.52062800  0.85117550  1
  O  O27  1  0.75220600  0.97937200  0.85117550  1
