# generated using pymatgen
data_Li3Fe(OF)2
_symmetry_space_group_name_H-M   'P 1'
_cell_length_a   5.10936724
_cell_length_b   5.93689450
_cell_length_c   5.11444055
_cell_angle_alpha   90.00000000
_cell_angle_beta   108.80121845
_cell_angle_gamma   90.00000000
_symmetry_Int_Tables_number   1
_chemical_formula_structural   Li3Fe(OF)2
_chemical_formula_sum   'Li6 Fe2 O4 F4'
_cell_volume   146.86237267
_cell_formula_units_Z   2
loop_
 _symmetry_equiv_pos_site_id
 _symmetry_equiv_pos_as_xyz
  1  'x, y, z'
loop_
 _atom_site_type_symbol
 _atom_site_label
 _atom_site_symmetry_multiplicity
 _atom_site_fract_x
 _atom_site_fract_y
 _atom_site_fract_z
 _atom_site_occupancy
  Li  Li0  1  0.50000000  0.11703100  0.25000000  1
  Li  Li1  1  0.50000000  0.88296900  0.75000000  1
  Li  Li2  1  0.50000000  0.63988100  0.25000000  1
  Li  Li3  1  0.50000000  0.36011900  0.75000000  1
  Li  Li4  1  0.00000000  0.37327100  0.25000000  1
  Li  Li5  1  0.00000000  0.62672900  0.75000000  1
  Fe  Fe6  1  0.00000000  0.90271400  0.25000000  1
  Fe  Fe7  1  0.00000000  0.09728600  0.75000000  1
  O  O8  1  0.23242950  0.87689550  0.00709900  1
  O  O9  1  0.76757050  0.87689550  0.49290100  1
  O  O10  1  0.23242950  0.12310450  0.50709900  1
  O  O11  1  0.76757050  0.12310450  0.99290100  1
  F  F12  1  0.75288800  0.62350600  0.00908050  1
  F  F13  1  0.75288800  0.37649400  0.50908050  1
  F  F14  1  0.24711200  0.62350600  0.49091950  1
  F  F15  1  0.24711200  0.37649400  0.99091950  1
