# generated using pymatgen
data_AlFeO3
_symmetry_space_group_name_H-M   'P 1'
_cell_length_a   4.86811200
_cell_length_b   5.12117900
_cell_length_c   7.33976900
_cell_angle_alpha   90.00000000
_cell_angle_beta   90.00000000
_cell_angle_gamma   90.00000000
_symmetry_Int_Tables_number   1
_chemical_formula_structural   AlFeO3
_chemical_formula_sum   'Al4 Fe4 O12'
_cell_volume   182.98391250
_cell_formula_units_Z   4
loop_
 _symmetry_equiv_pos_site_id
 _symmetry_equiv_pos_as_xyz
  1  'x, y, z'
loop_
 _atom_site_type_symbol
 _atom_site_label
 _atom_site_symmetry_multiplicity
 _atom_site_fract_x
 _atom_site_fract_y
 _atom_site_fract_z
 _atom_site_occupancy
  Al  Al0  1  0.00000000  0.50000000  0.00000000  1
  Al  Al1  1  0.00000000  0.50000000  0.50000000  1
  Al  Al2  1  0.50000000  0.00000000  0.00000000  1
  Al  Al3  1  0.50000000  0.00000000  0.50000000  1
  Fe  Fe4  1  0.47628450  0.43692550  0.75000000  1
  Fe  Fe5  1  0.52371550  0.56307450  0.25000000  1
  Fe  Fe6  1  0.02371550  0.93692550  0.75000000  1
  Fe  Fe7  1  0.97628450  0.06307450  0.25000000  1
  O  O8  1  0.13832850  0.43651050  0.25000000  1
  O  O9  1  0.36167150  0.93651050  0.25000000  1
  O  O10  1  0.63832850  0.06348950  0.75000000  1
  O  O11  1  0.86167150  0.56348950  0.75000000  1
  O  O12  1  0.19002850  0.19364850  0.57166500  1
  O  O13  1  0.19002850  0.19364850  0.92833500  1
  O  O14  1  0.30997150  0.69364850  0.92833500  1
  O  O15  1  0.30997150  0.69364850  0.57166500  1
  O  O16  1  0.69002850  0.30635150  0.07166500  1
  O  O17  1  0.69002850  0.30635150  0.42833500  1
  O  O18  1  0.80997150  0.80635150  0.07166500  1
  O  O19  1  0.80997150  0.80635150  0.42833500  1
