# generated using pymatgen
data_Li2Fe2(SO4)3
_symmetry_space_group_name_H-M   'P 1'
_cell_length_a   13.35968000
_cell_length_b   8.68750200
_cell_length_c   8.86178716
_cell_angle_alpha   90.00000000
_cell_angle_beta   116.41886777
_cell_angle_gamma   90.00000000
_symmetry_Int_Tables_number   1
_chemical_formula_structural   Li2Fe2(SO4)3
_chemical_formula_sum   'Li8 Fe8 S12 O48'
_cell_volume   921.10585320
_cell_formula_units_Z   4
loop_
 _symmetry_equiv_pos_site_id
 _symmetry_equiv_pos_as_xyz
  1  'x, y, z'
loop_
 _atom_site_type_symbol
 _atom_site_label
 _atom_site_symmetry_multiplicity
 _atom_site_fract_x
 _atom_site_fract_y
 _atom_site_fract_z
 _atom_site_occupancy
  Li  Li0  1  0.26580950  0.59697550  0.94413800  1
  Li  Li1  1  0.26580950  0.40302450  0.44413800  1
  Li  Li2  1  0.73419050  0.59697550  0.55586200  1
  Li  Li3  1  0.73419050  0.40302450  0.05586200  1
  Li  Li4  1  0.76580950  0.09697550  0.94413800  1
  Li  Li5  1  0.76580950  0.90302450  0.44413800  1
  Li  Li6  1  0.23419050  0.09697550  0.55586200  1
  Li  Li7  1  0.23419050  0.90302450  0.05586200  1
  Fe  Fe8  1  0.12054400  0.75279500  0.51461000  1
  Fe  Fe9  1  0.12054400  0.24720500  0.01461000  1
  Fe  Fe10  1  0.87945600  0.75279500  0.98539000  1
  Fe  Fe11  1  0.87945600  0.24720500  0.48539000  1
  Fe  Fe12  1  0.62054400  0.25279500  0.51461000  1
  Fe  Fe13  1  0.62054400  0.74720500  0.01461000  1
  Fe  Fe14  1  0.37945600  0.25279500  0.98539000  1
  Fe  Fe15  1  0.37945600  0.74720500  0.48539000  1
  S  S16  1  0.14600300  0.39524600  0.67690800  1
  S  S17  1  0.14600300  0.60475400  0.17690800  1
  S  S18  1  0.00000000  0.93998200  0.75000000  1
  S  S19  1  0.00000000  0.06001800  0.25000000  1
  S  S20  1  0.85399700  0.39524600  0.82309200  1
  S  S21  1  0.85399700  0.60475400  0.32309200  1
  S  S22  1  0.64600300  0.89524600  0.67690800  1
  S  S23  1  0.64600300  0.10475400  0.17690800  1
  S  S24  1  0.50000000  0.43998200  0.75000000  1
  S  S25  1  0.50000000  0.56001800  0.25000000  1
  S  S26  1  0.35399700  0.89524600  0.82309200  1
  S  S27  1  0.35399700  0.10475400  0.32309200  1
  O  O28  1  0.41236000  0.53923300  0.61638000  1
  O  O29  1  0.41236000  0.46076700  0.11638000  1
  O  O30  1  0.18920000  0.31476200  0.57181300  1
  O  O31  1  0.17513300  0.56291500  0.68790300  1
  O  O32  1  0.20591200  0.33827600  0.85893200  1
  O  O33  1  0.18920000  0.68523800  0.07181300  1
  O  O34  1  0.05728650  0.84479650  0.67624200  1
  O  O35  1  0.02603750  0.37202850  0.61733900  1
  O  O36  1  0.17513300  0.43708500  0.18790300  1
  O  O37  1  0.20591200  0.66172400  0.35893200  1
  O  O38  1  0.05728650  0.15520350  0.17624200  1
  O  O39  1  0.97396250  0.37202850  0.88266100  1
  O  O40  1  0.02603750  0.62797150  0.11733900  1
  O  O41  1  0.94271350  0.84479650  0.82375800  1
  O  O42  1  0.79408800  0.33827600  0.64106800  1
  O  O43  1  0.82486700  0.56291500  0.81209700  1
  O  O44  1  0.97396250  0.62797150  0.38266100  1
  O  O45  1  0.94271350  0.15520350  0.32375800  1
  O  O46  1  0.81080000  0.31476200  0.92818700  1
  O  O47  1  0.79408800  0.66172400  0.14106800  1
  O  O48  1  0.82486700  0.43708500  0.31209700  1
  O  O49  1  0.81080000  0.68523800  0.42818700  1
  O  O50  1  0.58764000  0.53923300  0.88362000  1
  O  O51  1  0.58764000  0.46076700  0.38362000  1
  O  O52  1  0.91236000  0.03923300  0.61638000  1
  O  O53  1  0.91236000  0.96076700  0.11638000  1
  O  O54  1  0.68920000  0.81476200  0.57181300  1
  O  O55  1  0.67513300  0.06291500  0.68790300  1
  O  O56  1  0.70591200  0.83827600  0.85893200  1
  O  O57  1  0.68920000  0.18523800  0.07181300  1
  O  O58  1  0.55728650  0.34479650  0.67624200  1
  O  O59  1  0.52603750  0.87202850  0.61733900  1
  O  O60  1  0.67513300  0.93708500  0.18790300  1
  O  O61  1  0.70591200  0.16172400  0.35893200  1
  O  O62  1  0.55728650  0.65520350  0.17624200  1
  O  O63  1  0.47396250  0.87202850  0.88266100  1
  O  O64  1  0.52603750  0.12797150  0.11733900  1
  O  O65  1  0.44271350  0.34479650  0.82375800  1
  O  O66  1  0.29408800  0.83827600  0.64106800  1
  O  O67  1  0.32486700  0.06291500  0.81209700  1
  O  O68  1  0.47396250  0.12797150  0.38266100  1
  O  O69  1  0.44271350  0.65520350  0.32375800  1
  O  O70  1  0.31080000  0.81476200  0.92818700  1
  O  O71  1  0.29408800  0.16172400  0.14106800  1
  O  O72  1  0.32486700  0.93708500  0.31209700  1
  O  O73  1  0.31080000  0.18523800  0.42818700  1
  O  O74  1  0.08764000  0.03923300  0.88362000  1
  O  O75  1  0.08764000  0.96076700  0.38362000  1
