# generated using pymatgen
data_Fe4O5F3
_symmetry_space_group_name_H-M   'P 1'
_cell_length_a   6.41331200
_cell_length_b   7.05288200
_cell_length_c   12.09777200
_cell_angle_alpha   90.00000000
_cell_angle_beta   90.00000000
_cell_angle_gamma   90.00000000
_symmetry_Int_Tables_number   1
_chemical_formula_structural   Fe4O5F3
_chemical_formula_sum   'Fe16 O20 F12'
_cell_volume   547.21044882
_cell_formula_units_Z   4
loop_
 _symmetry_equiv_pos_site_id
 _symmetry_equiv_pos_as_xyz
  1  'x, y, z'
loop_
 _atom_site_type_symbol
 _atom_site_label
 _atom_site_symmetry_multiplicity
 _atom_site_fract_x
 _atom_site_fract_y
 _atom_site_fract_z
 _atom_site_occupancy
  Fe  Fe0  1  0.50000000  0.50870000  0.12836900  1
  Fe  Fe1  1  0.50000000  0.50870000  0.37163100  1
  Fe  Fe2  1  0.50000000  0.49130000  0.62836900  1
  Fe  Fe3  1  0.50000000  0.49130000  0.87163100  1
  Fe  Fe4  1  0.50000000  0.96802300  0.25000000  1
  Fe  Fe5  1  0.50000000  0.03197700  0.75000000  1
  Fe  Fe6  1  0.50000000  0.00000000  0.00000000  1
  Fe  Fe7  1  0.50000000  0.00000000  0.50000000  1
  Fe  Fe8  1  0.00000000  0.00870000  0.12836900  1
  Fe  Fe9  1  0.00000000  0.00870000  0.37163100  1
  Fe  Fe10  1  0.00000000  0.99130000  0.62836900  1
  Fe  Fe11  1  0.00000000  0.99130000  0.87163100  1
  Fe  Fe12  1  0.00000000  0.46802300  0.25000000  1
  Fe  Fe13  1  0.00000000  0.53197700  0.75000000  1
  Fe  Fe14  1  0.00000000  0.50000000  0.00000000  1
  Fe  Fe15  1  0.00000000  0.50000000  0.50000000  1
  O  O16  1  0.50000000  0.31429400  0.75000000  1
  O  O17  1  0.30571950  0.99568050  0.11890100  1
  O  O18  1  0.30571950  0.99568050  0.38109900  1
  O  O19  1  0.30571950  0.00431950  0.61890100  1
  O  O20  1  0.30571950  0.00431950  0.88109900  1
  O  O21  1  0.69428050  0.99568050  0.11890100  1
  O  O22  1  0.69428050  0.99568050  0.38109900  1
  O  O23  1  0.69428050  0.00431950  0.61890100  1
  O  O24  1  0.69428050  0.00431950  0.88109900  1
  O  O25  1  0.50000000  0.68570600  0.25000000  1
  O  O26  1  0.00000000  0.81429400  0.75000000  1
  O  O27  1  0.80571950  0.49568050  0.11890100  1
  O  O28  1  0.80571950  0.49568050  0.38109900  1
  O  O29  1  0.80571950  0.50431950  0.61890100  1
  O  O30  1  0.80571950  0.50431950  0.88109900  1
  O  O31  1  0.19428050  0.49568050  0.11890100  1
  O  O32  1  0.19428050  0.49568050  0.38109900  1
  O  O33  1  0.19428050  0.50431950  0.61890100  1
  O  O34  1  0.19428050  0.50431950  0.88109900  1
  O  O35  1  0.00000000  0.18570600  0.25000000  1
  F  F36  1  0.50000000  0.30421100  0.25000000  1
  F  F37  1  0.50000000  0.30948500  0.49840300  1
  F  F38  1  0.50000000  0.30948500  0.00159700  1
  F  F39  1  0.50000000  0.69051500  0.50159700  1
  F  F40  1  0.50000000  0.69578900  0.75000000  1
  F  F41  1  0.50000000  0.69051500  0.99840300  1
  F  F42  1  0.00000000  0.80421100  0.25000000  1
  F  F43  1  0.00000000  0.80948500  0.49840300  1
  F  F44  1  0.00000000  0.80948500  0.00159700  1
  F  F45  1  0.00000000  0.19051500  0.50159700  1
  F  F46  1  0.00000000  0.19578900  0.75000000  1
  F  F47  1  0.00000000  0.19051500  0.99840300  1
