# generated using pymatgen
data_Mn3TeO8
_symmetry_space_group_name_H-M   'P 1'
_cell_length_a   6.00369460
_cell_length_b   6.00369460
_cell_length_c   15.12520863
_cell_angle_alpha   90.00000000
_cell_angle_beta   90.00000000
_cell_angle_gamma   120.00000000
_symmetry_Int_Tables_number   1
_chemical_formula_structural   Mn3TeO8
_chemical_formula_sum   'Mn9 Te3 O24'
_cell_volume   472.13825482
_cell_formula_units_Z   3
loop_
 _symmetry_equiv_pos_site_id
 _symmetry_equiv_pos_as_xyz
  1  'x, y, z'
loop_
 _atom_site_type_symbol
 _atom_site_label
 _atom_site_symmetry_multiplicity
 _atom_site_fract_x
 _atom_site_fract_y
 _atom_site_fract_z
 _atom_site_occupancy
  Mn  Mn0  1  0.50000000  0.50000000  0.00000000  1
  Mn  Mn1  1  0.00000000  0.50000000  0.00000000  1
  Mn  Mn2  1  0.50000000  0.00000000  0.00000000  1
  Mn  Mn3  1  0.16666667  0.83333333  0.33333333  1
  Mn  Mn4  1  0.66666667  0.83333333  0.33333333  1
  Mn  Mn5  1  0.16666667  0.33333333  0.33333333  1
  Mn  Mn6  1  0.83333333  0.16666667  0.66666667  1
  Mn  Mn7  1  0.33333333  0.16666667  0.66666667  1
  Mn  Mn8  1  0.83333333  0.66666667  0.66666667  1
  Te  Te9  1  0.33333333  0.66666667  0.16666667  1
  Te  Te10  1  1.00000000  1.00000000  0.50000000  1
  Te  Te11  1  0.66666667  0.33333333  0.83333333  1
  O  O12  1  0.00000000  0.00000000  0.27527000  1
  O  O13  1  0.18557367  0.37114733  0.08543033  1
  O  O14  1  0.62885267  0.81442633  0.08543033  1
  O  O15  1  0.18557367  0.81442633  0.08543033  1
  O  O16  1  0.48109300  0.51890700  0.24790300  1
  O  O17  1  0.03781400  0.51890700  0.24790300  1
  O  O18  1  0.48109300  0.96218600  0.24790300  1
  O  O19  1  0.66666667  0.33333333  0.05806333  1
  O  O20  1  0.66666667  0.33333333  0.60860333  1
  O  O21  1  0.85224033  0.70448067  0.41876367  1
  O  O22  1  0.29551933  0.14775967  0.41876367  1
  O  O23  1  0.85224033  0.14775967  0.41876367  1
  O  O24  1  0.14775967  0.85224033  0.58123633  1
  O  O25  1  0.70448067  0.85224033  0.58123633  1
  O  O26  1  0.14775967  0.29551933  0.58123633  1
  O  O27  1  0.33333333  0.66666667  0.39139667  1
  O  O28  1  0.33333333  0.66666667  0.94193667  1
  O  O29  1  0.51890700  0.03781400  0.75209700  1
  O  O30  1  0.96218600  0.48109300  0.75209700  1
  O  O31  1  0.51890700  0.48109300  0.75209700  1
  O  O32  1  0.81442633  0.18557367  0.91456967  1
  O  O33  1  0.37114733  0.18557367  0.91456967  1
  O  O34  1  0.81442633  0.62885267  0.91456967  1
  O  O35  1  0.00000000  0.00000000  0.72473000  1
