# generated using pymatgen
data_Ti3NbV2(PO4)6
_symmetry_space_group_name_H-M   'P 1'
_cell_length_a   8.76758233
_cell_length_b   8.76758233
_cell_length_c   20.93168251
_cell_angle_alpha   90.00000000
_cell_angle_beta   90.00000000
_cell_angle_gamma   120.00000000
_symmetry_Int_Tables_number   1
_chemical_formula_structural   Ti3NbV2(PO4)6
_chemical_formula_sum   'Ti9 Nb3 V6 P18 O72'
_cell_volume   1393.45989979
_cell_formula_units_Z   3
loop_
 _symmetry_equiv_pos_site_id
 _symmetry_equiv_pos_as_xyz
  1  'x, y, z'
loop_
 _atom_site_type_symbol
 _atom_site_label
 _atom_site_symmetry_multiplicity
 _atom_site_fract_x
 _atom_site_fract_y
 _atom_site_fract_z
 _atom_site_occupancy
  Ti  Ti0  1  0.00000000  0.00000000  0.35591833  1
  Ti  Ti1  1  0.00000000  0.00000000  0.14358467  1
  Ti  Ti2  1  0.00000000  0.00000000  0.64504867  1
  Ti  Ti3  1  0.66666667  0.33333333  0.68925167  1
  Ti  Ti4  1  0.66666667  0.33333333  0.47691800  1
  Ti  Ti5  1  0.66666667  0.33333333  0.97838200  1
  Ti  Ti6  1  0.33333333  0.66666667  0.02258500  1
  Ti  Ti7  1  0.33333333  0.66666667  0.81025133  1
  Ti  Ti8  1  0.33333333  0.66666667  0.31171533  1
  Nb  Nb9  1  0.00000000  0.00000000  0.85800000  1
  Nb  Nb10  1  0.66666667  0.33333333  0.19133333  1
  Nb  Nb11  1  0.33333333  0.66666667  0.52466667  1
  V  V12  1  0.00000000  0.00000000  0.99919200  1
  V  V13  1  0.00000000  0.00000000  0.50002333  1
  V  V14  1  0.66666667  0.33333333  0.33252533  1
  V  V15  1  0.66666667  0.33333333  0.83335667  1
  V  V16  1  0.33333333  0.66666667  0.66585867  1
  V  V17  1  0.33333333  0.66666667  0.16669000  1
  P  P18  1  0.63012733  0.96422067  0.41584767  1
  P  P19  1  0.03577933  0.66590667  0.41584767  1
  P  P20  1  0.33409333  0.36987267  0.41584767  1
  P  P21  1  0.67417933  0.62725867  0.58329067  1
  P  P22  1  0.95307933  0.32582067  0.58329067  1
  P  P23  1  0.37274133  0.04692067  0.58329067  1
  P  P24  1  0.29679400  0.29755400  0.74918100  1
  P  P25  1  0.70244600  0.99924000  0.74918100  1
  P  P26  1  0.00076000  0.70320600  0.74918100  1
  P  P27  1  0.34084600  0.96059200  0.91662400  1
  P  P28  1  0.61974600  0.65915400  0.91662400  1
  P  P29  1  0.03940800  0.38025400  0.91662400  1
  P  P30  1  0.96346067  0.63088733  0.08251433  1
  P  P31  1  0.36911267  0.33257333  0.08251433  1
  P  P32  1  0.66742667  0.03653933  0.08251433  1
  P  P33  1  0.00751267  0.29392533  0.24995733  1
  P  P34  1  0.28641267  0.99248733  0.24995733  1
  P  P35  1  0.70607467  0.71358733  0.24995733  1
  O  O36  1  0.81029400  0.00637600  0.69053800  1
  O  O37  1  0.99362400  0.80391800  0.69053800  1
  O  O38  1  0.19608200  0.18970600  0.69053800  1
  O  O39  1  0.65019300  0.15021300  0.40876600  1
  O  O40  1  0.53027000  0.87271700  0.47781200  1
  O  O41  1  0.81661867  0.98474433  0.42298933  1
  O  O42  1  0.84978700  0.49998000  0.40876600  1
  O  O43  1  0.01525567  0.83187433  0.42298933  1
  O  O44  1  0.66411767  0.52482533  0.52258933  1
  O  O45  1  0.16812567  0.18338133  0.42298933  1
  O  O46  1  0.50754300  0.64910400  0.59082200  1
  O  O47  1  0.86070767  0.33588233  0.52258933  1
  O  O48  1  0.12728300  0.65755300  0.47781200  1
  O  O49  1  0.50002000  0.34980700  0.40876600  1
  O  O50  1  0.83788700  0.81488800  0.57681800  1
  O  O51  1  0.34244700  0.46973000  0.47781200  1
  O  O52  1  0.97700100  0.16211300  0.57681800  1
  O  O53  1  0.14156100  0.49245700  0.59082200  1
  O  O54  1  0.18511200  0.02299900  0.57681800  1
  O  O55  1  0.47517467  0.13929233  0.52258933  1
  O  O56  1  0.35089600  0.85843900  0.59082200  1
  O  O57  1  0.80183800  0.81659800  0.30993500  1
  O  O58  1  0.01476000  0.19816200  0.30993500  1
  O  O59  1  0.18340200  0.98524000  0.30993500  1
  O  O60  1  0.47696067  0.33970933  0.02387133  1
  O  O61  1  0.66029067  0.13725133  0.02387133  1
  O  O62  1  0.86274867  0.52303933  0.02387133  1
  O  O63  1  0.31685967  0.48354633  0.74209933  1
  O  O64  1  0.19693667  0.20605033  0.81114533  1
  O  O65  1  0.48328533  0.31807767  0.75632267  1
  O  O66  1  0.51645367  0.83331333  0.74209933  1
  O  O67  1  0.68192233  0.16520767  0.75632267  1
  O  O68  1  0.33078433  0.85815867  0.85592267  1
  O  O69  1  0.83479233  0.51671467  0.75632267  1
  O  O70  1  0.17420967  0.98243733  0.92415533  1
  O  O71  1  0.52737433  0.66921567  0.85592267  1
  O  O72  1  0.79394967  0.99088633  0.81114533  1
  O  O73  1  0.16668667  0.68314033  0.74209933  1
  O  O74  1  0.50455367  0.14822133  0.91015133  1
  O  O75  1  0.00911367  0.80306333  0.81114533  1
  O  O76  1  0.64366767  0.49544633  0.91015133  1
  O  O77  1  0.80822767  0.82579033  0.92415533  1
  O  O78  1  0.85177867  0.35633233  0.91015133  1
  O  O79  1  0.14184133  0.47262567  0.85592267  1
  O  O80  1  0.01756267  0.19177233  0.92415533  1
  O  O81  1  0.46850467  0.14993133  0.64326833  1
  O  O82  1  0.68142667  0.53149533  0.64326833  1
  O  O83  1  0.85006867  0.31857333  0.64326833  1
  O  O84  1  0.14362733  0.67304267  0.35720467  1
  O  O85  1  0.32695733  0.47058467  0.35720467  1
  O  O86  1  0.52941533  0.85637267  0.35720467  1
  O  O87  1  0.98352633  0.81687967  0.07543267  1
  O  O88  1  0.86360333  0.53938367  0.14447867  1
  O  O89  1  0.14995200  0.65141100  0.08965600  1
  O  O90  1  0.18312033  0.16664667  0.07543267  1
  O  O91  1  0.34858900  0.49854100  0.08965600  1
  O  O92  1  0.99745100  0.19149200  0.18925600  1
  O  O93  1  0.50145900  0.85004800  0.08965600  1
  O  O94  1  0.84087633  0.31577067  0.25748867  1
  O  O95  1  0.19404100  0.00254900  0.18925600  1
  O  O96  1  0.46061633  0.32421967  0.14447867  1
  O  O97  1  0.83335333  0.01647367  0.07543267  1
  O  O98  1  0.17122033  0.48155467  0.24348467  1
  O  O99  1  0.67578033  0.13639667  0.14447867  1
  O  O100  1  0.31033433  0.82877967  0.24348467  1
  O  O101  1  0.47489433  0.15912367  0.25748867  1
  O  O102  1  0.51844533  0.68966567  0.24348467  1
  O  O103  1  0.80850800  0.80595900  0.18925600  1
  O  O104  1  0.68422933  0.52510567  0.25748867  1
  O  O105  1  0.13517133  0.48326467  0.97660167  1
  O  O106  1  0.34809333  0.86482867  0.97660167  1
  O  O107  1  0.51673533  0.65190667  0.97660167  1
