# generated using pymatgen
data_MgV3O8
_symmetry_space_group_name_H-M   'P 1'
_cell_length_a   10.54683200
_cell_length_b   8.69171000
_cell_length_c   13.95579085
_cell_angle_alpha   90.00000000
_cell_angle_beta   101.11357964
_cell_angle_gamma   90.00000000
_symmetry_Int_Tables_number   1
_chemical_formula_structural   MgV3O8
_chemical_formula_sum   'Mg8 V24 O64'
_cell_volume   1255.33620096
_cell_formula_units_Z   8
loop_
 _symmetry_equiv_pos_site_id
 _symmetry_equiv_pos_as_xyz
  1  'x, y, z'
loop_
 _atom_site_type_symbol
 _atom_site_label
 _atom_site_symmetry_multiplicity
 _atom_site_fract_x
 _atom_site_fract_y
 _atom_site_fract_z
 _atom_site_occupancy
  Mg  Mg0  1  0.28202150  0.56866050  0.14547700  1
  Mg  Mg1  1  0.71797850  0.56866050  0.35452300  1
  Mg  Mg2  1  0.28202150  0.43133950  0.64547700  1
  Mg  Mg3  1  0.71797850  0.43133950  0.85452300  1
  Mg  Mg4  1  0.78202150  0.06866050  0.14547700  1
  Mg  Mg5  1  0.21797850  0.06866050  0.35452300  1
  Mg  Mg6  1  0.78202150  0.93133950  0.64547700  1
  Mg  Mg7  1  0.21797850  0.93133950  0.85452300  1
  V  V8  1  0.98432350  0.74926050  0.11155100  1
  V  V9  1  0.01567650  0.74926050  0.38844900  1
  V  V10  1  0.07871850  0.75039650  0.64645200  1
  V  V11  1  0.78083000  0.43201200  0.13373300  1
  V  V12  1  0.92128150  0.75039650  0.85354800  1
  V  V13  1  0.21917000  0.43201200  0.36626700  1
  V  V14  1  0.78083000  0.56798800  0.63373300  1
  V  V15  1  0.07871850  0.24960350  0.14645200  1
  V  V16  1  0.21917000  0.56798800  0.86626700  1
  V  V17  1  0.92128150  0.24960350  0.35354800  1
  V  V18  1  0.98432350  0.25073950  0.61155100  1
  V  V19  1  0.01567650  0.25073950  0.88844900  1
  V  V20  1  0.48432350  0.24926050  0.11155100  1
  V  V21  1  0.51567650  0.24926050  0.38844900  1
  V  V22  1  0.57871850  0.25039650  0.64645200  1
  V  V23  1  0.28083000  0.93201200  0.13373300  1
  V  V24  1  0.42128150  0.25039650  0.85354800  1
  V  V25  1  0.71917000  0.93201200  0.36626700  1
  V  V26  1  0.28083000  0.06798800  0.63373300  1
  V  V27  1  0.57871850  0.74960350  0.14645200  1
  V  V28  1  0.71917000  0.06798800  0.86626700  1
  V  V29  1  0.42128150  0.74960350  0.35354800  1
  V  V30  1  0.48432350  0.75073950  0.61155100  1
  V  V31  1  0.51567650  0.75073950  0.88844900  1
  O  O32  1  0.15615450  0.75429450  0.14198700  1
  O  O33  1  0.07904850  0.90889950  0.35111600  1
  O  O34  1  0.07918200  0.58763800  0.34682500  1
  O  O35  1  0.07192900  0.74509500  0.52048900  1
  O  O36  1  0.92081800  0.58763800  0.15317500  1
  O  O37  1  0.92095150  0.90889950  0.14888400  1
  O  O38  1  0.08799950  0.74459850  0.84209500  1
  O  O39  1  0.33442750  0.58280550  0.31243700  1
  O  O40  1  0.83705950  0.40896150  0.30660200  1
  O  O41  1  0.84384550  0.75429450  0.35801300  1
  O  O42  1  0.24999050  0.55587750  0.98795800  1
  O  O43  1  0.75000950  0.44412250  0.01204200  1
  O  O44  1  0.91200050  0.74459850  0.65790500  1
  O  O45  1  0.92807100  0.74509500  0.97951100  1
  O  O46  1  0.33442750  0.41719450  0.81243700  1
  O  O47  1  0.83705950  0.59103850  0.80660200  1
  O  O48  1  0.24999050  0.44412250  0.48795800  1
  O  O49  1  0.75000950  0.55587750  0.51204200  1
  O  O50  1  0.66557250  0.58280550  0.18756300  1
  O  O51  1  0.16294050  0.40896150  0.19339800  1
  O  O52  1  0.07192900  0.25490500  0.02048900  1
  O  O53  1  0.08799950  0.25540150  0.34209500  1
  O  O54  1  0.15615450  0.24570550  0.64198700  1
  O  O55  1  0.16294050  0.59103850  0.69339800  1
  O  O56  1  0.66557250  0.41719450  0.68756300  1
  O  O57  1  0.91200050  0.25540150  0.15790500  1
  O  O58  1  0.07918200  0.41236200  0.84682500  1
  O  O59  1  0.07904850  0.09110050  0.85111600  1
  O  O60  1  0.92807100  0.25490500  0.47951100  1
  O  O61  1  0.92081800  0.41236200  0.65317500  1
  O  O62  1  0.92095150  0.09110050  0.64888400  1
  O  O63  1  0.84384550  0.24570550  0.85801300  1
  O  O64  1  0.65615450  0.25429450  0.14198700  1
  O  O65  1  0.57904850  0.40889950  0.35111600  1
  O  O66  1  0.57918200  0.08763800  0.34682500  1
  O  O67  1  0.57192900  0.24509500  0.52048900  1
  O  O68  1  0.42081800  0.08763800  0.15317500  1
  O  O69  1  0.42095150  0.40889950  0.14888400  1
  O  O70  1  0.58799950  0.24459850  0.84209500  1
  O  O71  1  0.83442750  0.08280550  0.31243700  1
  O  O72  1  0.33705950  0.90896150  0.30660200  1
  O  O73  1  0.34384550  0.25429450  0.35801300  1
  O  O74  1  0.74999050  0.05587750  0.98795800  1
  O  O75  1  0.25000950  0.94412250  0.01204200  1
  O  O76  1  0.41200050  0.24459850  0.65790500  1
  O  O77  1  0.42807100  0.24509500  0.97951100  1
  O  O78  1  0.83442750  0.91719450  0.81243700  1
  O  O79  1  0.33705950  0.09103850  0.80660200  1
  O  O80  1  0.74999050  0.94412250  0.48795800  1
  O  O81  1  0.25000950  0.05587750  0.51204200  1
  O  O82  1  0.16557250  0.08280550  0.18756300  1
  O  O83  1  0.66294050  0.90896150  0.19339800  1
  O  O84  1  0.57192900  0.75490500  0.02048900  1
  O  O85  1  0.58799950  0.75540150  0.34209500  1
  O  O86  1  0.65615450  0.74570550  0.64198700  1
  O  O87  1  0.66294050  0.09103850  0.69339800  1
  O  O88  1  0.16557250  0.91719450  0.68756300  1
  O  O89  1  0.41200050  0.75540150  0.15790500  1
  O  O90  1  0.57918200  0.91236200  0.84682500  1
  O  O91  1  0.57904850  0.59110050  0.85111600  1
  O  O92  1  0.42807100  0.75490500  0.47951100  1
  O  O93  1  0.42081800  0.91236200  0.65317500  1
  O  O94  1  0.42095150  0.59110050  0.64888400  1
  O  O95  1  0.34384550  0.74570550  0.85801300  1
