# generated using pymatgen
data_LiMnF4
_symmetry_space_group_name_H-M   'P 1'
_cell_length_a   11.27904800
_cell_length_b   5.50277000
_cell_length_c   4.92755426
_cell_angle_alpha   90.00000000
_cell_angle_beta   114.69722681
_cell_angle_gamma   90.00000000
_symmetry_Int_Tables_number   1
_chemical_formula_structural   LiMnF4
_chemical_formula_sum   'Li4 Mn4 F16'
_cell_volume   277.85852749
_cell_formula_units_Z   4
loop_
 _symmetry_equiv_pos_site_id
 _symmetry_equiv_pos_as_xyz
  1  'x, y, z'
loop_
 _atom_site_type_symbol
 _atom_site_label
 _atom_site_symmetry_multiplicity
 _atom_site_fract_x
 _atom_site_fract_y
 _atom_site_fract_z
 _atom_site_occupancy
  Li  Li0  1  0.00468150  0.31951150  0.25593400  1
  Li  Li1  1  0.00468150  0.68048850  0.75593400  1
  Li  Li2  1  0.50468150  0.81951150  0.25593400  1
  Li  Li3  1  0.50468150  0.18048850  0.75593400  1
  Mn  Mn4  1  0.25448400  0.75324000  0.50140100  1
  Mn  Mn5  1  0.25448400  0.24676000  0.00140100  1
  Mn  Mn6  1  0.75448400  0.25324000  0.50140100  1
  Mn  Mn7  1  0.75448400  0.74676000  0.00140100  1
  F  F8  1  0.39809250  0.12254350  0.31581500  1
  F  F9  1  0.35653350  0.63085350  0.31497900  1
  F  F10  1  0.39809250  0.87745650  0.81581500  1
  F  F11  1  0.35653350  0.36914650  0.81497900  1
  F  F12  1  0.15420250  0.89105950  0.68566100  1
  F  F13  1  0.11430800  0.39648300  0.69248300  1
  F  F14  1  0.15420250  0.10894050  0.18566100  1
  F  F15  1  0.11430800  0.60351700  0.19248300  1
  F  F16  1  0.89809250  0.62254350  0.31581500  1
  F  F17  1  0.85653350  0.13085350  0.31497900  1
  F  F18  1  0.89809250  0.37745650  0.81581500  1
  F  F19  1  0.85653350  0.86914650  0.81497900  1
  F  F20  1  0.65420250  0.39105950  0.68566100  1
  F  F21  1  0.61430800  0.89648300  0.69248300  1
  F  F22  1  0.65420250  0.60894050  0.18566100  1
  F  F23  1  0.61430800  0.10351700  0.19248300  1
