# generated using pymatgen
data_LiMnNiO4
_symmetry_space_group_name_H-M   'P 1'
_cell_length_a   5.73914600
_cell_length_b   5.75281000
_cell_length_c   8.47046000
_cell_angle_alpha   90.00000000
_cell_angle_beta   90.00000000
_cell_angle_gamma   90.00000000
_symmetry_Int_Tables_number   1
_chemical_formula_structural   LiMnNiO4
_chemical_formula_sum   'Li4 Mn4 Ni4 O16'
_cell_volume   279.66254122
_cell_formula_units_Z   4
loop_
 _symmetry_equiv_pos_site_id
 _symmetry_equiv_pos_as_xyz
  1  'x, y, z'
loop_
 _atom_site_type_symbol
 _atom_site_label
 _atom_site_symmetry_multiplicity
 _atom_site_fract_x
 _atom_site_fract_y
 _atom_site_fract_z
 _atom_site_occupancy
  Li  Li0  1  0.00000000  0.75000000  0.86892100  1
  Li  Li1  1  0.50000000  0.75000000  0.63107900  1
  Li  Li2  1  0.50000000  0.25000000  0.36892100  1
  Li  Li3  1  0.00000000  0.25000000  0.13107900  1
  Mn  Mn4  1  0.50000000  0.50000000  0.00000000  1
  Mn  Mn5  1  0.50000000  0.00000000  0.00000000  1
  Mn  Mn6  1  0.00000000  0.00000000  0.50000000  1
  Mn  Mn7  1  0.00000000  0.50000000  0.50000000  1
  Ni  Ni8  1  0.75000000  0.25000000  0.75000000  1
  Ni  Ni9  1  0.25000000  0.25000000  0.75000000  1
  Ni  Ni10  1  0.25000000  0.75000000  0.25000000  1
  Ni  Ni11  1  0.75000000  0.75000000  0.25000000  1
  O  O12  1  0.77740350  0.25000000  0.50166450  1
  O  O13  1  0.00000000  0.02861800  0.72908900  1
  O  O14  1  0.00000000  0.47138200  0.72908900  1
  O  O15  1  0.22259650  0.25000000  0.50166450  1
  O  O16  1  0.27740350  0.25000000  0.99833550  1
  O  O17  1  0.50000000  0.47138200  0.77091100  1
  O  O18  1  0.50000000  0.02861800  0.77091100  1
  O  O19  1  0.72259650  0.25000000  0.99833550  1
  O  O20  1  0.27740350  0.75000000  0.00166450  1
  O  O21  1  0.50000000  0.52861800  0.22908900  1
  O  O22  1  0.50000000  0.97138200  0.22908900  1
  O  O23  1  0.72259650  0.75000000  0.00166450  1
  O  O24  1  0.77740350  0.75000000  0.49833550  1
  O  O25  1  0.00000000  0.97138200  0.27091100  1
  O  O26  1  0.00000000  0.52861800  0.27091100  1
  O  O27  1  0.22259650  0.75000000  0.49833550  1
