# generated using pymatgen
data_Li2VP2HO8
_symmetry_space_group_name_H-M   'P 1'
_cell_length_a   4.86379381
_cell_length_b   8.16255903
_cell_length_c   7.62022345
_cell_angle_alpha   90.00000000
_cell_angle_beta   103.99741105
_cell_angle_gamma   90.00000000
_symmetry_Int_Tables_number   1
_chemical_formula_structural   Li2VP2HO8
_chemical_formula_sum   'Li4 V2 P4 H2 O16'
_cell_volume   293.54737991
_cell_formula_units_Z   2
loop_
 _symmetry_equiv_pos_site_id
 _symmetry_equiv_pos_as_xyz
  1  'x, y, z'
loop_
 _atom_site_type_symbol
 _atom_site_label
 _atom_site_symmetry_multiplicity
 _atom_site_fract_x
 _atom_site_fract_y
 _atom_site_fract_z
 _atom_site_occupancy
  Li  Li0  1  0.63130425  0.13602250  0.09358175  1
  Li  Li1  1  0.36869575  0.63602250  0.90641825  1
  Li  Li2  1  0.14351825  0.36263300  0.59172875  1
  Li  Li3  1  0.85648175  0.86263300  0.40827125  1
  V  V4  1  0.25134825  0.99998500  0.74648175  1
  V  V5  1  0.74865175  0.49998500  0.25351825  1
  P  P6  1  0.61852475  0.14924800  0.48096125  1
  P  P7  1  0.38147525  0.64924800  0.51903875  1
  P  P8  1  0.11699725  0.34729750  0.98631875  1
  P  P9  1  0.88300275  0.84729750  0.01368125  1
  H  H10  1  0.22198375  0.98977450  0.23869325  1
  H  H11  1  0.77801625  0.48977450  0.76130675  1
  O  O12  1  0.63871725  0.95873150  0.91320075  1
  O  O13  1  0.36128275  0.45873150  0.08679925  1
  O  O14  1  0.73730075  0.31687200  0.44042125  1
  O  O15  1  0.26269925  0.81687200  0.55957875  1
  O  O16  1  0.60149025  0.67175750  0.40219175  1
  O  O17  1  0.39850975  0.17175750  0.59780825  1
  O  O18  1  0.49096275  0.05893550  0.30138525  1
  O  O19  1  0.50903725  0.55893550  0.69861475  1
  O  O20  1  0.23273275  0.18304400  0.93734825  1
  O  O21  1  0.76726725  0.68304400  0.06265175  1
  O  O22  1  0.10769325  0.82653750  0.90292275  1
  O  O23  1  0.89230675  0.32653750  0.09707725  1
  O  O24  1  0.98797475  0.43912850  0.80178225  1
  O  O25  1  0.01202525  0.93912850  0.19821775  1
  O  O26  1  0.13510475  0.54010850  0.41209825  1
  O  O27  1  0.86489525  0.04010850  0.58790175  1
