# generated using pymatgen
data_Li4Ti3Cr3(TeO8)2
_symmetry_space_group_name_H-M   'P 1'
_cell_length_a   10.63855754
_cell_length_b   5.98813410
_cell_length_c   10.17215546
_cell_angle_alpha   90.00000000
_cell_angle_beta   90.20537121
_cell_angle_gamma   90.00000000
_symmetry_Int_Tables_number   1
_chemical_formula_structural   Li4Ti3Cr3(TeO8)2
_chemical_formula_sum   'Li8 Ti6 Cr6 Te4 O32'
_cell_volume   648.01411129
_cell_formula_units_Z   2
loop_
 _symmetry_equiv_pos_site_id
 _symmetry_equiv_pos_as_xyz
  1  'x, y, z'
loop_
 _atom_site_type_symbol
 _atom_site_label
 _atom_site_symmetry_multiplicity
 _atom_site_fract_x
 _atom_site_fract_y
 _atom_site_fract_z
 _atom_site_occupancy
  Li  Li0  1  0.66432850  0.00000000  0.89986300  1
  Li  Li1  1  0.50617325  0.50000000  0.99000550  1
  Li  Li2  1  0.99822275  0.00000000  0.49177050  1
  Li  Li3  1  0.83438375  0.50000000  0.40391550  1
  Li  Li4  1  0.16432850  0.50000000  0.89986300  1
  Li  Li5  1  0.00617325  0.00000000  0.99000550  1
  Li  Li6  1  0.49822275  0.50000000  0.49177050  1
  Li  Li7  1  0.33438375  0.00000000  0.40391550  1
  Ti  Ti8  1  0.67555075  0.50000000  0.72551550  1
  Ti  Ti9  1  0.59445825  0.74789475  0.22327550  1
  Ti  Ti10  1  0.59445825  0.25210525  0.22327550  1
  Ti  Ti11  1  0.17555075  0.00000000  0.72551550  1
  Ti  Ti12  1  0.09445825  0.24789475  0.22327550  1
  Ti  Ti13  1  0.09445825  0.75210525  0.22327550  1
  Cr  Cr14  1  0.91263500  0.25057250  0.71212200  1
  Cr  Cr15  1  0.91263500  0.74942750  0.71212200  1
  Cr  Cr16  1  0.83183200  0.00000000  0.21195600  1
  Cr  Cr17  1  0.41263500  0.75057250  0.71212200  1
  Cr  Cr18  1  0.41263500  0.24942750  0.71212200  1
  Cr  Cr19  1  0.33183200  0.50000000  0.21195600  1
  Te  Te20  1  0.65940000  0.00000000  0.50051000  1
  Te  Te21  1  0.85464800  0.50000000  0.99464900  1
  Te  Te22  1  0.15940000  0.50000000  0.50051000  1
  Te  Te23  1  0.35464800  0.00000000  0.99464900  1
  O  O24  1  0.51632950  0.00000000  0.33679100  1
  O  O25  1  0.66125600  0.00000000  0.11542100  1
  O  O26  1  0.99812675  0.00000000  0.30885650  1
  O  O27  1  0.50427725  0.50000000  0.80445850  1
  O  O28  1  0.64954325  0.50000000  0.11422750  1
  O  O29  1  0.84448575  0.00000000  0.60096650  1
  O  O30  1  0.82605000  0.50000000  0.61106400  1
  O  O31  1  0.97893725  0.50000000  0.83936450  1
  O  O32  1  0.57470175  0.74488925  0.60032850  1
  O  O33  1  0.57470175  0.25511075  0.60032850  1
  O  O34  1  0.73141050  0.75213450  0.33422000  1
  O  O35  1  0.73141050  0.24786550  0.33422000  1
  O  O36  1  0.75076075  0.26759475  0.81998550  1
  O  O37  1  0.75076075  0.73240525  0.81998550  1
  O  O38  1  0.93388800  0.25334150  0.08923300  1
  O  O39  1  0.93388800  0.74665850  0.08923300  1
  O  O40  1  0.01632950  0.50000000  0.33679100  1
  O  O41  1  0.16125600  0.50000000  0.11542100  1
  O  O42  1  0.49812675  0.50000000  0.30885650  1
  O  O43  1  0.00427725  0.00000000  0.80445850  1
  O  O44  1  0.14954325  0.00000000  0.11422750  1
  O  O45  1  0.34448575  0.50000000  0.60096650  1
  O  O46  1  0.32605000  0.00000000  0.61106400  1
  O  O47  1  0.47893725  0.00000000  0.83936450  1
  O  O48  1  0.07470175  0.24488925  0.60032850  1
  O  O49  1  0.07470175  0.75511075  0.60032850  1
  O  O50  1  0.23141050  0.25213450  0.33422000  1
  O  O51  1  0.23141050  0.74786550  0.33422000  1
  O  O52  1  0.25076075  0.76759475  0.81998550  1
  O  O53  1  0.25076075  0.23240525  0.81998550  1
  O  O54  1  0.43388800  0.75334150  0.08923300  1
  O  O55  1  0.43388800  0.24665850  0.08923300  1
