# generated using pymatgen
data_LiFeF4
_symmetry_space_group_name_H-M   'P 1'
_cell_length_a   10.69279800
_cell_length_b   5.67273000
_cell_length_c   5.32375247
_cell_angle_alpha   90.00000000
_cell_angle_beta   93.27893975
_cell_angle_gamma   90.00000000
_symmetry_Int_Tables_number   1
_chemical_formula_structural   LiFeF4
_chemical_formula_sum   'Li4 Fe4 F16'
_cell_volume   322.39609145
_cell_formula_units_Z   4
loop_
 _symmetry_equiv_pos_site_id
 _symmetry_equiv_pos_as_xyz
  1  'x, y, z'
loop_
 _atom_site_type_symbol
 _atom_site_label
 _atom_site_symmetry_multiplicity
 _atom_site_fract_x
 _atom_site_fract_y
 _atom_site_fract_z
 _atom_site_occupancy
  Li  Li0  1  0.75000000  0.25000000  0.00000000  1
  Li  Li1  1  0.75000000  0.75000000  0.50000000  1
  Li  Li2  1  0.25000000  0.75000000  0.00000000  1
  Li  Li3  1  0.25000000  0.25000000  0.50000000  1
  Fe  Fe4  1  0.00000000  0.16527700  0.25000000  1
  Fe  Fe5  1  0.00000000  0.83472300  0.75000000  1
  Fe  Fe6  1  0.50000000  0.66527700  0.25000000  1
  Fe  Fe7  1  0.50000000  0.33472300  0.75000000  1
  F  F8  1  0.59415100  0.60125200  0.58571600  1
  F  F9  1  0.63590850  0.13319050  0.70942500  1
  F  F10  1  0.59415100  0.39874800  0.08571600  1
  F  F11  1  0.63590850  0.86680950  0.20942500  1
  F  F12  1  0.86409150  0.63319050  0.79057500  1
  F  F13  1  0.90584900  0.10125200  0.91428400  1
  F  F14  1  0.86409150  0.36680950  0.29057500  1
  F  F15  1  0.90584900  0.89874800  0.41428400  1
  F  F16  1  0.09415100  0.10125200  0.58571600  1
  F  F17  1  0.13590850  0.63319050  0.70942500  1
  F  F18  1  0.09415100  0.89874800  0.08571600  1
  F  F19  1  0.13590850  0.36680950  0.20942500  1
  F  F20  1  0.36409150  0.13319050  0.79057500  1
  F  F21  1  0.40584900  0.60125200  0.91428400  1
  F  F22  1  0.36409150  0.86680950  0.29057500  1
  F  F23  1  0.40584900  0.39874800  0.41428400  1
