# generated using pymatgen
data_Li4Ni3WO8
_symmetry_space_group_name_H-M   'P 1'
_cell_length_a   6.01816581
_cell_length_b   6.01816581
_cell_length_c   14.57382532
_cell_angle_alpha   90.00000000
_cell_angle_beta   90.00000000
_cell_angle_gamma   120.00000000
_symmetry_Int_Tables_number   1
_chemical_formula_structural   Li4Ni3WO8
_chemical_formula_sum   'Li12 Ni9 W3 O24'
_cell_volume   457.12238507
_cell_formula_units_Z   3
loop_
 _symmetry_equiv_pos_site_id
 _symmetry_equiv_pos_as_xyz
  1  'x, y, z'
loop_
 _atom_site_type_symbol
 _atom_site_label
 _atom_site_symmetry_multiplicity
 _atom_site_fract_x
 _atom_site_fract_y
 _atom_site_fract_z
 _atom_site_occupancy
  Li  Li0  1  0.66666667  0.33333333  0.83333333  1
  Li  Li1  1  0.16666667  0.33333333  0.83333333  1
  Li  Li2  1  0.66666667  0.83333333  0.83333333  1
  Li  Li3  1  0.16666667  0.83333333  0.83333333  1
  Li  Li4  1  0.33333333  0.66666667  0.16666667  1
  Li  Li5  1  0.83333333  0.66666667  0.16666667  1
  Li  Li6  1  0.33333333  0.16666667  0.16666667  1
  Li  Li7  1  0.83333333  0.16666667  0.16666667  1
  Li  Li8  1  1.00000000  1.00000000  0.50000000  1
  Li  Li9  1  0.50000000  0.00000000  0.50000000  1
  Li  Li10  1  0.00000000  0.50000000  0.50000000  1
  Li  Li11  1  0.50000000  0.50000000  0.50000000  1
  Ni  Ni12  1  0.50000000  0.00000000  0.00000000  1
  Ni  Ni13  1  0.33333333  0.16666667  0.66666667  1
  Ni  Ni14  1  0.83333333  0.16666667  0.66666667  1
  Ni  Ni15  1  0.16666667  0.33333333  0.33333333  1
  Ni  Ni16  1  0.00000000  0.50000000  1.00000000  1
  Ni  Ni17  1  0.50000000  0.50000000  1.00000000  1
  Ni  Ni18  1  0.83333333  0.66666667  0.66666667  1
  Ni  Ni19  1  0.66666667  0.83333333  0.33333333  1
  Ni  Ni20  1  0.16666667  0.83333333  0.33333333  1
  W  W21  1  0.00000000  0.00000000  0.00000000  1
  W  W22  1  0.66666667  0.33333333  0.33333333  1
  W  W23  1  0.33333333  0.66666667  0.66666667  1
  O  O24  1  0.66666667  0.33333333  0.07306367  1
  O  O25  1  0.48728000  0.97456000  0.74500100  1
  O  O26  1  0.02544000  0.51272000  0.74500100  1
  O  O27  1  0.66666667  0.33333333  0.59360300  1
  O  O28  1  0.48728000  0.51272000  0.74500100  1
  O  O29  1  0.84605333  0.69210667  0.92166567  1
  O  O30  1  0.30789333  0.15394667  0.92166567  1
  O  O31  1  0.84605333  0.15394667  0.92166567  1
  O  O32  1  0.33333333  0.66666667  0.40639700  1
  O  O33  1  0.15394667  0.30789333  0.07833433  1
  O  O34  1  0.69210667  0.84605333  0.07833433  1
  O  O35  1  0.33333333  0.66666667  0.92693633  1
  O  O36  1  0.15394667  0.84605333  0.07833433  1
  O  O37  1  0.51272000  0.02544000  0.25499900  1
  O  O38  1  0.97456000  0.48728000  0.25499900  1
  O  O39  1  0.51272000  0.48728000  0.25499900  1
  O  O40  1  0.00000000  0.00000000  0.73973033  1
  O  O41  1  0.82061333  0.64122667  0.41166767  1
  O  O42  1  0.35877333  0.17938667  0.41166767  1
  O  O43  1  0.00000000  0.00000000  0.26026967  1
  O  O44  1  0.82061333  0.17938667  0.41166767  1
  O  O45  1  0.17938667  0.35877333  0.58833233  1
  O  O46  1  0.64122667  0.82061333  0.58833233  1
  O  O47  1  0.17938667  0.82061333  0.58833233  1
