# generated using pymatgen
data_Li2V3FeO8
_symmetry_space_group_name_H-M   'P 1'
_cell_length_a   12.04533600
_cell_length_b   4.01881200
_cell_length_c   6.47261361
_cell_angle_alpha   90.00000000
_cell_angle_beta   106.92573063
_cell_angle_gamma   90.00000000
_symmetry_Int_Tables_number   1
_chemical_formula_structural   Li2V3FeO8
_chemical_formula_sum   'Li4 V6 Fe2 O16'
_cell_volume   299.75353931
_cell_formula_units_Z   2
loop_
 _symmetry_equiv_pos_site_id
 _symmetry_equiv_pos_as_xyz
  1  'x, y, z'
loop_
 _atom_site_type_symbol
 _atom_site_label
 _atom_site_symmetry_multiplicity
 _atom_site_fract_x
 _atom_site_fract_y
 _atom_site_fract_z
 _atom_site_occupancy
  Li  Li0  1  0.06026300  0.00000000  0.33994900  1
  Li  Li1  1  0.44140700  0.50000000  0.64307900  1
  Li  Li2  1  0.56026300  0.50000000  0.33994900  1
  Li  Li3  1  0.94140700  0.00000000  0.64307900  1
  V  V4  1  0.28888600  0.00000000  0.70804000  1
  V  V5  1  0.39079200  0.00000000  0.29784100  1
  V  V6  1  0.11200400  0.50000000  0.72433600  1
  V  V7  1  0.78888600  0.50000000  0.70804000  1
  V  V8  1  0.89079200  0.50000000  0.29784100  1
  V  V9  1  0.61200400  0.00000000  0.72433600  1
  Fe  Fe10  1  0.21459600  0.50000000  0.31197500  1
  Fe  Fe11  1  0.71459600  0.00000000  0.31197500  1
  O  O12  1  0.11951500  0.00000000  0.67138000  1
  O  O13  1  0.23773000  0.00000000  0.35488300  1
  O  O14  1  0.34593900  0.00000000  0.98697100  1
  O  O15  1  0.43968900  0.00000000  0.64015200  1
  O  O16  1  0.04852000  0.50000000  0.35231500  1
  O  O17  1  0.14798000  0.50000000  0.99346100  1
  O  O18  1  0.26737500  0.50000000  0.65788900  1
  O  O19  1  0.38530100  0.50000000  0.31772900  1
  O  O20  1  0.61951500  0.50000000  0.67138000  1
  O  O21  1  0.73773000  0.50000000  0.35488300  1
  O  O22  1  0.84593900  0.50000000  0.98697100  1
  O  O23  1  0.93968900  0.50000000  0.64015200  1
  O  O24  1  0.54852000  0.00000000  0.35231500  1
  O  O25  1  0.64798000  0.00000000  0.99346100  1
  O  O26  1  0.76737500  0.00000000  0.65788900  1
  O  O27  1  0.88530100  0.00000000  0.31772900  1
