# generated using pymatgen
data_V2O3F
_symmetry_space_group_name_H-M   'P 1'
_cell_length_a   6.41539800
_cell_length_b   6.81224800
_cell_length_c   15.17475200
_cell_angle_alpha   90.00000000
_cell_angle_beta   90.00000000
_cell_angle_gamma   90.00000000
_symmetry_Int_Tables_number   1
_chemical_formula_structural   V2O3F
_chemical_formula_sum   'V20 O30 F10'
_cell_volume   663.18646889
_cell_formula_units_Z   10
loop_
 _symmetry_equiv_pos_site_id
 _symmetry_equiv_pos_as_xyz
  1  'x, y, z'
loop_
 _atom_site_type_symbol
 _atom_site_label
 _atom_site_symmetry_multiplicity
 _atom_site_fract_x
 _atom_site_fract_y
 _atom_site_fract_z
 _atom_site_occupancy
  V  V0  1  0.50000000  0.49068200  0.80025600  1
  V  V1  1  0.50000000  0.49667500  0.60022700  1
  V  V2  1  0.50000000  0.49667500  0.39977300  1
  V  V3  1  0.50000000  0.48848100  0.00000000  1
  V  V4  1  0.50000000  0.49068200  0.19974400  1
  V  V5  1  0.50000000  0.95348800  0.50000000  1
  V  V6  1  0.50000000  0.03258600  0.89981600  1
  V  V7  1  0.50000000  0.03258600  0.10018400  1
  V  V8  1  0.50000000  0.03703800  0.30053400  1
  V  V9  1  0.50000000  0.03703800  0.69946600  1
  V  V10  1  0.00000000  0.99068200  0.80025600  1
  V  V11  1  0.00000000  0.99667500  0.60022700  1
  V  V12  1  0.00000000  0.99667500  0.39977300  1
  V  V13  1  0.00000000  0.98848100  0.00000000  1
  V  V14  1  0.00000000  0.99068200  0.19974400  1
  V  V15  1  0.00000000  0.45348800  0.50000000  1
  V  V16  1  0.00000000  0.53258600  0.89981600  1
  V  V17  1  0.00000000  0.53258600  0.10018400  1
  V  V18  1  0.00000000  0.53703800  0.30053400  1
  V  V19  1  0.00000000  0.53703800  0.69946600  1
  O  O20  1  0.50000000  0.29972500  0.30015000  1
  O  O21  1  0.50000000  0.29639800  0.10012000  1
  O  O22  1  0.50000000  0.29972500  0.69985000  1
  O  O23  1  0.50000000  0.29639800  0.89988000  1
  O  O24  1  0.30782900  0.99599300  0.40017800  1
  O  O25  1  0.30782900  0.99599300  0.59982200  1
  O  O26  1  0.30690400  0.99912400  0.79969600  1
  O  O27  1  0.30698650  0.99624050  0.00000000  1
  O  O28  1  0.30690400  0.99912400  0.20030400  1
  O  O29  1  0.69217100  0.99599300  0.40017800  1
  O  O30  1  0.69217100  0.99599300  0.59982200  1
  O  O31  1  0.69309600  0.99912400  0.79969600  1
  O  O32  1  0.69301350  0.99624050  0.00000000  1
  O  O33  1  0.69309600  0.99912400  0.20030400  1
  O  O34  1  0.50000000  0.69188500  0.50000000  1
  O  O35  1  0.00000000  0.79972500  0.30015000  1
  O  O36  1  0.00000000  0.79639800  0.10012000  1
  O  O37  1  0.00000000  0.79972500  0.69985000  1
  O  O38  1  0.00000000  0.79639800  0.89988000  1
  O  O39  1  0.80782900  0.49599300  0.40017800  1
  O  O40  1  0.80782900  0.49599300  0.59982200  1
  O  O41  1  0.80690400  0.49912400  0.79969600  1
  O  O42  1  0.80698650  0.49624050  0.00000000  1
  O  O43  1  0.80690400  0.49912400  0.20030400  1
  O  O44  1  0.19217100  0.49599300  0.40017800  1
  O  O45  1  0.19217100  0.49599300  0.59982200  1
  O  O46  1  0.19309600  0.49912400  0.79969600  1
  O  O47  1  0.19301350  0.49624050  0.00000000  1
  O  O48  1  0.19309600  0.49912400  0.20030400  1
  O  O49  1  0.00000000  0.19188500  0.50000000  1
  F  F50  1  0.50000000  0.29399200  0.50000000  1
  F  F51  1  0.50000000  0.69924900  0.70081300  1
  F  F52  1  0.50000000  0.69724900  0.90040400  1
  F  F53  1  0.50000000  0.69924900  0.29918700  1
  F  F54  1  0.50000000  0.69724900  0.09959600  1
  F  F55  1  0.00000000  0.79399200  0.50000000  1
  F  F56  1  0.00000000  0.19924900  0.70081300  1
  F  F57  1  0.00000000  0.19724900  0.90040400  1
  F  F58  1  0.00000000  0.19924900  0.29918700  1
  F  F59  1  0.00000000  0.19724900  0.09959600  1
