# generated using pymatgen
data_LiMn3O6
_symmetry_space_group_name_H-M   'P 1'
_cell_length_a   8.95473600
_cell_length_b   5.03583000
_cell_length_c   10.76615035
_cell_angle_alpha   90.00000000
_cell_angle_beta   109.19996751
_cell_angle_gamma   90.00000000
_symmetry_Int_Tables_number   1
_chemical_formula_structural   LiMn3O6
_chemical_formula_sum   'Li4 Mn12 O24'
_cell_volume   458.48959648
_cell_formula_units_Z   4
loop_
 _symmetry_equiv_pos_site_id
 _symmetry_equiv_pos_as_xyz
  1  'x, y, z'
loop_
 _atom_site_type_symbol
 _atom_site_label
 _atom_site_symmetry_multiplicity
 _atom_site_fract_x
 _atom_site_fract_y
 _atom_site_fract_z
 _atom_site_occupancy
  Li  Li0  1  0.82581650  0.57539650  0.75646900  1
  Li  Li1  1  0.32581650  0.92460350  0.25646900  1
  Li  Li2  1  0.32581650  0.07539650  0.75646900  1
  Li  Li3  1  0.82581650  0.42460350  0.25646900  1
  Mn  Mn4  1  0.75355350  0.42511250  0.99272100  1
  Mn  Mn5  1  0.25355350  0.07488750  0.49272100  1
  Mn  Mn6  1  0.42197200  0.42085600  0.00267600  1
  Mn  Mn7  1  0.59215950  0.07706450  0.50688200  1
  Mn  Mn8  1  0.42197200  0.57914400  0.50267600  1
  Mn  Mn9  1  0.09215950  0.42293550  0.00688200  1
  Mn  Mn10  1  0.25355350  0.92511250  0.99272100  1
  Mn  Mn11  1  0.75355350  0.57488750  0.49272100  1
  Mn  Mn12  1  0.92197200  0.92085600  0.00267600  1
  Mn  Mn13  1  0.09215950  0.57706450  0.50688200  1
  Mn  Mn14  1  0.92197200  0.07914400  0.50267600  1
  Mn  Mn15  1  0.59215950  0.92293550  0.00688200  1
  O  O16  1  0.73463600  0.74348100  0.89252000  1
  O  O17  1  0.54455200  0.74836900  0.40504300  1
  O  O18  1  0.63210100  0.42151200  0.59644100  1
  O  O19  1  0.13210100  0.07848800  0.09644100  1
  O  O20  1  0.88587200  0.26128200  0.90454800  1
  O  O21  1  0.43871550  0.10206950  0.10462100  1
  O  O22  1  0.23463600  0.75651900  0.39252000  1
  O  O23  1  0.43871550  0.89793050  0.60462100  1
  O  O24  1  0.79628450  0.90150650  0.59584300  1
  O  O25  1  0.29628450  0.59849350  0.09584300  1
  O  O26  1  0.54455200  0.25163100  0.90504300  1
  O  O27  1  0.38587200  0.23871800  0.40454800  1
  O  O28  1  0.23463600  0.24348100  0.89252000  1
  O  O29  1  0.04455200  0.24836900  0.40504300  1
  O  O30  1  0.13210100  0.92151200  0.59644100  1
  O  O31  1  0.63210100  0.57848800  0.09644100  1
  O  O32  1  0.38587200  0.76128200  0.90454800  1
  O  O33  1  0.93871550  0.60206950  0.10462100  1
  O  O34  1  0.73463600  0.25651900  0.39252000  1
  O  O35  1  0.93871550  0.39793050  0.60462100  1
  O  O36  1  0.29628450  0.40150650  0.59584300  1
  O  O37  1  0.79628450  0.09849350  0.09584300  1
  O  O38  1  0.04455200  0.75163100  0.90504300  1
  O  O39  1  0.88587200  0.73871800  0.40454800  1
