# generated using pymatgen
data_CrInO3
_symmetry_space_group_name_H-M   'P 1'
_cell_length_a   5.24718300
_cell_length_b   5.45013700
_cell_length_c   7.72987300
_cell_angle_alpha   90.00000000
_cell_angle_beta   90.00000000
_cell_angle_gamma   90.00000000
_symmetry_Int_Tables_number   1
_chemical_formula_structural   CrInO3
_chemical_formula_sum   'Cr4 In4 O12'
_cell_volume   221.05787400
_cell_formula_units_Z   4
loop_
 _symmetry_equiv_pos_site_id
 _symmetry_equiv_pos_as_xyz
  1  'x, y, z'
loop_
 _atom_site_type_symbol
 _atom_site_label
 _atom_site_symmetry_multiplicity
 _atom_site_fract_x
 _atom_site_fract_y
 _atom_site_fract_z
 _atom_site_occupancy
  Cr  Cr0  1  0.00000000  0.00000000  0.00000000  1
  Cr  Cr1  1  0.00000000  0.00000000  0.50000000  1
  Cr  Cr2  1  0.50000000  0.50000000  0.00000000  1
  Cr  Cr3  1  0.50000000  0.50000000  0.50000000  1
  In  In4  1  0.52274950  0.93892550  0.75000000  1
  In  In5  1  0.97725050  0.43892550  0.75000000  1
  In  In6  1  0.02274950  0.56107450  0.25000000  1
  In  In7  1  0.47725050  0.06107450  0.25000000  1
  O  O8  1  0.62788450  0.44156550  0.25000000  1
  O  O9  1  0.87211550  0.94156550  0.25000000  1
  O  O10  1  0.12788450  0.05843450  0.75000000  1
  O  O11  1  0.37211550  0.55843450  0.75000000  1
  O  O12  1  0.69445050  0.19783750  0.56877250  1
  O  O13  1  0.69445050  0.19783750  0.93122750  1
  O  O14  1  0.80554950  0.69783750  0.56877250  1
  O  O15  1  0.80554950  0.69783750  0.93122750  1
  O  O16  1  0.19445050  0.30216250  0.06877250  1
  O  O17  1  0.19445050  0.30216250  0.43122750  1
  O  O18  1  0.30554950  0.80216250  0.06877250  1
  O  O19  1  0.30554950  0.80216250  0.43122750  1
