# generated using pymatgen
data_Li4AlCr3O8
_symmetry_space_group_name_H-M   'P 1'
_cell_length_a   5.05924560
_cell_length_b   5.85921807
_cell_length_c   5.14153689
_cell_angle_alpha   90.00000000
_cell_angle_beta   109.16769842
_cell_angle_gamma   90.00000000
_symmetry_Int_Tables_number   1
_chemical_formula_structural   Li4AlCr3O8
_chemical_formula_sum   'Li4 Al1 Cr3 O8'
_cell_volume   143.96226709
_cell_formula_units_Z   1
loop_
 _symmetry_equiv_pos_site_id
 _symmetry_equiv_pos_as_xyz
  1  'x, y, z'
loop_
 _atom_site_type_symbol
 _atom_site_label
 _atom_site_symmetry_multiplicity
 _atom_site_fract_x
 _atom_site_fract_y
 _atom_site_fract_z
 _atom_site_occupancy
  Li  Li0  1  0.50000000  0.00000000  0.00000000  1
  Li  Li1  1  0.50000000  0.50000000  0.00000000  1
  Li  Li2  1  0.00000000  0.24739600  0.00000000  1
  Li  Li3  1  0.00000000  0.75260400  0.00000000  1
  Al  Al4  1  0.00000000  0.00000000  0.50000000  1
  Cr  Cr5  1  0.00000000  0.50000000  0.50000000  1
  Cr  Cr6  1  0.50000000  0.24769900  0.50000000  1
  Cr  Cr7  1  0.50000000  0.75230100  0.50000000  1
  O  O8  1  0.75416900  0.00000000  0.72006750  1
  O  O9  1  0.24583100  0.00000000  0.27993250  1
  O  O10  1  0.73992750  0.50000000  0.72841600  1
  O  O11  1  0.26007250  0.50000000  0.27158400  1
  O  O12  1  0.76568600  0.24045200  0.27887900  1
  O  O13  1  0.76568600  0.75954800  0.27887900  1
  O  O14  1  0.23431400  0.24045200  0.72112100  1
  O  O15  1  0.23431400  0.75954800  0.72112100  1
