# generated using pymatgen
data_Co3(O2F)2
_symmetry_space_group_name_H-M   'P 1'
_cell_length_a   8.81071400
_cell_length_b   6.04870600
_cell_length_c   7.03701339
_cell_angle_alpha   90.00000000
_cell_angle_beta   112.93379050
_cell_angle_gamma   90.00000000
_symmetry_Int_Tables_number   1
_chemical_formula_structural   Co3(O2F)2
_chemical_formula_sum   'Co12 O16 F8'
_cell_volume   345.38281504
_cell_formula_units_Z   4
loop_
 _symmetry_equiv_pos_site_id
 _symmetry_equiv_pos_as_xyz
  1  'x, y, z'
loop_
 _atom_site_type_symbol
 _atom_site_label
 _atom_site_symmetry_multiplicity
 _atom_site_fract_x
 _atom_site_fract_y
 _atom_site_fract_z
 _atom_site_occupancy
  Co  Co0  1  0.16237200  0.50000000  0.16838700  1
  Co  Co1  1  0.18438100  0.50000000  0.66477100  1
  Co  Co2  1  0.00000000  0.00000000  0.00000000  1
  Co  Co3  1  0.00000000  0.00000000  0.50000000  1
  Co  Co4  1  0.83762800  0.50000000  0.83161300  1
  Co  Co5  1  0.81561900  0.50000000  0.33522900  1
  Co  Co6  1  0.66237200  0.00000000  0.16838700  1
  Co  Co7  1  0.68438100  0.00000000  0.66477100  1
  Co  Co8  1  0.50000000  0.50000000  0.00000000  1
  Co  Co9  1  0.50000000  0.50000000  0.50000000  1
  Co  Co10  1  0.33762800  0.00000000  0.83161300  1
  Co  Co11  1  0.31561900  0.00000000  0.33522900  1
  O  O12  1  0.17169950  0.19486950  0.66276800  1
  O  O13  1  0.00000000  0.69566000  0.00000000  1
  O  O14  1  0.58974500  0.50000000  0.29342500  1
  O  O15  1  0.41025500  0.50000000  0.70657500  1
  O  O16  1  0.17169950  0.80513050  0.66276800  1
  O  O17  1  0.00000000  0.30434000  0.00000000  1
  O  O18  1  0.82830050  0.80513050  0.33723200  1
  O  O19  1  0.82830050  0.19486950  0.33723200  1
  O  O20  1  0.67169950  0.69486950  0.66276800  1
  O  O21  1  0.50000000  0.19566000  0.00000000  1
  O  O22  1  0.08974500  0.00000000  0.29342500  1
  O  O23  1  0.91025500  0.00000000  0.70657500  1
  O  O24  1  0.67169950  0.30513050  0.66276800  1
  O  O25  1  0.50000000  0.80434000  0.00000000  1
  O  O26  1  0.32830050  0.30513050  0.33723200  1
  O  O27  1  0.32830050  0.69486950  0.33723200  1
  F  F28  1  0.25984000  0.50000000  0.97576500  1
  F  F29  1  0.93979500  0.50000000  0.64260700  1
  F  F30  1  0.06020500  0.50000000  0.35739300  1
  F  F31  1  0.74016000  0.50000000  0.02423500  1
  F  F32  1  0.75984000  0.00000000  0.97576500  1
  F  F33  1  0.43979500  0.00000000  0.64260700  1
  F  F34  1  0.56020500  0.00000000  0.35739300  1
  F  F35  1  0.24016000  0.00000000  0.02423500  1
