# generated using pymatgen
data_Li34(Sb3S2)3
_symmetry_space_group_name_H-M   'P 1'
_cell_length_a   9.89874600
_cell_length_b   9.89874600
_cell_length_c   18.76532000
_cell_angle_alpha   90.00000000
_cell_angle_beta   90.00000000
_cell_angle_gamma   90.00000000
_symmetry_Int_Tables_number   1
_chemical_formula_structural   Li34(Sb3S2)3
_chemical_formula_sum   'Li68 Sb18 S12'
_cell_volume   1838.72311483
_cell_formula_units_Z   2
loop_
 _symmetry_equiv_pos_site_id
 _symmetry_equiv_pos_as_xyz
  1  'x, y, z'
loop_
 _atom_site_type_symbol
 _atom_site_label
 _atom_site_symmetry_multiplicity
 _atom_site_fract_x
 _atom_site_fract_y
 _atom_site_fract_z
 _atom_site_occupancy
  Li  Li0  1  0.15231900  0.71823500  0.00000000  1
  Li  Li1  1  0.21938700  0.92911300  0.12567800  1
  Li  Li2  1  0.28176500  0.15231900  0.00000000  1
  Li  Li3  1  0.28191000  0.41108900  0.07601300  1
  Li  Li4  1  0.30977350  0.41634250  0.23968550  1
  Li  Li5  1  0.41634250  0.69022650  0.23968550  1
  Li  Li6  1  0.41108900  0.71809000  0.07601300  1
  Li  Li7  1  0.42911300  0.28061300  0.37432200  1
  Li  Li8  1  0.50000000  0.00000000  0.07382100  1
  Li  Li9  1  0.50000000  0.00000000  0.25000000  1
  Li  Li10  1  0.50000000  0.00000000  0.42617900  1
  Li  Li11  1  0.57088700  0.71938700  0.37432200  1
  Li  Li12  1  0.58891100  0.28191000  0.07601300  1
  Li  Li13  1  0.58365750  0.30977350  0.23968550  1
  Li  Li14  1  0.69022650  0.58365750  0.23968550  1
  Li  Li15  1  0.71938700  0.42911300  0.37432200  1
  Li  Li16  1  0.71809000  0.58891100  0.07601300  1
  Li  Li17  1  0.71823500  0.84768100  0.00000000  1
  Li  Li18  1  0.78191000  0.91108900  0.42398700  1
  Li  Li19  1  0.78061300  0.07088700  0.12567800  1
  Li  Li20  1  0.80977350  0.91634250  0.26031450  1
  Li  Li21  1  0.84768100  0.28176500  0.00000000  1
  Li  Li22  1  0.91634250  0.19022650  0.26031450  1
  Li  Li23  1  0.91108900  0.21809000  0.42398700  1
  Li  Li24  1  0.92911300  0.78061300  0.12567800  1
  Li  Li25  1  0.00000000  0.50000000  0.25000000  1
  Li  Li26  1  0.00000000  0.50000000  0.42617900  1
  Li  Li27  1  0.00000000  0.50000000  0.07382100  1
  Li  Li28  1  0.07088700  0.21938700  0.12567800  1
  Li  Li29  1  0.08891100  0.78191000  0.42398700  1
  Li  Li30  1  0.08365750  0.80977350  0.26031450  1
  Li  Li31  1  0.19022650  0.08365750  0.26031450  1
  Li  Li32  1  0.21809000  0.08891100  0.42398700  1
  Li  Li33  1  0.28061300  0.57088700  0.37432200  1
  Li  Li34  1  0.65231900  0.21823500  0.50000000  1
  Li  Li35  1  0.71938700  0.42911300  0.62567800  1
  Li  Li36  1  0.78176500  0.65231900  0.50000000  1
  Li  Li37  1  0.78191000  0.91108900  0.57601300  1
  Li  Li38  1  0.80977350  0.91634250  0.73968550  1
  Li  Li39  1  0.91634250  0.19022650  0.73968550  1
  Li  Li40  1  0.91108900  0.21809000  0.57601300  1
  Li  Li41  1  0.92911300  0.78061300  0.87432200  1
  Li  Li42  1  0.00000000  0.50000000  0.57382100  1
  Li  Li43  1  0.00000000  0.50000000  0.75000000  1
  Li  Li44  1  0.00000000  0.50000000  0.92617900  1
  Li  Li45  1  0.07088700  0.21938700  0.87432200  1
  Li  Li46  1  0.08891100  0.78191000  0.57601300  1
  Li  Li47  1  0.08365750  0.80977350  0.73968550  1
  Li  Li48  1  0.19022650  0.08365750  0.73968550  1
  Li  Li49  1  0.21938700  0.92911300  0.87432200  1
  Li  Li50  1  0.21809000  0.08891100  0.57601300  1
  Li  Li51  1  0.21823500  0.34768100  0.50000000  1
  Li  Li52  1  0.28191000  0.41108900  0.92398700  1
  Li  Li53  1  0.28061300  0.57088700  0.62567800  1
  Li  Li54  1  0.30977350  0.41634250  0.76031450  1
  Li  Li55  1  0.34768100  0.78176500  0.50000000  1
  Li  Li56  1  0.41634250  0.69022650  0.76031450  1
  Li  Li57  1  0.41108900  0.71809000  0.92398700  1
  Li  Li58  1  0.42911300  0.28061300  0.62567800  1
  Li  Li59  1  0.50000000  0.00000000  0.75000000  1
  Li  Li60  1  0.50000000  0.00000000  0.92617900  1
  Li  Li61  1  0.50000000  0.00000000  0.57382100  1
  Li  Li62  1  0.57088700  0.71938700  0.62567800  1
  Li  Li63  1  0.58891100  0.28191000  0.92398700  1
  Li  Li64  1  0.58365750  0.30977350  0.76031450  1
  Li  Li65  1  0.69022650  0.58365750  0.76031450  1
  Li  Li66  1  0.71809000  0.58891100  0.92398700  1
  Li  Li67  1  0.78061300  0.07088700  0.87432200  1
  Sb  Sb68  1  0.19096650  0.62858450  0.15701450  1
  Sb  Sb69  1  0.37141550  0.19096650  0.15701450  1
  Sb  Sb70  1  0.50000000  0.50000000  0.00000000  1
  Sb  Sb71  1  0.62858450  0.80903350  0.15701450  1
  Sb  Sb72  1  0.69096650  0.12858450  0.34298550  1
  Sb  Sb73  1  0.80903350  0.37141550  0.15701450  1
  Sb  Sb74  1  0.87141550  0.69096650  0.34298550  1
  Sb  Sb75  1  0.12858450  0.30903350  0.34298550  1
  Sb  Sb76  1  0.30903350  0.87141550  0.34298550  1
  Sb  Sb77  1  0.69096650  0.12858450  0.65701450  1
  Sb  Sb78  1  0.87141550  0.69096650  0.65701450  1
  Sb  Sb79  1  0.00000000  0.00000000  0.50000000  1
  Sb  Sb80  1  0.12858450  0.30903350  0.65701450  1
  Sb  Sb81  1  0.19096650  0.62858450  0.84298550  1
  Sb  Sb82  1  0.30903350  0.87141550  0.65701450  1
  Sb  Sb83  1  0.37141550  0.19096650  0.84298550  1
  Sb  Sb84  1  0.62858450  0.80903350  0.84298550  1
  Sb  Sb85  1  0.80903350  0.37141550  0.84298550  1
  S  S86  1  0.10178000  0.31523300  0.00000000  1
  S  S87  1  0.31523300  0.89822000  0.00000000  1
  S  S88  1  0.50000000  0.50000000  0.31648400  1
  S  S89  1  0.68476700  0.10178000  0.00000000  1
  S  S90  1  0.89822000  0.68476700  0.00000000  1
  S  S91  1  0.00000000  0.00000000  0.18351600  1
  S  S92  1  0.60178000  0.81523300  0.50000000  1
  S  S93  1  0.81523300  0.39822000  0.50000000  1
  S  S94  1  0.00000000  0.00000000  0.81648400  1
  S  S95  1  0.18476700  0.60178000  0.50000000  1
  S  S96  1  0.39822000  0.18476700  0.50000000  1
  S  S97  1  0.50000000  0.50000000  0.68351600  1
