# generated using pymatgen
data_Mn5Fe(PO4)6
_symmetry_space_group_name_H-M   'P 1'
_cell_length_a   8.57458938
_cell_length_b   8.57458938
_cell_length_c   21.13308561
_cell_angle_alpha   90.00000000
_cell_angle_beta   90.00000000
_cell_angle_gamma   120.00000000
_symmetry_Int_Tables_number   1
_chemical_formula_structural   Mn5Fe(PO4)6
_chemical_formula_sum   'Mn15 Fe3 P18 O72'
_cell_volume   1345.61310405
_cell_formula_units_Z   3
loop_
 _symmetry_equiv_pos_site_id
 _symmetry_equiv_pos_as_xyz
  1  'x, y, z'
loop_
 _atom_site_type_symbol
 _atom_site_label
 _atom_site_symmetry_multiplicity
 _atom_site_fract_x
 _atom_site_fract_y
 _atom_site_fract_z
 _atom_site_occupancy
  Mn  Mn0  1  0.66666667  0.33333333  0.33228533  1
  Mn  Mn1  1  0.33333333  0.66666667  0.02326767  1
  Mn  Mn2  1  0.33333333  0.66666667  0.16708467  1
  Mn  Mn3  1  0.00000000  0.00000000  0.14381000  1
  Mn  Mn4  1  0.33333333  0.66666667  0.31055167  1
  Mn  Mn5  1  0.33333333  0.66666667  0.66561867  1
  Mn  Mn6  1  0.00000000  0.00000000  0.35660100  1
  Mn  Mn7  1  0.00000000  0.00000000  0.50041800  1
  Mn  Mn8  1  0.66666667  0.33333333  0.47714333  1
  Mn  Mn9  1  0.00000000  0.00000000  0.64388500  1
  Mn  Mn10  1  0.00000000  0.00000000  0.99895200  1
  Mn  Mn11  1  0.66666667  0.33333333  0.68993433  1
  Mn  Mn12  1  0.66666667  0.33333333  0.83375133  1
  Mn  Mn13  1  0.33333333  0.66666667  0.81047667  1
  Mn  Mn14  1  0.66666667  0.33333333  0.97721833  1
  Fe  Fe15  1  0.66666667  0.33333333  0.18881033  1
  Fe  Fe16  1  0.33333333  0.66666667  0.52214367  1
  Fe  Fe17  1  0.00000000  0.00000000  0.85547700  1
  P  P18  1  0.37443967  0.04128733  0.08260733  1
  P  P19  1  0.66684767  0.62556033  0.08260733  1
  P  P20  1  0.95871267  0.33315233  0.08260733  1
  P  P21  1  0.71167933  0.99992767  0.25099667  1
  P  P22  1  0.00007233  0.71175167  0.25099667  1
  P  P23  1  0.28824833  0.28832067  0.25099667  1
  P  P24  1  0.04110633  0.37462067  0.41594067  1
  P  P25  1  0.33351433  0.95889367  0.41594067  1
  P  P26  1  0.62537933  0.66648567  0.41594067  1
  P  P27  1  0.37834600  0.33326100  0.58433000  1
  P  P28  1  0.66673900  0.04508500  0.58433000  1
  P  P29  1  0.95491500  0.62165400  0.58433000  1
  P  P30  1  0.70777300  0.70795400  0.74927400  1
  P  P31  1  0.00018100  0.29222700  0.74927400  1
  P  P32  1  0.29204600  0.99981900  0.74927400  1
  P  P33  1  0.04501267  0.66659433  0.91766333  1
  P  P34  1  0.33340567  0.37841833  0.91766333  1
  P  P35  1  0.62158167  0.95498733  0.91766333  1
  O  O36  1  0.67632433  0.53490967  0.02175367  1
  O  O37  1  0.85858533  0.32367567  0.02175367  1
  O  O38  1  0.46509033  0.14141467  0.02175367  1
  O  O39  1  0.18254933  0.01891667  0.07847967  1
  O  O40  1  0.47274100  0.13118200  0.14343600  1
  O  O41  1  0.35456333  0.84816767  0.08594467  1
  O  O42  1  0.83636733  0.81745067  0.07847967  1
  O  O43  1  0.49360433  0.64543667  0.08594467  1
  O  O44  1  0.80085900  0.99068500  0.18959900  1
  O  O45  1  0.15183233  0.50639567  0.08594467  1
  O  O46  1  0.68980867  0.16822333  0.25591533  1
  O  O47  1  0.00931500  0.81017400  0.18959900  1
  O  O48  1  0.65844100  0.52725900  0.14343600  1
  O  O49  1  0.98108333  0.16363267  0.07847967  1
  O  O50  1  0.52051667  0.82766433  0.24642133  1
  O  O51  1  0.86881800  0.34155900  0.14343600  1
  O  O52  1  0.17233567  0.69285233  0.24642133  1
  O  O53  1  0.83177667  0.52158533  0.25591533  1
  O  O54  1  0.30714767  0.47948333  0.24642133  1
  O  O55  1  0.18982600  0.19914100  0.18959900  1
  O  O56  1  0.47841467  0.31019133  0.25591533  1
  O  O57  1  0.19212867  0.18639333  0.31179933  1
  O  O58  1  0.81360667  0.00573533  0.31179933  1
  O  O59  1  0.99426467  0.80787133  0.31179933  1
  O  O60  1  0.34299100  0.86824300  0.35508700  1
  O  O61  1  0.52525200  0.65700900  0.35508700  1
  O  O62  1  0.13175700  0.47474800  0.35508700  1
  O  O63  1  0.84921600  0.35225000  0.41181300  1
  O  O64  1  0.13940767  0.46451533  0.47676933  1
  O  O65  1  0.02123000  0.18150100  0.41927800  1
  O  O66  1  0.50303400  0.15078400  0.41181300  1
  O  O67  1  0.16027100  0.97877000  0.41927800  1
  O  O68  1  0.46752567  0.32401833  0.52293233  1
  O  O69  1  0.81849900  0.83972900  0.41927800  1
  O  O70  1  0.35647533  0.50155667  0.58924867  1
  O  O71  1  0.67598167  0.14350733  0.52293233  1
  O  O72  1  0.32510767  0.86059233  0.47676933  1
  O  O73  1  0.64775000  0.49696600  0.41181300  1
  O  O74  1  0.18718333  0.16099767  0.57975467  1
  O  O75  1  0.53548467  0.67489233  0.47676933  1
  O  O76  1  0.83900233  0.02618567  0.57975467  1
  O  O77  1  0.49844333  0.85491867  0.58924867  1
  O  O78  1  0.97381433  0.81281667  0.57975467  1
  O  O79  1  0.85649267  0.53247433  0.52293233  1
  O  O80  1  0.14508133  0.64352467  0.58924867  1
  O  O81  1  0.85879533  0.51972667  0.64513267  1
  O  O82  1  0.48027333  0.33906867  0.64513267  1
  O  O83  1  0.66093133  0.14120467  0.64513267  1
  O  O84  1  0.00965767  0.20157633  0.68842033  1
  O  O85  1  0.19191867  0.99034233  0.68842033  1
  O  O86  1  0.79842367  0.80808133  0.68842033  1
  O  O87  1  0.51588267  0.68558333  0.74514633  1
  O  O88  1  0.80607433  0.79784867  0.81010267  1
  O  O89  1  0.68789667  0.51483433  0.75261133  1
  O  O90  1  0.16970067  0.48411733  0.74514633  1
  O  O91  1  0.82693767  0.31210333  0.75261133  1
  O  O92  1  0.13419233  0.65735167  0.85626567  1
  O  O93  1  0.48516567  0.17306233  0.75261133  1
  O  O94  1  0.02314200  0.83489000  0.92258200  1
  O  O95  1  0.34264833  0.47684067  0.85626567  1
  O  O96  1  0.99177433  0.19392567  0.81010267  1
  O  O97  1  0.31441667  0.83029933  0.74514633  1
  O  O98  1  0.85385000  0.49433100  0.91308800  1
  O  O99  1  0.20215133  0.00822567  0.81010267  1
  O  O100  1  0.50566900  0.35951900  0.91308800  1
  O  O101  1  0.16511000  0.18825200  0.92258200  1
  O  O102  1  0.64048100  0.14615000  0.91308800  1
  O  O103  1  0.52315933  0.86580767  0.85626567  1
  O  O104  1  0.81174800  0.97685800  0.92258200  1
  O  O105  1  0.52546200  0.85306000  0.97846600  1
  O  O106  1  0.14694000  0.67240200  0.97846600  1
  O  O107  1  0.32759800  0.47453800  0.97846600  1
