# generated using pymatgen
data_LiVFeP2(HO5)2
_symmetry_space_group_name_H-M   'P 1'
_cell_length_a   5.21020813
_cell_length_b   7.36368620
_cell_length_c   14.50610089
_cell_angle_alpha   91.92338725
_cell_angle_beta   94.14589035
_cell_angle_gamma   105.45383861
_symmetry_Int_Tables_number   1
_chemical_formula_structural   LiVFeP2(HO5)2
_chemical_formula_sum   'Li3 V3 Fe3 P6 H6 O30'
_cell_volume   534.21213845
_cell_formula_units_Z   3
loop_
 _symmetry_equiv_pos_site_id
 _symmetry_equiv_pos_as_xyz
  1  'x, y, z'
loop_
 _atom_site_type_symbol
 _atom_site_label
 _atom_site_symmetry_multiplicity
 _atom_site_fract_x
 _atom_site_fract_y
 _atom_site_fract_z
 _atom_site_occupancy
  Li  Li0  1  0.25868600  0.03670800  0.18741600  1
  Li  Li1  1  0.40756400  0.63046500  0.47850100  1
  Li  Li2  1  0.74062500  0.96448300  0.81287800  1
  V  V3  1  0.66192900  0.66000300  0.16646000  1
  V  V4  1  0.00352600  0.00606800  0.49919300  1
  V  V5  1  0.33742700  0.33841800  0.83368300  1
  Fe  Fe6  1  0.99916700  0.99948000  0.99982700  1
  Fe  Fe7  1  0.33305900  0.33316300  0.33325900  1
  Fe  Fe8  1  0.66593400  0.66249200  0.66641400  1
  P  P9  1  0.59348800  0.26602400  0.04272300  1
  P  P10  1  0.74368400  0.06655500  0.29175000  1
  P  P11  1  0.92223100  0.59994700  0.37448600  1
  P  P12  1  0.07349900  0.39898900  0.62390700  1
  P  P13  1  0.25721100  0.93851800  0.70849600  1
  P  P14  1  0.40530700  0.73278500  0.95735700  1
  H  H15  1  0.09733900  0.74466800  0.09614500  1
  H  H16  1  0.21707000  0.56430800  0.23141300  1
  H  H17  1  0.44882500  0.10239700  0.43532000  1
  H  H18  1  0.56804100  0.92036500  0.56961000  1
  H  H19  1  0.78128000  0.42709500  0.77028900  1
  H  H20  1  0.90088600  0.25515700  0.90383500  1
  O  O21  1  0.76723600  0.13095900  0.05816000  1
  O  O22  1  0.31184100  0.18152800  0.07326100  1
  O  O23  1  0.41290500  0.68608400  0.06220100  1
  O  O24  1  0.72901000  0.45324500  0.10155600  1
  O  O25  1  0.03306500  0.14454200  0.26537100  1
  O  O26  1  0.97946700  0.82574800  0.11052200  1
  O  O27  1  0.36819200  0.50696000  0.23089500  1
  O  O28  1  0.57045200  0.20423900  0.27486200  1
  O  O29  1  0.74191800  0.01530300  0.39567300  1
  O  O30  1  0.59948200  0.88828100  0.22840100  1
  O  O31  1  0.92387400  0.65125300  0.27081000  1
  O  O32  1  0.09637800  0.46293700  0.39183200  1
  O  O33  1  0.29747400  0.15949500  0.43542800  1
  O  O34  1  0.63329700  0.52182000  0.40128600  1
  O  O35  1  0.06633900  0.77843600  0.43818300  1
  O  O36  1  0.93636600  0.21299100  0.56463200  1
  O  O37  1  0.35412100  0.48475000  0.59260800  1
  O  O38  1  0.68632200  0.83933600  0.55555500  1
  O  O39  1  0.90282700  0.53647500  0.60962300  1
  O  O40  1  0.08280200  0.35004500  0.72801200  1
  O  O41  1  0.40628500  0.11581000  0.77147000  1
  O  O42  1  0.25965300  0.98423100  0.60371600  1
  O  O43  1  0.42806300  0.79910900  0.72553200  1
  O  O44  1  0.63394000  0.48786700  0.77257100  1
  O  O45  1  0.01788700  0.17344400  0.88947200  1
  O  O46  1  0.96894600  0.86406300  0.73464400  1
  O  O47  1  0.26996300  0.54642900  0.89843900  1
  O  O48  1  0.58559800  0.31245400  0.93821200  1
  O  O49  1  0.68721800  0.81757600  0.92687900  1
  O  O50  1  0.23279200  0.86876300  0.94203700  1
