# generated using pymatgen
data_Li2MnFe(PO4)2
_symmetry_space_group_name_H-M   'P 1'
_cell_length_a   4.77632558
_cell_length_b   6.12425738
_cell_length_c   10.52414647
_cell_angle_alpha   90.00000000
_cell_angle_beta   90.00000000
_cell_angle_gamma   90.00000000
_symmetry_Int_Tables_number   1
_chemical_formula_structural   Li2MnFe(PO4)2
_chemical_formula_sum   'Li4 Mn2 Fe2 P4 O16'
_cell_volume   307.84651484
_cell_formula_units_Z   2
loop_
 _symmetry_equiv_pos_site_id
 _symmetry_equiv_pos_as_xyz
  1  'x, y, z'
loop_
 _atom_site_type_symbol
 _atom_site_label
 _atom_site_symmetry_multiplicity
 _atom_site_fract_x
 _atom_site_fract_y
 _atom_site_fract_z
 _atom_site_occupancy
  Li  Li0  1  0.99971600  0.75120350  0.75261150  1
  Li  Li1  1  0.99971600  0.24879650  0.75261150  1
  Li  Li2  1  0.49971600  0.74879650  0.24738850  1
  Li  Li3  1  0.49971600  0.25120350  0.24738850  1
  Mn  Mn4  1  0.01954100  0.50000000  0.46891350  1
  Mn  Mn5  1  0.51954100  0.00000000  0.53108650  1
  Fe  Fe6  1  0.47269000  0.50000000  0.96944250  1
  Fe  Fe7  1  0.97269000  0.00000000  0.03055750  1
  P  P8  1  0.58599400  0.50000000  0.66017050  1
  P  P9  1  0.08599400  0.00000000  0.33982950  1
  P  P10  1  0.91476800  0.50000000  0.15402950  1
  P  P11  1  0.41476800  0.00000000  0.84597050  1
  O  O12  1  0.29153000  0.00000000  0.70985850  1
  O  O13  1  0.79153000  0.50000000  0.29014150  1
  O  O14  1  0.26428200  0.50000000  0.65600950  1
  O  O15  1  0.76428200  0.00000000  0.34399050  1
  O  O16  1  0.20812900  0.00000000  0.20359450  1
  O  O17  1  0.70812900  0.50000000  0.79640550  1
  O  O18  1  0.23675800  0.50000000  0.15210150  1
  O  O19  1  0.73675800  0.00000000  0.84789850  1
  O  O20  1  0.71919000  0.70151050  0.58984850  1
  O  O21  1  0.71919000  0.29848950  0.58984850  1
  O  O22  1  0.21919000  0.20151050  0.41015150  1
  O  O23  1  0.21919000  0.79848950  0.41015150  1
  O  O24  1  0.78286600  0.69940450  0.08312950  1
  O  O25  1  0.78286600  0.30059550  0.08312950  1
  O  O26  1  0.28286600  0.19940450  0.91687050  1
  O  O27  1  0.28286600  0.80059550  0.91687050  1
