# generated using pymatgen
data_CoH2SeO4
_symmetry_space_group_name_H-M   'P 1'
_cell_length_a   5.73249295
_cell_length_b   4.85843606
_cell_length_c   14.02406958
_cell_angle_alpha   90.00000000
_cell_angle_beta   102.96393359
_cell_angle_gamma   90.00000000
_symmetry_Int_Tables_number   1
_chemical_formula_structural   CoH2SeO4
_chemical_formula_sum   'Co4 H8 Se4 O16'
_cell_volume   380.62826463
_cell_formula_units_Z   4
loop_
 _symmetry_equiv_pos_site_id
 _symmetry_equiv_pos_as_xyz
  1  'x, y, z'
loop_
 _atom_site_type_symbol
 _atom_site_label
 _atom_site_symmetry_multiplicity
 _atom_site_fract_x
 _atom_site_fract_y
 _atom_site_fract_z
 _atom_site_occupancy
  Co  Co0  1  0.26049450  0.31923200  0.76651900  1
  Co  Co1  1  0.73950550  0.68076800  0.23348100  1
  Co  Co2  1  0.73950550  0.81923200  0.73348100  1
  Co  Co3  1  0.26049450  0.18076800  0.26651900  1
  H  H4  1  0.78931950  0.26714000  0.63206800  1
  H  H5  1  0.21068050  0.76714000  0.86793200  1
  H  H6  1  0.78931950  0.23286000  0.13206800  1
  H  H7  1  0.21068050  0.73286000  0.36793200  1
  H  H8  1  0.48305750  0.81234000  0.38341600  1
  H  H9  1  0.51694250  0.31234000  0.11658400  1
  H  H10  1  0.48305750  0.68766000  0.88341600  1
  H  H11  1  0.51694250  0.18766000  0.61658400  1
  Se  Se12  1  0.16867850  0.76452200  0.10679600  1
  Se  Se13  1  0.16867850  0.73547800  0.60679600  1
  Se  Se14  1  0.83132150  0.26452200  0.39320400  1
  Se  Se15  1  0.83132150  0.23547800  0.89320400  1
  O  O16  1  0.67672750  0.11055700  0.61775900  1
  O  O17  1  0.32327250  0.61055700  0.88224100  1
  O  O18  1  0.67672750  0.38944300  0.11775900  1
  O  O19  1  0.32327250  0.88944300  0.38224100  1
  O  O20  1  0.01951950  0.08851500  0.82194200  1
  O  O21  1  0.98048050  0.58851500  0.67805800  1
  O  O22  1  0.01951950  0.41148500  0.32194200  1
  O  O23  1  0.98048050  0.91148500  0.17805800  1
  O  O24  1  0.19352250  0.42541400  0.13575900  1
  O  O25  1  0.19352250  0.07458600  0.63575900  1
  O  O26  1  0.80647750  0.92541400  0.36424100  1
  O  O27  1  0.80647750  0.57458600  0.86424100  1
  O  O28  1  0.43174650  0.91039600  0.17782600  1
  O  O29  1  0.56825350  0.41039600  0.32217400  1
  O  O30  1  0.43174650  0.58960400  0.67782600  1
  O  O31  1  0.56825350  0.08960400  0.82217400  1
