# generated using pymatgen
data_V4FeNiO12
_symmetry_space_group_name_H-M   'P 1'
_cell_length_a   10.17444215
_cell_length_b   9.12807193
_cell_length_c   5.91264708
_cell_angle_alpha   90.00000000
_cell_angle_beta   110.80972747
_cell_angle_gamma   90.00000000
_symmetry_Int_Tables_number   1
_chemical_formula_structural   V4FeNiO12
_chemical_formula_sum   'V8 Fe2 Ni2 O24'
_cell_volume   513.30351085
_cell_formula_units_Z   2
loop_
 _symmetry_equiv_pos_site_id
 _symmetry_equiv_pos_as_xyz
  1  'x, y, z'
loop_
 _atom_site_type_symbol
 _atom_site_label
 _atom_site_symmetry_multiplicity
 _atom_site_fract_x
 _atom_site_fract_y
 _atom_site_fract_z
 _atom_site_occupancy
  V  V0  1  0.20468350  0.58950850  0.99693900  1
  V  V1  1  0.79531650  0.58950850  0.00306100  1
  V  V2  1  0.20207700  0.40993900  0.49224900  1
  V  V3  1  0.79792300  0.40993900  0.50775100  1
  V  V4  1  0.70468350  0.08950850  0.99693900  1
  V  V5  1  0.29531650  0.08950850  0.00306100  1
  V  V6  1  0.70207700  0.90993900  0.49224900  1
  V  V7  1  0.29792300  0.90993900  0.50775100  1
  Fe  Fe8  1  0.00000000  0.91368200  0.00000000  1
  Fe  Fe9  1  0.50000000  0.41368200  0.00000000  1
  Ni  Ni10  1  0.00000000  0.08550150  0.50000000  1
  Ni  Ni11  1  0.50000000  0.58550150  0.50000000  1
  O  O12  1  0.38513200  0.57620000  0.12035100  1
  O  O13  1  0.61486800  0.57620000  0.87964900  1
  O  O14  1  0.15063400  0.76397500  0.97967600  1
  O  O15  1  0.84936600  0.76397500  0.02032400  1
  O  O16  1  0.38220100  0.42191100  0.60128100  1
  O  O17  1  0.61779900  0.42191100  0.39871900  1
  O  O18  1  0.13718400  0.49057600  0.19529800  1
  O  O19  1  0.86281600  0.49057600  0.80470200  1
  O  O20  1  0.14218300  0.51094400  0.69884700  1
  O  O21  1  0.85781700  0.51094400  0.30115300  1
  O  O22  1  0.14441550  0.23633350  0.47505200  1
  O  O23  1  0.85558450  0.23633350  0.52494800  1
  O  O24  1  0.88513200  0.07620000  0.12035100  1
  O  O25  1  0.11486800  0.07620000  0.87964900  1
  O  O26  1  0.65063400  0.26397500  0.97967600  1
  O  O27  1  0.34936600  0.26397500  0.02032400  1
  O  O28  1  0.88220100  0.92191100  0.60128100  1
  O  O29  1  0.11779900  0.92191100  0.39871900  1
  O  O30  1  0.63718400  0.99057600  0.19529800  1
  O  O31  1  0.36281600  0.99057600  0.80470200  1
  O  O32  1  0.64218300  0.01094400  0.69884700  1
  O  O33  1  0.35781700  0.01094400  0.30115300  1
  O  O34  1  0.64441550  0.73633350  0.47505200  1
  O  O35  1  0.35558450  0.73633350  0.52494800  1
