# generated using pymatgen
data_Li4Cr3Sn3(TeO8)2
_symmetry_space_group_name_H-M   'P 1'
_cell_length_a   10.88597600
_cell_length_b   6.24955400
_cell_length_c   10.14648085
_cell_angle_alpha   90.00000000
_cell_angle_beta   91.61427313
_cell_angle_gamma   90.00000000
_symmetry_Int_Tables_number   1
_chemical_formula_structural   Li4Cr3Sn3(TeO8)2
_chemical_formula_sum   'Li8 Cr6 Sn6 Te4 O32'
_cell_volume   690.01644957
_cell_formula_units_Z   2
loop_
 _symmetry_equiv_pos_site_id
 _symmetry_equiv_pos_as_xyz
  1  'x, y, z'
loop_
 _atom_site_type_symbol
 _atom_site_label
 _atom_site_symmetry_multiplicity
 _atom_site_fract_x
 _atom_site_fract_y
 _atom_site_fract_z
 _atom_site_occupancy
  Li  Li0  1  0.67292400  0.00000000  0.89550500  1
  Li  Li1  1  0.99529100  0.00000000  0.98914000  1
  Li  Li2  1  0.99373100  0.00000000  0.49634100  1
  Li  Li3  1  0.83362700  0.50000000  0.40867300  1
  Li  Li4  1  0.17292400  0.50000000  0.89550500  1
  Li  Li5  1  0.49529100  0.50000000  0.98914000  1
  Li  Li6  1  0.49373100  0.50000000  0.49634100  1
  Li  Li7  1  0.33362700  0.00000000  0.40867300  1
  Cr  Cr8  1  0.83250200  0.00000000  0.20934900  1
  Cr  Cr9  1  0.91546950  0.74883150  0.71327100  1
  Cr  Cr10  1  0.91546950  0.25116850  0.71327100  1
  Cr  Cr11  1  0.33250200  0.50000000  0.20934900  1
  Cr  Cr12  1  0.41546950  0.24883150  0.71327100  1
  Cr  Cr13  1  0.41546950  0.75116850  0.71327100  1
  Sn  Sn14  1  0.58443850  0.24852050  0.21534600  1
  Sn  Sn15  1  0.58443850  0.75147950  0.21534600  1
  Sn  Sn16  1  0.66661500  0.50000000  0.71276500  1
  Sn  Sn17  1  0.08443850  0.74852050  0.21534600  1
  Sn  Sn18  1  0.08443850  0.25147950  0.21534600  1
  Sn  Sn19  1  0.16661500  0.00000000  0.71276500  1
  Te  Te20  1  0.67550800  0.00000000  0.49197900  1
  Te  Te21  1  0.84821100  0.50000000  0.98026500  1
  Te  Te22  1  0.17550800  0.50000000  0.49197900  1
  Te  Te23  1  0.34821100  0.00000000  0.98026500  1
  O  O24  1  0.57031900  0.26745000  0.60432900  1
  O  O25  1  0.51193100  0.00000000  0.33149000  1
  O  O26  1  0.66570500  0.00000000  0.10792200  1
  O  O27  1  0.99701100  0.00000000  0.31271200  1
  O  O28  1  0.99633400  0.00000000  0.80881500  1
  O  O29  1  0.57031900  0.73255000  0.60432900  1
  O  O30  1  0.73535350  0.22483350  0.35221500  1
  O  O31  1  0.73535350  0.77516650  0.35221500  1
  O  O32  1  0.65206000  0.50000000  0.10730700  1
  O  O33  1  0.84408000  0.00000000  0.59884400  1
  O  O34  1  0.76442500  0.72912400  0.83067100  1
  O  O35  1  0.76442500  0.27087600  0.83067100  1
  O  O36  1  0.83497700  0.50000000  0.61194400  1
  O  O37  1  0.92994550  0.75407550  0.08712300  1
  O  O38  1  0.97989400  0.50000000  0.83890600  1
  O  O39  1  0.92994550  0.24592450  0.08712300  1
  O  O40  1  0.07031900  0.76745000  0.60432900  1
  O  O41  1  0.01193100  0.50000000  0.33149000  1
  O  O42  1  0.16570500  0.50000000  0.10792200  1
  O  O43  1  0.49701100  0.50000000  0.31271200  1
  O  O44  1  0.49633400  0.50000000  0.80881500  1
  O  O45  1  0.07031900  0.23255000  0.60432900  1
  O  O46  1  0.23535350  0.72483350  0.35221500  1
  O  O47  1  0.23535350  0.27516650  0.35221500  1
  O  O48  1  0.15206000  0.00000000  0.10730700  1
  O  O49  1  0.34408000  0.50000000  0.59884400  1
  O  O50  1  0.26442500  0.22912400  0.83067100  1
  O  O51  1  0.26442500  0.77087600  0.83067100  1
  O  O52  1  0.33497700  0.00000000  0.61194400  1
  O  O53  1  0.42994550  0.25407550  0.08712300  1
  O  O54  1  0.47989400  0.00000000  0.83890600  1
  O  O55  1  0.42994550  0.74592450  0.08712300  1
