# generated using pymatgen
data_LiFePO4
_symmetry_space_group_name_H-M   'P 1'
_cell_length_a   5.16150047
_cell_length_b   5.17023717
_cell_length_c   9.60161963
_cell_angle_alpha   90.46205039
_cell_angle_beta   93.59855309
_cell_angle_gamma   119.50900965
_symmetry_Int_Tables_number   1
_chemical_formula_structural   LiFePO4
_chemical_formula_sum   'Li2 Fe2 P2 O8'
_cell_volume   222.32798470
_cell_formula_units_Z   2
loop_
 _symmetry_equiv_pos_site_id
 _symmetry_equiv_pos_as_xyz
  1  'x, y, z'
loop_
 _atom_site_type_symbol
 _atom_site_label
 _atom_site_symmetry_multiplicity
 _atom_site_fract_x
 _atom_site_fract_y
 _atom_site_fract_z
 _atom_site_occupancy
  Li  Li0  1  0.00297500  0.00603050  0.76395950  1
  Li  Li1  1  0.99852550  0.98338400  0.26522900  1
  Fe  Fe2  1  0.68435400  0.35388200  0.88147000  1
  Fe  Fe3  1  0.34968200  0.66525950  0.38317450  1
  P  P4  1  0.66246800  0.32011900  0.23978100  1
  P  P5  1  0.33148950  0.67703600  0.73907000  1
  O  O6  1  0.67110550  0.60609750  0.30066250  1
  O  O7  1  0.38749300  0.03992500  0.29027700  1
  O  O8  1  0.63803250  0.31903700  0.08012500  1
  O  O9  1  0.05850300  0.67517550  0.80203350  1
  O  O10  1  0.95181550  0.31811600  0.29477400  1
  O  O11  1  0.29968450  0.69537450  0.58029350  1
  O  O12  1  0.62497200  0.95170400  0.80230700  1
  O  O13  1  0.33919450  0.38885250  0.77802150  1
