# generated using pymatgen
data_Li2Cr(CO3)2
_symmetry_space_group_name_H-M   'P 1'
_cell_length_a   5.50410158
_cell_length_b   10.89951768
_cell_length_c   16.62706009
_cell_angle_alpha   90.00000000
_cell_angle_beta   90.00000000
_cell_angle_gamma   90.00000000
_symmetry_Int_Tables_number   1
_chemical_formula_structural   Li2Cr(CO3)2
_chemical_formula_sum   'Li16 Cr8 C16 O48'
_cell_volume   997.49146251
_cell_formula_units_Z   8
loop_
 _symmetry_equiv_pos_site_id
 _symmetry_equiv_pos_as_xyz
  1  'x, y, z'
loop_
 _atom_site_type_symbol
 _atom_site_label
 _atom_site_symmetry_multiplicity
 _atom_site_fract_x
 _atom_site_fract_y
 _atom_site_fract_z
 _atom_site_occupancy
  Li  Li0  1  0.33622450  0.45333400  0.67706850  1
  Li  Li1  1  0.08622450  0.29666600  0.92706850  1
  Li  Li2  1  0.08622450  0.20333400  0.57293150  1
  Li  Li3  1  0.33622450  0.04666600  0.82293150  1
  Li  Li4  1  0.83622450  0.45333400  0.17706850  1
  Li  Li5  1  0.58622450  0.29666600  0.42706850  1
  Li  Li6  1  0.58622450  0.20333400  0.07293150  1
  Li  Li7  1  0.83622450  0.04666600  0.32293150  1
  Li  Li8  1  0.83622450  0.95333400  0.67706850  1
  Li  Li9  1  0.58622450  0.79666600  0.92706850  1
  Li  Li10  1  0.58622450  0.70333400  0.57293150  1
  Li  Li11  1  0.83622450  0.54666600  0.82293150  1
  Li  Li12  1  0.33622450  0.95333400  0.17706850  1
  Li  Li13  1  0.08622450  0.79666600  0.42706850  1
  Li  Li14  1  0.08622450  0.70333400  0.07293150  1
  Li  Li15  1  0.33622450  0.54666600  0.32293150  1
  Cr  Cr16  1  0.76060800  0.25000000  0.75000000  1
  Cr  Cr17  1  0.01060800  0.50000000  0.50000000  1
  Cr  Cr18  1  0.26060800  0.25000000  0.25000000  1
  Cr  Cr19  1  0.51060800  0.50000000  0.00000000  1
  Cr  Cr20  1  0.26060800  0.75000000  0.75000000  1
  Cr  Cr21  1  0.51060800  0.00000000  0.50000000  1
  Cr  Cr22  1  0.76060800  0.75000000  0.25000000  1
  Cr  Cr23  1  0.01060800  0.00000000  0.00000000  1
  C  C24  1  0.79514600  0.47362500  0.65155600  1
  C  C25  1  0.54514600  0.27637500  0.90155600  1
  C  C26  1  0.54514600  0.22362500  0.59844400  1
  C  C27  1  0.79514600  0.02637500  0.84844400  1
  C  C28  1  0.29514600  0.47362500  0.15155600  1
  C  C29  1  0.04514600  0.27637500  0.40155600  1
  C  C30  1  0.04514600  0.22362500  0.09844400  1
  C  C31  1  0.29514600  0.02637500  0.34844400  1
  C  C32  1  0.29514600  0.97362500  0.65155600  1
  C  C33  1  0.04514600  0.77637500  0.90155600  1
  C  C34  1  0.04514600  0.72362500  0.59844400  1
  C  C35  1  0.29514600  0.52637500  0.84844400  1
  C  C36  1  0.79514600  0.97362500  0.15155600  1
  C  C37  1  0.54514600  0.77637500  0.40155600  1
  C  C38  1  0.54514600  0.72362500  0.09844400  1
  C  C39  1  0.79514600  0.52637500  0.34844400  1
  O  O40  1  0.12138100  0.01624950  0.60871350  1
  O  O41  1  0.01412650  0.46483900  0.62240950  1
  O  O42  1  0.75279750  0.43708200  0.72577750  1
  O  O43  1  0.50279750  0.31291800  0.97577750  1
  O  O44  1  0.76412650  0.28516100  0.87240950  1
  O  O45  1  0.37138100  0.23375050  0.85871350  1
  O  O46  1  0.37138100  0.26624950  0.64128650  1
  O  O47  1  0.76412650  0.21483900  0.62759050  1
  O  O48  1  0.50279750  0.18708200  0.52422250  1
  O  O49  1  0.75279750  0.06291800  0.77422250  1
  O  O50  1  0.01412650  0.03516100  0.87759050  1
  O  O51  1  0.12138100  0.48375050  0.89128650  1
  O  O52  1  0.62138100  0.01624950  0.10871350  1
  O  O53  1  0.51412650  0.46483900  0.12240950  1
  O  O54  1  0.25279750  0.43708200  0.22577750  1
  O  O55  1  0.00279750  0.31291800  0.47577750  1
  O  O56  1  0.26412650  0.28516100  0.37240950  1
  O  O57  1  0.87138100  0.23375050  0.35871350  1
  O  O58  1  0.87138100  0.26624950  0.14128650  1
  O  O59  1  0.26412650  0.21483900  0.12759050  1
  O  O60  1  0.00279750  0.18708200  0.02422250  1
  O  O61  1  0.25279750  0.06291800  0.27422250  1
  O  O62  1  0.51412650  0.03516100  0.37759050  1
  O  O63  1  0.62138100  0.48375050  0.39128650  1
  O  O64  1  0.62138100  0.51624950  0.60871350  1
  O  O65  1  0.51412650  0.96483900  0.62240950  1
  O  O66  1  0.25279750  0.93708200  0.72577750  1
  O  O67  1  0.00279750  0.81291800  0.97577750  1
  O  O68  1  0.26412650  0.78516100  0.87240950  1
  O  O69  1  0.87138100  0.73375050  0.85871350  1
  O  O70  1  0.87138100  0.76624950  0.64128650  1
  O  O71  1  0.26412650  0.71483900  0.62759050  1
  O  O72  1  0.00279750  0.68708200  0.52422250  1
  O  O73  1  0.25279750  0.56291800  0.77422250  1
  O  O74  1  0.51412650  0.53516100  0.87759050  1
  O  O75  1  0.62138100  0.98375050  0.89128650  1
  O  O76  1  0.12138100  0.51624950  0.10871350  1
  O  O77  1  0.01412650  0.96483900  0.12240950  1
  O  O78  1  0.75279750  0.93708200  0.22577750  1
  O  O79  1  0.50279750  0.81291800  0.47577750  1
  O  O80  1  0.76412650  0.78516100  0.37240950  1
  O  O81  1  0.37138100  0.73375050  0.35871350  1
  O  O82  1  0.37138100  0.76624950  0.14128650  1
  O  O83  1  0.76412650  0.71483900  0.12759050  1
  O  O84  1  0.50279750  0.68708200  0.02422250  1
  O  O85  1  0.75279750  0.56291800  0.27422250  1
  O  O86  1  0.01412650  0.53516100  0.37759050  1
  O  O87  1  0.12138100  0.98375050  0.39128650  1
