# generated using pymatgen
data_Na6CoO4
_symmetry_space_group_name_H-M   'P 1'
_cell_length_a   7.65694227
_cell_length_b   7.65694227
_cell_length_c   5.89483700
_cell_angle_alpha   90.00000000
_cell_angle_beta   90.00000000
_cell_angle_gamma   120.00000000
_symmetry_Int_Tables_number   1
_chemical_formula_structural   Na6CoO4
_chemical_formula_sum   'Na12 Co2 O8'
_cell_volume   299.30445264
_cell_formula_units_Z   2
loop_
 _symmetry_equiv_pos_site_id
 _symmetry_equiv_pos_as_xyz
  1  'x, y, z'
loop_
 _atom_site_type_symbol
 _atom_site_label
 _atom_site_symmetry_multiplicity
 _atom_site_fract_x
 _atom_site_fract_y
 _atom_site_fract_z
 _atom_site_occupancy
  Na  Na0  1  0.28482500  0.14241250  0.46359500  1
  Na  Na1  1  0.85758750  0.71517500  0.46359500  1
  Na  Na2  1  0.14241250  0.85758750  0.96359500  1
  Na  Na3  1  0.85758750  0.14241250  0.46359500  1
  Na  Na4  1  0.14241250  0.28482500  0.96359500  1
  Na  Na5  1  0.71517500  0.85758750  0.96359500  1
  Na  Na6  1  0.53722550  0.46277450  0.13183200  1
  Na  Na7  1  0.53722550  0.07445100  0.13183200  1
  Na  Na8  1  0.92554900  0.46277450  0.13183200  1
  Na  Na9  1  0.07445100  0.53722550  0.63183200  1
  Na  Na10  1  0.46277450  0.92554900  0.63183200  1
  Na  Na11  1  0.46277450  0.53722550  0.63183200  1
  Co  Co12  1  0.66666667  0.33333333  0.74171000  1
  Co  Co13  1  0.33333333  0.66666667  0.24171000  1
  O  O14  1  0.66666667  0.33333333  0.40471700  1
  O  O15  1  0.33333333  0.66666667  0.90471700  1
  O  O16  1  0.37879400  0.18939700  0.85444600  1
  O  O17  1  0.81060300  0.62120600  0.85444600  1
  O  O18  1  0.81060300  0.18939700  0.85444600  1
  O  O19  1  0.18939700  0.81060300  0.35444600  1
  O  O20  1  0.18939700  0.37879400  0.35444600  1
  O  O21  1  0.62120600  0.81060300  0.35444600  1
