# generated using pymatgen
data_Li2Ni2SbO6
_symmetry_space_group_name_H-M   'P 1'
_cell_length_a   5.27743600
_cell_length_b   8.93356600
_cell_length_c   10.05628500
_cell_angle_alpha   90.00000000
_cell_angle_beta   90.00000000
_cell_angle_gamma   90.00000000
_symmetry_Int_Tables_number   1
_chemical_formula_structural   Li2Ni2SbO6
_chemical_formula_sum   'Li8 Ni8 Sb4 O24'
_cell_volume   474.11685895
_cell_formula_units_Z   4
loop_
 _symmetry_equiv_pos_site_id
 _symmetry_equiv_pos_as_xyz
  1  'x, y, z'
loop_
 _atom_site_type_symbol
 _atom_site_label
 _atom_site_symmetry_multiplicity
 _atom_site_fract_x
 _atom_site_fract_y
 _atom_site_fract_z
 _atom_site_occupancy
  Li  Li0  1  0.39462700  0.25000000  0.75000000  1
  Li  Li1  1  0.60537300  0.25000000  0.25000000  1
  Li  Li2  1  0.39462700  0.75000000  0.75000000  1
  Li  Li3  1  0.60537300  0.75000000  0.25000000  1
  Li  Li4  1  0.89462700  0.75000000  0.75000000  1
  Li  Li5  1  0.10537300  0.75000000  0.25000000  1
  Li  Li6  1  0.89462700  0.25000000  0.75000000  1
  Li  Li7  1  0.10537300  0.25000000  0.25000000  1
  Ni  Ni8  1  0.50000000  0.33500800  0.50000000  1
  Ni  Ni9  1  0.50000000  0.16499200  0.00000000  1
  Ni  Ni10  1  0.50000000  0.83500800  0.00000000  1
  Ni  Ni11  1  0.50000000  0.66499200  0.50000000  1
  Ni  Ni12  1  0.00000000  0.83500800  0.50000000  1
  Ni  Ni13  1  0.00000000  0.66499200  0.00000000  1
  Ni  Ni14  1  0.00000000  0.33500800  0.00000000  1
  Ni  Ni15  1  0.00000000  0.16499200  0.50000000  1
  Sb  Sb16  1  0.00000000  0.00000000  0.00000000  1
  Sb  Sb17  1  0.50000000  0.00000000  0.50000000  1
  Sb  Sb18  1  0.50000000  0.50000000  0.00000000  1
  Sb  Sb19  1  0.00000000  0.50000000  0.50000000  1
  O  O20  1  0.35259050  0.33015250  0.11073000  1
  O  O21  1  0.64740950  0.66984750  0.88927000  1
  O  O22  1  0.35259050  0.16984750  0.38927000  1
  O  O23  1  0.64740950  0.16984750  0.61073000  1
  O  O24  1  0.17032300  0.00000000  0.59960100  1
  O  O25  1  0.32967700  0.00000000  0.09960100  1
  O  O26  1  0.67032300  0.00000000  0.90039900  1
  O  O27  1  0.64740950  0.33015250  0.88927000  1
  O  O28  1  0.82967700  0.00000000  0.40039900  1
  O  O29  1  0.35259050  0.83015250  0.38927000  1
  O  O30  1  0.64740950  0.83015250  0.61073000  1
  O  O31  1  0.35259050  0.66984750  0.11073000  1
  O  O32  1  0.85259050  0.83015250  0.11073000  1
  O  O33  1  0.14740950  0.16984750  0.88927000  1
  O  O34  1  0.85259050  0.66984750  0.38927000  1
  O  O35  1  0.14740950  0.66984750  0.61073000  1
  O  O36  1  0.67032300  0.50000000  0.59960100  1
  O  O37  1  0.82967700  0.50000000  0.09960100  1
  O  O38  1  0.17032300  0.50000000  0.90039900  1
  O  O39  1  0.14740950  0.83015250  0.88927000  1
  O  O40  1  0.32967700  0.50000000  0.40039900  1
  O  O41  1  0.85259050  0.33015250  0.38927000  1
  O  O42  1  0.14740950  0.33015250  0.61073000  1
  O  O43  1  0.85259050  0.16984750  0.11073000  1
