# generated using pymatgen
data_LiCo2CuO6
_symmetry_space_group_name_H-M   'P 1'
_cell_length_a   12.67948400
_cell_length_b   2.84452200
_cell_length_c   5.87478476
_cell_angle_alpha   90.00000000
_cell_angle_beta   104.19847998
_cell_angle_gamma   90.00000000
_symmetry_Int_Tables_number   1
_chemical_formula_structural   LiCo2CuO6
_chemical_formula_sum   'Li2 Co4 Cu2 O12'
_cell_volume   205.41354794
_cell_formula_units_Z   2
loop_
 _symmetry_equiv_pos_site_id
 _symmetry_equiv_pos_as_xyz
  1  'x, y, z'
loop_
 _atom_site_type_symbol
 _atom_site_label
 _atom_site_symmetry_multiplicity
 _atom_site_fract_x
 _atom_site_fract_y
 _atom_site_fract_z
 _atom_site_occupancy
  Li  Li0  1  0.00000000  0.00000000  0.00000000  1
  Li  Li1  1  0.50000000  0.50000000  0.00000000  1
  Co  Co2  1  0.17289300  0.50000000  0.82760900  1
  Co  Co3  1  0.32710700  0.00000000  0.17239100  1
  Co  Co4  1  0.67289300  0.00000000  0.82760900  1
  Co  Co5  1  0.82710700  0.50000000  0.17239100  1
  Cu  Cu6  1  0.00000000  0.00000000  0.50000000  1
  Cu  Cu7  1  0.50000000  0.50000000  0.50000000  1
  O  O8  1  0.16453700  0.00000000  0.61976300  1
  O  O9  1  0.47930300  0.00000000  0.25533600  1
  O  O10  1  0.32534700  0.50000000  0.95353500  1
  O  O11  1  0.02069700  0.50000000  0.74466400  1
  O  O12  1  0.33546300  0.50000000  0.38023700  1
  O  O13  1  0.17465300  0.00000000  0.04646500  1
  O  O14  1  0.66453700  0.50000000  0.61976300  1
  O  O15  1  0.97930300  0.50000000  0.25533600  1
  O  O16  1  0.82534700  0.00000000  0.95353500  1
  O  O17  1  0.52069700  0.00000000  0.74466400  1
  O  O18  1  0.83546300  0.00000000  0.38023700  1
  O  O19  1  0.67465300  0.50000000  0.04646500  1
