# generated using pymatgen
data_VOF2
_symmetry_space_group_name_H-M   'P 1'
_cell_length_a   5.25584478
_cell_length_b   5.03578500
_cell_length_c   7.61361178
_cell_angle_alpha   90.00000000
_cell_angle_beta   92.56614508
_cell_angle_gamma   90.00000000
_symmetry_Int_Tables_number   1
_chemical_formula_structural   VOF2
_chemical_formula_sum   'V4 O4 F8'
_cell_volume   201.30970392
_cell_formula_units_Z   4
loop_
 _symmetry_equiv_pos_site_id
 _symmetry_equiv_pos_as_xyz
  1  'x, y, z'
loop_
 _atom_site_type_symbol
 _atom_site_label
 _atom_site_symmetry_multiplicity
 _atom_site_fract_x
 _atom_site_fract_y
 _atom_site_fract_z
 _atom_site_occupancy
  V  V0  1  0.00000000  0.50000000  0.50000000  1
  V  V1  1  0.00000000  0.50000000  0.00000000  1
  V  V2  1  0.50000000  0.00000000  0.50000000  1
  V  V3  1  0.50000000  0.00000000  0.00000000  1
  O  O4  1  0.78528500  0.21379100  0.53517750  1
  O  O5  1  0.21471500  0.21379100  0.96482250  1
  O  O6  1  0.78528500  0.78620900  0.03517750  1
  O  O7  1  0.21471500  0.78620900  0.46482250  1
  F  F8  1  0.50000000  0.11059800  0.25000000  1
  F  F9  1  0.70329100  0.29580900  0.92820050  1
  F  F10  1  0.29670900  0.29580900  0.57179950  1
  F  F11  1  0.00000000  0.39432900  0.25000000  1
  F  F12  1  0.00000000  0.60567100  0.75000000  1
  F  F13  1  0.70329100  0.70419100  0.42820050  1
  F  F14  1  0.29670900  0.70419100  0.07179950  1
  F  F15  1  0.50000000  0.88940200  0.75000000  1
