# generated using pymatgen
data_La4MnO8
_symmetry_space_group_name_H-M   'P 1'
_cell_length_a   5.38302952
_cell_length_b   12.71623220
_cell_length_c   5.40806500
_cell_angle_alpha   90.00000000
_cell_angle_beta   90.00000000
_cell_angle_gamma   90.00000000
_symmetry_Int_Tables_number   1
_chemical_formula_structural   La4MnO8
_chemical_formula_sum   'La8 Mn2 O16'
_cell_volume   370.19207247
_cell_formula_units_Z   2
loop_
 _symmetry_equiv_pos_site_id
 _symmetry_equiv_pos_as_xyz
  1  'x, y, z'
loop_
 _atom_site_type_symbol
 _atom_site_label
 _atom_site_symmetry_multiplicity
 _atom_site_fract_x
 _atom_site_fract_y
 _atom_site_fract_z
 _atom_site_occupancy
  La  La0  1  0.50000000  0.36510087  0.00000000  1
  La  La1  1  0.00000000  0.13489913  0.00000000  1
  La  La2  1  0.00000000  0.36646863  0.50000000  1
  La  La3  1  0.50000000  0.13353137  0.50000000  1
  La  La4  1  0.00000000  0.86510087  0.00000000  1
  La  La5  1  0.50000000  0.63489913  0.00000000  1
  La  La6  1  0.50000000  0.86646862  0.50000000  1
  La  La7  1  0.00000000  0.63353138  0.50000000  1
  Mn  Mn8  1  0.00000000  0.00000000  0.50000000  1
  Mn  Mn9  1  0.50000000  0.50000000  0.50000000  1
  O  O10  1  0.50000000  0.33762012  0.50000000  1
  O  O11  1  0.00000000  0.16237988  0.50000000  1
  O  O12  1  0.00000000  0.31091050  0.00000000  1
  O  O13  1  0.50000000  0.18908950  0.00000000  1
  O  O14  1  0.74939900  0.50000000  0.26145800  1
  O  O15  1  0.24939900  0.00000000  0.73854200  1
  O  O16  1  0.25060100  0.50000000  0.26145800  1
  O  O17  1  0.75060100  0.00000000  0.73854200  1
  O  O18  1  0.00000000  0.83762012  0.50000000  1
  O  O19  1  0.50000000  0.66237988  0.50000000  1
  O  O20  1  0.50000000  0.81091050  0.00000000  1
  O  O21  1  0.00000000  0.68908950  0.00000000  1
  O  O22  1  0.24939900  0.00000000  0.26145800  1
  O  O23  1  0.74939900  0.50000000  0.73854200  1
  O  O24  1  0.75060100  0.00000000  0.26145800  1
  O  O25  1  0.25060100  0.50000000  0.73854200  1
