# generated using pymatgen
data_LiNiPO4
_symmetry_space_group_name_H-M   'P 1'
_cell_length_a   4.84420340
_cell_length_b   4.84420340
_cell_length_c   23.52820800
_cell_angle_alpha   90.00000000
_cell_angle_beta   90.00000000
_cell_angle_gamma   120.00000000
_symmetry_Int_Tables_number   1
_chemical_formula_structural   LiNiPO4
_chemical_formula_sum   'Li6 Ni6 P6 O24'
_cell_volume   478.15006956
_cell_formula_units_Z   6
loop_
 _symmetry_equiv_pos_site_id
 _symmetry_equiv_pos_as_xyz
  1  'x, y, z'
loop_
 _atom_site_type_symbol
 _atom_site_label
 _atom_site_symmetry_multiplicity
 _atom_site_fract_x
 _atom_site_fract_y
 _atom_site_fract_z
 _atom_site_occupancy
  Li  Li0  1  0.00000000  0.00000000  0.71723017  1
  Li  Li1  1  0.33333333  0.66666667  0.94943650  1
  Li  Li2  1  0.66666667  0.33333333  0.05056350  1
  Li  Li3  1  1.00000000  0.00000000  0.28276983  1
  Li  Li4  1  0.33333333  0.66666667  0.38389683  1
  Li  Li5  1  0.66666667  0.33333333  0.61610317  1
  Ni  Ni6  1  0.00000000  0.00000000  0.83858083  1
  Ni  Ni7  1  0.33333333  0.66666667  0.82808583  1
  Ni  Ni8  1  0.66666667  0.33333333  0.17191417  1
  Ni  Ni9  1  0.00000000  0.00000000  0.16141917  1
  Ni  Ni10  1  0.33333333  0.66666667  0.50524750  1
  Ni  Ni11  1  0.66666667  0.33333333  0.49475250  1
  P  P12  1  0.66666667  0.33333333  0.90822650  1
  P  P13  1  0.66666667  0.33333333  0.75844017  1
  P  P14  1  0.33333333  0.66666667  0.24155983  1
  P  P15  1  0.33333333  0.66666667  0.09177350  1
  P  P16  1  0.00000000  0.00000000  0.57489317  1
  P  P17  1  0.00000000  0.00000000  0.42510683  1
  O  O18  1  0.66666667  0.33333333  0.97188683  1
  O  O19  1  0.33333333  0.66666667  0.02811317  1
  O  O20  1  0.98294300  0.63064200  0.88548050  1
  O  O21  1  0.96397533  0.31436567  0.78118617  1
  O  O22  1  0.36935800  0.35230100  0.88548050  1
  O  O23  1  0.35039033  0.03602467  0.78118617  1
  O  O24  1  0.68563433  0.64960967  0.78118617  1
  O  O25  1  0.64769900  0.01705700  0.88548050  1
  O  O26  1  0.33333333  0.66666667  0.30522017  1
  O  O27  1  0.00000000  0.00000000  0.36144650  1
  O  O28  1  0.64960967  0.96397533  0.21881383  1
  O  O29  1  0.63064200  0.64769900  0.11451950  1
  O  O30  1  0.03602467  0.68563433  0.21881383  1
  O  O31  1  0.01705700  0.36935800  0.11451950  1
  O  O32  1  0.35230100  0.98294300  0.11451950  1
  O  O33  1  0.31436567  0.35039033  0.21881383  1
  O  O34  1  0.00000000  0.00000000  0.63855350  1
  O  O35  1  0.66666667  0.33333333  0.69477983  1
  O  O36  1  0.31627633  0.29730867  0.55214717  1
  O  O37  1  0.29730867  0.98103233  0.44785283  1
  O  O38  1  0.70269133  0.01896767  0.55214717  1
  O  O39  1  0.68372367  0.70269133  0.44785283  1
  O  O40  1  0.01896767  0.31627633  0.44785283  1
  O  O41  1  0.98103233  0.68372367  0.55214717  1
