# generated using pymatgen
data_Cu4H10SO12
_symmetry_space_group_name_H-M   'P 1'
_cell_length_a   7.63050130
_cell_length_b   6.02120900
_cell_length_c   11.58719253
_cell_angle_alpha   90.00000000
_cell_angle_beta   90.82869136
_cell_angle_gamma   90.00000000
_symmetry_Int_Tables_number   1
_chemical_formula_structural   Cu4H10SO12
_chemical_formula_sum   'Cu8 H20 S2 O24'
_cell_volume   532.31606045
_cell_formula_units_Z   2
loop_
 _symmetry_equiv_pos_site_id
 _symmetry_equiv_pos_as_xyz
  1  'x, y, z'
loop_
 _atom_site_type_symbol
 _atom_site_label
 _atom_site_symmetry_multiplicity
 _atom_site_fract_x
 _atom_site_fract_y
 _atom_site_fract_z
 _atom_site_occupancy
  Cu  Cu0  1  0.01216900  0.99932800  0.99519400  1
  Cu  Cu1  1  0.01216900  0.00067200  0.49519400  1
  Cu  Cu2  1  0.01077100  0.49797700  0.99405400  1
  Cu  Cu3  1  0.01077100  0.50202300  0.49405400  1
  Cu  Cu4  1  0.01451600  0.24826300  0.24360900  1
  Cu  Cu5  1  0.01451600  0.75173700  0.74360900  1
  Cu  Cu6  1  0.01114000  0.73465600  0.24839400  1
  Cu  Cu7  1  0.01114000  0.26534400  0.74839400  1
  H  H8  1  0.74937700  0.75599300  0.47162500  1
  H  H9  1  0.74937700  0.24400700  0.97162500  1
  H  H10  1  0.76881200  0.37696600  0.37293500  1
  H  H11  1  0.76881200  0.62303400  0.87293500  1
  H  H12  1  0.26616300  0.26932100  0.53409400  1
  H  H13  1  0.26616300  0.73067900  0.03409400  1
  H  H14  1  0.77773400  0.00488300  0.14583200  1
  H  H15  1  0.77773400  0.99511700  0.64583200  1
  H  H16  1  0.24568000  0.00255100  0.33292100  1
  H  H17  1  0.24568000  0.99744900  0.83292100  1
  H  H18  1  0.76489400  0.50445600  0.15874100  1
  H  H19  1  0.76489400  0.49554400  0.65874100  1
  H  H20  1  0.34766100  0.39151000  0.12731100  1
  H  H21  1  0.34766100  0.60849000  0.62731100  1
  H  H22  1  0.35787200  0.15280600  0.07715600  1
  H  H23  1  0.35787200  0.84719400  0.57715600  1
  H  H24  1  0.51859900  0.73495900  0.21853000  1
  H  H25  1  0.51859900  0.26504100  0.71853000  1
  H  H26  1  0.48476700  0.51644700  0.28554900  1
  H  H27  1  0.48476700  0.48355300  0.78554900  1
  S  S28  1  0.54844600  0.16473300  0.41842400  1
  S  S29  1  0.54844600  0.83526700  0.91842400  1
  O  O30  1  0.49594600  0.03197400  0.31818400  1
  O  O31  1  0.49594600  0.96802600  0.81818400  1
  O  O32  1  0.75616200  0.22321100  0.40132500  1
  O  O33  1  0.75616200  0.77678900  0.90132500  1
  O  O34  1  0.46282300  0.38224100  0.42494100  1
  O  O35  1  0.46282300  0.61775900  0.92494100  1
  O  O36  1  0.54830800  0.96071400  0.02725000  1
  O  O37  1  0.54830800  0.03928600  0.52725000  1
  O  O38  1  0.86616900  0.74886900  0.43845300  1
  O  O39  1  0.86616900  0.25113100  0.93845300  1
  O  O40  1  0.09076600  0.51476100  0.83862700  1
  O  O41  1  0.09076600  0.48523900  0.33862700  1
  O  O42  1  0.14454000  0.25361300  0.55830300  1
  O  O43  1  0.14454000  0.74638700  0.05830300  1
  O  O44  1  0.90573000  0.99788500  0.15433300  1
  O  O45  1  0.90573000  0.00211500  0.65433300  1
  O  O46  1  0.11631200  0.00590700  0.83593100  1
  O  O47  1  0.11631200  0.99409300  0.33593100  1
  O  O48  1  0.89441100  0.50614500  0.65184100  1
  O  O49  1  0.89441100  0.49385500  0.15184100  1
  O  O50  1  0.27358800  0.26535600  0.10262800  1
  O  O51  1  0.27358800  0.73464400  0.60262800  1
  O  O52  1  0.52484500  0.57326800  0.21011600  1
  O  O53  1  0.52484500  0.42673200  0.71011600  1
