# generated using pymatgen
data_Fe4O7F
_symmetry_space_group_name_H-M   'P 1'
_cell_length_a   9.20993000
_cell_length_b   12.00818800
_cell_length_c   4.60446505
_cell_angle_alpha   90.00000000
_cell_angle_beta   91.92334635
_cell_angle_gamma   90.00000000
_symmetry_Int_Tables_number   1
_chemical_formula_structural   Fe4O7F
_chemical_formula_sum   'Fe16 O28 F4'
_cell_volume   508.94194861
_cell_formula_units_Z   4
loop_
 _symmetry_equiv_pos_site_id
 _symmetry_equiv_pos_as_xyz
  1  'x, y, z'
loop_
 _atom_site_type_symbol
 _atom_site_label
 _atom_site_symmetry_multiplicity
 _atom_site_fract_x
 _atom_site_fract_y
 _atom_site_fract_z
 _atom_site_occupancy
  Fe  Fe0  1  0.49684100  0.87403400  0.50148900  1
  Fe  Fe1  1  0.51000150  0.62327450  0.48418100  1
  Fe  Fe2  1  0.49684100  0.12596600  0.50148900  1
  Fe  Fe3  1  0.51000150  0.37672550  0.48418100  1
  Fe  Fe4  1  0.25394400  0.00000000  0.99359600  1
  Fe  Fe5  1  0.24693100  0.24400600  0.00674300  1
  Fe  Fe6  1  0.73373200  0.00000000  0.03016800  1
  Fe  Fe7  1  0.24693100  0.75599400  0.00674300  1
  Fe  Fe8  1  0.99684100  0.37403400  0.50148900  1
  Fe  Fe9  1  0.01000150  0.12327450  0.48418100  1
  Fe  Fe10  1  0.99684100  0.62596600  0.50148900  1
  Fe  Fe11  1  0.01000150  0.87672550  0.48418100  1
  Fe  Fe12  1  0.75394400  0.50000000  0.99359600  1
  Fe  Fe13  1  0.74693100  0.74400600  0.00674300  1
  Fe  Fe14  1  0.23373200  0.50000000  0.03016800  1
  Fe  Fe15  1  0.74693100  0.25599400  0.00674300  1
  O  O16  1  0.15756300  0.88136300  0.18562300  1
  O  O17  1  0.65182550  0.86801650  0.19530600  1
  O  O18  1  0.15756300  0.11863700  0.18562300  1
  O  O19  1  0.65182550  0.13198350  0.19530600  1
  O  O20  1  0.40444900  0.00000000  0.29665500  1
  O  O21  1  0.40301700  0.74734800  0.30826300  1
  O  O22  1  0.90223800  0.00000000  0.31161400  1
  O  O23  1  0.40301700  0.25265200  0.30826300  1
  O  O24  1  0.10133000  0.00000000  0.69300700  1
  O  O25  1  0.59635800  0.74751400  0.69412200  1
  O  O26  1  0.59635800  0.25248600  0.69412200  1
  O  O27  1  0.59452000  0.00000000  0.69213500  1
  O  O28  1  0.34583550  0.12461050  0.80817300  1
  O  O29  1  0.34583550  0.87538950  0.80817300  1
  O  O30  1  0.65756300  0.38136300  0.18562300  1
  O  O31  1  0.15182550  0.36801650  0.19530600  1
  O  O32  1  0.65756300  0.61863700  0.18562300  1
  O  O33  1  0.15182550  0.63198350  0.19530600  1
  O  O34  1  0.90444900  0.50000000  0.29665500  1
  O  O35  1  0.90301700  0.24734800  0.30826300  1
  O  O36  1  0.40223800  0.50000000  0.31161400  1
  O  O37  1  0.90301700  0.75265200  0.30826300  1
  O  O38  1  0.60133000  0.50000000  0.69300700  1
  O  O39  1  0.09635800  0.24751400  0.69412200  1
  O  O40  1  0.09635800  0.75248600  0.69412200  1
  O  O41  1  0.09452000  0.50000000  0.69213500  1
  O  O42  1  0.84583550  0.62461050  0.80817300  1
  O  O43  1  0.84583550  0.37538950  0.80817300  1
  F  F44  1  0.84652150  0.12372850  0.80751400  1
  F  F45  1  0.84652150  0.87627150  0.80751400  1
  F  F46  1  0.34652150  0.62372850  0.80751400  1
  F  F47  1  0.34652150  0.37627150  0.80751400  1
