# generated using pymatgen
data_Fe6O11F
_symmetry_space_group_name_H-M   'P 1'
_cell_length_a   6.64653800
_cell_length_b   19.47473400
_cell_length_c   2.97686400
_cell_angle_alpha   90.00000000
_cell_angle_beta   90.00000000
_cell_angle_gamma   90.00000000
_symmetry_Int_Tables_number   1
_chemical_formula_structural   Fe6O11F
_chemical_formula_sum   'Fe12 O22 F2'
_cell_volume   385.32396506
_cell_formula_units_Z   2
loop_
 _symmetry_equiv_pos_site_id
 _symmetry_equiv_pos_as_xyz
  1  'x, y, z'
loop_
 _atom_site_type_symbol
 _atom_site_label
 _atom_site_symmetry_multiplicity
 _atom_site_fract_x
 _atom_site_fract_y
 _atom_site_fract_z
 _atom_site_occupancy
  Fe  Fe0  1  0.66732900  0.33388100  0.00000000  1
  Fe  Fe1  1  0.16718800  0.33337700  0.50000000  1
  Fe  Fe2  1  0.16732900  0.16611900  0.00000000  1
  Fe  Fe3  1  0.15099700  0.00000000  0.50000000  1
  Fe  Fe4  1  0.66718800  0.16662300  0.50000000  1
  Fe  Fe5  1  0.67915000  0.00000000  0.00000000  1
  Fe  Fe6  1  0.16732900  0.83388100  0.00000000  1
  Fe  Fe7  1  0.66718800  0.83337700  0.50000000  1
  Fe  Fe8  1  0.66732900  0.66611900  0.00000000  1
  Fe  Fe9  1  0.65099700  0.50000000  0.50000000  1
  Fe  Fe10  1  0.16718800  0.66662300  0.50000000  1
  Fe  Fe11  1  0.17915000  0.50000000  0.00000000  1
  O  O12  1  0.97844850  0.33334050  0.00000000  1
  O  O13  1  0.85613750  0.16650250  0.00000000  1
  O  O14  1  0.35613750  0.33349750  0.00000000  1
  O  O15  1  0.16687700  0.22910700  0.50000000  1
  O  O16  1  0.16829850  0.10141750  0.50000000  1
  O  O17  1  0.66687700  0.27089300  0.50000000  1
  O  O18  1  0.47844850  0.16665950  0.00000000  1
  O  O19  1  0.66829850  0.39858250  0.50000000  1
  O  O20  1  0.66420150  0.06342150  0.50000000  1
  O  O21  1  0.16420150  0.43657850  0.50000000  1
  O  O22  1  0.97493600  0.00000000  0.00000000  1
  O  O23  1  0.47844850  0.83334050  0.00000000  1
  O  O24  1  0.35613750  0.66650250  0.00000000  1
  O  O25  1  0.85613750  0.83349750  0.00000000  1
  O  O26  1  0.66687700  0.72910700  0.50000000  1
  O  O27  1  0.66829850  0.60141750  0.50000000  1
  O  O28  1  0.16687700  0.77089300  0.50000000  1
  O  O29  1  0.97844850  0.66665950  0.00000000  1
  O  O30  1  0.16829850  0.89858250  0.50000000  1
  O  O31  1  0.16420150  0.56342150  0.50000000  1
  O  O32  1  0.66420150  0.93657850  0.50000000  1
  O  O33  1  0.47493600  0.50000000  0.00000000  1
  F  F34  1  0.36232800  0.00000000  0.00000000  1
  F  F35  1  0.86232800  0.50000000  0.00000000  1
