# generated using pymatgen
data_LiMn2(CO3)4
_symmetry_space_group_name_H-M   'P 1'
_cell_length_a   7.33148400
_cell_length_b   9.74125000
_cell_length_c   8.45918118
_cell_angle_alpha   90.00000000
_cell_angle_beta   110.23385895
_cell_angle_gamma   90.00000000
_symmetry_Int_Tables_number   1
_chemical_formula_structural   LiMn2(CO3)4
_chemical_formula_sum   'Li2 Mn4 C8 O24'
_cell_volume   566.85429532
_cell_formula_units_Z   2
loop_
 _symmetry_equiv_pos_site_id
 _symmetry_equiv_pos_as_xyz
  1  'x, y, z'
loop_
 _atom_site_type_symbol
 _atom_site_label
 _atom_site_symmetry_multiplicity
 _atom_site_fract_x
 _atom_site_fract_y
 _atom_site_fract_z
 _atom_site_occupancy
  Li  Li0  1  0.23939300  0.56545900  0.88255100  1
  Li  Li1  1  0.76060700  0.06545900  0.11744900  1
  Mn  Mn2  1  0.71558800  0.64683300  0.18503700  1
  Mn  Mn3  1  0.28441200  0.14683300  0.81496300  1
  Mn  Mn4  1  0.19834900  0.85857000  0.67643900  1
  Mn  Mn5  1  0.80165100  0.35857000  0.32356100  1
  C  C6  1  0.49406800  0.89122200  0.00844700  1
  C  C7  1  0.50593200  0.39122200  0.99155300  1
  C  C8  1  0.49224300  0.52027200  0.38439800  1
  C  C9  1  0.50775700  0.02027200  0.61560200  1
  C  C10  1  0.98624000  0.98370700  0.88665100  1
  C  C11  1  0.01376000  0.48370700  0.11334900  1
  C  C12  1  0.00349500  0.60082100  0.52014400  1
  C  C13  1  0.99650500  0.10082100  0.47985600  1
  O  O14  1  0.63476000  0.84971100  0.13768800  1
  O  O15  1  0.53057700  0.52388800  0.00861300  1
  O  O16  1  0.61275600  0.30355800  0.09943200  1
  O  O17  1  0.38724400  0.80355800  0.90056800  1
  O  O18  1  0.46942300  0.02388800  0.99138700  1
  O  O19  1  0.36524000  0.34971100  0.86231200  1
  O  O20  1  0.63475100  0.03704800  0.54831500  1
  O  O21  1  0.53420300  0.62645400  0.31051800  1
  O  O22  1  0.57357800  0.40117600  0.39061100  1
  O  O23  1  0.42642200  0.90117600  0.60938900  1
  O  O24  1  0.46579700  0.12645400  0.68948200  1
  O  O25  1  0.13564700  0.47216100  0.03961100  1
  O  O26  1  0.36524900  0.53704800  0.45168500  1
  O  O27  1  0.01108400  0.88411100  0.79442400  1
  O  O28  1  0.08552400  0.09797200  0.90720900  1
  O  O29  1  0.91447600  0.59797200  0.09279100  1
  O  O30  1  0.98891600  0.38411100  0.20557600  1
  O  O31  1  0.86435300  0.97216100  0.96038900  1
  O  O32  1  0.12893800  0.64836300  0.65703800  1
  O  O33  1  0.04092100  0.97203600  0.48633000  1
  O  O34  1  0.07254000  0.18648800  0.60209200  1
  O  O35  1  0.92746000  0.68648800  0.39790800  1
  O  O36  1  0.95907900  0.47203600  0.51367000  1
  O  O37  1  0.87106200  0.14836300  0.34296200  1
