# generated using pymatgen
data_Fe5O3F7
_symmetry_space_group_name_H-M   'P 1'
_cell_length_a   6.89059000
_cell_length_b   6.72879600
_cell_length_c   15.71467203
_cell_angle_alpha   90.00000000
_cell_angle_beta   90.11012766
_cell_angle_gamma   90.00000000
_symmetry_Int_Tables_number   1
_chemical_formula_structural   Fe5O3F7
_chemical_formula_sum   'Fe20 O12 F28'
_cell_volume   728.61530672
_cell_formula_units_Z   4
loop_
 _symmetry_equiv_pos_site_id
 _symmetry_equiv_pos_as_xyz
  1  'x, y, z'
loop_
 _atom_site_type_symbol
 _atom_site_label
 _atom_site_symmetry_multiplicity
 _atom_site_fract_x
 _atom_site_fract_y
 _atom_site_fract_z
 _atom_site_occupancy
  Fe  Fe0  1  0.97352350  0.00719850  0.60467000  1
  Fe  Fe1  1  0.02647650  0.00719850  0.39533000  1
  Fe  Fe2  1  0.49617850  0.52420750  0.20028300  1
  Fe  Fe3  1  0.50000000  0.52465400  0.00000000  1
  Fe  Fe4  1  0.50382150  0.52420750  0.79971700  1
  Fe  Fe5  1  0.50000000  0.00251900  0.50000000  1
  Fe  Fe6  1  0.50069200  0.98841700  0.10163900  1
  Fe  Fe7  1  0.48933200  0.98070000  0.30762200  1
  Fe  Fe8  1  0.49930800  0.98841700  0.89836100  1
  Fe  Fe9  1  0.51066800  0.98070000  0.69237800  1
  Fe  Fe10  1  0.47352350  0.50719850  0.60467000  1
  Fe  Fe11  1  0.52647650  0.50719850  0.39533000  1
  Fe  Fe12  1  0.99617850  0.02420750  0.20028300  1
  Fe  Fe13  1  0.00000000  0.02465400  0.00000000  1
  Fe  Fe14  1  0.00382150  0.02420750  0.79971700  1
  Fe  Fe15  1  0.00000000  0.50251900  0.50000000  1
  Fe  Fe16  1  0.00069200  0.48841700  0.10163900  1
  Fe  Fe17  1  0.98933200  0.48070000  0.30762200  1
  Fe  Fe18  1  0.99930800  0.48841700  0.89836100  1
  Fe  Fe19  1  0.01066800  0.48070000  0.69237800  1
  O  O20  1  0.50284450  0.69799150  0.29486300  1
  O  O21  1  0.49890900  0.68667200  0.09997000  1
  O  O22  1  0.50109100  0.68667200  0.90003000  1
  O  O23  1  0.49715550  0.69799150  0.70513700  1
  O  O24  1  0.32508400  0.00399200  0.40374800  1
  O  O25  1  0.67491600  0.00399200  0.59625200  1
  O  O26  1  0.00284450  0.19799150  0.29486300  1
  O  O27  1  0.99890900  0.18667200  0.09997000  1
  O  O28  1  0.00109100  0.18667200  0.90003000  1
  O  O29  1  0.99715550  0.19799150  0.70513700  1
  O  O30  1  0.82508400  0.50399200  0.40374800  1
  O  O31  1  0.17491600  0.50399200  0.59625200  1
  F  F32  1  0.50000000  0.70602200  0.50000000  1
  F  F33  1  0.29866750  0.99944950  0.59932700  1
  F  F34  1  0.29870800  0.99809800  0.20487300  1
  F  F35  1  0.29421700  0.99820500  0.00021200  1
  F  F36  1  0.30117500  0.99900600  0.79427300  1
  F  F37  1  0.70133250  0.99944950  0.40067300  1
  F  F38  1  0.69882500  0.99900600  0.20572700  1
  F  F39  1  0.70578300  0.99820500  0.99978800  1
  F  F40  1  0.70129200  0.99809800  0.79512700  1
  F  F41  1  0.50000000  0.30688200  0.50000000  1
  F  F42  1  0.49929750  0.30490850  0.09946900  1
  F  F43  1  0.50345550  0.29111750  0.28965700  1
  F  F44  1  0.49654450  0.29111750  0.71034300  1
  F  F45  1  0.50070250  0.30490850  0.90053100  1
  F  F46  1  0.00000000  0.20602200  0.50000000  1
  F  F47  1  0.79866750  0.49944950  0.59932700  1
  F  F48  1  0.79870800  0.49809800  0.20487300  1
  F  F49  1  0.79421700  0.49820500  0.00021200  1
  F  F50  1  0.80117500  0.49900600  0.79427300  1
  F  F51  1  0.20133250  0.49944950  0.40067300  1
  F  F52  1  0.19882500  0.49900600  0.20572700  1
  F  F53  1  0.20578300  0.49820500  0.99978800  1
  F  F54  1  0.20129200  0.49809800  0.79512700  1
  F  F55  1  0.00000000  0.80688200  0.50000000  1
  F  F56  1  0.99929750  0.80490850  0.09946900  1
  F  F57  1  0.00345550  0.79111750  0.28965700  1
  F  F58  1  0.99654450  0.79111750  0.71034300  1
  F  F59  1  0.00070250  0.80490850  0.90053100  1
