# generated using pymatgen
data_Li2VCrO4
_symmetry_space_group_name_H-M   'P 1'
_cell_length_a   19.57978400
_cell_length_b   2.97075000
_cell_length_c   5.22363252
_cell_angle_alpha   90.00000000
_cell_angle_beta   95.61898749
_cell_angle_gamma   90.00000000
_symmetry_Int_Tables_number   1
_chemical_formula_structural   Li2VCrO4
_chemical_formula_sum   'Li8 V4 Cr4 O16'
_cell_volume   302.38121479
_cell_formula_units_Z   4
loop_
 _symmetry_equiv_pos_site_id
 _symmetry_equiv_pos_as_xyz
  1  'x, y, z'
loop_
 _atom_site_type_symbol
 _atom_site_label
 _atom_site_symmetry_multiplicity
 _atom_site_fract_x
 _atom_site_fract_y
 _atom_site_fract_z
 _atom_site_occupancy
  Li  Li0  1  0.00000000  0.00000000  0.00000000  1
  Li  Li1  1  0.75045700  0.50000000  0.74639900  1
  Li  Li2  1  0.00000000  0.50000000  0.50000000  1
  Li  Li3  1  0.74954300  0.00000000  0.25360100  1
  Li  Li4  1  0.50000000  0.50000000  0.00000000  1
  Li  Li5  1  0.25045700  0.00000000  0.74639900  1
  Li  Li6  1  0.50000000  0.00000000  0.50000000  1
  Li  Li7  1  0.24954300  0.50000000  0.25360100  1
  V  V8  1  0.62510100  0.00000000  0.87502700  1
  V  V9  1  0.87489900  0.50000000  0.12497300  1
  V  V10  1  0.12510100  0.50000000  0.87502700  1
  V  V11  1  0.37489900  0.00000000  0.12497300  1
  Cr  Cr12  1  0.62484100  0.50000000  0.37493400  1
  Cr  Cr13  1  0.87515900  0.00000000  0.62506600  1
  Cr  Cr14  1  0.12484100  0.00000000  0.37493400  1
  Cr  Cr15  1  0.37515900  0.50000000  0.62506600  1
  O  O16  1  0.56849400  0.50000000  0.68729600  1
  O  O17  1  0.81833100  0.00000000  0.93655500  1
  O  O18  1  0.93176300  0.50000000  0.80679400  1
  O  O19  1  0.81843300  0.50000000  0.44379800  1
  O  O20  1  0.68156700  0.00000000  0.55620200  1
  O  O21  1  0.68166900  0.50000000  0.06344500  1
  O  O22  1  0.93150600  0.00000000  0.31270400  1
  O  O23  1  0.56823700  0.00000000  0.19320600  1
  O  O24  1  0.06849400  0.00000000  0.68729600  1
  O  O25  1  0.31833100  0.50000000  0.93655500  1
  O  O26  1  0.43176300  0.00000000  0.80679400  1
  O  O27  1  0.31843300  0.00000000  0.44379800  1
  O  O28  1  0.18156700  0.50000000  0.55620200  1
  O  O29  1  0.18166900  0.00000000  0.06344500  1
  O  O30  1  0.43150600  0.50000000  0.31270400  1
  O  O31  1  0.06823700  0.50000000  0.19320600  1
