# generated using pymatgen
data_Na5Co2P(CO4)4
_symmetry_space_group_name_H-M   'P 1'
_cell_length_a   14.00020800
_cell_length_b   14.21861600
_cell_length_c   9.85933306
_cell_angle_alpha   90.00000000
_cell_angle_beta   134.71250497
_cell_angle_gamma   90.00000000
_symmetry_Int_Tables_number   1
_chemical_formula_structural   Na5Co2P(CO4)4
_chemical_formula_sum   'Na20 Co8 P4 C16 O64'
_cell_volume   1394.73798827
_cell_formula_units_Z   4
loop_
 _symmetry_equiv_pos_site_id
 _symmetry_equiv_pos_as_xyz
  1  'x, y, z'
loop_
 _atom_site_type_symbol
 _atom_site_label
 _atom_site_symmetry_multiplicity
 _atom_site_fract_x
 _atom_site_fract_y
 _atom_site_fract_z
 _atom_site_occupancy
  Na  Na0  1  0.71837300  0.37286500  0.76005800  1
  Na  Na1  1  0.21808200  0.12723800  0.67606000  1
  Na  Na2  1  0.21837300  0.12713500  0.26005800  1
  Na  Na3  1  0.71808200  0.37276200  0.17606000  1
  Na  Na4  1  0.00000000  0.08704500  0.75000000  1
  Na  Na5  1  0.50000000  0.41295500  0.25000000  1
  Na  Na6  1  0.78191800  0.12723800  0.82394000  1
  Na  Na7  1  0.28162700  0.37286500  0.73994200  1
  Na  Na8  1  0.28191800  0.37276200  0.32394000  1
  Na  Na9  1  0.78162700  0.12713500  0.23994200  1
  Na  Na10  1  0.21837300  0.87286500  0.76005800  1
  Na  Na11  1  0.71808200  0.62723800  0.67606000  1
  Na  Na12  1  0.71837300  0.62713500  0.26005800  1
  Na  Na13  1  0.21808200  0.87276200  0.17606000  1
  Na  Na14  1  0.50000000  0.58704500  0.75000000  1
  Na  Na15  1  0.00000000  0.91295500  0.25000000  1
  Na  Na16  1  0.28191800  0.62723800  0.82394000  1
  Na  Na17  1  0.78162700  0.87286500  0.73994200  1
  Na  Na18  1  0.78191800  0.87276200  0.32394000  1
  Na  Na19  1  0.28162700  0.62713500  0.23994200  1
  Co  Co20  1  0.25000000  0.25000000  0.00000000  1
  Co  Co21  1  0.50000000  0.00000000  0.00000000  1
  Co  Co22  1  0.50000000  0.00000000  0.50000000  1
  Co  Co23  1  0.75000000  0.25000000  0.50000000  1
  Co  Co24  1  0.75000000  0.75000000  0.00000000  1
  Co  Co25  1  0.00000000  0.50000000  0.00000000  1
  Co  Co26  1  0.00000000  0.50000000  0.50000000  1
  Co  Co27  1  0.25000000  0.75000000  0.50000000  1
  P  P28  1  0.50000000  0.37573600  0.75000000  1
  P  P29  1  0.00000000  0.12426400  0.25000000  1
  P  P30  1  0.00000000  0.87573600  0.75000000  1
  P  P31  1  0.50000000  0.62426400  0.25000000  1
  C  C32  1  0.99968250  0.28561050  0.92941400  1
  C  C33  1  0.81816600  0.46428200  0.56654800  1
  C  C34  1  0.18183400  0.46428200  0.93345200  1
  C  C35  1  0.00031750  0.28561050  0.57058600  1
  C  C36  1  0.31816600  0.03571800  0.06654800  1
  C  C37  1  0.49968250  0.21438950  0.42941400  1
  C  C38  1  0.50031750  0.21438950  0.07058600  1
  C  C39  1  0.68183400  0.03571800  0.43345200  1
  C  C40  1  0.49968250  0.78561050  0.92941400  1
  C  C41  1  0.31816600  0.96428200  0.56654800  1
  C  C42  1  0.68183400  0.96428200  0.93345200  1
  C  C43  1  0.50031750  0.78561050  0.57058600  1
  C  C44  1  0.81816600  0.53571800  0.06654800  1
  C  C45  1  0.99968250  0.71438950  0.42941400  1
  C  C46  1  0.00031750  0.71438950  0.07058600  1
  C  C47  1  0.18183400  0.53571800  0.43345200  1
  O  O48  1  0.24309400  0.10480500  0.95004400  1
  O  O49  1  0.87117450  0.26964550  0.79207000  1
  O  O50  1  0.83034450  0.47995050  0.70882100  1
  O  O51  1  0.45555950  0.14114450  0.96186200  1
  O  O52  1  0.74309400  0.39519500  0.45004400  1
  O  O53  1  0.37061700  0.31440000  0.62155400  1
  O  O54  1  0.50059450  0.43949050  0.88000600  1
  O  O55  1  0.37355850  0.02047950  0.53470600  1
  O  O56  1  0.08479200  0.22561400  0.96306300  1
  O  O57  1  0.62644150  0.02047950  0.96529400  1
  O  O58  1  0.91520800  0.22561400  0.53693700  1
  O  O59  1  0.49940550  0.43949050  0.61999400  1
  O  O60  1  0.62938300  0.31440000  0.87844600  1
  O  O61  1  0.33034450  0.02004950  0.20882100  1
  O  O62  1  0.37117450  0.23035450  0.29207000  1
  O  O63  1  0.95555950  0.35885550  0.46186200  1
  O  O64  1  0.54444050  0.14114450  0.53813800  1
  O  O65  1  0.16965550  0.47995050  0.79117900  1
  O  O66  1  0.12882550  0.26964550  0.70793000  1
  O  O67  1  0.00059450  0.06050950  0.38000600  1
  O  O68  1  0.87061700  0.18560000  0.12155400  1
  O  O69  1  0.58479200  0.27438600  0.46306300  1
  O  O70  1  0.87355850  0.47952050  0.03470600  1
  O  O71  1  0.41520800  0.27438600  0.03693700  1
  O  O72  1  0.12644150  0.47952050  0.46529400  1
  O  O73  1  0.99940550  0.06050950  0.11999400  1
  O  O74  1  0.12938300  0.18560000  0.37844600  1
  O  O75  1  0.75690600  0.10480500  0.54995600  1
  O  O76  1  0.04444050  0.35885550  0.03813800  1
  O  O77  1  0.66965550  0.02004950  0.29117900  1
  O  O78  1  0.62882550  0.23035450  0.20793000  1
  O  O79  1  0.25690600  0.39519500  0.04995600  1
  O  O80  1  0.74309400  0.60480500  0.95004400  1
  O  O81  1  0.37117450  0.76964550  0.79207000  1
  O  O82  1  0.33034450  0.97995050  0.70882100  1
  O  O83  1  0.95555950  0.64114450  0.96186200  1
  O  O84  1  0.24309400  0.89519500  0.45004400  1
  O  O85  1  0.87061700  0.81440000  0.62155400  1
  O  O86  1  0.00059450  0.93949050  0.88000600  1
  O  O87  1  0.87355850  0.52047950  0.53470600  1
  O  O88  1  0.58479200  0.72561400  0.96306300  1
  O  O89  1  0.12644150  0.52047950  0.96529400  1
  O  O90  1  0.41520800  0.72561400  0.53693700  1
  O  O91  1  0.99940550  0.93949050  0.61999400  1
  O  O92  1  0.12938300  0.81440000  0.87844600  1
  O  O93  1  0.83034450  0.52004950  0.20882100  1
  O  O94  1  0.87117450  0.73035450  0.29207000  1
  O  O95  1  0.45555950  0.85885550  0.46186200  1
  O  O96  1  0.04444050  0.64114450  0.53813800  1
  O  O97  1  0.66965550  0.97995050  0.79117900  1
  O  O98  1  0.62882550  0.76964550  0.70793000  1
  O  O99  1  0.50059450  0.56050950  0.38000600  1
  O  O100  1  0.37061700  0.68560000  0.12155400  1
  O  O101  1  0.08479200  0.77438600  0.46306300  1
  O  O102  1  0.37355850  0.97952050  0.03470600  1
  O  O103  1  0.91520800  0.77438600  0.03693700  1
  O  O104  1  0.62644150  0.97952050  0.46529400  1
  O  O105  1  0.49940550  0.56050950  0.11999400  1
  O  O106  1  0.62938300  0.68560000  0.37844600  1
  O  O107  1  0.25690600  0.60480500  0.54995600  1
  O  O108  1  0.54444050  0.85885550  0.03813800  1
  O  O109  1  0.16965550  0.52004950  0.29117900  1
  O  O110  1  0.12882550  0.73035450  0.20793000  1
  O  O111  1  0.75690600  0.89519500  0.04995600  1
