# generated using pymatgen
data_Li4VNi3O8
_symmetry_space_group_name_H-M   'P 1'
_cell_length_a   5.87820859
_cell_length_b   5.87820859
_cell_length_c   14.40678567
_cell_angle_alpha   90.00000000
_cell_angle_beta   90.00000000
_cell_angle_gamma   120.00000000
_symmetry_Int_Tables_number   1
_chemical_formula_structural   Li4VNi3O8
_chemical_formula_sum   'Li12 V3 Ni9 O24'
_cell_volume   431.10961914
_cell_formula_units_Z   3
loop_
 _symmetry_equiv_pos_site_id
 _symmetry_equiv_pos_as_xyz
  1  'x, y, z'
loop_
 _atom_site_type_symbol
 _atom_site_label
 _atom_site_symmetry_multiplicity
 _atom_site_fract_x
 _atom_site_fract_y
 _atom_site_fract_z
 _atom_site_occupancy
  Li  Li0  1  0.33333333  0.66666667  0.17060729  1
  Li  Li1  1  0.83583511  0.16416489  0.17059993  1
  Li  Li2  1  0.83583511  0.67167021  0.17059993  1
  Li  Li3  1  0.32832979  0.16416489  0.17059993  1
  Li  Li4  1  0.00000000  0.00000000  0.50394062  1
  Li  Li5  1  0.50250177  0.49749823  0.50393327  1
  Li  Li6  1  0.50250177  0.00500355  0.50393327  1
  Li  Li7  1  0.99499645  0.49749823  0.50393327  1
  Li  Li8  1  0.66666667  0.33333333  0.83727395  1
  Li  Li9  1  0.16916844  0.83083156  0.83726660  1
  Li  Li10  1  0.16916844  0.33833688  0.83726660  1
  Li  Li11  1  0.66166312  0.83083156  0.83726660  1
  V  V12  1  0.00000000  0.00000000  0.00000000  1
  V  V13  1  0.66666667  0.33333333  0.33333333  1
  V  V14  1  0.33333333  0.66666667  0.66666667  1
  Ni  Ni15  1  0.50000000  0.50000000  0.00000000  1
  Ni  Ni16  1  0.50000000  0.00000000  0.00000000  1
  Ni  Ni17  1  0.00000000  0.50000000  0.00000000  1
  Ni  Ni18  1  0.16666667  0.83333333  0.33333333  1
  Ni  Ni19  1  0.16666667  0.33333333  0.33333333  1
  Ni  Ni20  1  0.66666667  0.83333333  0.33333333  1
  Ni  Ni21  1  0.83333333  0.16666667  0.66666667  1
  Ni  Ni22  1  0.83333333  0.66666667  0.66666667  1
  Ni  Ni23  1  0.33333333  0.16666667  0.66666667  1
  O  O24  1  0.66666667  0.33333333  0.07503624  1
  O  O25  1  0.15704901  0.84295099  0.07985350  1
  O  O26  1  0.15704901  0.31409801  0.07985350  1
  O  O27  1  0.00000000  0.00000000  0.25829709  1
  O  O28  1  0.68590199  0.84295099  0.07985350  1
  O  O29  1  0.50961766  0.49038234  0.25347983  1
  O  O30  1  0.50961766  0.01923532  0.25347983  1
  O  O31  1  0.98076468  0.49038234  0.25347983  1
  O  O32  1  0.33333333  0.66666667  0.40836958  1
  O  O33  1  0.82371567  0.17628433  0.41318684  1
  O  O34  1  0.82371567  0.64743135  0.41318684  1
  O  O35  1  0.66666667  0.33333333  0.59163042  1
  O  O36  1  0.35256865  0.17628433  0.41318684  1
  O  O37  1  0.17628433  0.82371567  0.58681316  1
  O  O38  1  0.17628433  0.35256865  0.58681316  1
  O  O39  1  0.64743135  0.82371567  0.58681316  1
  O  O40  1  0.00000000  0.00000000  0.74170291  1
  O  O41  1  0.49038234  0.50961766  0.74652017  1
  O  O42  1  0.49038234  0.98076468  0.74652017  1
  O  O43  1  0.33333333  0.66666667  0.92496376  1
  O  O44  1  0.01923532  0.50961766  0.74652017  1
  O  O45  1  0.84295099  0.15704901  0.92014650  1
  O  O46  1  0.84295099  0.68590199  0.92014650  1
  O  O47  1  0.31409801  0.15704901  0.92014650  1
