# generated using pymatgen
data_Li2MnCo(PO4)2
_symmetry_space_group_name_H-M   'P 1'
_cell_length_a   4.77660666
_cell_length_b   6.08521052
_cell_length_c   10.44174732
_cell_angle_alpha   90.00000000
_cell_angle_beta   90.00080536
_cell_angle_gamma   90.00000000
_symmetry_Int_Tables_number   1
_chemical_formula_structural   Li2MnCo(PO4)2
_chemical_formula_sum   'Li4 Mn2 Co2 P4 O16'
_cell_volume   303.50668836
_cell_formula_units_Z   2
loop_
 _symmetry_equiv_pos_site_id
 _symmetry_equiv_pos_as_xyz
  1  'x, y, z'
loop_
 _atom_site_type_symbol
 _atom_site_label
 _atom_site_symmetry_multiplicity
 _atom_site_fract_x
 _atom_site_fract_y
 _atom_site_fract_z
 _atom_site_occupancy
  Li  Li0  1  0.00000000  0.00000000  0.50000000  1
  Li  Li1  1  0.00000000  0.50000000  0.50000000  1
  Li  Li2  1  0.50000000  0.00000000  0.00000000  1
  Li  Li3  1  0.50000000  0.50000000  0.00000000  1
  Mn  Mn4  1  0.52026550  0.75000000  0.72156800  1
  Mn  Mn5  1  0.47973450  0.25000000  0.27843200  1
  Co  Co6  1  0.02279950  0.25000000  0.78040600  1
  Co  Co7  1  0.97720050  0.75000000  0.21959400  1
  P  P8  1  0.40994250  0.75000000  0.40301300  1
  P  P9  1  0.59005750  0.25000000  0.59698700  1
  P  P10  1  0.92011750  0.25000000  0.08976500  1
  P  P11  1  0.07988250  0.75000000  0.91023500  1
  O  O12  1  0.70524250  0.25000000  0.45811200  1
  O  O13  1  0.29475750  0.75000000  0.54188800  1
  O  O14  1  0.73177850  0.75000000  0.39660100  1
  O  O15  1  0.26822150  0.25000000  0.60339900  1
  O  O16  1  0.24144950  0.25000000  0.09234200  1
  O  O17  1  0.75855050  0.75000000  0.90765800  1
  O  O18  1  0.20750550  0.75000000  0.04793500  1
  O  O19  1  0.79249450  0.25000000  0.95206500  1
  O  O20  1  0.27124250  0.95203500  0.33416100  1
  O  O21  1  0.27124250  0.54796500  0.33416100  1
  O  O22  1  0.72875750  0.45203500  0.66583900  1
  O  O23  1  0.72875750  0.04796500  0.66583900  1
  O  O24  1  0.78789250  0.45356700  0.16127500  1
  O  O25  1  0.78789250  0.04643300  0.16127500  1
  O  O26  1  0.21210750  0.95356700  0.83872500  1
  O  O27  1  0.21210750  0.54643300  0.83872500  1
