# generated using pymatgen
data_Li4Ti3Cr3(SbO8)2
_symmetry_space_group_name_H-M   'P 1'
_cell_length_a   10.35108000
_cell_length_b   6.00554800
_cell_length_c   10.15504870
_cell_angle_alpha   90.00000000
_cell_angle_beta   90.32232911
_cell_angle_gamma   90.00000000
_symmetry_Int_Tables_number   1
_chemical_formula_structural   Li4Ti3Cr3(SbO8)2
_chemical_formula_sum   'Li8 Ti6 Cr6 Sb4 O32'
_cell_volume   631.26752127
_cell_formula_units_Z   2
loop_
 _symmetry_equiv_pos_site_id
 _symmetry_equiv_pos_as_xyz
  1  'x, y, z'
loop_
 _atom_site_type_symbol
 _atom_site_label
 _atom_site_symmetry_multiplicity
 _atom_site_fract_x
 _atom_site_fract_y
 _atom_site_fract_z
 _atom_site_occupancy
  Li  Li0  1  0.33436200  0.00000000  0.89816100  1
  Li  Li1  1  0.00054700  0.00000000  0.99187400  1
  Li  Li2  1  0.00027200  0.00000000  0.49601900  1
  Li  Li3  1  0.66690800  0.00000000  0.39297300  1
  Li  Li4  1  0.83436200  0.50000000  0.89816100  1
  Li  Li5  1  0.50054700  0.50000000  0.99187400  1
  Li  Li6  1  0.50027200  0.50000000  0.49601900  1
  Li  Li7  1  0.16690800  0.50000000  0.39297300  1
  Ti  Ti8  1  0.41094950  0.75641250  0.21759100  1
  Ti  Ti9  1  0.41094950  0.24358750  0.21759100  1
  Ti  Ti10  1  0.82812600  0.00000000  0.72291000  1
  Ti  Ti11  1  0.91094950  0.25641250  0.21759100  1
  Ti  Ti12  1  0.91094950  0.74358750  0.21759100  1
  Ti  Ti13  1  0.32812600  0.50000000  0.72291000  1
  Cr  Cr14  1  0.16879300  0.00000000  0.20697800  1
  Cr  Cr15  1  0.58426900  0.75392200  0.72074900  1
  Cr  Cr16  1  0.58426900  0.24607800  0.72074900  1
  Cr  Cr17  1  0.66879300  0.50000000  0.20697800  1
  Cr  Cr18  1  0.08426900  0.25392200  0.72074900  1
  Cr  Cr19  1  0.08426900  0.74607800  0.72074900  1
  Sb  Sb20  1  0.33057700  0.00000000  0.51096200  1
  Sb  Sb21  1  0.66372400  0.00000000  0.99288500  1
  Sb  Sb22  1  0.83057700  0.50000000  0.51096200  1
  Sb  Sb23  1  0.16372400  0.50000000  0.99288500  1
  O  O24  1  0.41869000  0.73335300  0.61082300  1
  O  O25  1  0.48930300  0.00000000  0.31552500  1
  O  O26  1  0.33836400  0.00000000  0.10664200  1
  O  O27  1  0.99908900  0.00000000  0.30749700  1
  O  O28  1  0.99764100  0.00000000  0.81240000  1
  O  O29  1  0.41869000  0.26664700  0.61082300  1
  O  O30  1  0.26022850  0.75925450  0.31531200  1
  O  O31  1  0.26022850  0.24074550  0.31531200  1
  O  O32  1  0.84385500  0.00000000  0.09656000  1
  O  O33  1  0.15598200  0.00000000  0.60981200  1
  O  O34  1  0.74530100  0.77775500  0.83721200  1
  O  O35  1  0.74530100  0.22224500  0.83721200  1
  O  O36  1  0.67113700  0.00000000  0.61368100  1
  O  O37  1  0.57776950  0.73672750  0.09607700  1
  O  O38  1  0.51691800  0.00000000  0.83743200  1
  O  O39  1  0.57776950  0.26327250  0.09607700  1
  O  O40  1  0.91869000  0.23335300  0.61082300  1
  O  O41  1  0.98930300  0.50000000  0.31552500  1
  O  O42  1  0.83836400  0.50000000  0.10664200  1
  O  O43  1  0.49908900  0.50000000  0.30749700  1
  O  O44  1  0.49764100  0.50000000  0.81240000  1
  O  O45  1  0.91869000  0.76664700  0.61082300  1
  O  O46  1  0.76022850  0.25925450  0.31531200  1
  O  O47  1  0.76022850  0.74074550  0.31531200  1
  O  O48  1  0.34385500  0.50000000  0.09656000  1
  O  O49  1  0.65598200  0.50000000  0.60981200  1
  O  O50  1  0.24530100  0.27775500  0.83721200  1
  O  O51  1  0.24530100  0.72224500  0.83721200  1
  O  O52  1  0.17113700  0.50000000  0.61368100  1
  O  O53  1  0.07776950  0.23672750  0.09607700  1
  O  O54  1  0.01691800  0.50000000  0.83743200  1
  O  O55  1  0.07776950  0.76327250  0.09607700  1
