# generated using pymatgen
data_Cr4OF11
_symmetry_space_group_name_H-M   'P 1'
_cell_length_a   9.35807645
_cell_length_b   5.09694760
_cell_length_c   17.18650793
_cell_angle_alpha   90.00000000
_cell_angle_beta   103.84980996
_cell_angle_gamma   90.00000000
_symmetry_Int_Tables_number   1
_chemical_formula_structural   Cr4OF11
_chemical_formula_sum   'Cr16 O4 F44'
_cell_volume   795.92248680
_cell_formula_units_Z   4
loop_
 _symmetry_equiv_pos_site_id
 _symmetry_equiv_pos_as_xyz
  1  'x, y, z'
loop_
 _atom_site_type_symbol
 _atom_site_label
 _atom_site_symmetry_multiplicity
 _atom_site_fract_x
 _atom_site_fract_y
 _atom_site_fract_z
 _atom_site_occupancy
  Cr  Cr0  1  0.05218600  0.44409300  0.68280750  1
  Cr  Cr1  1  0.06885000  0.93714700  0.18813750  1
  Cr  Cr2  1  0.69104800  0.93798100  0.06254450  1
  Cr  Cr3  1  0.19774950  0.94097250  0.56487950  1
  Cr  Cr4  1  0.80225050  0.94097250  0.43512050  1
  Cr  Cr5  1  0.80895200  0.43798100  0.93745550  1
  Cr  Cr6  1  0.94781400  0.44409300  0.31719250  1
  Cr  Cr7  1  0.43115000  0.43714700  0.81186250  1
  Cr  Cr8  1  0.55218600  0.94409300  0.68280750  1
  Cr  Cr9  1  0.56885000  0.43714700  0.18813750  1
  Cr  Cr10  1  0.19104800  0.43798100  0.06254450  1
  Cr  Cr11  1  0.69774950  0.44097250  0.56487950  1
  Cr  Cr12  1  0.30225050  0.44097250  0.43512050  1
  Cr  Cr13  1  0.30895200  0.93798100  0.93745550  1
  Cr  Cr14  1  0.44781400  0.94409300  0.31719250  1
  Cr  Cr15  1  0.93115000  0.93714700  0.81186250  1
  O  O16  1  0.87579450  0.56406350  0.62436450  1
  O  O17  1  0.12420550  0.56406350  0.37563550  1
  O  O18  1  0.37579450  0.06406350  0.62436450  1
  O  O19  1  0.62420550  0.06406350  0.37563550  1
  F  F20  1  0.03298450  0.63334750  0.77816850  1
  F  F21  1  0.75706250  0.32344650  0.25304150  1
  F  F22  1  0.24293750  0.32344650  0.74695850  1
  F  F23  1  0.59816000  0.24960900  0.09425150  1
  F  F24  1  0.91018150  0.24518550  0.40485850  1
  F  F25  1  0.08981850  0.24518550  0.59514150  1
  F  F26  1  0.72305850  0.12984450  0.97015850  1
  F  F27  1  0.22321200  0.12539800  0.46954050  1
  F  F28  1  0.03350050  0.12663750  0.28018550  1
  F  F29  1  0.96649950  0.12663750  0.71981450  1
  F  F30  1  0.87930900  0.05995600  0.12574050  1
  F  F31  1  0.00000000  0.82950050  0.50000000  1
  F  F32  1  0.90184000  0.74960900  0.90574850  1
  F  F33  1  0.65875500  0.75143800  0.15586050  1
  F  F34  1  0.15627300  0.74814000  0.65409350  1
  F  F35  1  0.84372700  0.74814000  0.34590650  1
  F  F36  1  0.77694150  0.62984450  0.02984150  1
  F  F37  1  0.96701550  0.63334750  0.22183150  1
  F  F38  1  0.27678800  0.62539800  0.53045950  1
  F  F39  1  0.62069100  0.55995600  0.87425950  1
  F  F40  1  0.00000000  0.31206500  0.00000000  1
  F  F41  1  0.84124500  0.25143800  0.84413950  1
  F  F42  1  0.53298450  0.13334750  0.77816850  1
  F  F43  1  0.25706250  0.82344650  0.25304150  1
  F  F44  1  0.74293750  0.82344650  0.74695850  1
  F  F45  1  0.09816000  0.74960900  0.09425150  1
  F  F46  1  0.41018150  0.74518550  0.40485850  1
  F  F47  1  0.58981850  0.74518550  0.59514150  1
  F  F48  1  0.22305850  0.62984450  0.97015850  1
  F  F49  1  0.72321200  0.62539800  0.46954050  1
  F  F50  1  0.53350050  0.62663750  0.28018550  1
  F  F51  1  0.46649950  0.62663750  0.71981450  1
  F  F52  1  0.37930900  0.55995600  0.12574050  1
  F  F53  1  0.50000000  0.32950050  0.50000000  1
  F  F54  1  0.40184000  0.24960900  0.90574850  1
  F  F55  1  0.15875500  0.25143800  0.15586050  1
  F  F56  1  0.65627300  0.24814000  0.65409350  1
  F  F57  1  0.34372700  0.24814000  0.34590650  1
  F  F58  1  0.27694150  0.12984450  0.02984150  1
  F  F59  1  0.46701550  0.13334750  0.22183150  1
  F  F60  1  0.77678800  0.12539800  0.53045950  1
  F  F61  1  0.12069100  0.05995600  0.87425950  1
  F  F62  1  0.50000000  0.81206500  0.00000000  1
  F  F63  1  0.34124500  0.75143800  0.84413950  1
