# generated using pymatgen
data_Li3P2WO8
_symmetry_space_group_name_H-M   'P 1'
_cell_length_a   8.48554824
_cell_length_b   5.61327662
_cell_length_c   6.26778427
_cell_angle_alpha   90.00000000
_cell_angle_beta   90.24594538
_cell_angle_gamma   90.00000000
_symmetry_Int_Tables_number   1
_chemical_formula_structural   Li3P2WO8
_chemical_formula_sum   'Li6 P4 W2 O16'
_cell_volume   298.54265526
_cell_formula_units_Z   2
loop_
 _symmetry_equiv_pos_site_id
 _symmetry_equiv_pos_as_xyz
  1  'x, y, z'
loop_
 _atom_site_type_symbol
 _atom_site_label
 _atom_site_symmetry_multiplicity
 _atom_site_fract_x
 _atom_site_fract_y
 _atom_site_fract_z
 _atom_site_occupancy
  Li  Li0  1  0.16801550  0.00000000  0.78085500  1
  Li  Li1  1  0.50000000  0.00000000  0.00000000  1
  Li  Li2  1  0.33198450  0.50000000  0.21914500  1
  Li  Li3  1  0.66801550  0.50000000  0.78085500  1
  Li  Li4  1  0.00000000  0.50000000  0.00000000  1
  Li  Li5  1  0.83198450  0.00000000  0.21914500  1
  P  P6  1  0.14912000  0.00000000  0.26475300  1
  P  P7  1  0.35088000  0.50000000  0.73524700  1
  P  P8  1  0.64912000  0.50000000  0.26475300  1
  P  P9  1  0.85088000  0.00000000  0.73524700  1
  W  W10  1  0.50000000  0.00000000  0.50000000  1
  W  W11  1  0.00000000  0.50000000  0.50000000  1
  O  O12  1  0.24279350  0.50000000  0.92810500  1
  O  O13  1  0.25487950  0.50000000  0.52299000  1
  O  O14  1  0.03336700  0.77973300  0.26244300  1
  O  O15  1  0.53336700  0.72026700  0.26244300  1
  O  O16  1  0.96663300  0.77973300  0.73755700  1
  O  O17  1  0.46663300  0.72026700  0.73755700  1
  O  O18  1  0.24512050  0.00000000  0.47701000  1
  O  O19  1  0.25720650  0.00000000  0.07189500  1
  O  O20  1  0.74279350  0.00000000  0.92810500  1
  O  O21  1  0.75487950  0.00000000  0.52299000  1
  O  O22  1  0.53336700  0.27973300  0.26244300  1
  O  O23  1  0.03336700  0.22026700  0.26244300  1
  O  O24  1  0.46663300  0.27973300  0.73755700  1
  O  O25  1  0.96663300  0.22026700  0.73755700  1
  O  O26  1  0.74512050  0.50000000  0.47701000  1
  O  O27  1  0.75720650  0.50000000  0.07189500  1
