# generated using pymatgen
data_RbLiMnP3HO10
_symmetry_space_group_name_H-M   'P 1'
_cell_length_a   11.83495600
_cell_length_b   9.08255600
_cell_length_c   9.59117364
_cell_angle_alpha   90.00000000
_cell_angle_beta   108.87759732
_cell_angle_gamma   90.00000000
_symmetry_Int_Tables_number   1
_chemical_formula_structural   RbLiMnP3HO10
_chemical_formula_sum   'Rb4 Li4 Mn4 P12 H4 O40'
_cell_volume   975.51714958
_cell_formula_units_Z   4
loop_
 _symmetry_equiv_pos_site_id
 _symmetry_equiv_pos_as_xyz
  1  'x, y, z'
loop_
 _atom_site_type_symbol
 _atom_site_label
 _atom_site_symmetry_multiplicity
 _atom_site_fract_x
 _atom_site_fract_y
 _atom_site_fract_z
 _atom_site_occupancy
  Rb  Rb0  1  0.99597650  0.54142250  0.73532900  1
  Rb  Rb1  1  0.99597650  0.45857750  0.23532900  1
  Rb  Rb2  1  0.49597650  0.04142250  0.73532900  1
  Rb  Rb3  1  0.49597650  0.95857750  0.23532900  1
  Li  Li4  1  0.03888050  0.10790950  0.48195000  1
  Li  Li5  1  0.03888050  0.89209050  0.98195000  1
  Li  Li6  1  0.53888050  0.60790950  0.48195000  1
  Li  Li7  1  0.53888050  0.39209050  0.98195000  1
  Mn  Mn8  1  0.24597100  0.24694000  0.00017300  1
  Mn  Mn9  1  0.24597100  0.75306000  0.50017300  1
  Mn  Mn10  1  0.74597100  0.74694000  0.00017300  1
  Mn  Mn11  1  0.74597100  0.25306000  0.50017300  1
  P  P12  1  0.71571550  0.43280450  0.81112600  1
  P  P13  1  0.00145250  0.12460350  0.74400500  1
  P  P14  1  0.71571550  0.56719550  0.31112600  1
  P  P15  1  0.28278050  0.43344550  0.69296200  1
  P  P16  1  0.00145250  0.87539650  0.24400500  1
  P  P17  1  0.28278050  0.56655450  0.19296200  1
  P  P18  1  0.21571550  0.93280450  0.81112600  1
  P  P19  1  0.50145250  0.62460350  0.74400500  1
  P  P20  1  0.21571550  0.06719550  0.31112600  1
  P  P21  1  0.78278050  0.93344550  0.69296200  1
  P  P22  1  0.50145250  0.37539650  0.24400500  1
  P  P23  1  0.78278050  0.06655450  0.19296200  1
  H  H24  1  0.25552550  0.25935550  0.52034300  1
  H  H25  1  0.25552550  0.74064450  0.02034300  1
  H  H26  1  0.75552550  0.75935550  0.52034300  1
  H  H27  1  0.75552550  0.24064450  0.02034300  1
  O  O28  1  0.59814200  0.52691000  0.69857000  1
  O  O29  1  0.59814200  0.47309000  0.19857000  1
  O  O30  1  0.76678750  0.36012950  0.70364900  1
  O  O31  1  0.79826800  0.54675500  0.90947500  1
  O  O32  1  0.82235250  0.19452650  0.10629700  1
  O  O33  1  0.79826800  0.45324500  0.40947500  1
  O  O34  1  0.94071650  0.20311750  0.59916300  1
  O  O35  1  0.05584750  0.20836550  0.88382500  1
  O  O36  1  0.76678750  0.63987050  0.20364900  1
  O  O37  1  0.82235250  0.80547350  0.60629700  1
  O  O38  1  0.15713400  0.17168200  0.39543700  1
  O  O39  1  0.23760800  0.37727300  0.81192100  1
  O  O40  1  0.94071650  0.79688250  0.09916300  1
  O  O41  1  0.05584750  0.79163450  0.38382500  1
  O  O42  1  0.20468300  0.54717500  0.59263700  1
  O  O43  1  0.15713400  0.82831800  0.89543700  1
  O  O44  1  0.20468300  0.45282500  0.09263700  1
  O  O45  1  0.23760800  0.62272700  0.31192100  1
  O  O46  1  0.41622550  0.50312250  0.78413600  1
  O  O47  1  0.41622550  0.49687750  0.28413600  1
  O  O48  1  0.09814200  0.02691000  0.69857000  1
  O  O49  1  0.09814200  0.97309000  0.19857000  1
  O  O50  1  0.26678750  0.86012950  0.70364900  1
  O  O51  1  0.29826800  0.04675500  0.90947500  1
  O  O52  1  0.32235250  0.69452650  0.10629700  1
  O  O53  1  0.29826800  0.95324500  0.40947500  1
  O  O54  1  0.44071650  0.70311750  0.59916300  1
  O  O55  1  0.55584750  0.70836550  0.88382500  1
  O  O56  1  0.26678750  0.13987050  0.20364900  1
  O  O57  1  0.32235250  0.30547350  0.60629700  1
  O  O58  1  0.65713400  0.67168200  0.39543700  1
  O  O59  1  0.73760800  0.87727300  0.81192100  1
  O  O60  1  0.44071650  0.29688250  0.09916300  1
  O  O61  1  0.55584750  0.29163450  0.38382500  1
  O  O62  1  0.70468300  0.04717500  0.59263700  1
  O  O63  1  0.65713400  0.32831800  0.89543700  1
  O  O64  1  0.70468300  0.95282500  0.09263700  1
  O  O65  1  0.73760800  0.12272700  0.31192100  1
  O  O66  1  0.91622550  0.00312250  0.78413600  1
  O  O67  1  0.91622550  0.99687750  0.28413600  1
