# generated using pymatgen
data_Li5Cr2O8
_symmetry_space_group_name_H-M   'P 1'
_cell_length_a   5.15763623
_cell_length_b   5.36320999
_cell_length_c   7.80631001
_cell_angle_alpha   82.72136987
_cell_angle_beta   108.08969136
_cell_angle_gamma   114.47453129
_symmetry_Int_Tables_number   1
_chemical_formula_structural   Li5Cr2O8
_chemical_formula_sum   'Li5 Cr2 O8'
_cell_volume   186.81678012
_cell_formula_units_Z   1
loop_
 _symmetry_equiv_pos_site_id
 _symmetry_equiv_pos_as_xyz
  1  'x, y, z'
loop_
 _atom_site_type_symbol
 _atom_site_label
 _atom_site_symmetry_multiplicity
 _atom_site_fract_x
 _atom_site_fract_y
 _atom_site_fract_z
 _atom_site_occupancy
  Li  Li0  1  0.76942800  0.29174700  0.18062000  1
  Li  Li1  1  0.98859900  0.75940600  0.46789500  1
  Li  Li2  1  0.05334900  0.27160600  0.56456400  1
  Li  Li3  1  0.25606500  0.72260400  0.80625400  1
  Li  Li4  1  0.18456600  0.20211000  0.98515300  1
  Cr  Cr5  1  0.60374500  0.29701300  0.75924400  1
  Cr  Cr6  1  0.40253200  0.70836300  0.23834000  1
  O  O7  1  0.25770800  0.84733200  0.05035700  1
  O  O8  1  0.49084600  0.46618800  0.19098400  1
  O  O9  1  0.71118900  0.95648900  0.35825300  1
  O  O10  1  0.14581000  0.56128800  0.35156900  1
  O  O11  1  0.84959600  0.47491900  0.63541600  1
  O  O12  1  0.30741300  0.02705000  0.63233400  1
  O  O13  1  0.40920100  0.45285100  0.81473800  1
  O  O14  1  0.80514700  0.20237600  0.95805600  1
