# generated using pymatgen
data_Gd(BiO2)4
_symmetry_space_group_name_H-M   'P 1'
_cell_length_a   13.48480000
_cell_length_b   3.76044200
_cell_length_c   9.87679744
_cell_angle_alpha   90.00000000
_cell_angle_beta   120.63280071
_cell_angle_gamma   90.00000000
_symmetry_Int_Tables_number   1
_chemical_formula_structural   Gd(BiO2)4
_chemical_formula_sum   'Gd2 Bi8 O16'
_cell_volume   430.94855364
_cell_formula_units_Z   2
loop_
 _symmetry_equiv_pos_site_id
 _symmetry_equiv_pos_as_xyz
  1  'x, y, z'
loop_
 _atom_site_type_symbol
 _atom_site_label
 _atom_site_symmetry_multiplicity
 _atom_site_fract_x
 _atom_site_fract_y
 _atom_site_fract_z
 _atom_site_occupancy
  Gd  Gd0  1  0.47920700  0.50000000  0.98711100  1
  Gd  Gd1  1  0.97920700  0.00000000  0.98711100  1
  Bi  Bi2  1  0.20379700  0.00000000  0.79913100  1
  Bi  Bi3  1  0.92662300  0.50000000  0.61883900  1
  Bi  Bi4  1  0.09336500  0.50000000  0.36076800  1
  Bi  Bi5  1  0.80945800  0.00000000  0.23182400  1
  Bi  Bi6  1  0.70379700  0.50000000  0.79913100  1
  Bi  Bi7  1  0.42662300  0.00000000  0.61883900  1
  Bi  Bi8  1  0.59336500  0.00000000  0.36076800  1
  Bi  Bi9  1  0.30945800  0.50000000  0.23182400  1
  O  O10  1  0.37586400  0.00000000  0.81426900  1
  O  O11  1  0.28637500  0.50000000  0.95850500  1
  O  O12  1  0.12739500  0.50000000  0.63992700  1
  O  O13  1  0.03963100  0.00000000  0.80272000  1
  O  O14  1  0.99956800  0.00000000  0.24373600  1
  O  O15  1  0.90313100  0.50000000  0.34780800  1
  O  O16  1  0.80659000  0.00000000  0.47292100  1
  O  O17  1  0.59427200  0.00000000  0.12312600  1
  O  O18  1  0.87586400  0.50000000  0.81426900  1
  O  O19  1  0.78637500  0.00000000  0.95850500  1
  O  O20  1  0.62739500  0.00000000  0.63992700  1
  O  O21  1  0.53963100  0.50000000  0.80272000  1
  O  O22  1  0.49956800  0.50000000  0.24373600  1
  O  O23  1  0.40313100  0.00000000  0.34780800  1
  O  O24  1  0.30659000  0.50000000  0.47292100  1
  O  O25  1  0.09427200  0.50000000  0.12312600  1
