# generated using pymatgen
data_Fe2O3F
_symmetry_space_group_name_H-M   'P 1'
_cell_length_a   9.38191600
_cell_length_b   6.01757200
_cell_length_c   10.18150148
_cell_angle_alpha   90.00000000
_cell_angle_beta   113.38898885
_cell_angle_gamma   90.00000000
_symmetry_Int_Tables_number   1
_chemical_formula_structural   Fe2O3F
_chemical_formula_sum   'Fe16 O24 F8'
_cell_volume   527.57882273
_cell_formula_units_Z   8
loop_
 _symmetry_equiv_pos_site_id
 _symmetry_equiv_pos_as_xyz
  1  'x, y, z'
loop_
 _atom_site_type_symbol
 _atom_site_label
 _atom_site_symmetry_multiplicity
 _atom_site_fract_x
 _atom_site_fract_y
 _atom_site_fract_z
 _atom_site_occupancy
  Fe  Fe0  1  0.00000000  0.00000000  0.00000000  1
  Fe  Fe1  1  0.72140700  0.00000000  0.48185800  1
  Fe  Fe2  1  0.12576400  0.75488800  0.74929700  1
  Fe  Fe3  1  0.62576400  0.74511200  0.74929700  1
  Fe  Fe4  1  0.87423600  0.75488800  0.25070300  1
  Fe  Fe5  1  0.77859300  0.50000000  0.51814200  1
  Fe  Fe6  1  0.00000000  0.50000000  0.00000000  1
  Fe  Fe7  1  0.37423600  0.74511200  0.25070300  1
  Fe  Fe8  1  0.50000000  0.50000000  0.00000000  1
  Fe  Fe9  1  0.22140700  0.50000000  0.48185800  1
  Fe  Fe10  1  0.62576400  0.25488800  0.74929700  1
  Fe  Fe11  1  0.12576400  0.24511200  0.74929700  1
  Fe  Fe12  1  0.37423600  0.25488800  0.25070300  1
  Fe  Fe13  1  0.27859300  0.00000000  0.51814200  1
  Fe  Fe14  1  0.50000000  0.00000000  0.00000000  1
  Fe  Fe15  1  0.87423600  0.24511200  0.25070300  1
  O  O16  1  0.45108700  0.74896700  0.09673600  1
  O  O17  1  0.79712850  0.75101550  0.40331300  1
  O  O18  1  0.04891300  0.75103300  0.90326400  1
  O  O19  1  0.04891300  0.24896700  0.90326400  1
  O  O20  1  0.73805200  0.00000000  0.15990600  1
  O  O21  1  0.50529700  0.00000000  0.34008900  1
  O  O22  1  0.76194800  0.50000000  0.84009400  1
  O  O23  1  0.70287150  0.74898450  0.59668700  1
  O  O24  1  0.20287150  0.75101550  0.59668700  1
  O  O25  1  0.45108700  0.25103300  0.09673600  1
  O  O26  1  0.29712850  0.74898450  0.40331300  1
  O  O27  1  0.99470300  0.50000000  0.65991100  1
  O  O28  1  0.95108700  0.24896700  0.09673600  1
  O  O29  1  0.29712850  0.25101550  0.40331300  1
  O  O30  1  0.54891300  0.25103300  0.90326400  1
  O  O31  1  0.54891300  0.74896700  0.90326400  1
  O  O32  1  0.23805200  0.50000000  0.15990600  1
  O  O33  1  0.00529700  0.50000000  0.34008900  1
  O  O34  1  0.26194800  0.00000000  0.84009400  1
  O  O35  1  0.20287150  0.24898450  0.59668700  1
  O  O36  1  0.70287150  0.25101550  0.59668700  1
  O  O37  1  0.95108700  0.75103300  0.09673600  1
  O  O38  1  0.79712850  0.24898450  0.40331300  1
  O  O39  1  0.49470300  0.00000000  0.65991100  1
  F  F40  1  0.27613500  0.50000000  0.85020400  1
  F  F41  1  0.97228900  0.00000000  0.64855000  1
  F  F42  1  0.22386500  0.00000000  0.14979600  1
  F  F43  1  0.52771100  0.50000000  0.35145000  1
  F  F44  1  0.77613500  0.00000000  0.85020400  1
  F  F45  1  0.47228900  0.50000000  0.64855000  1
  F  F46  1  0.72386500  0.50000000  0.14979600  1
  F  F47  1  0.02771100  0.00000000  0.35145000  1
