# generated using pymatgen
data_Li3Fe7O12
_symmetry_space_group_name_H-M   'P 1'
_cell_length_a   5.07646600
_cell_length_b   9.07680000
_cell_length_c   9.85218880
_cell_angle_alpha   90.00000000
_cell_angle_beta   101.26878704
_cell_angle_gamma   90.00000000
_symmetry_Int_Tables_number   1
_chemical_formula_structural   Li3Fe7O12
_chemical_formula_sum   'Li6 Fe14 O24'
_cell_volume   445.21784498
_cell_formula_units_Z   2
loop_
 _symmetry_equiv_pos_site_id
 _symmetry_equiv_pos_as_xyz
  1  'x, y, z'
loop_
 _atom_site_type_symbol
 _atom_site_label
 _atom_site_symmetry_multiplicity
 _atom_site_fract_x
 _atom_site_fract_y
 _atom_site_fract_z
 _atom_site_occupancy
  Li  Li0  1  0.25479100  0.58015200  0.76079400  1
  Li  Li1  1  0.74520900  0.58015200  0.23920600  1
  Li  Li2  1  0.00000000  0.91811300  0.00000000  1
  Li  Li3  1  0.75479100  0.08015200  0.76079400  1
  Li  Li4  1  0.24520900  0.08015200  0.23920600  1
  Li  Li5  1  0.50000000  0.41811300  0.00000000  1
  Fe  Fe6  1  0.50000000  0.58092000  0.50000000  1
  Fe  Fe7  1  0.75861000  0.75453800  0.76256300  1
  Fe  Fe8  1  0.50000000  0.75608200  0.00000000  1
  Fe  Fe9  1  0.24139000  0.75453800  0.23743700  1
  Fe  Fe10  1  0.50000000  0.91640200  0.50000000  1
  Fe  Fe11  1  0.00000000  0.57317300  0.00000000  1
  Fe  Fe12  1  0.00000000  0.75234600  0.50000000  1
  Fe  Fe13  1  0.00000000  0.08092000  0.50000000  1
  Fe  Fe14  1  0.25861000  0.25453800  0.76256300  1
  Fe  Fe15  1  0.00000000  0.25608200  0.00000000  1
  Fe  Fe16  1  0.74139000  0.25453800  0.23743700  1
  Fe  Fe17  1  0.00000000  0.41640200  0.50000000  1
  Fe  Fe18  1  0.50000000  0.07317300  0.00000000  1
  Fe  Fe19  1  0.50000000  0.25234600  0.50000000  1
  O  O20  1  0.61559100  0.74323400  0.38495800  1
  O  O21  1  0.38440900  0.74323400  0.61504200  1
  O  O22  1  0.85491150  0.90842850  0.60961400  1
  O  O23  1  0.63706550  0.91040250  0.88322000  1
  O  O24  1  0.36293450  0.91040250  0.11678000  1
  O  O25  1  0.37078200  0.60265800  0.12156900  1
  O  O26  1  0.14508850  0.90842850  0.39038600  1
  O  O27  1  0.12114850  0.60080950  0.38878300  1
  O  O28  1  0.11563350  0.73330550  0.87765300  1
  O  O29  1  0.62921800  0.60265800  0.87843100  1
  O  O30  1  0.87885150  0.60080950  0.61121700  1
  O  O31  1  0.88436650  0.73330550  0.12234700  1
  O  O32  1  0.11559100  0.24323400  0.38495800  1
  O  O33  1  0.88440900  0.24323400  0.61504200  1
  O  O34  1  0.35491150  0.40842850  0.60961400  1
  O  O35  1  0.13706550  0.41040250  0.88322000  1
  O  O36  1  0.86293450  0.41040250  0.11678000  1
  O  O37  1  0.87078200  0.10265800  0.12156900  1
  O  O38  1  0.64508850  0.40842850  0.39038600  1
  O  O39  1  0.62114850  0.10080950  0.38878300  1
  O  O40  1  0.61563350  0.23330550  0.87765300  1
  O  O41  1  0.12921800  0.10265800  0.87843100  1
  O  O42  1  0.37885150  0.10080950  0.61121700  1
  O  O43  1  0.38436650  0.23330550  0.12234700  1
