# generated using pymatgen
data_Li2Fe2Si2O7
_symmetry_space_group_name_H-M   'P 1'
_cell_length_a   5.02740800
_cell_length_b   9.57685800
_cell_length_c   13.33232300
_cell_angle_alpha   90.00000000
_cell_angle_beta   90.00000000
_cell_angle_gamma   90.00000000
_symmetry_Int_Tables_number   1
_chemical_formula_structural   Li2Fe2Si2O7
_chemical_formula_sum   'Li8 Fe8 Si8 O28'
_cell_volume   641.90832270
_cell_formula_units_Z   4
loop_
 _symmetry_equiv_pos_site_id
 _symmetry_equiv_pos_as_xyz
  1  'x, y, z'
loop_
 _atom_site_type_symbol
 _atom_site_label
 _atom_site_symmetry_multiplicity
 _atom_site_fract_x
 _atom_site_fract_y
 _atom_site_fract_z
 _atom_site_occupancy
  Li  Li0  1  0.98525500  0.00000000  0.50000000  1
  Li  Li1  1  0.98525500  0.00000000  0.00000000  1
  Li  Li2  1  0.01032750  0.01172850  0.25000000  1
  Li  Li3  1  0.51032750  0.48827150  0.75000000  1
  Li  Li4  1  0.48525500  0.50000000  0.50000000  1
  Li  Li5  1  0.48525500  0.50000000  0.00000000  1
  Li  Li6  1  0.51032750  0.51172850  0.25000000  1
  Li  Li7  1  0.01032750  0.98827150  0.75000000  1
  Fe  Fe8  1  0.94143600  0.28566500  0.91383800  1
  Fe  Fe9  1  0.94143600  0.28566500  0.58616200  1
  Fe  Fe10  1  0.44143600  0.21433500  0.08616200  1
  Fe  Fe11  1  0.44143600  0.21433500  0.41383800  1
  Fe  Fe12  1  0.44143600  0.78566500  0.91383800  1
  Fe  Fe13  1  0.44143600  0.78566500  0.58616200  1
  Fe  Fe14  1  0.94143600  0.71433500  0.08616200  1
  Fe  Fe15  1  0.94143600  0.71433500  0.41383800  1
  Si  Si16  1  0.95092500  0.38593800  0.13945400  1
  Si  Si17  1  0.95092500  0.38593800  0.36054600  1
  Si  Si18  1  0.45092500  0.11406200  0.86054600  1
  Si  Si19  1  0.45092500  0.11406200  0.63945400  1
  Si  Si20  1  0.45092500  0.88593800  0.13945400  1
  Si  Si21  1  0.45092500  0.88593800  0.36054600  1
  Si  Si22  1  0.95092500  0.61406200  0.86054600  1
  Si  Si23  1  0.95092500  0.61406200  0.63945400  1
  O  O24  1  0.27825500  0.40757600  0.37875100  1
  O  O25  1  0.27825500  0.40757600  0.12124900  1
  O  O26  1  0.88791850  0.31635750  0.25000000  1
  O  O27  1  0.79085150  0.46165950  0.63323000  1
  O  O28  1  0.79085150  0.46165950  0.86677000  1
  O  O29  1  0.82642300  0.27350200  0.44145000  1
  O  O30  1  0.82642300  0.27350200  0.05855000  1
  O  O31  1  0.77825500  0.09242400  0.62124900  1
  O  O32  1  0.77825500  0.09242400  0.87875100  1
  O  O33  1  0.38791850  0.18364250  0.75000000  1
  O  O34  1  0.29085150  0.03834050  0.36677000  1
  O  O35  1  0.29085150  0.03834050  0.13323000  1
  O  O36  1  0.32642300  0.22649800  0.94145000  1
  O  O37  1  0.32642300  0.22649800  0.55855000  1
  O  O38  1  0.77825500  0.90757600  0.37875100  1
  O  O39  1  0.77825500  0.90757600  0.12124900  1
  O  O40  1  0.38791850  0.81635750  0.25000000  1
  O  O41  1  0.29085150  0.96165950  0.63323000  1
  O  O42  1  0.29085150  0.96165950  0.86677000  1
  O  O43  1  0.32642300  0.77350200  0.44145000  1
  O  O44  1  0.32642300  0.77350200  0.05855000  1
  O  O45  1  0.27825500  0.59242400  0.62124900  1
  O  O46  1  0.27825500  0.59242400  0.87875100  1
  O  O47  1  0.88791850  0.68364250  0.75000000  1
  O  O48  1  0.79085150  0.53834050  0.36677000  1
  O  O49  1  0.79085150  0.53834050  0.13323000  1
  O  O50  1  0.82642300  0.72649800  0.94145000  1
  O  O51  1  0.82642300  0.72649800  0.55855000  1
