# generated using pymatgen
data_Li4Nb2Co3Ni3O16
_symmetry_space_group_name_H-M   'P 1'
_cell_length_a   5.78983387
_cell_length_b   5.86583974
_cell_length_c   9.51853660
_cell_angle_alpha   91.62602625
_cell_angle_beta   90.28880365
_cell_angle_gamma   119.42680166
_symmetry_Int_Tables_number   1
_chemical_formula_structural   Li4Nb2Co3Ni3O16
_chemical_formula_sum   'Li4 Nb2 Co3 Ni3 O16'
_cell_volume   281.38344433
_cell_formula_units_Z   1
loop_
 _symmetry_equiv_pos_site_id
 _symmetry_equiv_pos_as_xyz
  1  'x, y, z'
loop_
 _atom_site_type_symbol
 _atom_site_label
 _atom_site_symmetry_multiplicity
 _atom_site_fract_x
 _atom_site_fract_y
 _atom_site_fract_z
 _atom_site_occupancy
  Li  Li0  1  0.33894500  0.67873500  0.10060900  1
  Li  Li1  1  0.99774100  0.99624500  0.00663000  1
  Li  Li2  1  0.99723300  0.99173200  0.50654900  1
  Li  Li3  1  0.66529200  0.33586000  0.60397200  1
  Nb  Nb4  1  0.33660600  0.66234900  0.50300200  1
  Nb  Nb5  1  0.67471100  0.34621000  0.00491400  1
  Co  Co6  1  0.16699600  0.82573200  0.78342400  1
  Co  Co7  1  0.66029900  0.82978900  0.78521800  1
  Co  Co8  1  0.82917600  0.65767200  0.28335900  1
  Ni  Ni9  1  0.16996500  0.33760700  0.78647600  1
  Ni  Ni10  1  0.33711800  0.16653600  0.28441900  1
  Ni  Ni11  1  0.83002500  0.16715900  0.28445600  1
  O  O12  1  0.15526900  0.81872900  0.40636200  1
  O  O13  1  0.47892800  0.96219000  0.66876900  1
  O  O14  1  0.34206200  0.69278100  0.88696800  1
  O  O15  1  0.99340800  0.97793500  0.69539800  1
  O  O16  1  0.98873100  0.97964700  0.19576600  1
  O  O17  1  0.66617700  0.82115800  0.40517300  1
  O  O18  1  0.03515500  0.53413000  0.66362500  1
  O  O19  1  0.49037800  0.52939900  0.66162000  1
  O  O20  1  0.83674700  0.67221800  0.89450500  1
  O  O21  1  0.15699000  0.31789300  0.41131200  1
  O  O22  1  0.52933500  0.49904500  0.15653600  1
  O  O23  1  0.96990700  0.49951000  0.15734700  1
  O  O24  1  0.67654900  0.35037600  0.38396500  1
  O  O25  1  0.32709400  0.15217900  0.90705000  1
  O  O26  1  0.52205600  0.04171700  0.15791400  1
  O  O27  1  0.82680900  0.15546900  0.90682100  1
