# generated using pymatgen
data_Zr7VO16
_symmetry_space_group_name_H-M   'P 1'
_cell_length_a   12.67279223
_cell_length_b   7.27948206
_cell_length_c   6.53676525
_cell_angle_alpha   90.00000000
_cell_angle_beta   111.78758100
_cell_angle_gamma   90.00000000
_symmetry_Int_Tables_number   1
_chemical_formula_structural   Zr7VO16
_chemical_formula_sum   'Zr14 V2 O32'
_cell_volume   559.94916511
_cell_formula_units_Z   2
loop_
 _symmetry_equiv_pos_site_id
 _symmetry_equiv_pos_as_xyz
  1  'x, y, z'
loop_
 _atom_site_type_symbol
 _atom_site_label
 _atom_site_symmetry_multiplicity
 _atom_site_fract_x
 _atom_site_fract_y
 _atom_site_fract_z
 _atom_site_occupancy
  Zr  Zr0  1  0.36286650  0.00000000  0.21829900  1
  Zr  Zr1  1  0.12518450  0.50000000  0.73769700  1
  Zr  Zr2  1  0.87901050  0.00000000  0.25736300  1
  Zr  Zr3  1  0.12831400  0.25500600  0.25915600  1
  Zr  Zr4  1  0.12831400  0.74499400  0.25915600  1
  Zr  Zr5  1  0.87598550  0.24762850  0.75239800  1
  Zr  Zr6  1  0.87598550  0.75237150  0.75239800  1
  Zr  Zr7  1  0.86286650  0.50000000  0.21829900  1
  Zr  Zr8  1  0.62518450  0.00000000  0.73769700  1
  Zr  Zr9  1  0.37901050  0.50000000  0.25736300  1
  Zr  Zr10  1  0.62831400  0.75500600  0.25915600  1
  Zr  Zr11  1  0.62831400  0.24499400  0.25915600  1
  Zr  Zr12  1  0.37598550  0.74762850  0.75239800  1
  Zr  Zr13  1  0.37598550  0.25237150  0.75239800  1
  V  V14  1  0.10847500  0.00000000  0.75717200  1
  V  V15  1  0.60847500  0.50000000  0.75717200  1
  O  O16  1  0.17261400  0.00000000  0.16368200  1
  O  O17  1  0.05809700  0.00000000  0.43417600  1
  O  O18  1  0.27880750  0.00000000  0.87504700  1
  O  O19  1  0.16810175  0.50000000  0.13949900  1
  O  O20  1  0.03818700  0.50000000  0.39537500  1
  O  O21  1  0.93511100  0.50000000  0.69016400  1
  O  O22  1  0.30348100  0.50000000  0.91698500  1
  O  O23  1  0.92415475  0.00000000  0.65044000  1
  O  O24  1  0.32843550  0.75355900  0.34837100  1
  O  O25  1  0.32843550  0.24644100  0.34837100  1
  O  O26  1  0.20509425  0.28990475  0.58996600  1
  O  O27  1  0.20509425  0.71009525  0.58996600  1
  O  O28  1  0.08089650  0.23295050  0.83753200  1
  O  O29  1  0.08089650  0.76704950  0.83753200  1
  O  O30  1  0.95165525  0.25094125  0.09546100  1
  O  O31  1  0.95165525  0.74905875  0.09546100  1
  O  O32  1  0.67261400  0.50000000  0.16368200  1
  O  O33  1  0.55809700  0.50000000  0.43417600  1
  O  O34  1  0.77880750  0.50000000  0.87504700  1
  O  O35  1  0.66810175  0.00000000  0.13949900  1
  O  O36  1  0.53818700  0.00000000  0.39537500  1
  O  O37  1  0.43511100  0.00000000  0.69016400  1
  O  O38  1  0.80348100  0.00000000  0.91698500  1
  O  O39  1  0.42415475  0.50000000  0.65044000  1
  O  O40  1  0.82843550  0.25355900  0.34837100  1
  O  O41  1  0.82843550  0.74644100  0.34837100  1
  O  O42  1  0.70509425  0.78990475  0.58996600  1
  O  O43  1  0.70509425  0.21009525  0.58996600  1
  O  O44  1  0.58089650  0.73295050  0.83753200  1
  O  O45  1  0.58089650  0.26704950  0.83753200  1
  O  O46  1  0.45165525  0.75094125  0.09546100  1
  O  O47  1  0.45165525  0.24905875  0.09546100  1
