# generated using pymatgen
data_Li4VO3F2
_symmetry_space_group_name_H-M   'P 1'
_cell_length_a   9.06713000
_cell_length_b   5.93598200
_cell_length_c   7.98627750
_cell_angle_alpha   90.00000000
_cell_angle_beta   99.89630401
_cell_angle_gamma   90.00000000
_symmetry_Int_Tables_number   1
_chemical_formula_structural   Li4VO3F2
_chemical_formula_sum   'Li16 V4 O12 F8'
_cell_volume   423.44414608
_cell_formula_units_Z   4
loop_
 _symmetry_equiv_pos_site_id
 _symmetry_equiv_pos_as_xyz
  1  'x, y, z'
loop_
 _atom_site_type_symbol
 _atom_site_label
 _atom_site_symmetry_multiplicity
 _atom_site_fract_x
 _atom_site_fract_y
 _atom_site_fract_z
 _atom_site_occupancy
  Li  Li0  1  0.19864100  0.17213200  0.63462300  1
  Li  Li1  1  0.19864100  0.82786800  0.13462300  1
  Li  Li2  1  0.41163400  0.84233900  0.55819700  1
  Li  Li3  1  0.41163400  0.15766100  0.05819700  1
  Li  Li4  1  0.58836600  0.84233900  0.94180300  1
  Li  Li5  1  0.58836600  0.15766100  0.44180300  1
  Li  Li6  1  0.80135900  0.17213200  0.86537700  1
  Li  Li7  1  0.80135900  0.82786800  0.36537700  1
  Li  Li8  1  0.69864100  0.67213200  0.63462300  1
  Li  Li9  1  0.69864100  0.32786800  0.13462300  1
  Li  Li10  1  0.91163400  0.34233900  0.55819700  1
  Li  Li11  1  0.91163400  0.65766100  0.05819700  1
  Li  Li12  1  0.08836600  0.34233900  0.94180300  1
  Li  Li13  1  0.08836600  0.65766100  0.44180300  1
  Li  Li14  1  0.30135900  0.67213200  0.86537700  1
  Li  Li15  1  0.30135900  0.32786800  0.36537700  1
  V  V16  1  0.50000000  0.33900900  0.75000000  1
  V  V17  1  0.50000000  0.66099100  0.25000000  1
  V  V18  1  0.00000000  0.83900900  0.75000000  1
  V  V19  1  0.00000000  0.16099100  0.25000000  1
  O  O20  1  0.40661350  0.17231550  0.57024700  1
  O  O21  1  0.40661350  0.82768450  0.07024700  1
  O  O22  1  0.50000000  0.63741000  0.75000000  1
  O  O23  1  0.50000000  0.36259000  0.25000000  1
  O  O24  1  0.59338650  0.17231550  0.92975300  1
  O  O25  1  0.59338650  0.82768450  0.42975300  1
  O  O26  1  0.90661350  0.67231550  0.57024700  1
  O  O27  1  0.90661350  0.32768450  0.07024700  1
  O  O28  1  0.00000000  0.13741000  0.75000000  1
  O  O29  1  0.00000000  0.86259000  0.25000000  1
  O  O30  1  0.09338650  0.67231550  0.92975300  1
  O  O31  1  0.09338650  0.32768450  0.42975300  1
  F  F32  1  0.19457650  0.83074850  0.64924700  1
  F  F33  1  0.19457650  0.16925150  0.14924700  1
  F  F34  1  0.80542350  0.83074850  0.85075300  1
  F  F35  1  0.80542350  0.16925150  0.35075300  1
  F  F36  1  0.69457650  0.33074850  0.64924700  1
  F  F37  1  0.69457650  0.66925150  0.14924700  1
  F  F38  1  0.30542350  0.33074850  0.85075300  1
  F  F39  1  0.30542350  0.66925150  0.35075300  1
