# generated using pymatgen
data_Al2FeO4
_symmetry_space_group_name_H-M   'P 1'
_cell_length_a   5.82476367
_cell_length_b   5.82476367
_cell_length_c   57.19233545
_cell_angle_alpha   90.00000000
_cell_angle_beta   90.00000000
_cell_angle_gamma   120.00000000
_symmetry_Int_Tables_number   1
_chemical_formula_structural   Al2FeO4
_chemical_formula_sum   'Al48 Fe24 O96'
_cell_volume   1680.44801330
_cell_formula_units_Z   24
loop_
 _symmetry_equiv_pos_site_id
 _symmetry_equiv_pos_as_xyz
  1  'x, y, z'
loop_
 _atom_site_type_symbol
 _atom_site_label
 _atom_site_symmetry_multiplicity
 _atom_site_fract_x
 _atom_site_fract_y
 _atom_site_fract_z
 _atom_site_occupancy
  Al  Al0  1  0.16856567  0.83143433  0.20882533  1
  Al  Al1  1  0.66286867  0.83143433  0.20882533  1
  Al  Al2  1  0.00000000  0.00000000  0.25002300  1
  Al  Al3  1  0.83307100  0.16692900  0.29162300  1
  Al  Al4  1  0.16856567  0.33713133  0.20882533  1
  Al  Al5  1  0.33385800  0.16692900  0.29162300  1
  Al  Al6  1  0.66666667  0.33333333  0.33328833  1
  Al  Al7  1  0.83340633  0.16659367  0.04160567  1
  Al  Al8  1  0.83307100  0.66614200  0.29162300  1
  Al  Al9  1  0.33318733  0.16659367  0.04160567  1
  Al  Al10  1  0.50212667  0.00425333  0.12458533  1
  Al  Al11  1  0.66666667  0.33333333  0.08280333  1
  Al  Al12  1  0.50212667  0.49787333  0.12458533  1
  Al  Al13  1  0.83340633  0.66681267  0.04160567  1
  Al  Al14  1  0.99574667  0.49787333  0.12458533  1
  Al  Al15  1  0.00000000  0.00000000  0.15543800  1
  Al  Al16  1  0.83523233  0.16476767  0.54215867  1
  Al  Al17  1  0.32953533  0.16476767  0.54215867  1
  Al  Al18  1  0.66666667  0.33333333  0.58335633  1
  Al  Al19  1  0.49973767  0.50026233  0.62495633  1
  Al  Al20  1  0.83523233  0.67046467  0.54215867  1
  Al  Al21  1  0.00052467  0.50026233  0.62495633  1
  Al  Al22  1  0.33333333  0.66666667  0.66662167  1
  Al  Al23  1  0.50007300  0.49992700  0.37493900  1
  Al  Al24  1  0.49973767  0.99947533  0.62495633  1
  Al  Al25  1  0.99985400  0.49992700  0.37493900  1
  Al  Al26  1  0.16879333  0.33758667  0.45791867  1
  Al  Al27  1  0.33333333  0.66666667  0.41613667  1
  Al  Al28  1  0.16879333  0.83120667  0.45791867  1
  Al  Al29  1  0.50007300  0.00014600  0.37493900  1
  Al  Al30  1  0.66241333  0.83120667  0.45791867  1
  Al  Al31  1  0.66666667  0.33333333  0.48877133  1
  Al  Al32  1  0.50189900  0.49810100  0.87549200  1
  Al  Al33  1  0.99620200  0.49810100  0.87549200  1
  Al  Al34  1  0.33333333  0.66666667  0.91668967  1
  Al  Al35  1  0.16640433  0.83359567  0.95828967  1
  Al  Al36  1  0.50189900  0.00379800  0.87549200  1
  Al  Al37  1  0.66719133  0.83359567  0.95828967  1
  Al  Al38  1  0.00000000  0.00000000  0.99995500  1
  Al  Al39  1  0.16673967  0.83326033  0.70827233  1
  Al  Al40  1  0.16640433  0.33280867  0.95828967  1
  Al  Al41  1  0.66652067  0.83326033  0.70827233  1
  Al  Al42  1  0.83546000  0.67092000  0.79125200  1
  Al  Al43  1  0.00000000  0.00000000  0.74947000  1
  Al  Al44  1  0.83546000  0.16454000  0.79125200  1
  Al  Al45  1  0.16673967  0.33347933  0.70827233  1
  Al  Al46  1  0.32908000  0.16454000  0.79125200  1
  Al  Al47  1  0.33333333  0.66666667  0.82210467  1
  Fe  Fe48  1  0.66666667  0.33333333  0.17764233  1
  Fe  Fe49  1  0.33333333  0.66666667  0.16709167  1
  Fe  Fe50  1  0.33333333  0.66666667  0.26090467  1
  Fe  Fe51  1  0.33333333  0.66666667  0.01034467  1
  Fe  Fe52  1  0.00000000  0.00000000  0.09353200  1
  Fe  Fe53  1  0.66666667  0.33333333  0.23885233  1
  Fe  Fe54  1  0.33333333  0.66666667  0.32297867  1
  Fe  Fe55  1  0.33333333  0.66666667  0.07333867  1
  Fe  Fe56  1  0.33333333  0.66666667  0.51097567  1
  Fe  Fe57  1  0.00000000  0.00000000  0.50042500  1
  Fe  Fe58  1  0.00000000  0.00000000  0.59423800  1
  Fe  Fe59  1  0.00000000  0.00000000  0.34367800  1
  Fe  Fe60  1  0.66666667  0.33333333  0.42686533  1
  Fe  Fe61  1  0.33333333  0.66666667  0.57218567  1
  Fe  Fe62  1  0.00000000  0.00000000  0.65631200  1
  Fe  Fe63  1  0.00000000  0.00000000  0.40667200  1
  Fe  Fe64  1  0.00000000  0.00000000  0.84430900  1
  Fe  Fe65  1  0.66666667  0.33333333  0.83375833  1
  Fe  Fe66  1  0.66666667  0.33333333  0.92757133  1
  Fe  Fe67  1  0.66666667  0.33333333  0.67701133  1
  Fe  Fe68  1  0.33333333  0.66666667  0.76019867  1
  Fe  Fe69  1  0.00000000  0.00000000  0.90551900  1
  Fe  Fe70  1  0.66666667  0.33333333  0.98964533  1
  Fe  Fe71  1  0.66666667  0.33333333  0.74000533  1
  O  O72  1  0.02425200  0.51212600  0.19143400  1
  O  O73  1  0.48787400  0.51212600  0.19143400  1
  O  O74  1  0.33333333  0.66666667  0.22626367  1
  O  O75  1  0.48787400  0.97574800  0.19143400  1
  O  O76  1  0.70813267  0.85406633  0.27219233  1
  O  O77  1  0.85691133  0.71382267  0.22778367  1
  O  O78  1  0.00000000  0.00000000  0.18773700  1
  O  O79  1  0.00000000  0.00000000  0.30859800  1
  O  O80  1  0.14593367  0.85406633  0.27219233  1
  O  O81  1  0.85691133  0.14308867  0.22778367  1
  O  O82  1  0.28617733  0.14308867  0.22778367  1
  O  O83  1  0.14593367  0.29186733  0.27219233  1
  O  O84  1  0.70800467  0.85400233  0.02200433  1
  O  O85  1  0.52070333  0.04140667  0.31112767  1
  O  O86  1  0.66666667  0.33333333  0.27444933  1
  O  O87  1  0.14599767  0.85400233  0.02200433  1
  O  O88  1  0.00000000  0.00000000  0.05843300  1
  O  O89  1  0.52070333  0.47929667  0.31112767  1
  O  O90  1  0.14599767  0.29199533  0.02200433  1
  O  O91  1  0.95859333  0.47929667  0.31112767  1
  O  O92  1  0.37732867  0.18866433  0.10501133  1
  O  O93  1  0.52047733  0.04095467  0.06106167  1
  O  O94  1  0.66666667  0.33333333  0.02467633  1
  O  O95  1  0.81133567  0.18866433  0.10501133  1
  O  O96  1  0.66666667  0.33333333  0.14213433  1
  O  O97  1  0.52047733  0.47952267  0.06106167  1
  O  O98  1  0.81133567  0.62267133  0.10501133  1
  O  O99  1  0.95904533  0.47952267  0.06106167  1
  O  O100  1  0.16726967  0.33453933  0.14338833  1
  O  O101  1  0.33333333  0.66666667  0.10954267  1
  O  O102  1  0.16726967  0.83273033  0.14338833  1
  O  O103  1  0.66546067  0.83273033  0.14338833  1
  O  O104  1  0.69091867  0.84545933  0.52476733  1
  O  O105  1  0.15454067  0.84545933  0.52476733  1
  O  O106  1  0.00000000  0.00000000  0.55959700  1
  O  O107  1  0.15454067  0.30908133  0.52476733  1
  O  O108  1  0.37479933  0.18739967  0.60552567  1
  O  O109  1  0.52357800  0.04715600  0.56111700  1
  O  O110  1  0.66666667  0.33333333  0.52107033  1
  O  O111  1  0.66666667  0.33333333  0.64193133  1
  O  O112  1  0.81260033  0.18739967  0.60552567  1
  O  O113  1  0.52357800  0.47642200  0.56111700  1
  O  O114  1  0.95284400  0.47642200  0.56111700  1
  O  O115  1  0.81260033  0.62520067  0.60552567  1
  O  O116  1  0.37467133  0.18733567  0.35533767  1
  O  O117  1  0.18737000  0.37474000  0.64446100  1
  O  O118  1  0.33333333  0.66666667  0.60778267  1
  O  O119  1  0.81266433  0.18733567  0.35533767  1
  O  O120  1  0.66666667  0.33333333  0.39176633  1
  O  O121  1  0.18737000  0.81263000  0.64446100  1
  O  O122  1  0.81266433  0.62532867  0.35533767  1
  O  O123  1  0.62526000  0.81263000  0.64446100  1
  O  O124  1  0.04399533  0.52199767  0.43834467  1
  O  O125  1  0.18714400  0.37428800  0.39439500  1
  O  O126  1  0.33333333  0.66666667  0.35800967  1
  O  O127  1  0.47800233  0.52199767  0.43834467  1
  O  O128  1  0.33333333  0.66666667  0.47546767  1
  O  O129  1  0.18714400  0.81285600  0.39439500  1
  O  O130  1  0.47800233  0.95600467  0.43834467  1
  O  O131  1  0.62571200  0.81285600  0.39439500  1
  O  O132  1  0.83393633  0.66787267  0.47672167  1
  O  O133  1  0.00000000  0.00000000  0.44287600  1
  O  O134  1  0.83393633  0.16606367  0.47672167  1
  O  O135  1  0.33212733  0.16606367  0.47672167  1
  O  O136  1  0.35758533  0.17879267  0.85810067  1
  O  O137  1  0.82120733  0.17879267  0.85810067  1
  O  O138  1  0.66666667  0.33333333  0.89293033  1
  O  O139  1  0.82120733  0.64241467  0.85810067  1
  O  O140  1  0.04146600  0.52073300  0.93885900  1
  O  O141  1  0.19024467  0.38048933  0.89445033  1
  O  O142  1  0.33333333  0.66666667  0.85440367  1
  O  O143  1  0.33333333  0.66666667  0.97526467  1
  O  O144  1  0.47926700  0.52073300  0.93885900  1
  O  O145  1  0.19024467  0.80975533  0.89445033  1
  O  O146  1  0.61951067  0.80975533  0.89445033  1
  O  O147  1  0.47926700  0.95853400  0.93885900  1
  O  O148  1  0.04133800  0.52066900  0.68867100  1
  O  O149  1  0.85403667  0.70807333  0.97779433  1
  O  O150  1  0.00000000  0.00000000  0.94111600  1
  O  O151  1  0.47933100  0.52066900  0.68867100  1
  O  O152  1  0.33333333  0.66666667  0.72509967  1
  O  O153  1  0.85403667  0.14596333  0.97779433  1
  O  O154  1  0.47933100  0.95866200  0.68867100  1
  O  O155  1  0.29192667  0.14596333  0.97779433  1
  O  O156  1  0.71066200  0.85533100  0.77167800  1
  O  O157  1  0.85381067  0.70762133  0.72772833  1
  O  O158  1  0.00000000  0.00000000  0.69134300  1
  O  O159  1  0.14466900  0.85533100  0.77167800  1
  O  O160  1  0.00000000  0.00000000  0.80880100  1
  O  O161  1  0.85381067  0.14618933  0.72772833  1
  O  O162  1  0.14466900  0.28933800  0.77167800  1
  O  O163  1  0.29237867  0.14618933  0.72772833  1
  O  O164  1  0.50060300  0.00120600  0.81005500  1
  O  O165  1  0.66666667  0.33333333  0.77620933  1
  O  O166  1  0.50060300  0.49939700  0.81005500  1
  O  O167  1  0.99879400  0.49939700  0.81005500  1
