# generated using pymatgen
data_Li2MnNiO4
_symmetry_space_group_name_H-M   'P 1'
_cell_length_a   5.82086248
_cell_length_b   5.92035205
_cell_length_c   8.32901952
_cell_angle_alpha   90.00000000
_cell_angle_beta   90.00000000
_cell_angle_gamma   90.00000000
_symmetry_Int_Tables_number   1
_chemical_formula_structural   Li2MnNiO4
_chemical_formula_sum   'Li8 Mn4 Ni4 O16'
_cell_volume   287.03096531
_cell_formula_units_Z   4
loop_
 _symmetry_equiv_pos_site_id
 _symmetry_equiv_pos_as_xyz
  1  'x, y, z'
loop_
 _atom_site_type_symbol
 _atom_site_label
 _atom_site_symmetry_multiplicity
 _atom_site_fract_x
 _atom_site_fract_y
 _atom_site_fract_z
 _atom_site_occupancy
  Li  Li0  1  0.00000000  0.50000000  0.00000000  1
  Li  Li1  1  0.00000000  0.00000000  0.00000000  1
  Li  Li2  1  0.25000000  0.75000000  0.25000000  1
  Li  Li3  1  0.75000000  0.75000000  0.25000000  1
  Li  Li4  1  0.50000000  0.00000000  0.50000000  1
  Li  Li5  1  0.50000000  0.50000000  0.50000000  1
  Li  Li6  1  0.75000000  0.25000000  0.75000000  1
  Li  Li7  1  0.25000000  0.25000000  0.75000000  1
  Mn  Mn8  1  0.75000000  0.25000000  0.25000000  1
  Mn  Mn9  1  0.25000000  0.25000000  0.25000000  1
  Mn  Mn10  1  0.25000000  0.75000000  0.75000000  1
  Mn  Mn11  1  0.75000000  0.75000000  0.75000000  1
  Ni  Ni12  1  0.50000000  0.50000000  0.00000000  1
  Ni  Ni13  1  0.50000000  0.00000000  0.00000000  1
  Ni  Ni14  1  0.00000000  0.00000000  0.50000000  1
  Ni  Ni15  1  0.00000000  0.50000000  0.50000000  1
  O  O16  1  0.74505350  0.75000000  0.98163650  1
  O  O17  1  0.25494650  0.75000000  0.98163650  1
  O  O18  1  0.24505350  0.75000000  0.51836350  1
  O  O19  1  0.75494650  0.75000000  0.51836350  1
  O  O20  1  0.00000000  0.47378550  0.24945500  1
  O  O21  1  0.00000000  0.02621450  0.24945500  1
  O  O22  1  0.50000000  0.47378550  0.25054500  1
  O  O23  1  0.50000000  0.02621450  0.25054500  1
  O  O24  1  0.24505350  0.25000000  0.48163650  1
  O  O25  1  0.75494650  0.25000000  0.48163650  1
  O  O26  1  0.74505350  0.25000000  0.01836350  1
  O  O27  1  0.25494650  0.25000000  0.01836350  1
  O  O28  1  0.50000000  0.97378550  0.74945500  1
  O  O29  1  0.50000000  0.52621450  0.74945500  1
  O  O30  1  0.00000000  0.97378550  0.75054500  1
  O  O31  1  0.00000000  0.52621450  0.75054500  1
