# generated using pymatgen
data_Li(BiO2)3
_symmetry_space_group_name_H-M   'P 1'
_cell_length_a   9.77265864
_cell_length_b   9.77265864
_cell_length_c   10.99499381
_cell_angle_alpha   90.00000000
_cell_angle_beta   90.00000000
_cell_angle_gamma   120.00000000
_symmetry_Int_Tables_number   1
_chemical_formula_structural   Li(BiO2)3
_chemical_formula_sum   'Li6 Bi18 O36'
_cell_volume   909.39189375
_cell_formula_units_Z   6
loop_
 _symmetry_equiv_pos_site_id
 _symmetry_equiv_pos_as_xyz
  1  'x, y, z'
loop_
 _atom_site_type_symbol
 _atom_site_label
 _atom_site_symmetry_multiplicity
 _atom_site_fract_x
 _atom_site_fract_y
 _atom_site_fract_z
 _atom_site_occupancy
  Li  Li0  1  0.00000000  0.00000000  0.00000000  1
  Li  Li1  1  0.00000000  0.00000000  0.50000000  1
  Li  Li2  1  0.66666667  0.33333333  0.33333333  1
  Li  Li3  1  0.66666667  0.33333333  0.83333333  1
  Li  Li4  1  0.33333333  0.66666667  0.66666667  1
  Li  Li5  1  0.33333333  0.66666667  0.16666667  1
  Bi  Bi6  1  0.78137033  0.73655067  0.30245567  1
  Bi  Bi7  1  0.95518033  0.21862967  0.30245567  1
  Bi  Bi8  1  0.73655067  0.95518033  0.69754433  1
  Bi  Bi9  1  0.26344933  0.04481967  0.30245567  1
  Bi  Bi10  1  0.04481967  0.78137033  0.69754433  1
  Bi  Bi11  1  0.21862967  0.26344933  0.69754433  1
  Bi  Bi12  1  0.44803700  0.06988400  0.63578900  1
  Bi  Bi13  1  0.62184700  0.55196300  0.63578900  1
  Bi  Bi14  1  0.40321733  0.28851367  0.03087767  1
  Bi  Bi15  1  0.93011600  0.37815300  0.63578900  1
  Bi  Bi16  1  0.71148633  0.11470367  0.03087767  1
  Bi  Bi17  1  0.88529633  0.59678267  0.03087767  1
  Bi  Bi18  1  0.11470367  0.40321733  0.96912233  1
  Bi  Bi19  1  0.28851367  0.88529633  0.96912233  1
  Bi  Bi20  1  0.06988400  0.62184700  0.36421100  1
  Bi  Bi21  1  0.59678267  0.71148633  0.96912233  1
  Bi  Bi22  1  0.37815300  0.44803700  0.36421100  1
  Bi  Bi23  1  0.55196300  0.93011600  0.36421100  1
  O  O24  1  0.52518067  0.88343933  0.56359433  1
  O  O25  1  0.64174133  0.52518067  0.43640567  1
  O  O26  1  0.81407033  0.96950267  0.37469967  1
  O  O27  1  0.88343933  0.35825867  0.43640567  1
  O  O28  1  0.03049733  0.84456767  0.37469967  1
  O  O29  1  0.84456767  0.81407033  0.62530033  1
  O  O30  1  0.15543233  0.18592967  0.37469967  1
  O  O31  1  0.96950267  0.15543233  0.62530033  1
  O  O32  1  0.11656067  0.64174133  0.56359433  1
  O  O33  1  0.18592967  0.03049733  0.62530033  1
  O  O34  1  0.35825867  0.47481933  0.56359433  1
  O  O35  1  0.47481933  0.11656067  0.43640567  1
  O  O36  1  0.19184733  0.21677267  0.89692767  1
  O  O37  1  0.30840800  0.85851400  0.76973900  1
  O  O38  1  0.48073700  0.30283600  0.70803300  1
  O  O39  1  0.55010600  0.69159200  0.76973900  1
  O  O40  1  0.69716400  0.17790100  0.70803300  1
  O  O41  1  0.51123433  0.14740367  0.95863367  1
  O  O42  1  0.82209900  0.51926300  0.70803300  1
  O  O43  1  0.63616933  0.48876567  0.95863367  1
  O  O44  1  0.78322733  0.97507467  0.89692767  1
  O  O45  1  0.85259633  0.36383067  0.95863367  1
  O  O46  1  0.02492533  0.80815267  0.89692767  1
  O  O47  1  0.14148600  0.44989400  0.76973900  1
  O  O48  1  0.85851400  0.55010600  0.23026100  1
  O  O49  1  0.97507467  0.19184733  0.10307233  1
  O  O50  1  0.14740367  0.63616933  0.04136633  1
  O  O51  1  0.21677267  0.02492533  0.10307233  1
  O  O52  1  0.36383067  0.51123433  0.04136633  1
  O  O53  1  0.17790100  0.48073700  0.29196700  1
  O  O54  1  0.48876567  0.85259633  0.04136633  1
  O  O55  1  0.30283600  0.82209900  0.29196700  1
  O  O56  1  0.44989400  0.30840800  0.23026100  1
  O  O57  1  0.51926300  0.69716400  0.29196700  1
  O  O58  1  0.69159200  0.14148600  0.23026100  1
  O  O59  1  0.80815267  0.78322733  0.10307233  1
