# generated using pymatgen
data_VCrO3
_symmetry_space_group_name_H-M   'P 1'
_cell_length_a   5.09724269
_cell_length_b   5.49961806
_cell_length_c   8.86164626
_cell_angle_alpha   105.58201727
_cell_angle_beta   89.94178498
_cell_angle_gamma   117.60006258
_symmetry_Int_Tables_number   1
_chemical_formula_structural   VCrO3
_chemical_formula_sum   'V4 Cr4 O12'
_cell_volume   209.82863040
_cell_formula_units_Z   4
loop_
 _symmetry_equiv_pos_site_id
 _symmetry_equiv_pos_as_xyz
  1  'x, y, z'
loop_
 _atom_site_type_symbol
 _atom_site_label
 _atom_site_symmetry_multiplicity
 _atom_site_fract_x
 _atom_site_fract_y
 _atom_site_fract_z
 _atom_site_occupancy
  V  V0  1  0.72251198  0.87474079  0.57298674  1
  V  V1  1  0.52474919  0.87657100  0.17332095  1
  V  V2  1  0.02572057  0.37657085  0.67714121  1
  V  V3  1  0.27666018  0.12624843  0.42615736  1
  Cr  Cr4  1  0.22691386  0.37579623  0.07610410  1
  Cr  Cr5  1  0.97522386  0.62751576  0.32338390  1
  Cr  Cr6  1  0.47640134  0.12499657  0.82710210  1
  Cr  Cr7  1  0.77314677  0.62217389  0.92417021  1
  O  O8  1  0.77591968  0.52598837  0.72444688  1
  O  O9  1  0.27610993  0.02633369  0.22333024  1
  O  O10  1  0.82102963  0.87406653  0.37407867  1
  O  O11  1  0.67767958  0.62395663  0.12416405  1
  O  O12  1  0.22317457  0.77503618  0.97360233  1
  O  O13  1  0.72390271  0.28140700  0.47179281  1
  O  O14  1  0.27560031  0.72029190  0.52517679  1
  O  O15  1  0.77899656  0.22605569  0.02551843  1
  O  O16  1  0.32505640  0.37439674  0.87768949  1
  O  O17  1  0.17899173  0.12479656  0.62753870  1
  O  O18  1  0.72132744  0.97189272  0.77574446  1
  O  O19  1  0.22088172  0.47116348  0.27654958  1
