# generated using pymatgen
data_NaV3O6
_symmetry_space_group_name_H-M   'P 1'
_cell_length_a   5.68995600
_cell_length_b   8.37162400
_cell_length_c   5.33319930
_cell_angle_alpha   90.00000000
_cell_angle_beta   114.27584850
_cell_angle_gamma   90.00000000
_symmetry_Int_Tables_number   1
_chemical_formula_structural   NaV3O6
_chemical_formula_sum   'Na2 V6 O12'
_cell_volume   231.57924429
_cell_formula_units_Z   2
loop_
 _symmetry_equiv_pos_site_id
 _symmetry_equiv_pos_as_xyz
  1  'x, y, z'
loop_
 _atom_site_type_symbol
 _atom_site_label
 _atom_site_symmetry_multiplicity
 _atom_site_fract_x
 _atom_site_fract_y
 _atom_site_fract_z
 _atom_site_occupancy
  Na  Na0  1  0.50000000  0.12588400  0.00000000  1
  Na  Na1  1  0.00000000  0.62588400  0.00000000  1
  V  V2  1  0.50000000  0.50665500  0.00000000  1
  V  V3  1  0.50000000  0.31931700  0.50000000  1
  V  V4  1  0.50000000  0.69299300  0.50000000  1
  V  V5  1  0.00000000  0.00665500  0.00000000  1
  V  V6  1  0.00000000  0.81931700  0.50000000  1
  V  V7  1  0.00000000  0.19299300  0.50000000  1
  O  O8  1  0.83772300  0.00416700  0.26266400  1
  O  O9  1  0.77343000  0.17623000  0.71595500  1
  O  O10  1  0.16227700  0.00416700  0.73733600  1
  O  O11  1  0.22657000  0.17623000  0.28404500  1
  O  O12  1  0.77929900  0.83050900  0.71633900  1
  O  O13  1  0.22070100  0.83050900  0.28366100  1
  O  O14  1  0.33772300  0.50416700  0.26266400  1
  O  O15  1  0.27343000  0.67623000  0.71595500  1
  O  O16  1  0.66227700  0.50416700  0.73733600  1
  O  O17  1  0.72657000  0.67623000  0.28404500  1
  O  O18  1  0.27929900  0.33050900  0.71633900  1
  O  O19  1  0.72070100  0.33050900  0.28366100  1
