# generated using pymatgen
data_Mn2O3F
_symmetry_space_group_name_H-M   'P 1'
_cell_length_a   9.19711600
_cell_length_b   6.02296600
_cell_length_c   4.58436322
_cell_angle_alpha   90.00000000
_cell_angle_beta   92.37689337
_cell_angle_gamma   90.00000000
_symmetry_Int_Tables_number   1
_chemical_formula_structural   Mn2O3F
_chemical_formula_sum   'Mn8 O12 F4'
_cell_volume   253.72734976
_cell_formula_units_Z   4
loop_
 _symmetry_equiv_pos_site_id
 _symmetry_equiv_pos_as_xyz
  1  'x, y, z'
loop_
 _atom_site_type_symbol
 _atom_site_label
 _atom_site_symmetry_multiplicity
 _atom_site_fract_x
 _atom_site_fract_y
 _atom_site_fract_z
 _atom_site_occupancy
  Mn  Mn0  1  0.00000000  0.00000000  0.50000000  1
  Mn  Mn1  1  0.50000000  0.00000000  0.50000000  1
  Mn  Mn2  1  0.75000000  0.75000000  0.00000000  1
  Mn  Mn3  1  0.75000000  0.25000000  0.00000000  1
  Mn  Mn4  1  0.50000000  0.50000000  0.50000000  1
  Mn  Mn5  1  0.00000000  0.50000000  0.50000000  1
  Mn  Mn6  1  0.25000000  0.25000000  0.00000000  1
  Mn  Mn7  1  0.25000000  0.75000000  0.00000000  1
  O  O8  1  0.84239400  0.00000000  0.80808800  1
  O  O9  1  0.59501950  0.24881450  0.69183000  1
  O  O10  1  0.59501950  0.75118550  0.69183000  1
  O  O11  1  0.40498050  0.24881450  0.30817000  1
  O  O12  1  0.40498050  0.75118550  0.30817000  1
  O  O13  1  0.15760600  0.00000000  0.19191200  1
  O  O14  1  0.34239400  0.50000000  0.80808800  1
  O  O15  1  0.09501950  0.74881450  0.69183000  1
  O  O16  1  0.09501950  0.25118550  0.69183000  1
  O  O17  1  0.90498050  0.74881450  0.30817000  1
  O  O18  1  0.90498050  0.25118550  0.30817000  1
  O  O19  1  0.65760600  0.50000000  0.19191200  1
  F  F20  1  0.35868900  0.00000000  0.78520500  1
  F  F21  1  0.64131100  0.00000000  0.21479500  1
  F  F22  1  0.85868900  0.50000000  0.78520500  1
  F  F23  1  0.14131100  0.50000000  0.21479500  1
