# generated using pymatgen
data_MnCr3(PO4)6
_symmetry_space_group_name_H-M   'P 1'
_cell_length_a   8.51930431
_cell_length_b   8.51930431
_cell_length_c   21.69080819
_cell_angle_alpha   90.00000000
_cell_angle_beta   90.00000000
_cell_angle_gamma   120.00000000
_symmetry_Int_Tables_number   1
_chemical_formula_structural   MnCr3(PO4)6
_chemical_formula_sum   'Mn3 Cr9 P18 O72'
_cell_volume   1363.37280985
_cell_formula_units_Z   3
loop_
 _symmetry_equiv_pos_site_id
 _symmetry_equiv_pos_as_xyz
  1  'x, y, z'
loop_
 _atom_site_type_symbol
 _atom_site_label
 _atom_site_symmetry_multiplicity
 _atom_site_fract_x
 _atom_site_fract_y
 _atom_site_fract_z
 _atom_site_occupancy
  Mn  Mn0  1  0.00000000  0.00000000  0.14433000  1
  Mn  Mn1  1  0.66666667  0.33333333  0.47766333  1
  Mn  Mn2  1  0.33333333  0.66666667  0.81099667  1
  Cr  Cr3  1  0.66666667  0.33333333  0.19050533  1
  Cr  Cr4  1  0.33333333  0.66666667  0.30958367  1
  Cr  Cr5  1  0.33333333  0.66666667  0.02453067  1
  Cr  Cr6  1  0.33333333  0.66666667  0.52383867  1
  Cr  Cr7  1  0.00000000  0.00000000  0.64291700  1
  Cr  Cr8  1  0.00000000  0.00000000  0.35786400  1
  Cr  Cr9  1  0.00000000  0.00000000  0.85717200  1
  Cr  Cr10  1  0.66666667  0.33333333  0.97625033  1
  Cr  Cr11  1  0.66666667  0.33333333  0.69119733  1
  P  P12  1  0.00011033  0.28257067  0.24969567  1
  P  P13  1  0.71742933  0.71753967  0.24969567  1
  P  P14  1  0.28246033  0.99988967  0.24969567  1
  P  P15  1  0.38025400  0.33084800  0.08371000  1
  P  P16  1  0.95059400  0.61974600  0.08371000  1
  P  P17  1  0.66915200  0.04940600  0.08371000  1
  P  P18  1  0.66677700  0.61590400  0.58302900  1
  P  P19  1  0.38409600  0.05087300  0.58302900  1
  P  P20  1  0.94912700  0.33322300  0.58302900  1
  P  P21  1  0.04692067  0.66418133  0.41704333  1
  P  P22  1  0.61726067  0.95307933  0.41704333  1
  P  P23  1  0.33581867  0.38273933  0.41704333  1
  P  P24  1  0.33344367  0.94923733  0.91636233  1
  P  P25  1  0.05076267  0.38420633  0.91636233  1
  P  P26  1  0.61579367  0.66655633  0.91636233  1
  P  P27  1  0.71358733  0.99751467  0.75037667  1
  P  P28  1  0.28392733  0.28641267  0.75037667  1
  P  P29  1  0.00248533  0.71607267  0.75037667  1
  O  O30  1  0.69574067  0.16158333  0.02526933  1
  O  O31  1  0.46584267  0.30425933  0.02526933  1
  O  O32  1  0.83235167  0.30593033  0.24418533  1
  O  O33  1  0.83841667  0.53415733  0.02526933  1
  O  O34  1  0.16679600  0.47348400  0.25576700  1
  O  O35  1  0.03411933  0.20248067  0.19108467  1
  O  O36  1  0.69406967  0.52642133  0.24418533  1
  O  O37  1  0.52651600  0.69331200  0.25576700  1
  O  O38  1  0.30668800  0.83320400  0.25576700  1
  O  O39  1  0.49436033  0.36142867  0.14192367  1
  O  O40  1  0.19092367  0.16157933  0.08854233  1
  O  O41  1  0.86706833  0.50563967  0.14192367  1
  O  O42  1  0.79751933  0.83163867  0.19108467  1
  O  O43  1  0.47357867  0.16764833  0.24418533  1
  O  O44  1  0.16836133  0.96588067  0.19108467  1
  O  O45  1  0.35933933  0.49992267  0.07761267  1
  O  O46  1  0.14058333  0.64066067  0.07761267  1
  O  O47  1  0.97065567  0.80907633  0.08854233  1
  O  O48  1  0.63857133  0.13293167  0.14192367  1
  O  O49  1  0.50007733  0.85941667  0.07761267  1
  O  O50  1  0.83016500  0.80036400  0.30811500  1
  O  O51  1  0.83842067  0.02934433  0.08854233  1
  O  O52  1  0.19963600  0.02980100  0.30811500  1
  O  O53  1  0.97019900  0.16983500  0.30811500  1
  O  O54  1  0.36240733  0.49491667  0.35860267  1
  O  O55  1  0.13250933  0.63759267  0.35860267  1
  O  O56  1  0.49901833  0.63926367  0.57751867  1
  O  O57  1  0.50508333  0.86749067  0.35860267  1
  O  O58  1  0.83346267  0.80681733  0.58910033  1
  O  O59  1  0.70078600  0.53581400  0.52441800  1
  O  O60  1  0.36073633  0.85975467  0.57751867  1
  O  O61  1  0.19318267  0.02664533  0.58910033  1
  O  O62  1  0.97335467  0.16653733  0.58910033  1
  O  O63  1  0.16102700  0.69476200  0.47525700  1
  O  O64  1  0.85759033  0.49491267  0.42187567  1
  O  O65  1  0.53373500  0.83897300  0.47525700  1
  O  O66  1  0.46418600  0.16497200  0.52441800  1
  O  O67  1  0.14024533  0.50098167  0.57751867  1
  O  O68  1  0.83502800  0.29921400  0.52441800  1
  O  O69  1  0.02600600  0.83325600  0.41094600  1
  O  O70  1  0.80725000  0.97399400  0.41094600  1
  O  O71  1  0.63732233  0.14240967  0.42187567  1
  O  O72  1  0.30523800  0.46626500  0.47525700  1
  O  O73  1  0.16674400  0.19275000  0.41094600  1
  O  O74  1  0.49683167  0.13369733  0.64144833  1
  O  O75  1  0.50508733  0.36267767  0.42187567  1
  O  O76  1  0.86630267  0.36313433  0.64144833  1
  O  O77  1  0.63686567  0.50316833  0.64144833  1
  O  O78  1  0.02907400  0.82825000  0.69193600  1
  O  O79  1  0.79917600  0.97092600  0.69193600  1
  O  O80  1  0.16568500  0.97259700  0.91085200  1
  O  O81  1  0.17175000  0.20082400  0.69193600  1
  O  O82  1  0.50012933  0.14015067  0.92243367  1
  O  O83  1  0.36745267  0.86914733  0.85775133  1
  O  O84  1  0.02740300  0.19308800  0.91085200  1
  O  O85  1  0.85984933  0.35997867  0.92243367  1
  O  O86  1  0.64002133  0.49987067  0.92243367  1
  O  O87  1  0.82769367  0.02809533  0.80859033  1
  O  O88  1  0.52425700  0.82824600  0.75520900  1
  O  O89  1  0.20040167  0.17230633  0.80859033  1
  O  O90  1  0.13085267  0.49830533  0.85775133  1
  O  O91  1  0.80691200  0.83431500  0.91085200  1
  O  O92  1  0.50169467  0.63254733  0.85775133  1
  O  O93  1  0.69267267  0.16658933  0.74427933  1
  O  O94  1  0.47391667  0.30732733  0.74427933  1
  O  O95  1  0.30398900  0.47574300  0.75520900  1
  O  O96  1  0.97190467  0.79959833  0.80859033  1
  O  O97  1  0.83341067  0.52608333  0.74427933  1
  O  O98  1  0.16349833  0.46703067  0.97478167  1
  O  O99  1  0.17175400  0.69601100  0.75520900  1
  O  O100  1  0.53296933  0.69646767  0.97478167  1
  O  O101  1  0.30353233  0.83650167  0.97478167  1
