# generated using pymatgen
data_Na3VSiBO7
_symmetry_space_group_name_H-M   'P 1'
_cell_length_a   5.34403328
_cell_length_b   6.62568500
_cell_length_c   8.92204719
_cell_angle_alpha   90.00000000
_cell_angle_beta   91.63347487
_cell_angle_gamma   90.00000000
_symmetry_Int_Tables_number   1
_chemical_formula_structural   Na3VSiBO7
_chemical_formula_sum   'Na6 V2 Si2 B2 O14'
_cell_volume   315.78241016
_cell_formula_units_Z   2
loop_
 _symmetry_equiv_pos_site_id
 _symmetry_equiv_pos_as_xyz
  1  'x, y, z'
loop_
 _atom_site_type_symbol
 _atom_site_label
 _atom_site_symmetry_multiplicity
 _atom_site_fract_x
 _atom_site_fract_y
 _atom_site_fract_z
 _atom_site_occupancy
  Na  Na0  1  0.76479575  0.75000000  0.91508050  1
  Na  Na1  1  0.23520425  0.25000000  0.08491950  1
  Na  Na2  1  0.25380275  0.99578700  0.74680100  1
  Na  Na3  1  0.25380275  0.50421300  0.74680100  1
  Na  Na4  1  0.74619725  0.49578700  0.25319900  1
  Na  Na5  1  0.74619725  0.00421300  0.25319900  1
  V  V6  1  0.78856125  0.25000000  0.66172850  1
  V  V7  1  0.21143875  0.75000000  0.33827150  1
  Si  Si8  1  0.72266275  0.75000000  0.57288750  1
  Si  Si9  1  0.27733725  0.25000000  0.42711250  1
  B  B10  1  0.73322725  0.25000000  0.93449050  1
  B  B11  1  0.26677275  0.75000000  0.06550950  1
  O  O12  1  0.31890275  0.75000000  0.91949600  1
  O  O13  1  0.68109725  0.25000000  0.08050400  1
  O  O14  1  0.96953125  0.25000000  0.87187550  1
  O  O15  1  0.03046875  0.75000000  0.12812450  1
  O  O16  1  0.54432225  0.25000000  0.81725200  1
  O  O17  1  0.45567775  0.75000000  0.18274800  1
  O  O18  1  0.42636125  0.75000000  0.51712600  1
  O  O19  1  0.57363875  0.25000000  0.48287400  1
  O  O20  1  0.10619675  0.25000000  0.57877900  1
  O  O21  1  0.89380325  0.75000000  0.42122100  1
  O  O22  1  0.79016475  0.94704500  0.67734500  1
  O  O23  1  0.79016475  0.55295500  0.67734500  1
  O  O24  1  0.20983525  0.44704500  0.32265500  1
  O  O25  1  0.20983525  0.05295500  0.32265500  1
