# generated using pymatgen
data_Li2MnV4CuO12
_symmetry_space_group_name_H-M   'P 1'
_cell_length_a   10.37703800
_cell_length_b   9.20865400
_cell_length_c   5.84315747
_cell_angle_alpha   90.00000000
_cell_angle_beta   110.96909887
_cell_angle_gamma   90.00000000
_symmetry_Int_Tables_number   1
_chemical_formula_structural   Li2MnV4CuO12
_chemical_formula_sum   'Li4 Mn2 V8 Cu2 O24'
_cell_volume   521.38523626
_cell_formula_units_Z   2
loop_
 _symmetry_equiv_pos_site_id
 _symmetry_equiv_pos_as_xyz
  1  'x, y, z'
loop_
 _atom_site_type_symbol
 _atom_site_label
 _atom_site_symmetry_multiplicity
 _atom_site_fract_x
 _atom_site_fract_y
 _atom_site_fract_z
 _atom_site_occupancy
  Li  Li0  1  0.00000000  0.24519400  0.50000000  1
  Li  Li1  1  0.00000000  0.76149300  0.00000000  1
  Li  Li2  1  0.50000000  0.74519400  0.50000000  1
  Li  Li3  1  0.50000000  0.26149300  0.00000000  1
  Mn  Mn4  1  0.00000000  0.91406700  0.50000000  1
  Mn  Mn5  1  0.50000000  0.41406700  0.50000000  1
  V  V6  1  0.20227700  0.40450100  0.97773800  1
  V  V7  1  0.20503350  0.59625250  0.47771800  1
  V  V8  1  0.79772300  0.40450100  0.02226200  1
  V  V9  1  0.79496650  0.59625250  0.52228200  1
  V  V10  1  0.70227700  0.90450100  0.97773800  1
  V  V11  1  0.70503350  0.09625250  0.47771800  1
  V  V12  1  0.29772300  0.90450100  0.02226200  1
  V  V13  1  0.29496650  0.09625250  0.52228200  1
  Cu  Cu14  1  0.00000000  0.10063300  0.00000000  1
  Cu  Cu15  1  0.50000000  0.60063300  0.00000000  1
  O  O16  1  0.38174400  0.40044800  0.09893300  1
  O  O17  1  0.13355550  0.23428750  0.92026600  1
  O  O18  1  0.38674800  0.59389400  0.59235500  1
  O  O19  1  0.13983750  0.49728850  0.18740700  1
  O  O20  1  0.86644450  0.23428750  0.07973400  1
  O  O21  1  0.14396350  0.49629450  0.68990400  1
  O  O22  1  0.86016250  0.49728850  0.81259300  1
  O  O23  1  0.13209250  0.76634150  0.41209800  1
  O  O24  1  0.85603650  0.49629450  0.31009600  1
  O  O25  1  0.61825600  0.40044800  0.90106700  1
  O  O26  1  0.86790750  0.76634150  0.58790200  1
  O  O27  1  0.61325200  0.59389400  0.40764500  1
  O  O28  1  0.88174400  0.90044800  0.09893300  1
  O  O29  1  0.63355550  0.73428750  0.92026600  1
  O  O30  1  0.88674800  0.09389400  0.59235500  1
  O  O31  1  0.63983750  0.99728850  0.18740700  1
  O  O32  1  0.36644450  0.73428750  0.07973400  1
  O  O33  1  0.64396350  0.99629450  0.68990400  1
  O  O34  1  0.36016250  0.99728850  0.81259300  1
  O  O35  1  0.63209250  0.26634150  0.41209800  1
  O  O36  1  0.35603650  0.99629450  0.31009600  1
  O  O37  1  0.11825600  0.90044800  0.90106700  1
  O  O38  1  0.36790750  0.26634150  0.58790200  1
  O  O39  1  0.11325200  0.09389400  0.40764500  1
