# generated using pymatgen
data_Li2RhO3
_symmetry_space_group_name_H-M   'P 1'
_cell_length_a   5.14830600
_cell_length_b   8.93002200
_cell_length_c   5.15584525
_cell_angle_alpha   90.00000000
_cell_angle_beta   109.23040323
_cell_angle_gamma   90.00000000
_symmetry_Int_Tables_number   1
_chemical_formula_structural   Li2RhO3
_chemical_formula_sum   'Li8 Rh4 O12'
_cell_volume   223.81106105
_cell_formula_units_Z   4
loop_
 _symmetry_equiv_pos_site_id
 _symmetry_equiv_pos_as_xyz
  1  'x, y, z'
loop_
 _atom_site_type_symbol
 _atom_site_label
 _atom_site_symmetry_multiplicity
 _atom_site_fract_x
 _atom_site_fract_y
 _atom_site_fract_z
 _atom_site_occupancy
  Li  Li0  1  0.50000000  0.00000000  0.00000000  1
  Li  Li1  1  0.50000000  0.66240700  0.00000000  1
  Li  Li2  1  0.00000000  0.83759300  0.00000000  1
  Li  Li3  1  0.00000000  0.00000000  0.50000000  1
  Li  Li4  1  0.00000000  0.50000000  0.00000000  1
  Li  Li5  1  0.00000000  0.16240700  0.00000000  1
  Li  Li6  1  0.50000000  0.33759300  0.00000000  1
  Li  Li7  1  0.50000000  0.50000000  0.50000000  1
  Rh  Rh8  1  0.50000000  0.83346800  0.50000000  1
  Rh  Rh9  1  0.00000000  0.66653200  0.50000000  1
  Rh  Rh10  1  0.00000000  0.33346800  0.50000000  1
  Rh  Rh11  1  0.50000000  0.16653200  0.50000000  1
  O  O12  1  0.24943200  0.67437300  0.26562300  1
  O  O13  1  0.25056800  0.82562700  0.73437700  1
  O  O14  1  0.73058900  0.00000000  0.73554700  1
  O  O15  1  0.74943200  0.82562700  0.26562300  1
  O  O16  1  0.75056800  0.67437300  0.73437700  1
  O  O17  1  0.26941100  0.00000000  0.26445300  1
  O  O18  1  0.74943200  0.17437300  0.26562300  1
  O  O19  1  0.75056800  0.32562700  0.73437700  1
  O  O20  1  0.23058900  0.50000000  0.73554700  1
  O  O21  1  0.24943200  0.32562700  0.26562300  1
  O  O22  1  0.25056800  0.17437300  0.73437700  1
  O  O23  1  0.76941100  0.50000000  0.26445300  1
