# generated using pymatgen
data_Li7Cr3Co(PO4)6
_symmetry_space_group_name_H-M   'P 1'
_cell_length_a   8.79674380
_cell_length_b   8.79674380
_cell_length_c   20.97664530
_cell_angle_alpha   90.00000000
_cell_angle_beta   90.00000000
_cell_angle_gamma   120.00000000
_symmetry_Int_Tables_number   1
_chemical_formula_structural   Li7Cr3Co(PO4)6
_chemical_formula_sum   'Li21 Cr9 Co3 P18 O72'
_cell_volume   1405.75796816
_cell_formula_units_Z   3
loop_
 _symmetry_equiv_pos_site_id
 _symmetry_equiv_pos_as_xyz
  1  'x, y, z'
loop_
 _atom_site_type_symbol
 _atom_site_label
 _atom_site_symmetry_multiplicity
 _atom_site_fract_x
 _atom_site_fract_y
 _atom_site_fract_z
 _atom_site_occupancy
  Li  Li0  1  0.12228233  0.68740867  0.13230567  1
  Li  Li1  1  0.31259133  0.43487367  0.13230567  1
  Li  Li2  1  0.97030400  0.39457300  0.23851300  1
  Li  Li3  1  0.33333333  0.66666667  0.66070567  1
  Li  Li4  1  0.56512633  0.87771767  0.13230567  1
  Li  Li5  1  0.42426900  0.02969600  0.23851300  1
  Li  Li6  1  0.60542700  0.57573100  0.23851300  1
  Li  Li7  1  0.78894900  0.02074200  0.46563900  1
  Li  Li8  1  0.97925800  0.76820700  0.46563900  1
  Li  Li9  1  0.63697067  0.72790633  0.57184633  1
  Li  Li10  1  0.00000000  0.00000000  0.99403900  1
  Li  Li11  1  0.23179300  0.21105100  0.46563900  1
  Li  Li12  1  0.09093567  0.36302933  0.57184633  1
  Li  Li13  1  0.27209367  0.90906433  0.57184633  1
  Li  Li14  1  0.45561567  0.35407533  0.79897233  1
  Li  Li15  1  0.64592467  0.10154033  0.79897233  1
  Li  Li16  1  0.30363733  0.06123967  0.90517967  1
  Li  Li17  1  0.66666667  0.33333333  0.32737233  1
  Li  Li18  1  0.89845967  0.54438433  0.79897233  1
  Li  Li19  1  0.75760233  0.69636267  0.90517967  1
  Li  Li20  1  0.93876033  0.24239767  0.90517967  1
  Cr  Cr21  1  0.33333333  0.66666667  0.80775667  1
  Cr  Cr22  1  0.33333333  0.66666667  0.30956267  1
  Cr  Cr23  1  0.33333333  0.66666667  0.02454867  1
  Cr  Cr24  1  0.00000000  0.00000000  0.14109000  1
  Cr  Cr25  1  0.00000000  0.00000000  0.64289600  1
  Cr  Cr26  1  0.00000000  0.00000000  0.35788200  1
  Cr  Cr27  1  0.66666667  0.33333333  0.47442333  1
  Cr  Cr28  1  0.66666667  0.33333333  0.97622933  1
  Cr  Cr29  1  0.66666667  0.33333333  0.69121533  1
  Co  Co30  1  0.33333333  0.66666667  0.51971567  1
  Co  Co31  1  0.00000000  0.00000000  0.85304900  1
  Co  Co32  1  0.66666667  0.33333333  0.18638233  1
  P  P33  1  0.96212033  0.33508567  0.08360767  1
  P  P34  1  0.37296533  0.03787967  0.08360767  1
  P  P35  1  0.66491433  0.62703467  0.08360767  1
  P  P36  1  0.00064900  0.71141800  0.25223200  1
  P  P37  1  0.28858200  0.28923100  0.25223200  1
  P  P38  1  0.71076900  0.99935100  0.25223200  1
  P  P39  1  0.62878700  0.66841900  0.41694100  1
  P  P40  1  0.03963200  0.37121300  0.41694100  1
  P  P41  1  0.33158100  0.96036800  0.41694100  1
  P  P42  1  0.66731567  0.04475133  0.58556533  1
  P  P43  1  0.95524867  0.62256433  0.58556533  1
  P  P44  1  0.37743567  0.33268433  0.58556533  1
  P  P45  1  0.29545367  0.00175233  0.75027433  1
  P  P46  1  0.70629867  0.70454633  0.75027433  1
  P  P47  1  0.99824767  0.29370133  0.75027433  1
  P  P48  1  0.33398233  0.37808467  0.91889867  1
  P  P49  1  0.62191533  0.95589767  0.91889867  1
  P  P50  1  0.04410233  0.66601767  0.91889867  1
  O  O51  1  0.14123000  0.47298900  0.35694800  1
  O  O52  1  0.33175900  0.85877000  0.35694800  1
  O  O53  1  0.52701100  0.66824100  0.35694800  1
  O  O54  1  0.97520067  0.16632033  0.08180133  1
  O  O55  1  0.15523433  0.49686267  0.08649667  1
  O  O56  1  0.88595433  0.36539967  0.14616467  1
  O  O57  1  0.19111967  0.02479933  0.08180133  1
  O  O58  1  0.34162833  0.84476567  0.08649667  1
  O  O59  1  0.50313733  0.65837167  0.08649667  1
  O  O60  1  0.02943300  0.81415900  0.18862700  1
  O  O61  1  0.82278067  0.53445133  0.25421533  1
  O  O62  1  0.18584100  0.21527400  0.18862700  1
  O  O63  1  0.47944533  0.11404567  0.14616467  1
  O  O64  1  0.83367967  0.80888033  0.08180133  1
  O  O65  1  0.63460033  0.52055467  0.14616467  1
  O  O66  1  0.14893467  0.66066833  0.24898233  1
  O  O67  1  0.33933167  0.48826633  0.24898233  1
  O  O68  1  0.46554867  0.28832933  0.25421533  1
  O  O69  1  0.78472600  0.97056700  0.18862700  1
  O  O70  1  0.51173367  0.85106533  0.24898233  1
  O  O71  1  0.71167067  0.17721933  0.25421533  1
  O  O72  1  0.14540100  0.66632900  0.97692700  1
  O  O73  1  0.33367100  0.47907200  0.97692700  1
  O  O74  1  0.52092800  0.85459900  0.97692700  1
  O  O75  1  0.80789667  0.80632233  0.69028133  1
  O  O76  1  0.99842567  0.19210333  0.69028133  1
  O  O77  1  0.19367767  0.00157433  0.69028133  1
  O  O78  1  0.64186733  0.49965367  0.41513467  1
  O  O79  1  0.82190100  0.83019600  0.41983000  1
  O  O80  1  0.55262100  0.69873300  0.47949800  1
  O  O81  1  0.85778633  0.35813267  0.41513467  1
  O  O82  1  0.00829500  0.17809900  0.41983000  1
  O  O83  1  0.16980400  0.99170500  0.41983000  1
  O  O84  1  0.69609967  0.14749233  0.52196033  1
  O  O85  1  0.48944733  0.86778467  0.58754867  1
  O  O86  1  0.85250767  0.54860733  0.52196033  1
  O  O87  1  0.14611200  0.44737900  0.47949800  1
  O  O88  1  0.50034633  0.14221367  0.41513467  1
  O  O89  1  0.30126700  0.85388800  0.47949800  1
  O  O90  1  0.81560133  0.99400167  0.58231567  1
  O  O91  1  0.00599833  0.82159967  0.58231567  1
  O  O92  1  0.13221533  0.62166267  0.58754867  1
  O  O93  1  0.45139267  0.30390033  0.52196033  1
  O  O94  1  0.17840033  0.18439867  0.58231567  1
  O  O95  1  0.37833733  0.51055267  0.58754867  1
  O  O96  1  0.81206767  0.99966233  0.31026033  1
  O  O97  1  0.00033767  0.81240533  0.31026033  1
  O  O98  1  0.18759467  0.18793233  0.31026033  1
  O  O99  1  0.47456333  0.13965567  0.02361467  1
  O  O100  1  0.66509233  0.52543667  0.02361467  1
  O  O101  1  0.86034433  0.33490767  0.02361467  1
  O  O102  1  0.30853400  0.83298700  0.74846800  1
  O  O103  1  0.48856767  0.16352933  0.75316333  1
  O  O104  1  0.21928767  0.03206633  0.81283133  1
  O  O105  1  0.52445300  0.69146600  0.74846800  1
  O  O106  1  0.67496167  0.51143233  0.75316333  1
  O  O107  1  0.83647067  0.32503833  0.75316333  1
  O  O108  1  0.36276633  0.48082567  0.85529367  1
  O  O109  1  0.15611400  0.20111800  0.92088200  1
  O  O110  1  0.51917433  0.88194067  0.85529367  1
  O  O111  1  0.81277867  0.78071233  0.81283133  1
  O  O112  1  0.16701300  0.47554700  0.74846800  1
  O  O113  1  0.96793367  0.18722133  0.81283133  1
  O  O114  1  0.48226800  0.32733500  0.91564900  1
  O  O115  1  0.67266500  0.15493300  0.91564900  1
  O  O116  1  0.79888200  0.95499600  0.92088200  1
  O  O117  1  0.11805933  0.63723367  0.85529367  1
  O  O118  1  0.84506700  0.51773200  0.91564900  1
  O  O119  1  0.04500400  0.84388600  0.92088200  1
  O  O120  1  0.47873433  0.33299567  0.64359367  1
  O  O121  1  0.66700433  0.14573867  0.64359367  1
  O  O122  1  0.85426133  0.52126567  0.64359367  1
