# generated using pymatgen
data_Li2Mn3TeO8
_symmetry_space_group_name_H-M   'P 1'
_cell_length_a   6.10444761
_cell_length_b   6.10444761
_cell_length_c   15.44708601
_cell_angle_alpha   90.00000000
_cell_angle_beta   90.00000000
_cell_angle_gamma   120.00000000
_symmetry_Int_Tables_number   1
_chemical_formula_structural   Li2Mn3TeO8
_chemical_formula_sum   'Li6 Mn9 Te3 O24'
_cell_volume   498.50548161
_cell_formula_units_Z   3
loop_
 _symmetry_equiv_pos_site_id
 _symmetry_equiv_pos_as_xyz
  1  'x, y, z'
loop_
 _atom_site_type_symbol
 _atom_site_label
 _atom_site_symmetry_multiplicity
 _atom_site_fract_x
 _atom_site_fract_y
 _atom_site_fract_z
 _atom_site_occupancy
  Li  Li0  1  0.00000000  0.00000000  0.13967533  1
  Li  Li1  1  0.66666667  0.33333333  0.19365800  1
  Li  Li2  1  0.66666667  0.33333333  0.47300867  1
  Li  Li3  1  0.33333333  0.66666667  0.52699133  1
  Li  Li4  1  0.33333333  0.66666667  0.80634200  1
  Li  Li5  1  0.00000000  1.00000000  0.86032467  1
  Mn  Mn6  1  0.16666667  0.83333333  0.33333333  1
  Mn  Mn7  1  0.50000000  0.00000000  0.00000000  1
  Mn  Mn8  1  0.00000000  0.50000000  0.00000000  1
  Mn  Mn9  1  0.83333333  0.16666667  0.66666667  1
  Mn  Mn10  1  0.16666667  0.33333333  0.33333333  1
  Mn  Mn11  1  0.66666667  0.83333333  0.33333333  1
  Mn  Mn12  1  0.50000000  0.50000000  0.00000000  1
  Mn  Mn13  1  0.83333333  0.66666667  0.66666667  1
  Mn  Mn14  1  0.33333333  0.16666667  0.66666667  1
  Te  Te15  1  0.33333333  0.66666667  0.16666667  1
  Te  Te16  1  1.00000000  1.00000000  0.50000000  1
  Te  Te17  1  0.66666667  0.33333333  0.83333333  1
  O  O18  1  0.00000000  0.00000000  0.27339533  1
  O  O19  1  0.63235400  0.81617700  0.09043000  1
  O  O20  1  0.18382300  0.36764600  0.09043000  1
  O  O21  1  0.18382300  0.81617700  0.09043000  1
  O  O22  1  0.48284367  0.51715633  0.24290333  1
  O  O23  1  0.48284367  0.96568733  0.24290333  1
  O  O24  1  0.03431267  0.51715633  0.24290333  1
  O  O25  1  0.66666667  0.33333333  0.05993800  1
  O  O26  1  0.66666667  0.33333333  0.60672867  1
  O  O27  1  0.29902067  0.14951033  0.42376333  1
  O  O28  1  0.85048967  0.70097933  0.42376333  1
  O  O29  1  0.85048967  0.14951033  0.42376333  1
  O  O30  1  0.14951033  0.85048967  0.57623667  1
  O  O31  1  0.14951033  0.29902067  0.57623667  1
  O  O32  1  0.70097933  0.85048967  0.57623667  1
  O  O33  1  0.33333333  0.66666667  0.39327133  1
  O  O34  1  0.33333333  0.66666667  0.94006200  1
  O  O35  1  0.96568733  0.48284367  0.75709667  1
  O  O36  1  0.51715633  0.03431267  0.75709667  1
  O  O37  1  0.51715633  0.48284367  0.75709667  1
  O  O38  1  0.81617700  0.18382300  0.90957000  1
  O  O39  1  0.81617700  0.63235400  0.90957000  1
  O  O40  1  0.36764600  0.18382300  0.90957000  1
  O  O41  1  0.00000000  0.00000000  0.72660467  1
