# generated using pymatgen
data_Li4V2Co3Sn3O16
_symmetry_space_group_name_H-M   'P 1'
_cell_length_a   10.72124200
_cell_length_b   6.08845200
_cell_length_c   9.67047670
_cell_angle_alpha   90.00000000
_cell_angle_beta   90.58071285
_cell_angle_gamma   90.00000000
_symmetry_Int_Tables_number   1
_chemical_formula_structural   Li4V2Co3Sn3O16
_chemical_formula_sum   'Li8 V4 Co6 Sn6 O32'
_cell_volume   631.21536425
_cell_formula_units_Z   2
loop_
 _symmetry_equiv_pos_site_id
 _symmetry_equiv_pos_as_xyz
  1  'x, y, z'
loop_
 _atom_site_type_symbol
 _atom_site_label
 _atom_site_symmetry_multiplicity
 _atom_site_fract_x
 _atom_site_fract_y
 _atom_site_fract_z
 _atom_site_occupancy
  Li  Li0  1  0.68397400  0.00000000  0.90148600  1
  Li  Li1  1  0.98092500  0.00000000  0.98167700  1
  Li  Li2  1  0.98998500  0.00000000  0.50153800  1
  Li  Li3  1  0.82965100  0.50000000  0.40219700  1
  Li  Li4  1  0.18397400  0.50000000  0.90148600  1
  Li  Li5  1  0.48092500  0.50000000  0.98167700  1
  Li  Li6  1  0.48998500  0.50000000  0.50153800  1
  Li  Li7  1  0.32965100  0.00000000  0.40219700  1
  V  V8  1  0.67559000  0.00000000  0.49877000  1
  V  V9  1  0.86158300  0.50000000  0.97302100  1
  V  V10  1  0.17559000  0.50000000  0.49877000  1
  V  V11  1  0.36158300  0.00000000  0.97302100  1
  Co  Co12  1  0.82249200  0.00000000  0.21647100  1
  Co  Co13  1  0.91891350  0.74072050  0.70932100  1
  Co  Co14  1  0.91891350  0.25927950  0.70932100  1
  Co  Co15  1  0.32249200  0.50000000  0.21647100  1
  Co  Co16  1  0.41891350  0.24072050  0.70932100  1
  Co  Co17  1  0.41891350  0.75927950  0.70932100  1
  Sn  Sn18  1  0.57999500  0.24623000  0.21534900  1
  Sn  Sn19  1  0.57999500  0.75377000  0.21534900  1
  Sn  Sn20  1  0.67630200  0.50000000  0.71498200  1
  Sn  Sn21  1  0.07999500  0.74623000  0.21534900  1
  Sn  Sn22  1  0.07999500  0.25377000  0.21534900  1
  Sn  Sn23  1  0.17630200  0.00000000  0.71498200  1
  O  O24  1  0.59150200  0.23328500  0.58898200  1
  O  O25  1  0.50966400  0.00000000  0.34202900  1
  O  O26  1  0.66277000  0.00000000  0.10169100  1
  O  O27  1  0.98863400  0.00000000  0.31362100  1
  O  O28  1  0.50189300  0.50000000  0.79210900  1
  O  O29  1  0.59150200  0.76671500  0.58898200  1
  O  O30  1  0.73042550  0.21527250  0.35450500  1
  O  O31  1  0.73042550  0.78472750  0.35450500  1
  O  O32  1  0.64566400  0.50000000  0.09323900  1
  O  O33  1  0.81812500  0.00000000  0.58711600  1
  O  O34  1  0.76893350  0.71332250  0.85426400  1
  O  O35  1  0.76893350  0.28667750  0.85426400  1
  O  O36  1  0.83780800  0.50000000  0.60588300  1
  O  O37  1  0.90898800  0.73084500  0.08727800  1
  O  O38  1  0.98994900  0.50000000  0.86121500  1
  O  O39  1  0.90898800  0.26915500  0.08727800  1
  O  O40  1  0.09150200  0.73328500  0.58898200  1
  O  O41  1  0.00966400  0.50000000  0.34202900  1
  O  O42  1  0.16277000  0.50000000  0.10169100  1
  O  O43  1  0.48863400  0.50000000  0.31362100  1
  O  O44  1  0.00189300  0.00000000  0.79210900  1
  O  O45  1  0.09150200  0.26671500  0.58898200  1
  O  O46  1  0.23042550  0.71527250  0.35450500  1
  O  O47  1  0.23042550  0.28472750  0.35450500  1
  O  O48  1  0.14566400  0.00000000  0.09323900  1
  O  O49  1  0.31812500  0.50000000  0.58711600  1
  O  O50  1  0.26893350  0.21332250  0.85426400  1
  O  O51  1  0.26893350  0.78667750  0.85426400  1
  O  O52  1  0.33780800  0.00000000  0.60588300  1
  O  O53  1  0.40898800  0.23084500  0.08727800  1
  O  O54  1  0.48994900  0.00000000  0.86121500  1
  O  O55  1  0.40898800  0.76915500  0.08727800  1
