# generated using pymatgen
data_Li3V4FeO12
_symmetry_space_group_name_H-M   'P 1'
_cell_length_a   12.37307631
_cell_length_b   9.29881078
_cell_length_c   10.42863942
_cell_angle_alpha   90.00000000
_cell_angle_beta   119.64983763
_cell_angle_gamma   90.00000000
_symmetry_Int_Tables_number   1
_chemical_formula_structural   Li3V4FeO12
_chemical_formula_sum   'Li12 V16 Fe4 O48'
_cell_volume   1042.76150555
_cell_formula_units_Z   4
loop_
 _symmetry_equiv_pos_site_id
 _symmetry_equiv_pos_as_xyz
  1  'x, y, z'
loop_
 _atom_site_type_symbol
 _atom_site_label
 _atom_site_symmetry_multiplicity
 _atom_site_fract_x
 _atom_site_fract_y
 _atom_site_fract_z
 _atom_site_occupancy
  Li  Li0  1  0.50000000  0.02264650  0.00000000  1
  Li  Li1  1  0.00000000  0.01933200  0.50000000  1
  Li  Li2  1  0.24850400  0.38150800  0.25077600  1
  Li  Li3  1  0.25149600  0.88150800  0.74922400  1
  Li  Li4  1  0.00000000  0.85588200  0.00000000  1
  Li  Li5  1  0.00000000  0.35553900  0.50000000  1
  Li  Li6  1  0.00000000  0.52264650  0.00000000  1
  Li  Li7  1  0.50000000  0.51933200  0.50000000  1
  Li  Li8  1  0.74850400  0.88150800  0.25077600  1
  Li  Li9  1  0.75149600  0.38150800  0.74922400  1
  Li  Li10  1  0.50000000  0.35588200  0.00000000  1
  Li  Li11  1  0.50000000  0.85553900  0.50000000  1
  V  V12  1  0.49205700  0.21983300  0.28569200  1
  V  V13  1  0.01405350  0.22211250  0.21528100  1
  V  V14  1  0.23734850  0.03050650  0.03385200  1
  V  V15  1  0.75835250  0.52280250  0.47037900  1
  V  V16  1  0.98594650  0.22211250  0.78471900  1
  V  V17  1  0.00794300  0.71983300  0.71430800  1
  V  V18  1  0.24164750  0.52280250  0.52962100  1
  V  V19  1  0.26265150  0.53050650  0.96614800  1
  V  V20  1  0.99205700  0.71983300  0.28569200  1
  V  V21  1  0.51405350  0.72211250  0.21528100  1
  V  V22  1  0.73734850  0.53050650  0.03385200  1
  V  V23  1  0.25835250  0.02280250  0.47037900  1
  V  V24  1  0.48594650  0.72211250  0.78471900  1
  V  V25  1  0.50794300  0.21983300  0.71430800  1
  V  V26  1  0.74164750  0.02280250  0.52962100  1
  V  V27  1  0.76265150  0.03050650  0.96614800  1
  Fe  Fe28  1  0.74645700  0.70925600  0.74457000  1
  Fe  Fe29  1  0.25354300  0.70925600  0.25543000  1
  Fe  Fe30  1  0.24645700  0.20925600  0.74457000  1
  Fe  Fe31  1  0.75354300  0.20925600  0.25543000  1
  O  O32  1  0.04980650  0.22496050  0.67079700  1
  O  O33  1  0.55471600  0.22609900  0.16958800  1
  O  O34  1  0.45019350  0.72496050  0.32920300  1
  O  O35  1  0.94528400  0.72609900  0.83041200  1
  O  O36  1  0.46210700  0.88873000  0.82888500  1
  O  O37  1  0.46107800  0.38609100  0.32263800  1
  O  O38  1  0.53789300  0.88873000  0.17111500  1
  O  O39  1  0.03892200  0.88609100  0.67736200  1
  O  O40  1  0.29191850  0.02825250  0.91136000  1
  O  O41  1  0.79594800  0.03267600  0.40114100  1
  O  O42  1  0.70405200  0.53267600  0.59885900  1
  O  O43  1  0.20808150  0.52825250  0.08864000  1
  O  O44  1  0.09137450  0.12184450  0.95170200  1
  O  O45  1  0.09450500  0.63418100  0.45074500  1
  O  O46  1  0.90862550  0.12184450  0.04829800  1
  O  O47  1  0.90549500  0.63418100  0.54925500  1
  O  O48  1  0.34269800  0.12644200  0.19625300  1
  O  O49  1  0.33996050  0.63949550  0.69760700  1
  O  O50  1  0.16003950  0.13949550  0.30239300  1
  O  O51  1  0.15730200  0.62644200  0.80374700  1
  O  O52  1  0.21005500  0.86331100  0.07731200  1
  O  O53  1  0.69984050  0.86440650  0.57977000  1
  O  O54  1  0.80015950  0.36440650  0.42023000  1
  O  O55  1  0.78994500  0.86331100  0.92268800  1
  O  O56  1  0.54980650  0.72496050  0.67079700  1
  O  O57  1  0.05471600  0.72609900  0.16958800  1
  O  O58  1  0.95019350  0.22496050  0.32920300  1
  O  O59  1  0.44528400  0.22609900  0.83041200  1
  O  O60  1  0.96210700  0.38873000  0.82888500  1
  O  O61  1  0.96107800  0.88609100  0.32263800  1
  O  O62  1  0.03789300  0.38873000  0.17111500  1
  O  O63  1  0.53892200  0.38609100  0.67736200  1
  O  O64  1  0.79191850  0.52825250  0.91136000  1
  O  O65  1  0.29594800  0.53267600  0.40114100  1
  O  O66  1  0.20405200  0.03267600  0.59885900  1
  O  O67  1  0.70808150  0.02825250  0.08864000  1
  O  O68  1  0.59137450  0.62184450  0.95170200  1
  O  O69  1  0.59450500  0.13418100  0.45074500  1
  O  O70  1  0.40862550  0.62184450  0.04829800  1
  O  O71  1  0.40549500  0.13418100  0.54925500  1
  O  O72  1  0.84269800  0.62644200  0.19625300  1
  O  O73  1  0.83996050  0.13949550  0.69760700  1
  O  O74  1  0.66003950  0.63949550  0.30239300  1
  O  O75  1  0.65730200  0.12644200  0.80374700  1
  O  O76  1  0.71005500  0.36331100  0.07731200  1
  O  O77  1  0.19984050  0.36440650  0.57977000  1
  O  O78  1  0.30015950  0.86440650  0.42023000  1
  O  O79  1  0.28994500  0.36331100  0.92268800  1
