# generated using pymatgen
data_Li3V3P8O29
_symmetry_space_group_name_H-M   'P 1'
_cell_length_a   16.93744400
_cell_length_b   9.75654200
_cell_length_c   13.89416506
_cell_angle_alpha   90.00000000
_cell_angle_beta   90.00533611
_cell_angle_gamma   90.00000000
_symmetry_Int_Tables_number   1
_chemical_formula_structural   Li3V3P8O29
_chemical_formula_sum   'Li12 V12 P32 O116'
_cell_volume   2296.02304534
_cell_formula_units_Z   4
loop_
 _symmetry_equiv_pos_site_id
 _symmetry_equiv_pos_as_xyz
  1  'x, y, z'
loop_
 _atom_site_type_symbol
 _atom_site_label
 _atom_site_symmetry_multiplicity
 _atom_site_fract_x
 _atom_site_fract_y
 _atom_site_fract_z
 _atom_site_occupancy
  Li  Li0  1  0.61593100  0.29394400  0.43939500  1
  Li  Li1  1  0.54579100  0.22940200  0.94262900  1
  Li  Li2  1  0.61593100  0.70605600  0.93939500  1
  Li  Li3  1  0.95139350  0.72697850  0.55795600  1
  Li  Li4  1  0.54579100  0.77059800  0.44262900  1
  Li  Li5  1  0.95139350  0.27302150  0.05795600  1
  Li  Li6  1  0.11593100  0.79394400  0.43939500  1
  Li  Li7  1  0.04579100  0.72940200  0.94262900  1
  Li  Li8  1  0.11593100  0.20605600  0.93939500  1
  Li  Li9  1  0.45139350  0.22697850  0.55795600  1
  Li  Li10  1  0.04579100  0.27059800  0.44262900  1
  Li  Li11  1  0.45139350  0.77302150  0.05795600  1
  V  V12  1  0.50045300  0.06604400  0.75140900  1
  V  V13  1  0.50045300  0.93395600  0.25140900  1
  V  V14  1  0.78314600  0.78577500  0.24979700  1
  V  V15  1  0.71988100  0.71373900  0.74544000  1
  V  V16  1  0.78314600  0.21422500  0.74979700  1
  V  V17  1  0.71988100  0.28626100  0.24544000  1
  V  V18  1  0.00045300  0.56604400  0.75140900  1
  V  V19  1  0.00045300  0.43395600  0.25140900  1
  V  V20  1  0.28314600  0.28577500  0.24979700  1
  V  V21  1  0.21988100  0.21373900  0.74544000  1
  V  V22  1  0.28314600  0.71422500  0.74979700  1
  V  V23  1  0.21988100  0.78626100  0.24544000  1
  P  P24  1  0.84363550  0.07057750  0.15705800  1
  P  P25  1  0.84363550  0.92942250  0.65705800  1
  P  P26  1  0.61498350  0.29912150  0.65594700  1
  P  P27  1  0.66696000  0.99838000  0.87273200  1
  P  P28  1  0.66696000  0.00162000  0.37273200  1
  P  P29  1  0.54456450  0.22797850  0.15774700  1
  P  P30  1  0.95517850  0.72845050  0.34063600  1
  P  P31  1  0.61498350  0.70087850  0.15594700  1
  P  P32  1  0.88498700  0.80251100  0.84591700  1
  P  P33  1  0.54456450  0.77202150  0.65774700  1
  P  P34  1  0.95517850  0.27154950  0.84063600  1
  P  P35  1  0.83459950  0.49753850  0.62674600  1
  P  P36  1  0.83459950  0.50246150  0.12674600  1
  P  P37  1  0.88498700  0.19748900  0.34591700  1
  P  P38  1  0.65789150  0.57183450  0.34239700  1
  P  P39  1  0.65789150  0.42816550  0.84239700  1
  P  P40  1  0.34363550  0.57057750  0.15705800  1
  P  P41  1  0.34363550  0.42942250  0.65705800  1
  P  P42  1  0.11498350  0.79912150  0.65594700  1
  P  P43  1  0.16696000  0.49838000  0.87273200  1
  P  P44  1  0.16696000  0.50162000  0.37273200  1
  P  P45  1  0.04456450  0.72797850  0.15774700  1
  P  P46  1  0.45517850  0.22845050  0.34063600  1
  P  P47  1  0.11498350  0.20087850  0.15594700  1
  P  P48  1  0.38498700  0.30251100  0.84591700  1
  P  P49  1  0.04456450  0.27202150  0.65774700  1
  P  P50  1  0.45517850  0.77154950  0.84063600  1
  P  P51  1  0.33459950  0.99753850  0.62674600  1
  P  P52  1  0.33459950  0.00246150  0.12674600  1
  P  P53  1  0.38498700  0.69748900  0.34591700  1
  P  P54  1  0.15789150  0.07183450  0.34239700  1
  P  P55  1  0.15789150  0.92816550  0.84239700  1
  O  O56  1  0.88221550  0.11788550  0.43554200  1
  O  O57  1  0.82872550  0.08516750  0.66416400  1
  O  O58  1  0.88221550  0.88211450  0.93554200  1
  O  O59  1  0.82872550  0.91483250  0.16416400  1
  O  O60  1  0.76206900  0.14414600  0.17581200  1
  O  O61  1  0.73967800  0.07407300  0.82636900  1
  O  O62  1  0.69087750  0.21391450  0.67641000  1
  O  O63  1  0.61632100  0.37732700  0.92908000  1
  O  O64  1  0.62901150  0.28584850  0.16643100  1
  O  O65  1  0.73967800  0.92592700  0.32636900  1
  O  O66  1  0.76206900  0.85585400  0.67581200  1
  O  O67  1  0.66493850  0.15155550  0.33212900  1
  O  O68  1  0.66247900  0.00334300  0.97953300  1
  O  O69  1  0.66247900  0.99665700  0.47953300  1
  O  O70  1  0.59095450  0.07835950  0.82983600  1
  O  O71  1  0.69087750  0.78608550  0.17641000  1
  O  O72  1  0.66493850  0.84844450  0.83212900  1
  O  O73  1  0.54125000  0.20228900  0.66154600  1
  O  O74  1  0.99992250  0.79444850  0.24961900  1
  O  O75  1  0.50011300  0.25618400  0.43137700  1
  O  O76  1  0.50299800  0.25587700  0.06627100  1
  O  O77  1  0.54739200  0.07020300  0.17931700  1
  O  O78  1  0.59095450  0.92164050  0.32983600  1
  O  O79  1  0.95767700  0.70185000  0.83782200  1
  O  O80  1  0.54739200  0.92979700  0.67931700  1
  O  O81  1  0.62901150  0.71415150  0.66643100  1
  O  O82  1  0.89677700  0.89615200  0.75044200  1
  O  O83  1  0.88213500  0.87723200  0.56890000  1
  O  O84  1  0.61632100  0.62267300  0.42908000  1
  O  O85  1  0.87140450  0.78740250  0.33675600  1
  O  O86  1  0.95169000  0.57045400  0.32244800  1
  O  O87  1  0.54125000  0.79771100  0.16154600  1
  O  O88  1  0.90906450  0.57748950  0.66910500  1
  O  O89  1  0.95169000  0.42954600  0.82244800  1
  O  O90  1  0.50011300  0.74381600  0.93137700  1
  O  O91  1  0.50299800  0.74412300  0.56627100  1
  O  O92  1  0.99992250  0.20555150  0.74961900  1
  O  O93  1  0.95767700  0.29815000  0.33782200  1
  O  O94  1  0.83300800  0.64830700  0.17304100  1
  O  O95  1  0.80884700  0.71627800  0.82244500  1
  O  O96  1  0.90906450  0.42251050  0.16910500  1
  O  O97  1  0.83483950  0.49586750  0.02023700  1
  O  O98  1  0.83483950  0.50413250  0.52023700  1
  O  O99  1  0.83300800  0.35169300  0.67304100  1
  O  O100  1  0.73813100  0.64464500  0.32324900  1
  O  O101  1  0.75972500  0.57371800  0.67234600  1
  O  O102  1  0.87140450  0.21259750  0.83675600  1
  O  O103  1  0.89677700  0.10384800  0.25044200  1
  O  O104  1  0.88213500  0.12276800  0.06890000  1
  O  O105  1  0.80884700  0.28372200  0.32244500  1
  O  O106  1  0.75972500  0.42628200  0.17234600  1
  O  O107  1  0.73813100  0.35535500  0.82324900  1
  O  O108  1  0.66988050  0.58590150  0.83978100  1
  O  O109  1  0.61870550  0.62624950  0.06338300  1
  O  O110  1  0.60468950  0.60045550  0.24649900  1
  O  O111  1  0.66988050  0.41409850  0.33978100  1
  O  O112  1  0.61870550  0.37375050  0.56338300  1
  O  O113  1  0.60468950  0.39954450  0.74649900  1
  O  O114  1  0.38221550  0.61788550  0.43554200  1
  O  O115  1  0.32872550  0.58516750  0.66416400  1
  O  O116  1  0.38221550  0.38211450  0.93554200  1
  O  O117  1  0.32872550  0.41483250  0.16416400  1
  O  O118  1  0.26206900  0.64414600  0.17581200  1
  O  O119  1  0.23967800  0.57407300  0.82636900  1
  O  O120  1  0.19087750  0.71391450  0.67641000  1
  O  O121  1  0.11632100  0.87732700  0.92908000  1
  O  O122  1  0.12901150  0.78584850  0.16643100  1
  O  O123  1  0.23967800  0.42592700  0.32636900  1
  O  O124  1  0.26206900  0.35585400  0.67581200  1
  O  O125  1  0.16493850  0.65155550  0.33212900  1
  O  O126  1  0.16247900  0.50334300  0.97953300  1
  O  O127  1  0.16247900  0.49665700  0.47953300  1
  O  O128  1  0.09095450  0.57835950  0.82983600  1
  O  O129  1  0.19087750  0.28608550  0.17641000  1
  O  O130  1  0.16493850  0.34844450  0.83212900  1
  O  O131  1  0.04125000  0.70228900  0.66154600  1
  O  O132  1  0.49992250  0.29444850  0.24961900  1
  O  O133  1  0.00011300  0.75618400  0.43137700  1
  O  O134  1  0.00299800  0.75587700  0.06627100  1
  O  O135  1  0.04739200  0.57020300  0.17931700  1
  O  O136  1  0.09095450  0.42164050  0.32983600  1
  O  O137  1  0.45767700  0.20185000  0.83782200  1
  O  O138  1  0.04739200  0.42979700  0.67931700  1
  O  O139  1  0.12901150  0.21415150  0.66643100  1
  O  O140  1  0.39677700  0.39615200  0.75044200  1
  O  O141  1  0.38213500  0.37723200  0.56890000  1
  O  O142  1  0.11632100  0.12267300  0.42908000  1
  O  O143  1  0.37140450  0.28740250  0.33675600  1
  O  O144  1  0.45169000  0.07045400  0.32244800  1
  O  O145  1  0.04125000  0.29771100  0.16154600  1
  O  O146  1  0.40906450  0.07748950  0.66910500  1
  O  O147  1  0.45169000  0.92954600  0.82244800  1
  O  O148  1  0.00011300  0.24381600  0.93137700  1
  O  O149  1  0.00299800  0.24412300  0.56627100  1
  O  O150  1  0.49992250  0.70555150  0.74961900  1
  O  O151  1  0.45767700  0.79815000  0.33782200  1
  O  O152  1  0.33300800  0.14830700  0.17304100  1
  O  O153  1  0.30884700  0.21627800  0.82244500  1
  O  O154  1  0.40906450  0.92251050  0.16910500  1
  O  O155  1  0.33483950  0.99586750  0.02023700  1
  O  O156  1  0.33483950  0.00413250  0.52023700  1
  O  O157  1  0.33300800  0.85169300  0.67304100  1
  O  O158  1  0.23813100  0.14464500  0.32324900  1
  O  O159  1  0.25972500  0.07371800  0.67234600  1
  O  O160  1  0.37140450  0.71259750  0.83675600  1
  O  O161  1  0.39677700  0.60384800  0.25044200  1
  O  O162  1  0.38213500  0.62276800  0.06890000  1
  O  O163  1  0.30884700  0.78372200  0.32244500  1
  O  O164  1  0.25972500  0.92628200  0.17234600  1
  O  O165  1  0.23813100  0.85535500  0.82324900  1
  O  O166  1  0.16988050  0.08590150  0.83978100  1
  O  O167  1  0.11870550  0.12624950  0.06338300  1
  O  O168  1  0.10468950  0.10045550  0.24649900  1
  O  O169  1  0.16988050  0.91409850  0.33978100  1
  O  O170  1  0.11870550  0.87375050  0.56338300  1
  O  O171  1  0.10468950  0.89954450  0.74649900  1
