# generated using pymatgen
data_VO2
_symmetry_space_group_name_H-M   'P 1'
_cell_length_a   9.13691278
_cell_length_b   8.33550988
_cell_length_c   5.65480571
_cell_angle_alpha   90.00000000
_cell_angle_beta   93.64385718
_cell_angle_gamma   90.00000000
_symmetry_Int_Tables_number   1
_chemical_formula_structural   VO2
_chemical_formula_sum   'V12 O24'
_cell_volume   429.80401479
_cell_formula_units_Z   12
loop_
 _symmetry_equiv_pos_site_id
 _symmetry_equiv_pos_as_xyz
  1  'x, y, z'
loop_
 _atom_site_type_symbol
 _atom_site_label
 _atom_site_symmetry_multiplicity
 _atom_site_fract_x
 _atom_site_fract_y
 _atom_site_fract_z
 _atom_site_occupancy
  V  V0  1  0.73842850  0.68250850  0.74886450  1
  V  V1  1  0.26157150  0.68250850  0.25113550  1
  V  V2  1  0.73842850  0.31749150  0.74886450  1
  V  V3  1  0.26157150  0.31749150  0.25113550  1
  V  V4  1  0.00000000  0.00000000  0.50000000  1
  V  V5  1  0.00000000  0.50000000  0.00000000  1
  V  V6  1  0.23842850  0.18250850  0.74886450  1
  V  V7  1  0.76157150  0.18250850  0.25113550  1
  V  V8  1  0.23842850  0.81749150  0.74886450  1
  V  V9  1  0.76157150  0.81749150  0.25113550  1
  V  V10  1  0.50000000  0.50000000  0.50000000  1
  V  V11  1  0.50000000  0.00000000  0.00000000  1
  O  O12  1  0.38652950  0.50000000  0.19501950  1
  O  O13  1  0.88416650  0.50000000  0.71443550  1
  O  O14  1  0.11583350  0.50000000  0.28556450  1
  O  O15  1  0.61347050  0.50000000  0.80498050  1
  O  O16  1  0.85856400  0.16463500  0.56215850  1
  O  O17  1  0.85873750  0.66708750  0.08376550  1
  O  O18  1  0.85856400  0.83536500  0.56215850  1
  O  O19  1  0.85873750  0.33291250  0.08376550  1
  O  O20  1  0.14126250  0.33291250  0.91623450  1
  O  O21  1  0.14143600  0.83536500  0.43784150  1
  O  O22  1  0.14126250  0.66708750  0.91623450  1
  O  O23  1  0.14143600  0.16463500  0.43784150  1
  O  O24  1  0.88652950  0.00000000  0.19501950  1
  O  O25  1  0.38416650  0.00000000  0.71443550  1
  O  O26  1  0.61583350  0.00000000  0.28556450  1
  O  O27  1  0.11347050  0.00000000  0.80498050  1
  O  O28  1  0.35856400  0.66463500  0.56215850  1
  O  O29  1  0.35873750  0.16708750  0.08376550  1
  O  O30  1  0.35856400  0.33536500  0.56215850  1
  O  O31  1  0.35873750  0.83291250  0.08376550  1
  O  O32  1  0.64126250  0.83291250  0.91623450  1
  O  O33  1  0.64143600  0.33536500  0.43784150  1
  O  O34  1  0.64126250  0.16708750  0.91623450  1
  O  O35  1  0.64143600  0.66463500  0.43784150  1
