# generated using pymatgen
data_Li3Co2CuO6
_symmetry_space_group_name_H-M   'P 1'
_cell_length_a   12.86407800
_cell_length_b   2.93448800
_cell_length_c   5.91997959
_cell_angle_alpha   90.00000000
_cell_angle_beta   103.60350996
_cell_angle_gamma   90.00000000
_symmetry_Int_Tables_number   1
_chemical_formula_structural   Li3Co2CuO6
_chemical_formula_sum   'Li6 Co4 Cu2 O12'
_cell_volume   217.20689848
_cell_formula_units_Z   2
loop_
 _symmetry_equiv_pos_site_id
 _symmetry_equiv_pos_as_xyz
  1  'x, y, z'
loop_
 _atom_site_type_symbol
 _atom_site_label
 _atom_site_symmetry_multiplicity
 _atom_site_fract_x
 _atom_site_fract_y
 _atom_site_fract_z
 _atom_site_occupancy
  Li  Li0  1  0.16246300  0.00000000  0.83511900  1
  Li  Li1  1  0.00000000  0.50000000  0.50000000  1
  Li  Li2  1  0.33753700  0.50000000  0.16488100  1
  Li  Li3  1  0.66246300  0.50000000  0.83511900  1
  Li  Li4  1  0.50000000  0.00000000  0.50000000  1
  Li  Li5  1  0.83753700  0.00000000  0.16488100  1
  Co  Co6  1  0.16431500  0.00000000  0.33464400  1
  Co  Co7  1  0.33568500  0.50000000  0.66535600  1
  Co  Co8  1  0.66431500  0.50000000  0.33464400  1
  Co  Co9  1  0.83568500  0.00000000  0.66535600  1
  Cu  Cu10  1  0.00000000  0.50000000  0.00000000  1
  Cu  Cu11  1  0.50000000  0.00000000  0.00000000  1
  O  O12  1  0.16200400  0.50000000  0.09599900  1
  O  O13  1  0.49380300  0.50000000  0.76213200  1
  O  O14  1  0.32642900  0.00000000  0.43008100  1
  O  O15  1  0.00619700  0.00000000  0.23786800  1
  O  O16  1  0.33799600  0.00000000  0.90400100  1
  O  O17  1  0.17357100  0.50000000  0.56991900  1
  O  O18  1  0.66200400  0.00000000  0.09599900  1
  O  O19  1  0.99380300  0.00000000  0.76213200  1
  O  O20  1  0.82642900  0.50000000  0.43008100  1
  O  O21  1  0.50619700  0.50000000  0.23786800  1
  O  O22  1  0.83799600  0.50000000  0.90400100  1
  O  O23  1  0.67357100  0.00000000  0.56991900  1
