# generated using pymatgen
data_LiVSiO4
_symmetry_space_group_name_H-M   'P 1'
_cell_length_a   5.12598480
_cell_length_b   10.38415900
_cell_length_c   8.45457918
_cell_angle_alpha   90.00000000
_cell_angle_beta   126.07783129
_cell_angle_gamma   90.00000000
_symmetry_Int_Tables_number   1
_chemical_formula_structural   LiVSiO4
_chemical_formula_sum   'Li4 V4 Si4 O16'
_cell_volume   363.72156131
_cell_formula_units_Z   4
loop_
 _symmetry_equiv_pos_site_id
 _symmetry_equiv_pos_as_xyz
  1  'x, y, z'
loop_
 _atom_site_type_symbol
 _atom_site_label
 _atom_site_symmetry_multiplicity
 _atom_site_fract_x
 _atom_site_fract_y
 _atom_site_fract_z
 _atom_site_occupancy
  Li  Li0  1  0.30205000  0.35086400  0.99476250  1
  Li  Li1  1  0.69795000  0.85086400  0.50523750  1
  Li  Li2  1  0.30205000  0.14913600  0.49476250  1
  Li  Li3  1  0.69795000  0.64913600  0.00523750  1
  V  V4  1  0.80337400  0.16787800  0.99004050  1
  V  V5  1  0.19662600  0.66787800  0.50995950  1
  V  V6  1  0.80337400  0.33212200  0.49004050  1
  V  V7  1  0.19662600  0.83212200  0.00995950  1
  Si  Si8  1  0.55035400  0.09266100  0.23929850  1
  Si  Si9  1  0.44964600  0.59266100  0.26070150  1
  Si  Si10  1  0.55035400  0.40733900  0.73929850  1
  Si  Si11  1  0.44964600  0.90733900  0.76070150  1
  O  O12  1  0.14152200  0.87773900  0.76842150  1
  O  O13  1  0.85847800  0.37773900  0.73157850  1
  O  O14  1  0.14152200  0.62226100  0.26842150  1
  O  O15  1  0.85847800  0.12226100  0.23157850  1
  O  O16  1  0.76953500  0.66570200  0.44944350  1
  O  O17  1  0.23046500  0.16570200  0.05055650  1
  O  O18  1  0.76953500  0.83429800  0.94944350  1
  O  O19  1  0.23046500  0.33429800  0.55055650  1
  O  O20  1  0.36753000  0.65824600  0.05829750  1
  O  O21  1  0.63247000  0.15824600  0.44170250  1
  O  O22  1  0.36753000  0.84175400  0.55829750  1
  O  O23  1  0.63247000  0.34175400  0.94170250  1
  O  O24  1  0.51351700  0.43760200  0.26184950  1
  O  O25  1  0.48648300  0.93760200  0.23815050  1
  O  O26  1  0.51351700  0.06239800  0.76184950  1
  O  O27  1  0.48648300  0.56239800  0.73815050  1
