# generated using pymatgen
data_V3O5F
_symmetry_space_group_name_H-M   'P 1'
_cell_length_a   4.99874527
_cell_length_b   5.13009049
_cell_length_c   5.44705171
_cell_angle_alpha   92.96371982
_cell_angle_beta   114.56747734
_cell_angle_gamma   118.71653614
_symmetry_Int_Tables_number   1
_chemical_formula_structural   V3O5F
_chemical_formula_sum   'V3 O5 F1'
_cell_volume   105.73200923
_cell_formula_units_Z   1
loop_
 _symmetry_equiv_pos_site_id
 _symmetry_equiv_pos_as_xyz
  1  'x, y, z'
loop_
 _atom_site_type_symbol
 _atom_site_label
 _atom_site_symmetry_multiplicity
 _atom_site_fract_x
 _atom_site_fract_y
 _atom_site_fract_z
 _atom_site_occupancy
  V  V0  1  0.32387000  0.65272500  0.94371500  1
  V  V1  1  0.72673700  0.86639500  0.55472700  1
  V  V2  1  0.65706700  0.31005300  0.02251500  1
  O  O3  1  0.51156500  0.58229600  0.75824500  1
  O  O4  1  0.19222100  0.93087500  0.78238900  1
  O  O5  1  0.85272700  0.26563000  0.79781900  1
  O  O6  1  0.73320300  0.04789800  0.23662200  1
  O  O7  1  0.54841600  0.48757900  0.23371800  1
  F  F8  1  0.17870200  0.70268300  0.25839100  1
