# generated using pymatgen
data_Li2MnFe(BO3)2
_symmetry_space_group_name_H-M   'P 1'
_cell_length_a   5.25826814
_cell_length_b   5.98117459
_cell_length_c   8.20086738
_cell_angle_alpha   102.55839297
_cell_angle_beta   90.30623706
_cell_angle_gamma   90.84179878
_symmetry_Int_Tables_number   1
_chemical_formula_structural   Li2MnFe(BO3)2
_chemical_formula_sum   'Li4 Mn2 Fe2 B4 O12'
_cell_volume   251.71474126
_cell_formula_units_Z   2
loop_
 _symmetry_equiv_pos_site_id
 _symmetry_equiv_pos_as_xyz
  1  'x, y, z'
loop_
 _atom_site_type_symbol
 _atom_site_label
 _atom_site_symmetry_multiplicity
 _atom_site_fract_x
 _atom_site_fract_y
 _atom_site_fract_z
 _atom_site_occupancy
  Li  Li0  1  0.65180100  0.95323300  0.27848600  1
  Li  Li1  1  0.34819900  0.04676700  0.72151400  1
  Li  Li2  1  0.84382200  0.54075900  0.22510400  1
  Li  Li3  1  0.15617800  0.45924100  0.77489600  1
  Mn  Mn4  1  0.32746000  0.31786500  0.08157600  1
  Mn  Mn5  1  0.67254000  0.68213500  0.91842400  1
  Fe  Fe6  1  0.16327000  0.18122100  0.42156700  1
  Fe  Fe7  1  0.83673000  0.81877900  0.57843300  1
  B  B8  1  0.16990900  0.83227200  0.09679500  1
  B  B9  1  0.83009100  0.16772800  0.90320500  1
  B  B10  1  0.32670200  0.66623100  0.41053700  1
  B  B11  1  0.67329800  0.33376900  0.58946300  1
  O  O12  1  0.91111400  0.82115000  0.12258000  1
  O  O13  1  0.08888600  0.17885000  0.87742000  1
  O  O14  1  0.68326700  0.98762300  0.80754200  1
  O  O15  1  0.31673300  0.01237700  0.19245800  1
  O  O16  1  0.20651200  0.83853400  0.52561800  1
  O  O17  1  0.79348800  0.16146600  0.47438200  1
  O  O18  1  0.58512000  0.67920200  0.38558900  1
  O  O19  1  0.41488000  0.32079800  0.61441100  1
  O  O20  1  0.17943200  0.48692800  0.31570800  1
  O  O21  1  0.82056800  0.51307200  0.68429200  1
  O  O22  1  0.71104200  0.33807000  0.01975400  1
  O  O23  1  0.28895800  0.66193000  0.98024600  1
