# generated using pymatgen
data_Li(FeO2)3
_symmetry_space_group_name_H-M   'P 1'
_cell_length_a   8.90041842
_cell_length_b   5.14743907
_cell_length_c   10.56338357
_cell_angle_alpha   90.00000000
_cell_angle_beta   106.39782388
_cell_angle_gamma   90.00000000
_symmetry_Int_Tables_number   1
_chemical_formula_structural   Li(FeO2)3
_chemical_formula_sum   'Li4 Fe12 O24'
_cell_volume   464.26967035
_cell_formula_units_Z   4
loop_
 _symmetry_equiv_pos_site_id
 _symmetry_equiv_pos_as_xyz
  1  'x, y, z'
loop_
 _atom_site_type_symbol
 _atom_site_label
 _atom_site_symmetry_multiplicity
 _atom_site_fract_x
 _atom_site_fract_y
 _atom_site_fract_z
 _atom_site_occupancy
  Li  Li0  1  0.83730800  0.08359000  0.75325600  1
  Li  Li1  1  0.33730800  0.41641000  0.25325600  1
  Li  Li2  1  0.33730800  0.58359000  0.75325600  1
  Li  Li3  1  0.83730800  0.91641000  0.25325600  1
  Fe  Fe4  1  0.58617550  0.58447950  0.50666700  1
  Fe  Fe5  1  0.41867750  0.91897150  0.00661200  1
  Fe  Fe6  1  0.74502850  0.08516850  0.49079500  1
  Fe  Fe7  1  0.08617550  0.91552050  0.00666700  1
  Fe  Fe8  1  0.41867750  0.08102850  0.50661200  1
  Fe  Fe9  1  0.74502850  0.91483150  0.99079500  1
  Fe  Fe10  1  0.08617550  0.08447950  0.50666700  1
  Fe  Fe11  1  0.91867750  0.41897150  0.00661200  1
  Fe  Fe12  1  0.24502850  0.58516850  0.49079500  1
  Fe  Fe13  1  0.58617550  0.41552050  0.00666700  1
  Fe  Fe14  1  0.91867750  0.58102850  0.50661200  1
  Fe  Fe15  1  0.24502850  0.41483150  0.99079500  1
  O  O16  1  0.72041050  0.23212850  0.89799200  1
  O  O17  1  0.55106100  0.24909700  0.39981900  1
  O  O18  1  0.63050150  0.93075350  0.59989000  1
  O  O19  1  0.93530000  0.06828100  0.10207700  1
  O  O20  1  0.87535000  0.76541200  0.89793300  1
  O  O21  1  0.22041050  0.26787150  0.39799200  1
  O  O22  1  0.28350150  0.88897650  0.60035400  1
  O  O23  1  0.63050150  0.06924650  0.09989000  1
  O  O24  1  0.55106100  0.75090300  0.89981900  1
  O  O25  1  0.37535000  0.73458800  0.39793300  1
  O  O26  1  0.93530000  0.93171900  0.60207700  1
  O  O27  1  0.28350150  0.11102350  0.10035400  1
  O  O28  1  0.22041050  0.73212850  0.89799200  1
  O  O29  1  0.05106100  0.74909700  0.39981900  1
  O  O30  1  0.13050150  0.43075350  0.59989000  1
  O  O31  1  0.43530000  0.56828100  0.10207700  1
  O  O32  1  0.37535000  0.26541200  0.89793300  1
  O  O33  1  0.72041050  0.76787150  0.39799200  1
  O  O34  1  0.78350150  0.38897650  0.60035400  1
  O  O35  1  0.13050150  0.56924650  0.09989000  1
  O  O36  1  0.05106100  0.25090300  0.89981900  1
  O  O37  1  0.87535000  0.23458800  0.39793300  1
  O  O38  1  0.43530000  0.43171900  0.60207700  1
  O  O39  1  0.78350150  0.61102350  0.10035400  1
