# generated using pymatgen
data_Li2VFe(P2O7)2
_symmetry_space_group_name_H-M   'P 1'
_cell_length_a   7.17516900
_cell_length_b   8.23739200
_cell_length_c   9.77890733
_cell_angle_alpha   90.00000000
_cell_angle_beta   111.44891562
_cell_angle_gamma   90.00000000
_symmetry_Int_Tables_number   1
_chemical_formula_structural   Li2VFe(P2O7)2
_chemical_formula_sum   'Li4 V2 Fe2 P8 O28'
_cell_volume   537.95064011
_cell_formula_units_Z   2
loop_
 _symmetry_equiv_pos_site_id
 _symmetry_equiv_pos_as_xyz
  1  'x, y, z'
loop_
 _atom_site_type_symbol
 _atom_site_label
 _atom_site_symmetry_multiplicity
 _atom_site_fract_x
 _atom_site_fract_y
 _atom_site_fract_z
 _atom_site_occupancy
  Li  Li0  1  0.57574000  0.63727300  0.24920900  1
  Li  Li1  1  0.92651000  0.13885000  0.25101900  1
  Li  Li2  1  0.07349000  0.63885000  0.74898100  1
  Li  Li3  1  0.42426000  0.13727300  0.75079100  1
  V  V4  1  0.52782900  0.00033500  0.25716800  1
  V  V5  1  0.47217100  0.50033500  0.74283200  1
  Fe  Fe6  1  0.97372600  0.50018800  0.24160900  1
  Fe  Fe7  1  0.02627400  0.00018800  0.75839100  1
  P  P8  1  0.14943000  0.21752600  0.06297600  1
  P  P9  1  0.53962900  0.32012800  0.06141700  1
  P  P10  1  0.96174600  0.81919900  0.43910900  1
  P  P11  1  0.65179500  0.21534200  0.56467100  1
  P  P12  1  0.34820500  0.71534200  0.43532900  1
  P  P13  1  0.03825400  0.31919900  0.56089100  1
  P  P14  1  0.46037100  0.82012800  0.93858300  1
  P  P15  1  0.85057000  0.71752600  0.93702400  1
  O  O16  1  0.32605600  0.34834300  0.07875300  1
  O  O17  1  0.23936100  0.06739500  0.15748100  1
  O  O18  1  0.49757800  0.82182200  0.10348700  1
  O  O19  1  0.62312900  0.15603200  0.12952400  1
  O  O20  1  0.66604200  0.46221800  0.14762600  1
  O  O21  1  0.95296200  0.67680700  0.09903700  1
  O  O22  1  0.00874100  0.30692500  0.12381400  1
  O  O23  1  0.49048100  0.80180500  0.37532300  1
  O  O24  1  0.55093200  0.17469600  0.40213700  1
  O  O25  1  0.83452900  0.96126400  0.35164400  1
  O  O26  1  0.87904600  0.65387200  0.37042500  1
  O  O27  1  0.00291900  0.32095300  0.39650100  1
  O  O28  1  0.25582400  0.56580800  0.34149000  1
  O  O29  1  0.17439700  0.84763900  0.42098300  1
  O  O30  1  0.82560300  0.34763900  0.57901700  1
  O  O31  1  0.74417600  0.06580800  0.65851000  1
  O  O32  1  0.99708100  0.82095300  0.60349900  1
  O  O33  1  0.12095400  0.15387200  0.62957500  1
  O  O34  1  0.16547100  0.46126400  0.64835600  1
  O  O35  1  0.44906800  0.67469600  0.59786300  1
  O  O36  1  0.50951900  0.30180500  0.62467700  1
  O  O37  1  0.99125900  0.80692500  0.87618600  1
  O  O38  1  0.04703800  0.17680700  0.90096300  1
  O  O39  1  0.33395800  0.96221800  0.85237400  1
  O  O40  1  0.37687100  0.65603200  0.87047600  1
  O  O41  1  0.50242200  0.32182200  0.89651300  1
  O  O42  1  0.76063900  0.56739500  0.84251900  1
  O  O43  1  0.67394400  0.84834300  0.92124700  1
