# generated using pymatgen
data_TiV4FeO12
_symmetry_space_group_name_H-M   'P 1'
_cell_length_a   10.18184600
_cell_length_b   9.25394600
_cell_length_c   5.73963883
_cell_angle_alpha   90.00000000
_cell_angle_beta   110.01608321
_cell_angle_gamma   90.00000000
_symmetry_Int_Tables_number   1
_chemical_formula_structural   TiV4FeO12
_chemical_formula_sum   'Ti2 V8 Fe2 O24'
_cell_volume   508.13542855
_cell_formula_units_Z   2
loop_
 _symmetry_equiv_pos_site_id
 _symmetry_equiv_pos_as_xyz
  1  'x, y, z'
loop_
 _atom_site_type_symbol
 _atom_site_label
 _atom_site_symmetry_multiplicity
 _atom_site_fract_x
 _atom_site_fract_y
 _atom_site_fract_z
 _atom_site_occupancy
  Ti  Ti0  1  0.00000000  0.90589000  0.50000000  1
  Ti  Ti1  1  0.50000000  0.40589000  0.50000000  1
  V  V2  1  0.20319400  0.40899600  0.00091900  1
  V  V3  1  0.21041250  0.59885150  0.50007300  1
  V  V4  1  0.79680600  0.40899600  0.99908100  1
  V  V5  1  0.78958750  0.59885150  0.49992700  1
  V  V6  1  0.70319400  0.90899600  0.00091900  1
  V  V7  1  0.71041250  0.09885150  0.50007300  1
  V  V8  1  0.29680600  0.90899600  0.99908100  1
  V  V9  1  0.28958750  0.09885150  0.49992700  1
  Fe  Fe10  1  0.00000000  0.08693500  0.00000000  1
  Fe  Fe11  1  0.50000000  0.58693500  0.00000000  1
  O  O12  1  0.38851850  0.42363050  0.13216500  1
  O  O13  1  0.14899800  0.23498800  0.98559500  1
  O  O14  1  0.39407200  0.56921700  0.61545900  1
  O  O15  1  0.13508350  0.50919950  0.19467900  1
  O  O16  1  0.85100200  0.23498800  0.01440500  1
  O  O17  1  0.14736500  0.48390700  0.70219300  1
  O  O18  1  0.86491650  0.50919950  0.80532100  1
  O  O19  1  0.13259850  0.77479750  0.47104500  1
  O  O20  1  0.85263500  0.48390700  0.29780700  1
  O  O21  1  0.61148150  0.42363050  0.86783500  1
  O  O22  1  0.86740150  0.77479750  0.52895500  1
  O  O23  1  0.60592800  0.56921700  0.38454100  1
  O  O24  1  0.88851850  0.92363050  0.13216500  1
  O  O25  1  0.64899800  0.73498800  0.98559500  1
  O  O26  1  0.89407200  0.06921700  0.61545900  1
  O  O27  1  0.63508350  0.00919950  0.19467900  1
  O  O28  1  0.35100200  0.73498800  0.01440500  1
  O  O29  1  0.64736500  0.98390700  0.70219300  1
  O  O30  1  0.36491650  0.00919950  0.80532100  1
  O  O31  1  0.63259850  0.27479750  0.47104500  1
  O  O32  1  0.35263500  0.98390700  0.29780700  1
  O  O33  1  0.11148150  0.92363050  0.86783500  1
  O  O34  1  0.36740150  0.27479750  0.52895500  1
  O  O35  1  0.10592800  0.06921700  0.38454100  1
