# generated using pymatgen
data_KTi6O12
_symmetry_space_group_name_H-M   'P 1'
_cell_length_a   10.28762600
_cell_length_b   10.28762600
_cell_length_c   8.94847600
_cell_angle_alpha   90.00000000
_cell_angle_beta   90.00000000
_cell_angle_gamma   90.00000000
_symmetry_Int_Tables_number   1
_chemical_formula_structural   KTi6O12
_chemical_formula_sum   'K4 Ti24 O48'
_cell_volume   947.06418309
_cell_formula_units_Z   4
loop_
 _symmetry_equiv_pos_site_id
 _symmetry_equiv_pos_as_xyz
  1  'x, y, z'
loop_
 _atom_site_type_symbol
 _atom_site_label
 _atom_site_symmetry_multiplicity
 _atom_site_fract_x
 _atom_site_fract_y
 _atom_site_fract_z
 _atom_site_occupancy
  K  K0  1  0.00000000  0.00000000  0.72709100  1
  K  K1  1  0.00000000  0.00000000  0.27290900  1
  K  K2  1  0.50000000  0.50000000  0.22709100  1
  K  K3  1  0.50000000  0.50000000  0.77290900  1
  Ti  Ti4  1  0.66819850  0.15021750  0.00000000  1
  Ti  Ti5  1  0.15045850  0.33306250  0.66614650  1
  Ti  Ti6  1  0.34954150  0.16693750  0.83385350  1
  Ti  Ti7  1  0.34954150  0.16693750  0.16614650  1
  Ti  Ti8  1  0.33306250  0.84954150  0.33385350  1
  Ti  Ti9  1  0.83180150  0.34978250  0.50000000  1
  Ti  Ti10  1  0.16693750  0.65045850  0.16614650  1
  Ti  Ti11  1  0.16693750  0.65045850  0.83385350  1
  Ti  Ti12  1  0.15021750  0.33180150  0.00000000  1
  Ti  Ti13  1  0.15045850  0.33306250  0.33385350  1
  Ti  Ti14  1  0.34978250  0.16819850  0.50000000  1
  Ti  Ti15  1  0.33306250  0.84954150  0.66614650  1
  Ti  Ti16  1  0.16819850  0.65021750  0.50000000  1
  Ti  Ti17  1  0.65045850  0.83306250  0.16614650  1
  Ti  Ti18  1  0.84954150  0.66693750  0.33385350  1
  Ti  Ti19  1  0.84954150  0.66693750  0.66614650  1
  Ti  Ti20  1  0.83306250  0.34954150  0.83385350  1
  Ti  Ti21  1  0.33180150  0.84978250  0.00000000  1
  Ti  Ti22  1  0.66693750  0.15045850  0.66614650  1
  Ti  Ti23  1  0.66693750  0.15045850  0.33385350  1
  Ti  Ti24  1  0.65021750  0.83180150  0.50000000  1
  Ti  Ti25  1  0.65045850  0.83306250  0.83385350  1
  Ti  Ti26  1  0.84978250  0.66819850  0.00000000  1
  Ti  Ti27  1  0.83306250  0.34954150  0.16614650  1
  O  O28  1  0.29497250  0.65614950  0.33301350  1
  O  O29  1  0.16553350  0.46027250  0.50000000  1
  O  O30  1  0.03976600  0.66635500  0.33320100  1
  O  O31  1  0.53976600  0.16635500  0.16679900  1
  O  O32  1  0.46023400  0.83364500  0.16679900  1
  O  O33  1  0.34385050  0.29497250  0.33301350  1
  O  O34  1  0.34424450  0.29555250  0.00000000  1
  O  O35  1  0.84385050  0.79497250  0.16698650  1
  O  O36  1  0.33446650  0.03972750  0.00000000  1
  O  O37  1  0.33364500  0.03976600  0.33320100  1
  O  O38  1  0.29555250  0.65575550  0.00000000  1
  O  O39  1  0.79497250  0.15614950  0.16698650  1
  O  O40  1  0.20444750  0.84424450  0.50000000  1
  O  O41  1  0.20502750  0.84385050  0.16698650  1
  O  O42  1  0.66635500  0.96023400  0.33320100  1
  O  O43  1  0.16635500  0.46023400  0.16679900  1
  O  O44  1  0.15575550  0.20444750  0.50000000  1
  O  O45  1  0.65614950  0.70502750  0.33301350  1
  O  O46  1  0.15614950  0.20502750  0.16698650  1
  O  O47  1  0.03972750  0.66553350  0.00000000  1
  O  O48  1  0.46027250  0.83446650  0.50000000  1
  O  O49  1  0.96023400  0.33364500  0.33320100  1
  O  O50  1  0.83364500  0.53976600  0.16679900  1
  O  O51  1  0.70502750  0.34385050  0.33301350  1
  O  O52  1  0.79497250  0.15614950  0.83301350  1
  O  O53  1  0.66553350  0.96027250  0.00000000  1
  O  O54  1  0.53976600  0.16635500  0.83320100  1
  O  O55  1  0.03976600  0.66635500  0.66679900  1
  O  O56  1  0.96023400  0.33364500  0.66679900  1
  O  O57  1  0.84385050  0.79497250  0.83301350  1
  O  O58  1  0.84424450  0.79555250  0.50000000  1
  O  O59  1  0.34385050  0.29497250  0.66698650  1
  O  O60  1  0.83446650  0.53972750  0.50000000  1
  O  O61  1  0.83364500  0.53976600  0.83320100  1
  O  O62  1  0.79555250  0.15575550  0.50000000  1
  O  O63  1  0.29497250  0.65614950  0.66698650  1
  O  O64  1  0.70444750  0.34424450  0.00000000  1
  O  O65  1  0.70502750  0.34385050  0.66698650  1
  O  O66  1  0.16635500  0.46023400  0.83320100  1
  O  O67  1  0.66635500  0.96023400  0.66679900  1
  O  O68  1  0.65575550  0.70444750  0.00000000  1
  O  O69  1  0.15614950  0.20502750  0.83301350  1
  O  O70  1  0.65614950  0.70502750  0.66698650  1
  O  O71  1  0.53972750  0.16553350  0.50000000  1
  O  O72  1  0.96027250  0.33446650  0.00000000  1
  O  O73  1  0.46023400  0.83364500  0.83320100  1
  O  O74  1  0.33364500  0.03976600  0.66679900  1
  O  O75  1  0.20502750  0.84385050  0.83301350  1
