# generated using pymatgen
data_LiCu3F10
_symmetry_space_group_name_H-M   'P 1'
_cell_length_a   7.60390048
_cell_length_b   14.33614450
_cell_length_c   14.06546103
_cell_angle_alpha   90.00000000
_cell_angle_beta   104.78721030
_cell_angle_gamma   90.00000000
_symmetry_Int_Tables_number   1
_chemical_formula_structural   LiCu3F10
_chemical_formula_sum   'Li8 Cu24 F80'
_cell_volume   1482.50277808
_cell_formula_units_Z   8
loop_
 _symmetry_equiv_pos_site_id
 _symmetry_equiv_pos_as_xyz
  1  'x, y, z'
loop_
 _atom_site_type_symbol
 _atom_site_label
 _atom_site_symmetry_multiplicity
 _atom_site_fract_x
 _atom_site_fract_y
 _atom_site_fract_z
 _atom_site_occupancy
  Li  Li0  1  0.05641300  0.75412200  0.86337400  1
  Li  Li1  1  0.64265350  0.89327550  0.79001500  1
  Li  Li2  1  0.05641300  0.24587800  0.36337400  1
  Li  Li3  1  0.64265350  0.10672450  0.29001500  1
  Li  Li4  1  0.55641300  0.25412200  0.86337400  1
  Li  Li5  1  0.14265350  0.39327550  0.79001500  1
  Li  Li6  1  0.55641300  0.74587800  0.36337400  1
  Li  Li7  1  0.14265350  0.60672450  0.29001500  1
  Cu  Cu8  1  0.17943750  0.23366650  0.96910300  1
  Cu  Cu9  1  0.18961800  0.87003700  0.21116800  1
  Cu  Cu10  1  0.54806450  0.94359750  0.52118200  1
  Cu  Cu11  1  0.68353700  0.87557100  0.20130400  1
  Cu  Cu12  1  0.03188650  0.95710450  0.52497800  1
  Cu  Cu13  1  0.05868100  0.93555200  0.78397600  1
  Cu  Cu14  1  0.05868100  0.06444800  0.28397600  1
  Cu  Cu15  1  0.54806450  0.05640250  0.02118200  1
  Cu  Cu16  1  0.18961800  0.12996300  0.71116800  1
  Cu  Cu17  1  0.03188650  0.04289550  0.02497800  1
  Cu  Cu18  1  0.68353700  0.12442900  0.70130400  1
  Cu  Cu19  1  0.17943750  0.76633350  0.46910300  1
  Cu  Cu20  1  0.67943750  0.73366650  0.96910300  1
  Cu  Cu21  1  0.68961800  0.37003700  0.21116800  1
  Cu  Cu22  1  0.04806450  0.44359750  0.52118200  1
  Cu  Cu23  1  0.18353700  0.37557100  0.20130400  1
  Cu  Cu24  1  0.53188650  0.45710450  0.52497800  1
  Cu  Cu25  1  0.55868100  0.43555200  0.78397600  1
  Cu  Cu26  1  0.55868100  0.56444800  0.28397600  1
  Cu  Cu27  1  0.04806450  0.55640250  0.02118200  1
  Cu  Cu28  1  0.68961800  0.62996300  0.71116800  1
  Cu  Cu29  1  0.53188650  0.54289550  0.02497800  1
  Cu  Cu30  1  0.18353700  0.62442900  0.70130400  1
  Cu  Cu31  1  0.67943750  0.26633350  0.46910300  1
  F  F32  1  0.14186200  0.23569200  0.64721600  1
  F  F33  1  0.88665600  0.85162600  0.79991100  1
  F  F34  1  0.19087350  0.80894050  0.32477600  1
  F  F35  1  0.55155150  0.85390450  0.43332300  1
  F  F36  1  0.88774700  0.79358200  0.98743600  1
  F  F37  1  0.62422150  0.89748550  0.64858900  1
  F  F38  1  0.68026050  0.22222950  0.62141200  1
  F  F39  1  0.22807700  0.83908900  0.82657800  1
  F  F40  1  0.90516400  0.91470000  0.19232300  1
  F  F41  1  0.56600950  0.83392650  0.90391400  1
  F  F42  1  0.96710050  0.83343250  0.45784700  1
  F  F43  1  0.25415150  0.97903750  0.28261500  1
  F  F44  1  0.28350300  0.88355000  0.52424000  1
  F  F45  1  0.02605050  0.90400350  0.64882600  1
  F  F46  1  0.77435650  0.01065450  0.00319700  1
  F  F47  1  0.48679400  0.82883300  0.23488800  1
  F  F48  1  0.49900000  0.05602500  0.56692100  1
  F  F49  1  0.49900000  0.94397500  0.06692100  1
  F  F50  1  0.69434600  0.96768100  0.28887600  1
  F  F51  1  0.05672300  0.98602100  0.91033400  1
  F  F52  1  0.05672300  0.01397900  0.41033400  1
  F  F53  1  0.25415150  0.02096250  0.78261500  1
  F  F54  1  0.16856550  0.06361550  0.59495100  1
  F  F55  1  0.77435650  0.98934550  0.50319700  1
  F  F56  1  0.16856550  0.93638450  0.09495100  1
  F  F57  1  0.48679400  0.17116700  0.73488800  1
  F  F58  1  0.62422150  0.10251450  0.14858900  1
  F  F59  1  0.55155150  0.14609550  0.93332300  1
  F  F60  1  0.28350300  0.11645000  0.02424000  1
  F  F61  1  0.88665600  0.14837400  0.29991100  1
  F  F62  1  0.90516400  0.08530000  0.69232300  1
  F  F63  1  0.69434600  0.03231900  0.78887600  1
  F  F64  1  0.88774700  0.20641800  0.48743600  1
  F  F65  1  0.56600950  0.16607350  0.40391400  1
  F  F66  1  0.14186200  0.76430800  0.14721600  1
  F  F67  1  0.02605050  0.09599650  0.14882600  1
  F  F68  1  0.96710050  0.16656750  0.95784700  1
  F  F69  1  0.19087350  0.19105950  0.82477600  1
  F  F70  1  0.68026050  0.77777050  0.12141200  1
  F  F71  1  0.22807700  0.16091100  0.32657800  1
  F  F72  1  0.64186200  0.73569200  0.64721600  1
  F  F73  1  0.38665600  0.35162600  0.79991100  1
  F  F74  1  0.69087350  0.30894050  0.32477600  1
  F  F75  1  0.05155150  0.35390450  0.43332300  1
  F  F76  1  0.38774700  0.29358200  0.98743600  1
  F  F77  1  0.12422150  0.39748550  0.64858900  1
  F  F78  1  0.18026050  0.72222950  0.62141200  1
  F  F79  1  0.72807700  0.33908900  0.82657800  1
  F  F80  1  0.40516400  0.41470000  0.19232300  1
  F  F81  1  0.06600950  0.33392650  0.90391400  1
  F  F82  1  0.46710050  0.33343250  0.45784700  1
  F  F83  1  0.75415150  0.47903750  0.28261500  1
  F  F84  1  0.78350300  0.38355000  0.52424000  1
  F  F85  1  0.52605050  0.40400350  0.64882600  1
  F  F86  1  0.27435650  0.51065450  0.00319700  1
  F  F87  1  0.98679400  0.32883300  0.23488800  1
  F  F88  1  0.99900000  0.55602500  0.56692100  1
  F  F89  1  0.99900000  0.44397500  0.06692100  1
  F  F90  1  0.19434600  0.46768100  0.28887600  1
  F  F91  1  0.55672300  0.48602100  0.91033400  1
  F  F92  1  0.55672300  0.51397900  0.41033400  1
  F  F93  1  0.75415150  0.52096250  0.78261500  1
  F  F94  1  0.66856550  0.56361550  0.59495100  1
  F  F95  1  0.27435650  0.48934550  0.50319700  1
  F  F96  1  0.66856550  0.43638450  0.09495100  1
  F  F97  1  0.98679400  0.67116700  0.73488800  1
  F  F98  1  0.12422150  0.60251450  0.14858900  1
  F  F99  1  0.05155150  0.64609550  0.93332300  1
  F  F100  1  0.78350300  0.61645000  0.02424000  1
  F  F101  1  0.38665600  0.64837400  0.29991100  1
  F  F102  1  0.40516400  0.58530000  0.69232300  1
  F  F103  1  0.19434600  0.53231900  0.78887600  1
  F  F104  1  0.38774700  0.70641800  0.48743600  1
  F  F105  1  0.06600950  0.66607350  0.40391400  1
  F  F106  1  0.64186200  0.26430800  0.14721600  1
  F  F107  1  0.52605050  0.59599650  0.14882600  1
  F  F108  1  0.46710050  0.66656750  0.95784700  1
  F  F109  1  0.69087350  0.69105950  0.82477600  1
  F  F110  1  0.18026050  0.27777050  0.12141200  1
  F  F111  1  0.72807700  0.66091100  0.32657800  1
