# generated using pymatgen
data_Li4FeO4
_symmetry_space_group_name_H-M   'P 1'
_cell_length_a   5.23444262
_cell_length_b   5.27330927
_cell_length_c   7.24362816
_cell_angle_alpha   105.81293491
_cell_angle_beta   89.40359537
_cell_angle_gamma   109.29352256
_symmetry_Int_Tables_number   1
_chemical_formula_structural   Li4FeO4
_chemical_formula_sum   'Li8 Fe2 O8'
_cell_volume   180.87445240
_cell_formula_units_Z   2
loop_
 _symmetry_equiv_pos_site_id
 _symmetry_equiv_pos_as_xyz
  1  'x, y, z'
loop_
 _atom_site_type_symbol
 _atom_site_label
 _atom_site_symmetry_multiplicity
 _atom_site_fract_x
 _atom_site_fract_y
 _atom_site_fract_z
 _atom_site_occupancy
  Li  Li0  1  0.24941050  0.80246200  0.68951550  1
  Li  Li1  1  0.75058950  0.19753800  0.31048450  1
  Li  Li2  1  0.75598950  0.78328650  0.51384450  1
  Li  Li3  1  0.24401050  0.21671350  0.48615550  1
  Li  Li4  1  0.72240700  0.94594150  0.93220000  1
  Li  Li5  1  0.27759300  0.05405850  0.06780000  1
  Li  Li6  1  0.78923200  0.58481750  0.13970000  1
  Li  Li7  1  0.21076800  0.41518250  0.86030000  1
  Fe  Fe8  1  0.28788850  0.59206300  0.25399150  1
  Fe  Fe9  1  0.71211150  0.40793700  0.74600850  1
  O  O10  1  0.53667250  0.83083850  0.15123650  1
  O  O11  1  0.46332750  0.16916150  0.84876350  1
  O  O12  1  0.11513250  0.79924550  0.41323050  1
  O  O13  1  0.88486750  0.20075450  0.58676950  1
  O  O14  1  0.00629500  0.29813500  0.11085800  1
  O  O15  1  0.99370500  0.70186500  0.88914200  1
  O  O16  1  0.49901700  0.40305500  0.30381200  1
  O  O17  1  0.50098300  0.59694500  0.69618800  1
