# generated using pymatgen
data_Li4Co5Ni3O16
_symmetry_space_group_name_H-M   'P 1'
_cell_length_a   9.73806800
_cell_length_b   5.62844600
_cell_length_c   9.09708690
_cell_angle_alpha   90.00000000
_cell_angle_beta   90.18976679
_cell_angle_gamma   90.00000000
_symmetry_Int_Tables_number   1
_chemical_formula_structural   Li4Co5Ni3O16
_chemical_formula_sum   'Li8 Co10 Ni6 O32'
_cell_volume   498.61032534
_cell_formula_units_Z   2
loop_
 _symmetry_equiv_pos_site_id
 _symmetry_equiv_pos_as_xyz
  1  'x, y, z'
loop_
 _atom_site_type_symbol
 _atom_site_label
 _atom_site_symmetry_multiplicity
 _atom_site_fract_x
 _atom_site_fract_y
 _atom_site_fract_z
 _atom_site_occupancy
  Li  Li0  1  0.33429400  0.00000000  0.89584600  1
  Li  Li1  1  0.00165200  0.00000000  0.99807100  1
  Li  Li2  1  0.99912700  0.00000000  0.49588500  1
  Li  Li3  1  0.66593300  0.00000000  0.39561900  1
  Li  Li4  1  0.83429400  0.50000000  0.89584600  1
  Li  Li5  1  0.50165200  0.50000000  0.99807100  1
  Li  Li6  1  0.49912700  0.50000000  0.49588500  1
  Li  Li7  1  0.16593300  0.50000000  0.39561900  1
  Co  Co8  1  0.41711800  0.75553400  0.21470900  1
  Co  Co9  1  0.33722400  0.00000000  0.48505800  1
  Co  Co10  1  0.41711800  0.24446600  0.21470900  1
  Co  Co11  1  0.83165400  0.00000000  0.71443600  1
  Co  Co12  1  0.66982200  0.00000000  0.98357600  1
  Co  Co13  1  0.91711800  0.25553400  0.21470900  1
  Co  Co14  1  0.83722400  0.50000000  0.48505800  1
  Co  Co15  1  0.91711800  0.74446600  0.21470900  1
  Co  Co16  1  0.33165400  0.50000000  0.71443600  1
  Co  Co17  1  0.16982200  0.50000000  0.98357600  1
  Ni  Ni18  1  0.17190100  0.00000000  0.21406500  1
  Ni  Ni19  1  0.58629150  0.75325650  0.71433500  1
  Ni  Ni20  1  0.58629150  0.24674350  0.71433500  1
  Ni  Ni21  1  0.67190100  0.50000000  0.21406500  1
  Ni  Ni22  1  0.08629150  0.25325650  0.71433500  1
  Ni  Ni23  1  0.08629150  0.74674350  0.71433500  1
  O  O24  1  0.42106450  0.74424450  0.59837000  1
  O  O25  1  0.47987700  0.00000000  0.33847900  1
  O  O26  1  0.33279300  0.00000000  0.10966500  1
  O  O27  1  0.00421400  0.00000000  0.30623000  1
  O  O28  1  0.00373700  0.00000000  0.80694400  1
  O  O29  1  0.42106450  0.25575550  0.59837000  1
  O  O30  1  0.26157300  0.78028100  0.34067900  1
  O  O31  1  0.26157300  0.21971900  0.34067900  1
  O  O32  1  0.83672500  0.00000000  0.10349300  1
  O  O33  1  0.16394700  0.00000000  0.59862100  1
  O  O34  1  0.74083050  0.77884750  0.83995600  1
  O  O35  1  0.74083050  0.22115250  0.83995600  1
  O  O36  1  0.66615700  0.00000000  0.61209700  1
  O  O37  1  0.58404550  0.74323750  0.09757900  1
  O  O38  1  0.52287300  0.00000000  0.83996100  1
  O  O39  1  0.58404550  0.25676250  0.09757900  1
  O  O40  1  0.92106450  0.24424450  0.59837000  1
  O  O41  1  0.97987700  0.50000000  0.33847900  1
  O  O42  1  0.83279300  0.50000000  0.10966500  1
  O  O43  1  0.50421400  0.50000000  0.30623000  1
  O  O44  1  0.50373700  0.50000000  0.80694400  1
  O  O45  1  0.92106450  0.75575550  0.59837000  1
  O  O46  1  0.76157300  0.28028100  0.34067900  1
  O  O47  1  0.76157300  0.71971900  0.34067900  1
  O  O48  1  0.33672500  0.50000000  0.10349300  1
  O  O49  1  0.66394700  0.50000000  0.59862100  1
  O  O50  1  0.24083050  0.27884750  0.83995600  1
  O  O51  1  0.24083050  0.72115250  0.83995600  1
  O  O52  1  0.16615700  0.50000000  0.61209700  1
  O  O53  1  0.08404550  0.24323750  0.09757900  1
  O  O54  1  0.02287300  0.50000000  0.83996100  1
  O  O55  1  0.08404550  0.75676250  0.09757900  1
