# generated using pymatgen
data_Fe5Co3O16
_symmetry_space_group_name_H-M   'P 1'
_cell_length_a   9.86884339
_cell_length_b   5.67684307
_cell_length_c   9.01590107
_cell_angle_alpha   90.00000000
_cell_angle_beta   90.86227399
_cell_angle_gamma   90.00000000
_symmetry_Int_Tables_number   1
_chemical_formula_structural   Fe5Co3O16
_chemical_formula_sum   'Fe10 Co6 O32'
_cell_volume   505.04851698
_cell_formula_units_Z   2
loop_
 _symmetry_equiv_pos_site_id
 _symmetry_equiv_pos_as_xyz
  1  'x, y, z'
loop_
 _atom_site_type_symbol
 _atom_site_label
 _atom_site_symmetry_multiplicity
 _atom_site_fract_x
 _atom_site_fract_y
 _atom_site_fract_z
 _atom_site_occupancy
  Fe  Fe0  1  0.66282050  0.00000000  0.49363900  1
  Fe  Fe1  1  0.83383400  0.00000000  0.21415100  1
  Fe  Fe2  1  0.83023900  0.50000000  0.99514300  1
  Fe  Fe3  1  0.91719950  0.24898450  0.71213800  1
  Fe  Fe4  1  0.91719950  0.75101550  0.71213800  1
  Fe  Fe5  1  0.16282050  0.50000000  0.49363900  1
  Fe  Fe6  1  0.33383400  0.50000000  0.21415100  1
  Fe  Fe7  1  0.33023900  0.00000000  0.99514300  1
  Fe  Fe8  1  0.41719950  0.74898450  0.71213800  1
  Fe  Fe9  1  0.41719950  0.25101550  0.71213800  1
  Co  Co10  1  0.58436700  0.75145200  0.21100100  1
  Co  Co11  1  0.58436700  0.24854800  0.21100100  1
  Co  Co12  1  0.66796050  0.50000000  0.71123300  1
  Co  Co13  1  0.08436700  0.25145200  0.21100100  1
  Co  Co14  1  0.08436700  0.74854800  0.21100100  1
  Co  Co15  1  0.16796050  0.00000000  0.71123300  1
  O  O16  1  0.58057250  0.73787950  0.60269900  1
  O  O17  1  0.51992850  0.00000000  0.32593600  1
  O  O18  1  0.66484450  0.00000000  0.10266000  1
  O  O19  1  0.50390700  0.50000000  0.31869700  1
  O  O20  1  0.50331400  0.50000000  0.81962600  1
  O  O21  1  0.58057250  0.26212050  0.60269900  1
  O  O22  1  0.73810250  0.77464950  0.33174000  1
  O  O23  1  0.73810250  0.22535050  0.33174000  1
  O  O24  1  0.65878700  0.50000000  0.10559900  1
  O  O25  1  0.83844150  0.00000000  0.60401000  1
  O  O26  1  0.75897650  0.27828450  0.83103800  1
  O  O27  1  0.75897650  0.72171550  0.83103800  1
  O  O28  1  0.83222250  0.50000000  0.60290100  1
  O  O29  1  0.92112500  0.24479000  0.10452500  1
  O  O30  1  0.98202200  0.50000000  0.83306100  1
  O  O31  1  0.92112500  0.75521000  0.10452500  1
  O  O32  1  0.08057250  0.23787950  0.60269900  1
  O  O33  1  0.01992850  0.50000000  0.32593600  1
  O  O34  1  0.16484450  0.50000000  0.10266000  1
  O  O35  1  0.00390700  0.00000000  0.31869700  1
  O  O36  1  0.00331400  0.00000000  0.81962600  1
  O  O37  1  0.08057250  0.76212050  0.60269900  1
  O  O38  1  0.23810250  0.27464950  0.33174000  1
  O  O39  1  0.23810250  0.72535050  0.33174000  1
  O  O40  1  0.15878700  0.00000000  0.10559900  1
  O  O41  1  0.33844150  0.50000000  0.60401000  1
  O  O42  1  0.25897650  0.77828450  0.83103800  1
  O  O43  1  0.25897650  0.22171550  0.83103800  1
  O  O44  1  0.33222250  0.00000000  0.60290100  1
  O  O45  1  0.42112500  0.74479000  0.10452500  1
  O  O46  1  0.48202200  0.00000000  0.83306100  1
  O  O47  1  0.42112500  0.25521000  0.10452500  1
