# generated using pymatgen
data_Li5Fe(SiO4)2
_symmetry_space_group_name_H-M   'P 1'
_cell_length_a   7.35987800
_cell_length_b   7.47898800
_cell_length_c   6.29728957
_cell_angle_alpha   90.00000000
_cell_angle_beta   90.32701944
_cell_angle_gamma   90.00000000
_symmetry_Int_Tables_number   1
_chemical_formula_structural   Li5Fe(SiO4)2
_chemical_formula_sum   'Li10 Fe2 Si4 O16'
_cell_volume   346.62512723
_cell_formula_units_Z   2
loop_
 _symmetry_equiv_pos_site_id
 _symmetry_equiv_pos_as_xyz
  1  'x, y, z'
loop_
 _atom_site_type_symbol
 _atom_site_label
 _atom_site_symmetry_multiplicity
 _atom_site_fract_x
 _atom_site_fract_y
 _atom_site_fract_z
 _atom_site_occupancy
  Li  Li0  1  0.18531000  0.01295000  0.26273900  1
  Li  Li1  1  0.50000000  0.17033300  0.50000000  1
  Li  Li2  1  0.50000000  0.81856100  0.50000000  1
  Li  Li3  1  0.50000000  0.80286200  0.00000000  1
  Li  Li4  1  0.81469000  0.01295000  0.73726100  1
  Li  Li5  1  0.68531000  0.51295000  0.26273900  1
  Li  Li6  1  0.00000000  0.67033300  0.50000000  1
  Li  Li7  1  0.00000000  0.31856100  0.50000000  1
  Li  Li8  1  0.00000000  0.30286200  0.00000000  1
  Li  Li9  1  0.31469000  0.51295000  0.73726100  1
  Fe  Fe10  1  0.50000000  0.17646300  0.00000000  1
  Fe  Fe11  1  0.00000000  0.67646300  0.00000000  1
  Si  Si12  1  0.17464200  0.00646100  0.74314000  1
  Si  Si13  1  0.82535800  0.00646100  0.25686000  1
  Si  Si14  1  0.67464200  0.50646100  0.74314000  1
  Si  Si15  1  0.32535800  0.50646100  0.25686000  1
  O  O16  1  0.30543300  0.00864400  0.96512600  1
  O  O17  1  0.30211350  0.99857150  0.53505800  1
  O  O18  1  0.47032050  0.66952450  0.24982700  1
  O  O19  1  0.45559900  0.31974000  0.24023600  1
  O  O20  1  0.52967950  0.66952450  0.75017300  1
  O  O21  1  0.54440100  0.31974000  0.75976400  1
  O  O22  1  0.69788650  0.99857150  0.46494200  1
  O  O23  1  0.69456700  0.00864400  0.03487400  1
  O  O24  1  0.80543300  0.50864400  0.96512600  1
  O  O25  1  0.80211350  0.49857150  0.53505800  1
  O  O26  1  0.97032050  0.16952450  0.24982700  1
  O  O27  1  0.95559900  0.81974000  0.24023600  1
  O  O28  1  0.02967950  0.16952450  0.75017300  1
  O  O29  1  0.04440100  0.81974000  0.75976400  1
  O  O30  1  0.19788650  0.49857150  0.46494200  1
  O  O31  1  0.19456700  0.50864400  0.03487400  1
