# generated using pymatgen
data_VOF
_symmetry_space_group_name_H-M   'P 1'
_cell_length_a   9.45667400
_cell_length_b   12.51450800
_cell_length_c   4.70906782
_cell_angle_alpha   90.00000000
_cell_angle_beta   90.34991630
_cell_angle_gamma   90.00000000
_symmetry_Int_Tables_number   1
_chemical_formula_structural   VOF
_chemical_formula_sum   'V16 O16 F16'
_cell_volume   557.28716909
_cell_formula_units_Z   16
loop_
 _symmetry_equiv_pos_site_id
 _symmetry_equiv_pos_as_xyz
  1  'x, y, z'
loop_
 _atom_site_type_symbol
 _atom_site_label
 _atom_site_symmetry_multiplicity
 _atom_site_fract_x
 _atom_site_fract_y
 _atom_site_fract_z
 _atom_site_occupancy
  V  V0  1  0.38138600  0.00000000  0.56174400  1
  V  V1  1  0.38536350  0.25053750  0.47633100  1
  V  V2  1  0.86351100  0.00000000  0.45224700  1
  V  V3  1  0.38536350  0.74946250  0.47633100  1
  V  V4  1  0.62055100  0.86621700  0.01038400  1
  V  V5  1  0.12143100  0.11740100  0.01052100  1
  V  V6  1  0.62055100  0.13378300  0.01038400  1
  V  V7  1  0.12143100  0.88259900  0.01052100  1
  V  V8  1  0.88138600  0.50000000  0.56174400  1
  V  V9  1  0.88536350  0.75053750  0.47633100  1
  V  V10  1  0.36351100  0.50000000  0.45224700  1
  V  V11  1  0.88536350  0.24946250  0.47633100  1
  V  V12  1  0.12055100  0.36621700  0.01038400  1
  V  V13  1  0.62143100  0.61740100  0.01052100  1
  V  V14  1  0.12055100  0.63378300  0.01038400  1
  V  V15  1  0.62143100  0.38259900  0.01052100  1
  O  O16  1  0.02039600  0.00000000  0.20482300  1
  O  O17  1  0.53093550  0.74263550  0.19018600  1
  O  O18  1  0.53093550  0.25736450  0.19018600  1
  O  O19  1  0.77380400  0.86949400  0.29702900  1
  O  O20  1  0.77380400  0.13050600  0.29702900  1
  O  O21  1  0.47649050  0.87106250  0.69845100  1
  O  O22  1  0.47649050  0.12893750  0.69845100  1
  O  O23  1  0.21991000  0.00000000  0.81288000  1
  O  O24  1  0.52039600  0.50000000  0.20482300  1
  O  O25  1  0.03093550  0.24263550  0.19018600  1
  O  O26  1  0.03093550  0.75736450  0.19018600  1
  O  O27  1  0.27380400  0.36949400  0.29702900  1
  O  O28  1  0.27380400  0.63050600  0.29702900  1
  O  O29  1  0.97649050  0.37106250  0.69845100  1
  O  O30  1  0.97649050  0.62893750  0.69845100  1
  O  O31  1  0.71991000  0.50000000  0.81288000  1
  F  F32  1  0.52329700  0.00000000  0.20640600  1
  F  F33  1  0.28114200  0.12032800  0.30384100  1
  F  F34  1  0.28114200  0.87967200  0.30384100  1
  F  F35  1  0.46942700  0.62095500  0.69783000  1
  F  F36  1  0.46942700  0.37904500  0.69783000  1
  F  F37  1  0.72594400  0.25642400  0.79357300  1
  F  F38  1  0.72594400  0.74357600  0.79357300  1
  F  F39  1  0.72132300  0.00000000  0.80560700  1
  F  F40  1  0.02329700  0.50000000  0.20640600  1
  F  F41  1  0.78114200  0.62032800  0.30384100  1
  F  F42  1  0.78114200  0.37967200  0.30384100  1
  F  F43  1  0.96942700  0.12095500  0.69783000  1
  F  F44  1  0.96942700  0.87904500  0.69783000  1
  F  F45  1  0.22594400  0.75642400  0.79357300  1
  F  F46  1  0.22594400  0.24357600  0.79357300  1
  F  F47  1  0.22132300  0.50000000  0.80560700  1
