# generated using pymatgen
data_FeSb3(PO4)4
_symmetry_space_group_name_H-M   'P 1'
_cell_length_a   4.98520600
_cell_length_b   6.92817300
_cell_length_c   10.23788269
_cell_angle_alpha   90.00000000
_cell_angle_beta   92.82566706
_cell_angle_gamma   90.00000000
_symmetry_Int_Tables_number   1
_chemical_formula_structural   FeSb3(PO4)4
_chemical_formula_sum   'Fe1 Sb3 P4 O16'
_cell_volume   353.16985344
_cell_formula_units_Z   1
loop_
 _symmetry_equiv_pos_site_id
 _symmetry_equiv_pos_as_xyz
  1  'x, y, z'
loop_
 _atom_site_type_symbol
 _atom_site_label
 _atom_site_symmetry_multiplicity
 _atom_site_fract_x
 _atom_site_fract_y
 _atom_site_fract_z
 _atom_site_occupancy
  Fe  Fe0  1  0.96894400  0.50000000  0.26873000  1
  Sb  Sb1  1  0.04562100  0.00000000  0.71868200  1
  Sb  Sb2  1  0.45466500  0.00000000  0.21658600  1
  Sb  Sb3  1  0.54607400  0.50000000  0.77711500  1
  P  P4  1  0.08983200  0.50000000  0.58684100  1
  P  P5  1  0.37783500  0.50000000  0.10847400  1
  P  P6  1  0.63122100  0.00000000  0.90882400  1
  P  P7  1  0.89973500  0.00000000  0.40034400  1
  O  O8  1  0.13516900  0.50000000  0.43958700  1
  O  O9  1  0.24149800  0.67286000  0.66001400  1
  O  O10  1  0.24149800  0.32714000  0.66001400  1
  O  O11  1  0.20613300  0.00000000  0.39899000  1
  O  O12  1  0.32489500  0.00000000  0.90249400  1
  O  O13  1  0.23846200  0.67302300  0.17890500  1
  O  O14  1  0.23846200  0.32697700  0.17890500  1
  O  O15  1  0.31485500  0.50000000  0.96153000  1
  O  O16  1  0.73944800  0.00000000  0.05166000  1
  O  O17  1  0.75361800  0.17286600  0.82654000  1
  O  O18  1  0.75361800  0.82713400  0.82654000  1
  O  O19  1  0.68317100  0.50000000  0.14040400  1
  O  O20  1  0.78789200  0.50000000  0.60566500  1
  O  O21  1  0.76392300  0.17566000  0.32127500  1
  O  O22  1  0.76392300  0.82434000  0.32127500  1
  O  O23  1  0.79951100  0.00000000  0.54060700  1
