# generated using pymatgen
data_LiCr2O3
_symmetry_space_group_name_H-M   'P 1'
_cell_length_a   5.29813075
_cell_length_b   9.00959200
_cell_length_c   10.09978518
_cell_angle_alpha   90.00000000
_cell_angle_beta   96.52175293
_cell_angle_gamma   90.00000000
_symmetry_Int_Tables_number   1
_chemical_formula_structural   LiCr2O3
_chemical_formula_sum   'Li8 Cr16 O24'
_cell_volume   478.98332685
_cell_formula_units_Z   8
loop_
 _symmetry_equiv_pos_site_id
 _symmetry_equiv_pos_as_xyz
  1  'x, y, z'
loop_
 _atom_site_type_symbol
 _atom_site_label
 _atom_site_symmetry_multiplicity
 _atom_site_fract_x
 _atom_site_fract_y
 _atom_site_fract_z
 _atom_site_occupancy
  Li  Li0  1  0.50000000  0.25895100  0.25000000  1
  Li  Li1  1  0.50000000  0.74104900  0.75000000  1
  Li  Li2  1  0.50000000  0.06880850  0.75000000  1
  Li  Li3  1  0.50000000  0.93119150  0.25000000  1
  Li  Li4  1  0.00000000  0.75895100  0.25000000  1
  Li  Li5  1  0.00000000  0.24104900  0.75000000  1
  Li  Li6  1  0.00000000  0.56880850  0.75000000  1
  Li  Li7  1  0.00000000  0.43119150  0.25000000  1
  Cr  Cr8  1  0.25000000  0.75000000  0.00000000  1
  Cr  Cr9  1  0.25000000  0.25000000  0.50000000  1
  Cr  Cr10  1  0.50000000  0.40406250  0.75000000  1
  Cr  Cr11  1  0.50000000  0.59593750  0.25000000  1
  Cr  Cr12  1  0.74966550  0.08249950  0.50161500  1
  Cr  Cr13  1  0.25033450  0.08249950  0.99838500  1
  Cr  Cr14  1  0.74966550  0.91750050  0.00161500  1
  Cr  Cr15  1  0.25033450  0.91750050  0.49838500  1
  Cr  Cr16  1  0.75000000  0.25000000  0.00000000  1
  Cr  Cr17  1  0.75000000  0.75000000  0.50000000  1
  Cr  Cr18  1  0.00000000  0.90406250  0.75000000  1
  Cr  Cr19  1  0.00000000  0.09593750  0.25000000  1
  Cr  Cr20  1  0.24966550  0.58249950  0.50161500  1
  Cr  Cr21  1  0.75033450  0.58249950  0.99838500  1
  Cr  Cr22  1  0.24966550  0.41750050  0.00161500  1
  Cr  Cr23  1  0.75033450  0.41750050  0.49838500  1
  O  O24  1  0.90390550  0.06461950  0.88136000  1
  O  O25  1  0.90390550  0.93538050  0.38136000  1
  O  O26  1  0.09609450  0.06461950  0.61864000  1
  O  O27  1  0.09609450  0.93538050  0.11864000  1
  O  O28  1  0.59619550  0.08094750  0.10756400  1
  O  O29  1  0.40380450  0.08094750  0.39243600  1
  O  O30  1  0.59619550  0.91905250  0.60756400  1
  O  O31  1  0.40380450  0.91905250  0.89243600  1
  O  O32  1  0.62653750  0.24924950  0.61595000  1
  O  O33  1  0.62653750  0.75075050  0.11595000  1
  O  O34  1  0.37346250  0.24924950  0.88405000  1
  O  O35  1  0.37346250  0.75075050  0.38405000  1
  O  O36  1  0.40390550  0.56461950  0.88136000  1
  O  O37  1  0.40390550  0.43538050  0.38136000  1
  O  O38  1  0.59609450  0.56461950  0.61864000  1
  O  O39  1  0.59609450  0.43538050  0.11864000  1
  O  O40  1  0.09619550  0.58094750  0.10756400  1
  O  O41  1  0.90380450  0.58094750  0.39243600  1
  O  O42  1  0.09619550  0.41905250  0.60756400  1
  O  O43  1  0.90380450  0.41905250  0.89243600  1
  O  O44  1  0.12653750  0.74924950  0.61595000  1
  O  O45  1  0.12653750  0.25075050  0.11595000  1
  O  O46  1  0.87346250  0.74924950  0.88405000  1
  O  O47  1  0.87346250  0.25075050  0.38405000  1
