# generated using pymatgen
data_Li2VOF3
_symmetry_space_group_name_H-M   'P 1'
_cell_length_a   6.02085450
_cell_length_b   6.02085450
_cell_length_c   8.53365800
_cell_angle_alpha   90.00000000
_cell_angle_beta   90.00000000
_cell_angle_gamma   90.00000000
_symmetry_Int_Tables_number   1
_chemical_formula_structural   Li2VOF3
_chemical_formula_sum   'Li8 V4 O4 F12'
_cell_volume   309.35098143
_cell_formula_units_Z   4
loop_
 _symmetry_equiv_pos_site_id
 _symmetry_equiv_pos_as_xyz
  1  'x, y, z'
loop_
 _atom_site_type_symbol
 _atom_site_label
 _atom_site_symmetry_multiplicity
 _atom_site_fract_x
 _atom_site_fract_y
 _atom_site_fract_z
 _atom_site_occupancy
  Li  Li0  1  0.23835800  0.25725300  0.36783500  1
  Li  Li1  1  0.25725300  0.76164200  0.11783500  1
  Li  Li2  1  0.26204500  0.50978200  0.75400900  1
  Li  Li3  1  0.49021800  0.26204500  0.00400900  1
  Li  Li4  1  0.50978200  0.73795500  0.50400900  1
  Li  Li5  1  0.73795500  0.49021800  0.25400900  1
  Li  Li6  1  0.74274700  0.23835800  0.61783500  1
  Li  Li7  1  0.76164200  0.74274700  0.86783500  1
  V  V8  1  0.00614400  0.24991100  0.01396100  1
  V  V9  1  0.99385600  0.75008900  0.51396100  1
  V  V10  1  0.24991100  0.99385600  0.76396100  1
  V  V11  1  0.75008900  0.00614400  0.26396100  1
  O  O12  1  0.02710400  0.76311300  0.73353200  1
  O  O13  1  0.23688700  0.02710400  0.98353200  1
  O  O14  1  0.76311300  0.97289600  0.48353200  1
  O  O15  1  0.97289600  0.23688700  0.23353200  1
  F  F16  1  0.01296300  0.25262600  0.76387800  1
  F  F17  1  0.25262600  0.98703700  0.51387800  1
  F  F18  1  0.24782500  0.48874900  0.99695100  1
  F  F19  1  0.24522000  0.52630500  0.49485100  1
  F  F20  1  0.47369500  0.24522000  0.74485100  1
  F  F21  1  0.48874900  0.75217500  0.74695100  1
  F  F22  1  0.51125100  0.24782500  0.24695100  1
  F  F23  1  0.52630500  0.75478000  0.24485100  1
  F  F24  1  0.75217500  0.51125100  0.49695100  1
  F  F25  1  0.75478000  0.47369500  0.99485100  1
  F  F26  1  0.74737400  0.01296300  0.01387800  1
  F  F27  1  0.98703700  0.74737400  0.26387800  1
