# generated using pymatgen
data_Co2O3F
_symmetry_space_group_name_H-M   'P 1'
_cell_length_a   17.49220400
_cell_length_b   5.93081600
_cell_length_c   4.37704041
_cell_angle_alpha   90.00000000
_cell_angle_beta   92.68253378
_cell_angle_gamma   90.00000000
_symmetry_Int_Tables_number   1
_chemical_formula_structural   Co2O3F
_chemical_formula_sum   'Co16 O24 F8'
_cell_volume   453.58989887
_cell_formula_units_Z   8
loop_
 _symmetry_equiv_pos_site_id
 _symmetry_equiv_pos_as_xyz
  1  'x, y, z'
loop_
 _atom_site_type_symbol
 _atom_site_label
 _atom_site_symmetry_multiplicity
 _atom_site_fract_x
 _atom_site_fract_y
 _atom_site_fract_z
 _atom_site_occupancy
  Co  Co0  1  0.61902500  0.00000000  0.52269900  1
  Co  Co1  1  0.63177000  0.50000000  0.47284700  1
  Co  Co2  1  0.86823000  0.00000000  0.52715300  1
  Co  Co3  1  0.88097500  0.50000000  0.47730100  1
  Co  Co4  1  0.00000000  0.74413200  0.00000000  1
  Co  Co5  1  0.75000000  0.75000000  0.00000000  1
  Co  Co6  1  0.00000000  0.25586800  0.00000000  1
  Co  Co7  1  0.75000000  0.25000000  0.00000000  1
  Co  Co8  1  0.11902500  0.50000000  0.52269900  1
  Co  Co9  1  0.13177000  0.00000000  0.47284700  1
  Co  Co10  1  0.36823000  0.50000000  0.52715300  1
  Co  Co11  1  0.38097500  0.00000000  0.47730100  1
  Co  Co12  1  0.50000000  0.24413200  0.00000000  1
  Co  Co13  1  0.25000000  0.25000000  0.00000000  1
  Co  Co14  1  0.50000000  0.75586800  0.00000000  1
  Co  Co15  1  0.25000000  0.75000000  0.00000000  1
  O  O16  1  0.70201200  0.50000000  0.19268400  1
  O  O17  1  0.95194200  0.50000000  0.19452600  1
  O  O18  1  0.57523900  0.74890300  0.30701500  1
  O  O19  1  0.82671600  0.24862100  0.30582100  1
  O  O20  1  0.57523900  0.25109700  0.30701500  1
  O  O21  1  0.82671600  0.75137900  0.30582100  1
  O  O22  1  0.92476100  0.24890300  0.69298500  1
  O  O23  1  0.67328400  0.74862100  0.69417900  1
  O  O24  1  0.67328400  0.25137900  0.69417900  1
  O  O25  1  0.92476100  0.75109700  0.69298500  1
  O  O26  1  0.79798800  0.00000000  0.80731600  1
  O  O27  1  0.54805800  0.00000000  0.80547400  1
  O  O28  1  0.20201200  0.00000000  0.19268400  1
  O  O29  1  0.45194200  0.00000000  0.19452600  1
  O  O30  1  0.07523900  0.24890300  0.30701500  1
  O  O31  1  0.32671600  0.74862100  0.30582100  1
  O  O32  1  0.07523900  0.75109700  0.30701500  1
  O  O33  1  0.32671600  0.25137900  0.30582100  1
  O  O34  1  0.42476100  0.74890300  0.69298500  1
  O  O35  1  0.17328400  0.24862100  0.69417900  1
  O  O36  1  0.17328400  0.75137900  0.69417900  1
  O  O37  1  0.42476100  0.25109700  0.69298500  1
  O  O38  1  0.29798800  0.50000000  0.80731600  1
  O  O39  1  0.04805800  0.50000000  0.80547400  1
  F  F40  1  0.69492400  0.00000000  0.21609900  1
  F  F41  1  0.94826400  0.00000000  0.20035700  1
  F  F42  1  0.80507600  0.50000000  0.78390100  1
  F  F43  1  0.55173600  0.50000000  0.79964300  1
  F  F44  1  0.19492400  0.50000000  0.21609900  1
  F  F45  1  0.44826400  0.50000000  0.20035700  1
  F  F46  1  0.30507600  0.00000000  0.78390100  1
  F  F47  1  0.05173600  0.00000000  0.79964300  1
