# generated using pymatgen
data_Li4Fe7(PO4)6
_symmetry_space_group_name_H-M   'P 1'
_cell_length_a   11.16864600
_cell_length_b   14.11253000
_cell_length_c   6.51378026
_cell_angle_alpha   90.00000000
_cell_angle_beta   104.68545512
_cell_angle_gamma   90.00000000
_symmetry_Int_Tables_number   1
_chemical_formula_structural   Li4Fe7(PO4)6
_chemical_formula_sum   'Li8 Fe14 P12 O48'
_cell_volume   993.14834998
_cell_formula_units_Z   2
loop_
 _symmetry_equiv_pos_site_id
 _symmetry_equiv_pos_as_xyz
  1  'x, y, z'
loop_
 _atom_site_type_symbol
 _atom_site_label
 _atom_site_symmetry_multiplicity
 _atom_site_fract_x
 _atom_site_fract_y
 _atom_site_fract_z
 _atom_site_occupancy
  Li  Li0  1  0.24040800  0.00000000  0.46407600  1
  Li  Li1  1  0.54425050  0.88255150  0.52703000  1
  Li  Li2  1  0.54425050  0.11744850  0.52703000  1
  Li  Li3  1  0.93509800  0.00000000  0.55342500  1
  Li  Li4  1  0.74040800  0.50000000  0.46407600  1
  Li  Li5  1  0.04425050  0.38255150  0.52703000  1
  Li  Li6  1  0.04425050  0.61744850  0.52703000  1
  Li  Li7  1  0.43509800  0.50000000  0.55342500  1
  Fe  Fe8  1  0.32570400  0.68307900  0.18117200  1
  Fe  Fe9  1  0.32570400  0.31692100  0.18117200  1
  Fe  Fe10  1  0.50359300  0.85668100  0.01549700  1
  Fe  Fe11  1  0.50359300  0.14331900  0.01549700  1
  Fe  Fe12  1  0.00631900  0.00000000  0.00999300  1
  Fe  Fe13  1  0.67595000  0.68142700  0.80971300  1
  Fe  Fe14  1  0.67595000  0.31857300  0.80971300  1
  Fe  Fe15  1  0.82570400  0.18307900  0.18117200  1
  Fe  Fe16  1  0.82570400  0.81692100  0.18117200  1
  Fe  Fe17  1  0.00359300  0.35668100  0.01549700  1
  Fe  Fe18  1  0.00359300  0.64331900  0.01549700  1
  Fe  Fe19  1  0.50631900  0.50000000  0.00999300  1
  Fe  Fe20  1  0.17595000  0.18142700  0.80971300  1
  Fe  Fe21  1  0.17595000  0.81857300  0.80971300  1
  P  P22  1  0.41016900  0.30732000  0.70936100  1
  P  P23  1  0.41016900  0.69268000  0.70936100  1
  P  P24  1  0.32635100  0.00000000  0.07260200  1
  P  P25  1  0.68841400  0.00000000  0.91718000  1
  P  P26  1  0.60140850  0.68715150  0.29349800  1
  P  P27  1  0.60140850  0.31284850  0.29349800  1
  P  P28  1  0.91016900  0.80732000  0.70936100  1
  P  P29  1  0.91016900  0.19268000  0.70936100  1
  P  P30  1  0.82635100  0.50000000  0.07260200  1
  P  P31  1  0.18841400  0.50000000  0.91718000  1
  P  P32  1  0.10140850  0.18715150  0.29349800  1
  P  P33  1  0.10140850  0.81284850  0.29349800  1
  O  O34  1  0.32874850  0.08866650  0.92679200  1
  O  O35  1  0.32874850  0.91133350  0.92679200  1
  O  O36  1  0.20782600  0.00000000  0.15272500  1
  O  O37  1  0.32999850  0.71340150  0.86813100  1
  O  O38  1  0.32999850  0.28659850  0.86813100  1
  O  O39  1  0.50051150  0.60509150  0.76882500  1
  O  O40  1  0.50051150  0.39490850  0.76882500  1
  O  O41  1  0.50134950  0.77975350  0.72797000  1
  O  O42  1  0.50134950  0.22024650  0.72797000  1
  O  O43  1  0.44575200  0.00000000  0.25461400  1
  O  O44  1  0.58037600  0.00000000  0.71443100  1
  O  O45  1  0.49839450  0.38974050  0.21835600  1
  O  O46  1  0.49839450  0.61025950  0.21835600  1
  O  O47  1  0.52910450  0.21825050  0.30661400  1
  O  O48  1  0.52910450  0.78174950  0.30661400  1
  O  O49  1  0.18466200  0.15003800  0.50559000  1
  O  O50  1  0.18466200  0.84996200  0.50559000  1
  O  O51  1  0.81491900  0.00000000  0.86906500  1
  O  O52  1  0.67896900  0.70698700  0.13007200  1
  O  O53  1  0.67896900  0.29301300  0.13007200  1
  O  O54  1  0.67523250  0.91052950  0.05540400  1
  O  O55  1  0.67523250  0.08947050  0.05540400  1
  O  O56  1  0.82672650  0.82782950  0.48908400  1
  O  O57  1  0.82672650  0.17217050  0.48908400  1
  O  O58  1  0.82874850  0.58866650  0.92679200  1
  O  O59  1  0.82874850  0.41133350  0.92679200  1
  O  O60  1  0.70782600  0.50000000  0.15272500  1
  O  O61  1  0.82999850  0.21340150  0.86813100  1
  O  O62  1  0.82999850  0.78659850  0.86813100  1
  O  O63  1  0.00051150  0.10509150  0.76882500  1
  O  O64  1  0.00051150  0.89490850  0.76882500  1
  O  O65  1  0.00134950  0.27975350  0.72797000  1
  O  O66  1  0.00134950  0.72024650  0.72797000  1
  O  O67  1  0.94575200  0.50000000  0.25461400  1
  O  O68  1  0.08037600  0.50000000  0.71443100  1
  O  O69  1  0.99839450  0.88974050  0.21835600  1
  O  O70  1  0.99839450  0.11025950  0.21835600  1
  O  O71  1  0.02910450  0.71825050  0.30661400  1
  O  O72  1  0.02910450  0.28174950  0.30661400  1
  O  O73  1  0.68466200  0.65003800  0.50559000  1
  O  O74  1  0.68466200  0.34996200  0.50559000  1
  O  O75  1  0.31491900  0.50000000  0.86906500  1
  O  O76  1  0.17896900  0.20698700  0.13007200  1
  O  O77  1  0.17896900  0.79301300  0.13007200  1
  O  O78  1  0.17523250  0.41052950  0.05540400  1
  O  O79  1  0.17523250  0.58947050  0.05540400  1
  O  O80  1  0.32672650  0.32782950  0.48908400  1
  O  O81  1  0.32672650  0.67217050  0.48908400  1
