# generated using pymatgen
data_Li3Ti2MnO6
_symmetry_space_group_name_H-M   'P 1'
_cell_length_a   13.53207642
_cell_length_b   2.96303999
_cell_length_c   6.01495931
_cell_angle_alpha   90.00000000
_cell_angle_beta   102.61289894
_cell_angle_gamma   90.00000000
_symmetry_Int_Tables_number   1
_chemical_formula_structural   Li3Ti2MnO6
_chemical_formula_sum   'Li6 Ti4 Mn2 O12'
_cell_volume   235.35615450
_cell_formula_units_Z   2
loop_
 _symmetry_equiv_pos_site_id
 _symmetry_equiv_pos_as_xyz
  1  'x, y, z'
loop_
 _atom_site_type_symbol
 _atom_site_label
 _atom_site_symmetry_multiplicity
 _atom_site_fract_x
 _atom_site_fract_y
 _atom_site_fract_z
 _atom_site_occupancy
  Li  Li0  1  0.50000000  0.50000000  0.00000000  1
  Li  Li1  1  0.17542400  0.50000000  0.34302150  1
  Li  Li2  1  0.32457600  0.00000000  0.65697850  1
  Li  Li3  1  0.00000000  0.00000000  0.00000000  1
  Li  Li4  1  0.67542400  0.00000000  0.34302150  1
  Li  Li5  1  0.82457600  0.50000000  0.65697850  1
  Ti  Ti6  1  0.66262475  0.00000000  0.83368900  1
  Ti  Ti7  1  0.33737525  0.00000000  0.16631100  1
  Ti  Ti8  1  0.16262475  0.50000000  0.83368900  1
  Ti  Ti9  1  0.83737525  0.50000000  0.16631100  1
  Mn  Mn10  1  0.50000000  0.50000000  0.50000000  1
  Mn  Mn11  1  0.00000000  0.00000000  0.50000000  1
  O  O12  1  0.16931550  0.00000000  0.60233250  1
  O  O13  1  0.33068450  0.50000000  0.39766750  1
  O  O14  1  0.32177475  0.50000000  0.92263650  1
  O  O15  1  0.17822525  0.00000000  0.07736350  1
  O  O16  1  0.48198425  0.00000000  0.23224650  1
  O  O17  1  0.51801575  0.00000000  0.76775350  1
  O  O18  1  0.66931550  0.50000000  0.60233250  1
  O  O19  1  0.83068450  0.00000000  0.39766750  1
  O  O20  1  0.82177475  0.00000000  0.92263650  1
  O  O21  1  0.67822525  0.50000000  0.07736350  1
  O  O22  1  0.98198425  0.50000000  0.23224650  1
  O  O23  1  0.01801575  0.50000000  0.76775350  1
