# generated using pymatgen
data_Ti2Ni(PO4)3
_symmetry_space_group_name_H-M   'P 1'
_cell_length_a   8.58501227
_cell_length_b   8.58501227
_cell_length_c   20.60237566
_cell_angle_alpha   90.00000000
_cell_angle_beta   90.00000000
_cell_angle_gamma   120.00000000
_symmetry_Int_Tables_number   1
_chemical_formula_structural   Ti2Ni(PO4)3
_chemical_formula_sum   'Ti12 Ni6 P18 O72'
_cell_volume   1315.01217563
_cell_formula_units_Z   6
loop_
 _symmetry_equiv_pos_site_id
 _symmetry_equiv_pos_as_xyz
  1  'x, y, z'
loop_
 _atom_site_type_symbol
 _atom_site_label
 _atom_site_symmetry_multiplicity
 _atom_site_fract_x
 _atom_site_fract_y
 _atom_site_fract_z
 _atom_site_occupancy
  Ti  Ti0  1  0.33333333  0.66666667  0.52292567  1
  Ti  Ti1  1  0.33333333  0.66666667  0.31040767  1
  Ti  Ti2  1  0.33333333  0.66666667  0.02292567  1
  Ti  Ti3  1  0.33333333  0.66666667  0.81040767  1
  Ti  Ti4  1  0.00000000  0.00000000  0.85625900  1
  Ti  Ti5  1  1.00000000  0.00000000  0.64374100  1
  Ti  Ti6  1  0.00000000  0.00000000  0.35625900  1
  Ti  Ti7  1  0.00000000  0.00000000  0.14374100  1
  Ti  Ti8  1  0.66666667  0.33333333  0.18959233  1
  Ti  Ti9  1  0.66666667  0.33333333  0.97707433  1
  Ti  Ti10  1  0.66666667  0.33333333  0.68959233  1
  Ti  Ti11  1  0.66666667  0.33333333  0.47707433  1
  Ni  Ni12  1  0.00000000  0.00000000  0.00000000  1
  Ni  Ni13  1  0.33333333  0.66666667  0.16666667  1
  Ni  Ni14  1  0.66666667  0.33333333  0.33333333  1
  Ni  Ni15  1  0.00000000  0.00000000  0.50000000  1
  Ni  Ni16  1  0.33333333  0.66666667  0.66666667  1
  Ni  Ni17  1  0.66666667  0.33333333  0.83333333  1
  P  P18  1  0.70472000  0.70472000  0.25000000  1
  P  P19  1  0.29528000  0.00000000  0.25000000  1
  P  P20  1  0.00000000  0.29528000  0.25000000  1
  P  P21  1  0.66666667  0.03805333  0.08333333  1
  P  P22  1  0.37138667  0.33333333  0.08333333  1
  P  P23  1  0.96194667  0.62861333  0.08333333  1
  P  P24  1  0.37138667  0.03805333  0.58333333  1
  P  P25  1  0.96194667  0.33333333  0.58333333  1
  P  P26  1  0.66666667  0.62861333  0.58333333  1
  P  P27  1  0.33333333  0.37138667  0.41666667  1
  P  P28  1  0.03805333  0.66666667  0.41666667  1
  P  P29  1  0.62861333  0.96194667  0.41666667  1
  P  P30  1  0.03805333  0.37138667  0.91666667  1
  P  P31  1  0.62861333  0.66666667  0.91666667  1
  P  P32  1  0.33333333  0.96194667  0.91666667  1
  P  P33  1  0.00000000  0.70472000  0.75000000  1
  P  P34  1  0.70472000  0.00000000  0.75000000  1
  P  P35  1  0.29528000  0.29528000  0.75000000  1
  O  O36  1  0.53001433  0.85586367  0.35566867  1
  O  O37  1  0.32584933  0.46998567  0.35566867  1
  O  O38  1  0.68453933  0.51521867  0.25808767  1
  O  O39  1  0.14413633  0.67415067  0.35566867  1
  O  O40  1  0.81080300  0.80331900  0.18900200  1
  O  O41  1  0.51521867  0.68453933  0.24191233  1
  O  O42  1  0.48478133  0.16932067  0.25808767  1
  O  O43  1  0.31546067  0.83067933  0.24191233  1
  O  O44  1  0.67415067  0.14413633  0.14433133  1
  O  O45  1  0.16932067  0.48478133  0.24191233  1
  O  O46  1  0.83598733  0.01787267  0.07524567  1
  O  O47  1  0.46998567  0.32584933  0.14433133  1
  O  O48  1  0.19668100  0.00748400  0.18900200  1
  O  O49  1  0.83067933  0.31546067  0.25808767  1
  O  O50  1  0.49734600  0.84855200  0.09142100  1
  O  O51  1  0.99251600  0.18919700  0.18900200  1
  O  O52  1  0.35120600  0.50265400  0.09142100  1
  O  O53  1  0.18188533  0.16401267  0.07524567  1
  O  O54  1  0.15144800  0.64879400  0.09142100  1
  O  O55  1  0.85586367  0.53001433  0.14433133  1
  O  O56  1  0.52253033  0.65918267  0.97766467  1
  O  O57  1  0.98212733  0.81811467  0.07524567  1
  O  O58  1  0.34081733  0.86334767  0.97766467  1
  O  O59  1  0.13665233  0.47746967  0.97766467  1
  O  O60  1  0.19668100  0.18919700  0.68900200  1
  O  O61  1  0.99251600  0.80331900  0.68900200  1
  O  O62  1  0.35120600  0.84855200  0.59142100  1
  O  O63  1  0.81080300  0.00748400  0.68900200  1
  O  O64  1  0.47746967  0.13665233  0.52233533  1
  O  O65  1  0.18188533  0.01787267  0.57524567  1
  O  O66  1  0.15144800  0.50265400  0.59142100  1
  O  O67  1  0.98212733  0.16401267  0.57524567  1
  O  O68  1  0.34081733  0.47746967  0.47766467  1
  O  O69  1  0.83598733  0.81811467  0.57524567  1
  O  O70  1  0.50265400  0.35120600  0.40857900  1
  O  O71  1  0.13665233  0.65918267  0.47766467  1
  O  O72  1  0.86334767  0.34081733  0.52233533  1
  O  O73  1  0.49734600  0.64879400  0.59142100  1
  O  O74  1  0.16401267  0.18188533  0.42475433  1
  O  O75  1  0.65918267  0.52253033  0.52233533  1
  O  O76  1  0.01787267  0.83598733  0.42475433  1
  O  O77  1  0.84855200  0.49734600  0.40857900  1
  O  O78  1  0.81811467  0.98212733  0.42475433  1
  O  O79  1  0.52253033  0.86334767  0.47766467  1
  O  O80  1  0.18919700  0.99251600  0.31099800  1
  O  O81  1  0.64879400  0.15144800  0.40857900  1
  O  O82  1  0.00748400  0.19668100  0.31099800  1
  O  O83  1  0.80331900  0.81080300  0.31099800  1
  O  O84  1  0.86334767  0.52253033  0.02233533  1
  O  O85  1  0.65918267  0.13665233  0.02233533  1
  O  O86  1  0.01787267  0.18188533  0.92475433  1
  O  O87  1  0.47746967  0.34081733  0.02233533  1
  O  O88  1  0.14413633  0.46998567  0.85566867  1
  O  O89  1  0.84855200  0.35120600  0.90857900  1
  O  O90  1  0.81811467  0.83598733  0.92475433  1
  O  O91  1  0.64879400  0.49734600  0.90857900  1
  O  O92  1  0.00748400  0.81080300  0.81099800  1
  O  O93  1  0.50265400  0.15144800  0.90857900  1
  O  O94  1  0.16932067  0.68453933  0.74191233  1
  O  O95  1  0.80331900  0.99251600  0.81099800  1
  O  O96  1  0.53001433  0.67415067  0.85566867  1
  O  O97  1  0.16401267  0.98212733  0.92475433  1
  O  O98  1  0.83067933  0.51521867  0.75808767  1
  O  O99  1  0.32584933  0.85586367  0.85566867  1
  O  O100  1  0.68453933  0.16932067  0.75808767  1
  O  O101  1  0.51521867  0.83067933  0.74191233  1
  O  O102  1  0.48478133  0.31546067  0.75808767  1
  O  O103  1  0.18919700  0.19668100  0.81099800  1
  O  O104  1  0.85586367  0.32584933  0.64433133  1
  O  O105  1  0.31546067  0.48478133  0.74191233  1
  O  O106  1  0.67415067  0.53001433  0.64433133  1
  O  O107  1  0.46998567  0.14413633  0.64433133  1
