# generated using pymatgen
data_Li2FeF4
_symmetry_space_group_name_H-M   'P 1'
_cell_length_a   2.90285800
_cell_length_b   9.65779800
_cell_length_c   9.87208700
_cell_angle_alpha   90.00000000
_cell_angle_beta   90.00000000
_cell_angle_gamma   90.00000000
_symmetry_Int_Tables_number   1
_chemical_formula_structural   Li2FeF4
_chemical_formula_sum   'Li8 Fe4 F16'
_cell_volume   276.76609326
_cell_formula_units_Z   4
loop_
 _symmetry_equiv_pos_site_id
 _symmetry_equiv_pos_as_xyz
  1  'x, y, z'
loop_
 _atom_site_type_symbol
 _atom_site_label
 _atom_site_symmetry_multiplicity
 _atom_site_fract_x
 _atom_site_fract_y
 _atom_site_fract_z
 _atom_site_occupancy
  Li  Li0  1  0.00000000  0.37475800  0.56393800  1
  Li  Li1  1  0.00000000  0.37475800  0.93606200  1
  Li  Li2  1  0.50000000  0.12524200  0.06393800  1
  Li  Li3  1  0.50000000  0.12524200  0.43606200  1
  Li  Li4  1  0.50000000  0.87475800  0.56393800  1
  Li  Li5  1  0.50000000  0.87475800  0.93606200  1
  Li  Li6  1  0.00000000  0.62524200  0.06393800  1
  Li  Li7  1  0.00000000  0.62524200  0.43606200  1
  Fe  Fe8  1  0.00000000  0.12059500  0.75000000  1
  Fe  Fe9  1  0.50000000  0.37940500  0.25000000  1
  Fe  Fe10  1  0.50000000  0.62059500  0.75000000  1
  Fe  Fe11  1  0.00000000  0.87940500  0.25000000  1
  F  F12  1  0.00000000  0.00000000  0.50000000  1
  F  F13  1  0.00000000  0.00000000  0.00000000  1
  F  F14  1  0.00000000  0.46372300  0.75000000  1
  F  F15  1  0.00000000  0.27885200  0.11832400  1
  F  F16  1  0.00000000  0.27885200  0.38167600  1
  F  F17  1  0.50000000  0.03627700  0.25000000  1
  F  F18  1  0.50000000  0.22114800  0.61832400  1
  F  F19  1  0.50000000  0.22114800  0.88167600  1
  F  F20  1  0.50000000  0.50000000  0.50000000  1
  F  F21  1  0.50000000  0.50000000  0.00000000  1
  F  F22  1  0.50000000  0.96372300  0.75000000  1
  F  F23  1  0.50000000  0.77885200  0.11832400  1
  F  F24  1  0.50000000  0.77885200  0.38167600  1
  F  F25  1  0.00000000  0.53627700  0.25000000  1
  F  F26  1  0.00000000  0.72114800  0.61832400  1
  F  F27  1  0.00000000  0.72114800  0.88167600  1
