# generated using pymatgen
data_LiCu3(CO3)3
_symmetry_space_group_name_H-M   'P 1'
_cell_length_a   8.12560200
_cell_length_b   6.51842600
_cell_length_c   8.13307991
_cell_angle_alpha   90.00000000
_cell_angle_beta   119.68359486
_cell_angle_gamma   90.00000000
_symmetry_Int_Tables_number   1
_chemical_formula_structural   LiCu3(CO3)3
_chemical_formula_sum   'Li2 Cu6 C6 O18'
_cell_volume   374.24827800
_cell_formula_units_Z   2
loop_
 _symmetry_equiv_pos_site_id
 _symmetry_equiv_pos_as_xyz
  1  'x, y, z'
loop_
 _atom_site_type_symbol
 _atom_site_label
 _atom_site_symmetry_multiplicity
 _atom_site_fract_x
 _atom_site_fract_y
 _atom_site_fract_z
 _atom_site_occupancy
  Li  Li0  1  0.97469900  0.00000000  0.29735600  1
  Li  Li1  1  0.70435400  0.50000000  0.67944600  1
  Cu  Cu2  1  0.02160500  0.74548700  0.65536900  1
  Cu  Cu3  1  0.02160500  0.25451300  0.65536900  1
  Cu  Cu4  1  0.34672700  0.24427000  0.35732700  1
  Cu  Cu5  1  0.34672700  0.75573000  0.35732700  1
  Cu  Cu6  1  0.62558700  0.74686400  0.99069200  1
  Cu  Cu7  1  0.62558700  0.25313600  0.99069200  1
  C  C8  1  0.32950100  0.00000000  0.66027500  1
  C  C9  1  0.34217600  0.50000000  0.66663000  1
  C  C10  1  0.99315200  0.74968200  0.99889600  1
  C  C11  1  0.99315200  0.25031800  0.99889600  1
  C  C12  1  0.67109100  0.74966400  0.33687700  1
  C  C13  1  0.67109100  0.25033600  0.33687700  1
  O  O14  1  0.07499300  0.22063900  0.17996100  1
  O  O15  1  0.07499300  0.77936100  0.17996100  1
  O  O16  1  0.14286000  0.00000000  0.58648000  1
  O  O17  1  0.16105300  0.50000000  0.59705200  1
  O  O18  1  0.39653700  0.00000000  0.54446400  1
  O  O19  1  0.41670500  0.50000000  0.55527500  1
  O  O20  1  0.09334400  0.25735400  0.91714200  1
  O  O21  1  0.09334400  0.74264600  0.91714200  1
  O  O22  1  0.43888800  0.00000000  0.84045700  1
  O  O23  1  0.45568300  0.50000000  0.84916900  1
  O  O24  1  0.81055900  0.72640600  0.90119200  1
  O  O25  1  0.81055900  0.27359400  0.90119200  1
  O  O26  1  0.49202000  0.74372000  0.22497600  1
  O  O27  1  0.49202000  0.25628000  0.22497600  1
  O  O28  1  0.78265500  0.77588300  0.26681700  1
  O  O29  1  0.78265500  0.22411700  0.26681700  1
  O  O30  1  0.74330800  0.72879600  0.51836100  1
  O  O31  1  0.74330800  0.27120400  0.51836100  1
