# generated using pymatgen
data_Li5V(SiO4)2
_symmetry_space_group_name_H-M   'P 1'
_cell_length_a   7.37511400
_cell_length_b   7.56011400
_cell_length_c   6.31615539
_cell_angle_alpha   90.00000000
_cell_angle_beta   90.59484345
_cell_angle_gamma   90.00000000
_symmetry_Int_Tables_number   1
_chemical_formula_structural   Li5V(SiO4)2
_chemical_formula_sum   'Li10 V2 Si4 O16'
_cell_volume   352.14901865
_cell_formula_units_Z   2
loop_
 _symmetry_equiv_pos_site_id
 _symmetry_equiv_pos_as_xyz
  1  'x, y, z'
loop_
 _atom_site_type_symbol
 _atom_site_label
 _atom_site_symmetry_multiplicity
 _atom_site_fract_x
 _atom_site_fract_y
 _atom_site_fract_z
 _atom_site_occupancy
  Li  Li0  1  0.18299950  0.01209450  0.26367100  1
  Li  Li1  1  0.50000000  0.80244300  0.00000000  1
  Li  Li2  1  0.50000000  0.17219200  0.50000000  1
  Li  Li3  1  0.50000000  0.81864300  0.50000000  1
  Li  Li4  1  0.81700050  0.01209450  0.73632900  1
  Li  Li5  1  0.68299950  0.51209450  0.26367100  1
  Li  Li6  1  0.00000000  0.30244300  0.00000000  1
  Li  Li7  1  0.00000000  0.67219200  0.50000000  1
  Li  Li8  1  0.00000000  0.31864300  0.50000000  1
  Li  Li9  1  0.31700050  0.51209450  0.73632900  1
  V  V10  1  0.50000000  0.17779700  0.00000000  1
  V  V11  1  0.00000000  0.67779700  0.00000000  1
  Si  Si12  1  0.17571950  0.00649050  0.74370700  1
  Si  Si13  1  0.82428050  0.00649050  0.25629300  1
  Si  Si14  1  0.67571950  0.50649050  0.74370700  1
  Si  Si15  1  0.32428050  0.50649050  0.25629300  1
  O  O16  1  0.30336400  0.99949600  0.53708400  1
  O  O17  1  0.30556000  0.00436700  0.96629400  1
  O  O18  1  0.45690800  0.32306800  0.24237200  1
  O  O19  1  0.46739200  0.66894700  0.25002600  1
  O  O20  1  0.54309200  0.32306800  0.75762800  1
  O  O21  1  0.53260800  0.66894700  0.74997400  1
  O  O22  1  0.69444000  0.00436700  0.03370600  1
  O  O23  1  0.69663600  0.99949600  0.46291600  1
  O  O24  1  0.80336400  0.49949600  0.53708400  1
  O  O25  1  0.80556000  0.50436700  0.96629400  1
  O  O26  1  0.95690800  0.82306800  0.24237200  1
  O  O27  1  0.96739200  0.16894700  0.25002600  1
  O  O28  1  0.04309200  0.82306800  0.75762800  1
  O  O29  1  0.03260800  0.16894700  0.74997400  1
  O  O30  1  0.19444000  0.50436700  0.03370600  1
  O  O31  1  0.19663600  0.49949600  0.46291600  1
