# generated using pymatgen
data_Na3MnSiCO7
_symmetry_space_group_name_H-M   'P 1'
_cell_length_a   5.30802050
_cell_length_b   6.50423600
_cell_length_c   9.13468997
_cell_angle_alpha   90.00000000
_cell_angle_beta   91.06435400
_cell_angle_gamma   90.00000000
_symmetry_Int_Tables_number   1
_chemical_formula_structural   Na3MnSiCO7
_chemical_formula_sum   'Na6 Mn2 Si2 C2 O14'
_cell_volume   315.31726838
_cell_formula_units_Z   2
loop_
 _symmetry_equiv_pos_site_id
 _symmetry_equiv_pos_as_xyz
  1  'x, y, z'
loop_
 _atom_site_type_symbol
 _atom_site_label
 _atom_site_symmetry_multiplicity
 _atom_site_fract_x
 _atom_site_fract_y
 _atom_site_fract_z
 _atom_site_occupancy
  Na  Na0  1  0.71601375  0.75000000  0.59198625  1
  Na  Na1  1  0.28398625  0.25000000  0.40801375  1
  Na  Na2  1  0.23868475  0.99342500  0.76633325  1
  Na  Na3  1  0.23868475  0.50657500  0.76633325  1
  Na  Na4  1  0.76131525  0.49342500  0.23366675  1
  Na  Na5  1  0.76131525  0.00657500  0.23366675  1
  Mn  Mn6  1  0.71812475  0.25000000  0.85265925  1
  Mn  Mn7  1  0.28187525  0.75000000  0.14734075  1
  Si  Si8  1  0.80707725  0.75000000  0.92736175  1
  Si  Si9  1  0.19292275  0.25000000  0.07263825  1
  C  C10  1  0.78476525  0.25000000  0.55401375  1
  C  C11  1  0.21523475  0.75000000  0.44598625  1
  O  O12  1  0.25592775  0.75000000  0.58578325  1
  O  O13  1  0.74407225  0.25000000  0.41421675  1
  O  O14  1  0.58688425  0.25000000  0.63964475  1
  O  O15  1  0.41311575  0.75000000  0.36035525  1
  O  O16  1  0.00813075  0.25000000  0.61127725  1
  O  O17  1  0.99186925  0.75000000  0.38872275  1
  O  O18  1  0.11795775  0.75000000  0.95866825  1
  O  O19  1  0.88204225  0.25000000  0.04133175  1
  O  O20  1  0.34269975  0.25000000  0.92018625  1
  O  O21  1  0.65730025  0.75000000  0.07981375  1
  O  O22  1  0.74486525  0.95037200  0.81982475  1
  O  O23  1  0.74486525  0.54962800  0.81982475  1
  O  O24  1  0.25513475  0.45037200  0.18017525  1
  O  O25  1  0.25513475  0.04962800  0.18017525  1
