# generated using pymatgen
data_LiVBO4
_symmetry_space_group_name_H-M   'P 1'
_cell_length_a   8.17705611
_cell_length_b   4.85220000
_cell_length_c   8.32344726
_cell_angle_alpha   90.00000000
_cell_angle_beta   106.19372838
_cell_angle_gamma   90.00000000
_symmetry_Int_Tables_number   1
_chemical_formula_structural   LiVBO4
_chemical_formula_sum   'Li4 V4 B4 O16'
_cell_volume   317.14420837
_cell_formula_units_Z   4
loop_
 _symmetry_equiv_pos_site_id
 _symmetry_equiv_pos_as_xyz
  1  'x, y, z'
loop_
 _atom_site_type_symbol
 _atom_site_label
 _atom_site_symmetry_multiplicity
 _atom_site_fract_x
 _atom_site_fract_y
 _atom_site_fract_z
 _atom_site_occupancy
  Li  Li0  1  0.12488900  0.32775250  0.98927000  1
  Li  Li1  1  0.23399300  0.81112950  0.49243800  1
  Li  Li2  1  0.62488900  0.67224750  0.98927000  1
  Li  Li3  1  0.73399300  0.18887050  0.49243800  1
  V  V4  1  0.97577500  0.17998250  0.24256400  1
  V  V5  1  0.36458700  0.31528850  0.74200200  1
  V  V6  1  0.47577500  0.82001750  0.24256400  1
  V  V7  1  0.86458700  0.68471150  0.74200200  1
  B  B8  1  0.24660700  0.80961850  0.86804200  1
  B  B9  1  0.34493600  0.30544050  0.36537900  1
  B  B10  1  0.74660700  0.19038150  0.86804200  1
  B  B11  1  0.84493600  0.69455950  0.36537900  1
  O  O12  1  0.08107000  0.69648550  0.87688300  1
  O  O13  1  0.99590500  0.84351850  0.34594300  1
  O  O14  1  0.23555500  0.11049350  0.84691100  1
  O  O15  1  0.29988300  0.68082350  0.72741800  1
  O  O16  1  0.19517400  0.22292650  0.22665900  1
  O  O17  1  0.30543200  0.21721350  0.52317100  1
  O  O18  1  0.58107000  0.30351450  0.87688300  1
  O  O19  1  0.37260200  0.60535350  0.36699000  1
  O  O20  1  0.37746200  0.73066550  0.02498500  1
  O  O21  1  0.49590500  0.15648150  0.34594300  1
  O  O22  1  0.73555500  0.88950650  0.84691100  1
  O  O23  1  0.79988300  0.31917650  0.72741800  1
  O  O24  1  0.69517400  0.77707350  0.22665900  1
  O  O25  1  0.80543200  0.78278650  0.52317100  1
  O  O26  1  0.87260200  0.39464650  0.36699000  1
  O  O27  1  0.87746200  0.26933450  0.02498500  1
