# generated using pymatgen
data_Li8SbS6
_symmetry_space_group_name_H-M   'P 1'
_cell_length_a   6.86862185
_cell_length_b   6.86862185
_cell_length_c   18.95453731
_cell_angle_alpha   90.00000000
_cell_angle_beta   90.00000000
_cell_angle_gamma   120.00000000
_symmetry_Int_Tables_number   1
_chemical_formula_structural   Li8SbS6
_chemical_formula_sum   'Li24 Sb3 S18'
_cell_volume   774.43154359
_cell_formula_units_Z   3
loop_
 _symmetry_equiv_pos_site_id
 _symmetry_equiv_pos_as_xyz
  1  'x, y, z'
loop_
 _atom_site_type_symbol
 _atom_site_label
 _atom_site_symmetry_multiplicity
 _atom_site_fract_x
 _atom_site_fract_y
 _atom_site_fract_z
 _atom_site_occupancy
  Li  Li0  1  0.66043467  0.64195233  0.12095033  1
  Li  Li1  1  0.68514900  0.99376800  0.21238300  1
  Li  Li2  1  0.30861900  0.31485100  0.21238300  1
  Li  Li3  1  0.33333333  0.66666667  0.01093367  1
  Li  Li4  1  0.33333333  0.66666667  0.32239967  1
  Li  Li5  1  0.35804767  0.01848233  0.12095033  1
  Li  Li6  1  0.98151767  0.33956533  0.12095033  1
  Li  Li7  1  0.00623200  0.69138100  0.21238300  1
  Li  Li8  1  0.32710133  0.97528567  0.45428367  1
  Li  Li9  1  0.35181567  0.32710133  0.54571633  1
  Li  Li10  1  0.97528567  0.64818433  0.54571633  1
  Li  Li11  1  0.00000000  0.00000000  0.34426700  1
  Li  Li12  1  0.00000000  0.00000000  0.65573300  1
  Li  Li13  1  0.02471433  0.35181567  0.45428367  1
  Li  Li14  1  0.64818433  0.67289867  0.45428367  1
  Li  Li15  1  0.67289867  0.02471433  0.54571633  1
  Li  Li16  1  0.99376800  0.30861900  0.78761700  1
  Li  Li17  1  0.01848233  0.66043467  0.87904967  1
  Li  Li18  1  0.64195233  0.98151767  0.87904967  1
  Li  Li19  1  0.66666667  0.33333333  0.67760033  1
  Li  Li20  1  0.66666667  0.33333333  0.98906633  1
  Li  Li21  1  0.69138100  0.68514900  0.78761700  1
  Li  Li22  1  0.31485100  0.00623200  0.78761700  1
  Li  Li23  1  0.33956533  0.35804767  0.87904967  1
  Sb  Sb24  1  0.00000000  0.00000000  0.00000000  1
  Sb  Sb25  1  0.66666667  0.33333333  0.33333333  1
  Sb  Sb26  1  0.33333333  0.66666667  0.66666667  1
  S  S27  1  0.65206700  0.64337200  0.25262500  1
  S  S28  1  0.67536167  0.98540033  0.08070833  1
  S  S29  1  0.31003867  0.32463833  0.08070833  1
  S  S30  1  0.35662800  0.00869500  0.25262500  1
  S  S31  1  0.99130500  0.34793300  0.25262500  1
  S  S32  1  0.01459967  0.68996133  0.08070833  1
  S  S33  1  0.31873367  0.97670533  0.58595833  1
  S  S34  1  0.34202833  0.31873367  0.41404167  1
  S  S35  1  0.97670533  0.65797167  0.41404167  1
  S  S36  1  0.02329467  0.34202833  0.58595833  1
  S  S37  1  0.65797167  0.68126633  0.58595833  1
  S  S38  1  0.68126633  0.02329467  0.41404167  1
  S  S39  1  0.98540033  0.31003867  0.91929167  1
  S  S40  1  0.00869500  0.65206700  0.74737500  1
  S  S41  1  0.64337200  0.99130500  0.74737500  1
  S  S42  1  0.68996133  0.67536167  0.91929167  1
  S  S43  1  0.32463833  0.01459967  0.91929167  1
  S  S44  1  0.34793300  0.35662800  0.74737500  1
