# generated using pymatgen
data_V2OF5
_symmetry_space_group_name_H-M   'P 1'
_cell_length_a   9.47946200
_cell_length_b   5.25784800
_cell_length_c   17.69602175
_cell_angle_alpha   90.00000000
_cell_angle_beta   102.53176926
_cell_angle_gamma   90.00000000
_symmetry_Int_Tables_number   1
_chemical_formula_structural   V2OF5
_chemical_formula_sum   'V16 O8 F40'
_cell_volume   860.98466770
_cell_formula_units_Z   8
loop_
 _symmetry_equiv_pos_site_id
 _symmetry_equiv_pos_as_xyz
  1  'x, y, z'
loop_
 _atom_site_type_symbol
 _atom_site_label
 _atom_site_symmetry_multiplicity
 _atom_site_fract_x
 _atom_site_fract_y
 _atom_site_fract_z
 _atom_site_occupancy
  V  V0  1  0.18873500  0.57271500  0.06463700  1
  V  V1  1  0.69026900  0.55820000  0.56416700  1
  V  V2  1  0.81126500  0.57271500  0.93536300  1
  V  V3  1  0.30973100  0.55820000  0.43583300  1
  V  V4  1  0.42462850  0.53850050  0.81383300  1
  V  V5  1  0.45549200  0.04618500  0.31627300  1
  V  V6  1  0.57537150  0.53850050  0.18616700  1
  V  V7  1  0.54450800  0.04618500  0.68372700  1
  V  V8  1  0.68873500  0.07271500  0.06463700  1
  V  V9  1  0.19026900  0.05820000  0.56416700  1
  V  V10  1  0.31126500  0.07271500  0.93536300  1
  V  V11  1  0.80973100  0.05820000  0.43583300  1
  V  V12  1  0.92462850  0.03850050  0.81383300  1
  V  V13  1  0.95549200  0.54618500  0.31627300  1
  V  V14  1  0.07537150  0.03850050  0.18616700  1
  V  V15  1  0.04450800  0.54618500  0.68372700  1
  O  O16  1  0.38079800  0.97997700  0.62855200  1
  O  O17  1  0.14786550  0.78993250  0.14792000  1
  O  O18  1  0.85213450  0.78993250  0.85208000  1
  O  O19  1  0.61920200  0.97997700  0.37144800  1
  O  O20  1  0.88079800  0.47997700  0.62855200  1
  O  O21  1  0.64786550  0.28993250  0.14792000  1
  O  O22  1  0.35213450  0.28993250  0.85208000  1
  O  O23  1  0.11920200  0.47997700  0.37144800  1
  F  F24  1  0.09955300  0.27457700  0.10322000  1
  F  F25  1  0.37783250  0.47047750  0.12729900  1
  F  F26  1  0.00000000  0.66932300  0.00000000  1
  F  F27  1  0.90044700  0.27457700  0.89678000  1
  F  F28  1  0.60320800  0.25502600  0.60166900  1
  F  F29  1  0.39679200  0.25502600  0.39833100  1
  F  F30  1  0.27782150  0.86330650  0.02322100  1
  F  F31  1  0.27141500  0.36332400  0.52567900  1
  F  F32  1  0.47795000  0.36420700  0.72596200  1
  F  F33  1  0.62216750  0.47047750  0.87270100  1
  F  F34  1  0.50000000  0.65655000  0.50000000  1
  F  F35  1  0.64730250  0.75741950  0.65270600  1
  F  F36  1  0.35269750  0.75741950  0.34729400  1
  F  F37  1  0.48205750  0.85239950  0.22557600  1
  F  F38  1  0.51794250  0.85239950  0.77442400  1
  F  F39  1  0.72217850  0.86330650  0.97677900  1
  F  F40  1  0.72858500  0.36332400  0.47432100  1
  F  F41  1  0.25789300  0.15080600  0.25290800  1
  F  F42  1  0.74210700  0.15080600  0.74709200  1
  F  F43  1  0.52205000  0.36420700  0.27403800  1
  F  F44  1  0.59955300  0.77457700  0.10322000  1
  F  F45  1  0.87783250  0.97047750  0.12729900  1
  F  F46  1  0.50000000  0.16932300  0.00000000  1
  F  F47  1  0.40044700  0.77457700  0.89678000  1
  F  F48  1  0.10320800  0.75502600  0.60166900  1
  F  F49  1  0.89679200  0.75502600  0.39833100  1
  F  F50  1  0.77782150  0.36330650  0.02322100  1
  F  F51  1  0.77141500  0.86332400  0.52567900  1
  F  F52  1  0.97795000  0.86420700  0.72596200  1
  F  F53  1  0.12216750  0.97047750  0.87270100  1
  F  F54  1  0.00000000  0.15655000  0.50000000  1
  F  F55  1  0.14730250  0.25741950  0.65270600  1
  F  F56  1  0.85269750  0.25741950  0.34729400  1
  F  F57  1  0.98205750  0.35239950  0.22557600  1
  F  F58  1  0.01794250  0.35239950  0.77442400  1
  F  F59  1  0.22217850  0.36330650  0.97677900  1
  F  F60  1  0.22858500  0.86332400  0.47432100  1
  F  F61  1  0.75789300  0.65080600  0.25290800  1
  F  F62  1  0.24210700  0.65080600  0.74709200  1
  F  F63  1  0.02205000  0.86420700  0.27403800  1
