# generated using pymatgen
data_Li4CoO4
_symmetry_space_group_name_H-M   'P 1'
_cell_length_a   9.14289300
_cell_length_b   9.35027300
_cell_length_c   9.19730447
_cell_angle_alpha   90.00000000
_cell_angle_beta   91.22541751
_cell_angle_gamma   90.00000000
_symmetry_Int_Tables_number   1
_chemical_formula_structural   Li4CoO4
_chemical_formula_sum   'Li32 Co8 O32'
_cell_volume   786.08435962
_cell_formula_units_Z   8
loop_
 _symmetry_equiv_pos_site_id
 _symmetry_equiv_pos_as_xyz
  1  'x, y, z'
loop_
 _atom_site_type_symbol
 _atom_site_label
 _atom_site_symmetry_multiplicity
 _atom_site_fract_x
 _atom_site_fract_y
 _atom_site_fract_z
 _atom_site_occupancy
  Li  Li0  1  0.12865800  0.61681800  0.11187700  1
  Li  Li1  1  0.62865800  0.38318200  0.11187700  1
  Li  Li2  1  0.40300800  0.13101400  0.15573500  1
  Li  Li3  1  0.90300800  0.86898600  0.15573500  1
  Li  Li4  1  0.91607700  0.37945100  0.31904600  1
  Li  Li5  1  0.41607700  0.62054900  0.31904600  1
  Li  Li6  1  0.34742700  0.89122600  0.35838400  1
  Li  Li7  1  0.84742700  0.10877400  0.35838400  1
  Li  Li8  1  0.82416700  0.64955600  0.35599800  1
  Li  Li9  1  0.32416700  0.35044400  0.35599800  1
  Li  Li10  1  0.12948200  0.12010800  0.39934500  1
  Li  Li11  1  0.62948200  0.87989200  0.39934500  1
  Li  Li12  1  0.36394000  0.63020800  0.60051200  1
  Li  Li13  1  0.86394000  0.36979200  0.60051200  1
  Li  Li14  1  0.65685300  0.13311200  0.60607000  1
  Li  Li15  1  0.15685300  0.86688800  0.60607000  1
  Li  Li16  1  0.63016200  0.60192600  0.61643500  1
  Li  Li17  1  0.13016200  0.39807400  0.61643500  1
  Li  Li18  1  0.89729100  0.63303600  0.63950300  1
  Li  Li19  1  0.39729100  0.36696400  0.63950300  1
  Li  Li20  1  0.10208500  0.13483000  0.67072200  1
  Li  Li21  1  0.60208500  0.86517000  0.67072200  1
  Li  Li22  1  0.10787600  0.63198300  0.83046300  1
  Li  Li23  1  0.60787600  0.36801700  0.83046300  1
  Li  Li24  1  0.40102100  0.86708200  0.87974300  1
  Li  Li25  1  0.90102100  0.13291800  0.87974300  1
  Li  Li26  1  0.63747700  0.10382500  0.88880400  1
  Li  Li27  1  0.13747700  0.89617500  0.88880400  1
  Li  Li28  1  0.66246800  0.63579000  0.90538200  1
  Li  Li29  1  0.16246800  0.36421000  0.90538200  1
  Li  Li30  1  0.36559500  0.12984100  0.89189800  1
  Li  Li31  1  0.86559500  0.87015900  0.89189800  1
  Co  Co32  1  0.11314400  0.11105000  0.12735300  1
  Co  Co33  1  0.61314400  0.88895000  0.12735300  1
  Co  Co34  1  0.11790900  0.62536900  0.38609700  1
  Co  Co35  1  0.61790900  0.37463100  0.38609700  1
  Co  Co36  1  0.37838700  0.09879000  0.62045400  1
  Co  Co37  1  0.87838700  0.90121000  0.62045400  1
  Co  Co38  1  0.38343600  0.59778900  0.87550800  1
  Co  Co39  1  0.88343600  0.40221100  0.87550800  1
  O  O40  1  0.50157800  0.00570100  0.00697200  1
  O  O41  1  0.00157800  0.99429900  0.00697200  1
  O  O42  1  0.23367800  0.21154800  0.01671600  1
  O  O43  1  0.73367800  0.78845200  0.01671600  1
  O  O44  1  0.00118800  0.20497200  0.25237800  1
  O  O45  1  0.50118800  0.79502800  0.25237800  1
  O  O46  1  0.24168500  0.03195200  0.25227300  1
  O  O47  1  0.74168500  0.96804800  0.25227300  1
  O  O48  1  0.23175000  0.51815000  0.27516200  1
  O  O49  1  0.73175000  0.48185000  0.27516200  1
  O  O50  1  0.00062400  0.71533800  0.26034900  1
  O  O51  1  0.50062400  0.28466200  0.26034900  1
  O  O52  1  0.24931500  0.74286600  0.47644400  1
  O  O53  1  0.74931500  0.25713400  0.47644400  1
  O  O54  1  0.49534100  0.48762800  0.49841100  1
  O  O55  1  0.99534100  0.51237200  0.49841100  1
  O  O56  1  0.49994300  0.98796300  0.52489000  1
  O  O57  1  0.99994300  0.01203700  0.52489000  1
  O  O58  1  0.25448900  0.23338400  0.53815000  1
  O  O59  1  0.75448900  0.76661600  0.53815000  1
  O  O60  1  0.50015000  0.20915100  0.73945500  1
  O  O61  1  0.00015000  0.79084900  0.73945500  1
  O  O62  1  0.26421400  0.99882300  0.74716500  1
  O  O63  1  0.76421400  0.00117700  0.74716500  1
  O  O64  1  0.26626900  0.49500800  0.74951900  1
  O  O65  1  0.76626900  0.50499200  0.74951900  1
  O  O66  1  0.49774900  0.71083800  0.75835200  1
  O  O67  1  0.99774900  0.28916200  0.75835200  1
  O  O68  1  0.25828600  0.72156100  0.95530300  1
  O  O69  1  0.75828600  0.27843900  0.95530300  1
  O  O70  1  0.51433400  0.49397000  0.96948100  1
  O  O71  1  0.01433400  0.50603000  0.96948100  1
