# generated using pymatgen
data_NaMnP2H10NO10
_symmetry_space_group_name_H-M   'P 1'
_cell_length_a   10.17996800
_cell_length_b   16.42407600
_cell_length_c   5.62877475
_cell_angle_alpha   90.00000000
_cell_angle_beta   104.06465431
_cell_angle_gamma   90.00000000
_symmetry_Int_Tables_number   1
_chemical_formula_structural   NaMnP2H10NO10
_chemical_formula_sum   'Na4 Mn4 P8 H40 N4 O40'
_cell_volume   912.89928095
_cell_formula_units_Z   4
loop_
 _symmetry_equiv_pos_site_id
 _symmetry_equiv_pos_as_xyz
  1  'x, y, z'
loop_
 _atom_site_type_symbol
 _atom_site_label
 _atom_site_symmetry_multiplicity
 _atom_site_fract_x
 _atom_site_fract_y
 _atom_site_fract_z
 _atom_site_occupancy
  Na  Na0  1  0.84026550  0.93894450  0.65144400  1
  Na  Na1  1  0.84026550  0.06105550  0.15144400  1
  Na  Na2  1  0.34026550  0.43894450  0.65144400  1
  Na  Na3  1  0.34026550  0.56105550  0.15144400  1
  Mn  Mn4  1  0.30465650  0.24493350  0.88009600  1
  Mn  Mn5  1  0.30465650  0.75506650  0.38009600  1
  Mn  Mn6  1  0.80465650  0.74493350  0.88009600  1
  Mn  Mn7  1  0.80465650  0.25506650  0.38009600  1
  P  P8  1  0.49341900  0.78687900  0.96000900  1
  P  P9  1  0.51311050  0.62624050  0.75031500  1
  P  P10  1  0.49341900  0.21312100  0.46000900  1
  P  P11  1  0.51311050  0.37375950  0.25031500  1
  P  P12  1  0.99341900  0.28687900  0.96000900  1
  P  P13  1  0.01311050  0.12624050  0.75031500  1
  P  P14  1  0.99341900  0.71312100  0.46000900  1
  P  P15  1  0.01311050  0.87375950  0.25031500  1
  H  H16  1  0.11473450  0.96169050  0.79751800  1
  H  H17  1  0.11473450  0.03830950  0.29751800  1
  H  H18  1  0.21316400  0.89267600  0.98427000  1
  H  H19  1  0.20631150  0.89262950  0.67830600  1
  H  H20  1  0.21316400  0.10732400  0.48427000  1
  H  H21  1  0.28599250  0.96920050  0.85456000  1
  H  H22  1  0.20631150  0.10737050  0.17830600  1
  H  H23  1  0.28599250  0.03079950  0.35456000  1
  H  H24  1  0.42964000  0.08648000  0.78115500  1
  H  H25  1  0.42964000  0.91352000  0.28115500  1
  H  H26  1  0.45255500  0.93700900  0.55183600  1
  H  H27  1  0.45255500  0.06299100  0.05183600  1
  H  H28  1  0.60067000  0.99018800  0.90754900  1
  H  H29  1  0.60017500  0.82534100  0.57001800  1
  H  H30  1  0.60067000  0.00981200  0.40754900  1
  H  H31  1  0.68524450  0.19271650  0.87484400  1
  H  H32  1  0.69430600  0.91436000  0.99549200  1
  H  H33  1  0.60017500  0.17465900  0.07001800  1
  H  H34  1  0.68524450  0.80728350  0.37484400  1
  H  H35  1  0.69430600  0.08564000  0.49549200  1
  H  H36  1  0.61473450  0.46169050  0.79751800  1
  H  H37  1  0.61473450  0.53830950  0.29751800  1
  H  H38  1  0.71316400  0.39267600  0.98427000  1
  H  H39  1  0.70631150  0.39262950  0.67830600  1
  H  H40  1  0.71316400  0.60732400  0.48427000  1
  H  H41  1  0.78599250  0.46920050  0.85456000  1
  H  H42  1  0.70631150  0.60737050  0.17830600  1
  H  H43  1  0.78599250  0.53079950  0.35456000  1
  H  H44  1  0.92964000  0.58648000  0.78115500  1
  H  H45  1  0.92964000  0.41352000  0.28115500  1
  H  H46  1  0.95255500  0.43700900  0.55183600  1
  H  H47  1  0.95255500  0.56299100  0.05183600  1
  H  H48  1  0.10067000  0.49018800  0.90754900  1
  H  H49  1  0.10017500  0.32534100  0.57001800  1
  H  H50  1  0.10067000  0.50981200  0.40754900  1
  H  H51  1  0.18524450  0.69271650  0.87484400  1
  H  H52  1  0.19430600  0.41436000  0.99549200  1
  H  H53  1  0.10017500  0.67465900  0.07001800  1
  H  H54  1  0.18524450  0.30728350  0.37484400  1
  H  H55  1  0.19430600  0.58564000  0.49549200  1
  N  N56  1  0.20483100  0.92852300  0.82836400  1
  N  N57  1  0.20483100  0.07147700  0.32836400  1
  N  N58  1  0.70483100  0.42852300  0.82836400  1
  N  N59  1  0.70483100  0.57147700  0.32836400  1
  O  O60  1  0.16676650  0.14102650  0.78708100  1
  O  O61  1  0.16676650  0.85897350  0.28708100  1
  O  O62  1  0.43061900  0.35066000  0.99325300  1
  O  O63  1  0.43873600  0.03746100  0.88948600  1
  O  O64  1  0.41546550  0.18236150  0.64351300  1
  O  O65  1  0.46458550  0.68927950  0.94350300  1
  O  O66  1  0.44037000  0.82171000  0.69981000  1
  O  O67  1  0.43061900  0.64934000  0.49325300  1
  O  O68  1  0.48312600  0.54313600  0.84138600  1
  O  O69  1  0.43873600  0.96253900  0.38948600  1
  O  O70  1  0.41546550  0.81763850  0.14351300  1
  O  O71  1  0.46458550  0.31072050  0.44350300  1
  O  O72  1  0.44037000  0.17829000  0.19981000  1
  O  O73  1  0.48312600  0.45686400  0.34138600  1
  O  O74  1  0.69135550  0.96732750  0.91401800  1
  O  O75  1  0.64791950  0.20137650  0.55619400  1
  O  O76  1  0.69381050  0.82120650  0.55086700  1
  O  O77  1  0.69135550  0.03267250  0.41401800  1
  O  O78  1  0.64791950  0.79862350  0.05619400  1
  O  O79  1  0.69381050  0.17879350  0.05086700  1
  O  O80  1  0.66676650  0.64102650  0.78708100  1
  O  O81  1  0.66676650  0.35897350  0.28708100  1
  O  O82  1  0.93061900  0.85066000  0.99325300  1
  O  O83  1  0.93873600  0.53746100  0.88948600  1
  O  O84  1  0.91546550  0.68236150  0.64351300  1
  O  O85  1  0.96458550  0.18927950  0.94350300  1
  O  O86  1  0.94037000  0.32171000  0.69981000  1
  O  O87  1  0.93061900  0.14934000  0.49325300  1
  O  O88  1  0.98312600  0.04313600  0.84138600  1
  O  O89  1  0.93873600  0.46253900  0.38948600  1
  O  O90  1  0.91546550  0.31763850  0.14351300  1
  O  O91  1  0.96458550  0.81072050  0.44350300  1
  O  O92  1  0.94037000  0.67829000  0.19981000  1
  O  O93  1  0.98312600  0.95686400  0.34138600  1
  O  O94  1  0.19135550  0.46732750  0.91401800  1
  O  O95  1  0.14791950  0.70137650  0.55619400  1
  O  O96  1  0.19381050  0.32120650  0.55086700  1
  O  O97  1  0.19135550  0.53267250  0.41401800  1
  O  O98  1  0.14791950  0.29862350  0.05619400  1
  O  O99  1  0.19381050  0.67879350  0.05086700  1
