# generated using pymatgen
data_NaCa3Fe4(SiO3)8
_symmetry_space_group_name_H-M   'P 1'
_cell_length_a   11.96892000
_cell_length_b   9.54926200
_cell_length_c   10.80381065
_cell_angle_alpha   90.00000000
_cell_angle_beta   120.84550048
_cell_angle_gamma   90.00000000
_symmetry_Int_Tables_number   1
_chemical_formula_structural   NaCa3Fe4(SiO3)8
_chemical_formula_sum   'Na2 Ca6 Fe8 Si16 O48'
_cell_volume   1060.15372905
_cell_formula_units_Z   2
loop_
 _symmetry_equiv_pos_site_id
 _symmetry_equiv_pos_as_xyz
  1  'x, y, z'
loop_
 _atom_site_type_symbol
 _atom_site_label
 _atom_site_symmetry_multiplicity
 _atom_site_fract_x
 _atom_site_fract_y
 _atom_site_fract_z
 _atom_site_occupancy
  Na  Na0  1  0.50000000  0.84182200  0.50000000  1
  Na  Na1  1  0.00000000  0.34182200  0.50000000  1
  Ca  Ca2  1  0.00000000  0.87311800  0.00000000  1
  Ca  Ca3  1  0.24728450  0.88400750  0.73870000  1
  Ca  Ca4  1  0.25271550  0.38400750  0.26130000  1
  Ca  Ca5  1  0.50000000  0.37311800  0.00000000  1
  Ca  Ca6  1  0.74728450  0.38400750  0.73870000  1
  Ca  Ca7  1  0.75271550  0.88400750  0.26130000  1
  Fe  Fe8  1  0.00000000  0.26111600  0.00000000  1
  Fe  Fe9  1  0.74441550  0.98187650  0.73659400  1
  Fe  Fe10  1  0.00000000  0.70033400  0.50000000  1
  Fe  Fe11  1  0.25558450  0.98187650  0.26340600  1
  Fe  Fe12  1  0.50000000  0.76111600  0.00000000  1
  Fe  Fe13  1  0.24441550  0.48187650  0.73659400  1
  Fe  Fe14  1  0.50000000  0.20033400  0.50000000  1
  Fe  Fe15  1  0.75558450  0.48187650  0.26340600  1
  Si  Si16  1  0.23442150  0.60867650  0.49139400  1
  Si  Si17  1  0.98145650  0.64568350  0.24826800  1
  Si  Si18  1  0.22887250  0.11266550  0.99976400  1
  Si  Si19  1  0.26557850  0.10867650  0.50860600  1
  Si  Si20  1  0.47999750  0.64257150  0.74344700  1
  Si  Si21  1  0.52000250  0.64257150  0.25655300  1
  Si  Si22  1  0.27112750  0.61266550  0.00023600  1
  Si  Si23  1  0.51854350  0.14568350  0.75173200  1
  Si  Si24  1  0.73442150  0.10867650  0.49139400  1
  Si  Si25  1  0.48145650  0.14568350  0.24826800  1
  Si  Si26  1  0.72887250  0.61266550  0.99976400  1
  Si  Si27  1  0.76557850  0.60867650  0.50860600  1
  Si  Si28  1  0.97999750  0.14257150  0.74344700  1
  Si  Si29  1  0.02000250  0.14257150  0.25655300  1
  Si  Si30  1  0.77112750  0.11266550  0.00023600  1
  Si  Si31  1  0.01854350  0.64568350  0.75173200  1
  O  O32  1  0.43439300  0.51699100  0.81005200  1
  O  O33  1  0.18151800  0.72885500  0.55746100  1
  O  O34  1  0.14275500  0.62238600  0.30749200  1
  O  O35  1  0.04807750  0.29389150  0.20854500  1
  O  O36  1  0.94407950  0.53279750  0.33628100  1
  O  O37  1  0.45192250  0.79389150  0.79145500  1
  O  O38  1  0.89295550  0.63511950  0.06801700  1
  O  O39  1  0.35724500  0.12238600  0.69250800  1
  O  O40  1  0.79389450  0.96108150  0.94698100  1
  O  O41  1  0.18673400  0.24028300  0.06639400  1
  O  O42  1  0.21047400  0.45605700  0.53681200  1
  O  O43  1  0.14422850  0.11910550  0.81636400  1
  O  O44  1  0.60440300  0.63557200  0.44001600  1
  O  O45  1  0.04457050  0.79418450  0.69316100  1
  O  O46  1  0.06560700  0.01699100  0.18994800  1
  O  O47  1  0.95542950  0.79418450  0.30683900  1
  O  O48  1  0.39559700  0.63557200  0.55998400  1
  O  O49  1  0.35577150  0.61910550  0.18363600  1
  O  O50  1  0.28952600  0.95605700  0.46318800  1
  O  O51  1  0.31326600  0.74028300  0.93360600  1
  O  O52  1  0.70610550  0.46108150  0.05301900  1
  O  O53  1  0.60704450  0.13511950  0.93198300  1
  O  O54  1  0.55592050  0.03279750  0.66371900  1
  O  O55  1  0.81848200  0.72885500  0.44253900  1
  O  O56  1  0.93439300  0.01699100  0.81005200  1
  O  O57  1  0.68151800  0.22885500  0.55746100  1
  O  O58  1  0.64275500  0.12238600  0.30749200  1
  O  O59  1  0.54807750  0.79389150  0.20854500  1
  O  O60  1  0.44407950  0.03279750  0.33628100  1
  O  O61  1  0.95192250  0.29389150  0.79145500  1
  O  O62  1  0.39295550  0.13511950  0.06801700  1
  O  O63  1  0.85724500  0.62238600  0.69250800  1
  O  O64  1  0.29389450  0.46108150  0.94698100  1
  O  O65  1  0.68673400  0.74028300  0.06639400  1
  O  O66  1  0.71047400  0.95605700  0.53681200  1
  O  O67  1  0.64422850  0.61910550  0.81636400  1
  O  O68  1  0.10440300  0.13557200  0.44001600  1
  O  O69  1  0.54457050  0.29418450  0.69316100  1
  O  O70  1  0.56560700  0.51699100  0.18994800  1
  O  O71  1  0.45542950  0.29418450  0.30683900  1
  O  O72  1  0.89559700  0.13557200  0.55998400  1
  O  O73  1  0.85577150  0.11910550  0.18363600  1
  O  O74  1  0.78952600  0.45605700  0.46318800  1
  O  O75  1  0.81326600  0.24028300  0.93360600  1
  O  O76  1  0.20610550  0.96108150  0.05301900  1
  O  O77  1  0.10704450  0.63511950  0.93198300  1
  O  O78  1  0.05592050  0.53279750  0.66371900  1
  O  O79  1  0.31848200  0.22885500  0.44253900  1
