# generated using pymatgen
data_LiMnPO4
_symmetry_space_group_name_H-M   'P 1'
_cell_length_a   4.99642900
_cell_length_b   6.46249104
_cell_length_c   9.45310006
_cell_angle_alpha   90.00000000
_cell_angle_beta   90.00000000
_cell_angle_gamma   90.00000000
_symmetry_Int_Tables_number   1
_chemical_formula_structural   LiMnPO4
_chemical_formula_sum   'Li4 Mn4 P4 O16'
_cell_volume   305.23471794
_cell_formula_units_Z   4
loop_
 _symmetry_equiv_pos_site_id
 _symmetry_equiv_pos_as_xyz
  1  'x, y, z'
loop_
 _atom_site_type_symbol
 _atom_site_label
 _atom_site_symmetry_multiplicity
 _atom_site_fract_x
 _atom_site_fract_y
 _atom_site_fract_z
 _atom_site_occupancy
  Li  Li0  1  0.52326950  0.25000000  0.82977650  1
  Li  Li1  1  0.97673050  0.25000000  0.32977650  1
  Li  Li2  1  0.47673050  0.75000000  0.17022350  1
  Li  Li3  1  0.02326950  0.75000000  0.67022350  1
  Mn  Mn4  1  0.50000000  0.50000000  0.50000000  1
  Mn  Mn5  1  0.00000000  0.50000000  0.00000000  1
  Mn  Mn6  1  0.50000000  0.00000000  0.50000000  1
  Mn  Mn7  1  0.00000000  0.00000000  0.00000000  1
  P  P8  1  0.47955150  0.25000000  0.17930150  1
  P  P9  1  0.02044850  0.25000000  0.67930150  1
  P  P10  1  0.52044850  0.75000000  0.82069850  1
  P  P11  1  0.97955150  0.75000000  0.32069850  1
  O  O12  1  0.42699650  0.25000000  0.34464950  1
  O  O13  1  0.07300350  0.25000000  0.84464950  1
  O  O14  1  0.92699650  0.75000000  0.15535050  1
  O  O15  1  0.57300350  0.75000000  0.65535050  1
  O  O16  1  0.78498550  0.25000000  0.14111250  1
  O  O17  1  0.71501450  0.25000000  0.64111250  1
  O  O18  1  0.21501450  0.75000000  0.85888750  1
  O  O19  1  0.28498550  0.75000000  0.35888750  1
  O  O20  1  0.34899750  0.05144650  0.12059550  1
  O  O21  1  0.15100250  0.05144650  0.62059550  1
  O  O22  1  0.34899750  0.44855350  0.12059550  1
  O  O23  1  0.15100250  0.44855350  0.62059550  1
  O  O24  1  0.84899750  0.55144650  0.37940450  1
  O  O25  1  0.65100250  0.55144650  0.87940450  1
  O  O26  1  0.84899750  0.94855350  0.37940450  1
  O  O27  1  0.65100250  0.94855350  0.87940450  1
