# generated using pymatgen
data_Na5LiCo2P2(CO7)2
_symmetry_space_group_name_H-M   'P 1'
_cell_length_a   5.19966453
_cell_length_b   6.65461430
_cell_length_c   8.86202931
_cell_angle_alpha   90.47945475
_cell_angle_beta   91.64291904
_cell_angle_gamma   90.06363756
_symmetry_Int_Tables_number   1
_chemical_formula_structural   Na5LiCo2P2(CO7)2
_chemical_formula_sum   'Na5 Li1 Co2 P2 C2 O14'
_cell_volume   306.50476228
_cell_formula_units_Z   1
loop_
 _symmetry_equiv_pos_site_id
 _symmetry_equiv_pos_as_xyz
  1  'x, y, z'
loop_
 _atom_site_type_symbol
 _atom_site_label
 _atom_site_symmetry_multiplicity
 _atom_site_fract_x
 _atom_site_fract_y
 _atom_site_fract_z
 _atom_site_occupancy
  Na  Na0  1  0.23211900  0.76097000  0.08201000  1
  Na  Na1  1  0.74413100  0.50720800  0.26926800  1
  Na  Na2  1  0.25537100  0.00591900  0.73229200  1
  Na  Na3  1  0.25339700  0.49180700  0.73065900  1
  Na  Na4  1  0.77505200  0.24635700  0.91803300  1
  Li  Li5  1  0.77040900  0.97973000  0.29051600  1
  Co  Co6  1  0.77711800  0.75124500  0.65084100  1
  Co  Co7  1  0.21860200  0.24423600  0.34483200  1
  P  P8  1  0.28202400  0.75313600  0.41274500  1
  P  P9  1  0.70508500  0.24422700  0.57980200  1
  C  C10  1  0.29138200  0.24834700  0.06137900  1
  C  C11  1  0.72001300  0.75816700  0.94338300  1
  O  O12  1  0.70314500  0.77005600  0.08851300  1
  O  O13  1  0.06298900  0.25414600  0.11824100  1
  O  O14  1  0.48929800  0.23681500  0.15474900  1
  O  O15  1  0.17433800  0.93028000  0.31576300  1
  O  O16  1  0.22536900  0.55954200  0.31753700  1
  O  O17  1  0.83721700  0.23351600  0.42565900  1
  O  O18  1  0.58115200  0.77663500  0.43698000  1
  O  O19  1  0.40686500  0.24253300  0.55308200  1
  O  O20  1  0.15305000  0.74672500  0.56756100  1
  O  O21  1  0.78105300  0.43716200  0.67230600  1
  O  O22  1  0.78337200  0.06403900  0.68312900  1
  O  O23  1  0.51529600  0.75318700  0.85449900  1
  O  O24  1  0.94319600  0.75062000  0.87936500  1
  O  O25  1  0.31895200  0.25339900  0.91685900  1
