# generated using pymatgen
data_Mn4O7F
_symmetry_space_group_name_H-M   'P 1'
_cell_length_a   8.92666800
_cell_length_b   9.92404000
_cell_length_c   6.98165352
_cell_angle_alpha   90.00000000
_cell_angle_beta   128.11879795
_cell_angle_gamma   90.00000000
_symmetry_Int_Tables_number   1
_chemical_formula_structural   Mn4O7F
_chemical_formula_sum   'Mn16 O28 F4'
_cell_volume   486.59012826
_cell_formula_units_Z   4
loop_
 _symmetry_equiv_pos_site_id
 _symmetry_equiv_pos_as_xyz
  1  'x, y, z'
loop_
 _atom_site_type_symbol
 _atom_site_label
 _atom_site_symmetry_multiplicity
 _atom_site_fract_x
 _atom_site_fract_y
 _atom_site_fract_z
 _atom_site_occupancy
  Mn  Mn0  1  0.46138150  0.99756250  0.16286700  1
  Mn  Mn1  1  0.30557800  0.75340000  0.85684700  1
  Mn  Mn2  1  0.30557800  0.24660000  0.35684700  1
  Mn  Mn3  1  0.93843600  0.99579800  0.63845400  1
  Mn  Mn4  1  0.30695250  0.74408050  0.35411800  1
  Mn  Mn5  1  0.46138150  0.00243750  0.66286700  1
  Mn  Mn6  1  0.93843600  0.00420200  0.13845400  1
  Mn  Mn7  1  0.30695250  0.25591950  0.85411800  1
  Mn  Mn8  1  0.96138150  0.49756250  0.16286700  1
  Mn  Mn9  1  0.80557800  0.25340000  0.85684700  1
  Mn  Mn10  1  0.80557800  0.74660000  0.35684700  1
  Mn  Mn11  1  0.43843600  0.49579800  0.63845400  1
  Mn  Mn12  1  0.80695250  0.24408050  0.35411800  1
  Mn  Mn13  1  0.96138150  0.50243750  0.66286700  1
  Mn  Mn14  1  0.43843600  0.50420200  0.13845400  1
  Mn  Mn15  1  0.80695250  0.75591950  0.85411800  1
  O  O16  1  0.43919000  0.58530300  0.39108400  1
  O  O17  1  0.42977150  0.08180350  0.38490700  1
  O  O18  1  0.31363500  0.83626200  0.11317700  1
  O  O19  1  0.54566500  0.66448900  0.10788100  1
  O  O20  1  0.42977150  0.91819650  0.88490700  1
  O  O21  1  0.70817600  0.90956500  0.39098800  1
  O  O22  1  0.54566500  0.33551100  0.60788100  1
  O  O23  1  0.54675000  0.83491600  0.61318700  1
  O  O24  1  0.70817600  0.09043500  0.89098800  1
  O  O25  1  0.81082150  0.83769050  0.10745700  1
  O  O26  1  0.54675000  0.16508400  0.11318700  1
  O  O27  1  0.43919000  0.41469700  0.89108400  1
  O  O28  1  0.31363500  0.16373800  0.61317700  1
  O  O29  1  0.81082150  0.16230950  0.60745700  1
  O  O30  1  0.93919000  0.08530300  0.39108400  1
  O  O31  1  0.92977150  0.58180350  0.38490700  1
  O  O32  1  0.81363500  0.33626200  0.11317700  1
  O  O33  1  0.04566500  0.16448900  0.10788100  1
  O  O34  1  0.92977150  0.41819650  0.88490700  1
  O  O35  1  0.20817600  0.40956500  0.39098800  1
  O  O36  1  0.04566500  0.83551100  0.60788100  1
  O  O37  1  0.04675000  0.33491600  0.61318700  1
  O  O38  1  0.20817600  0.59043500  0.89098800  1
  O  O39  1  0.31082150  0.33769050  0.10745700  1
  O  O40  1  0.04675000  0.66508400  0.11318700  1
  O  O41  1  0.93919000  0.91469700  0.89108400  1
  O  O42  1  0.81363500  0.66373800  0.61317700  1
  O  O43  1  0.31082150  0.66230950  0.60745700  1
  F  F44  1  0.19364200  0.08879900  0.87903200  1
  F  F45  1  0.19364200  0.91120100  0.37903200  1
  F  F46  1  0.69364200  0.58879900  0.87903200  1
  F  F47  1  0.69364200  0.41120100  0.37903200  1
