# generated using pymatgen
data_LiMn2(PO5)2
_symmetry_space_group_name_H-M   'P 1'
_cell_length_a   4.94836400
_cell_length_b   10.30291400
_cell_length_c   7.00245100
_cell_angle_alpha   90.00000000
_cell_angle_beta   107.81472669
_cell_angle_gamma   90.00000000
_symmetry_Int_Tables_number   1
_chemical_formula_structural   LiMn2(PO5)2
_chemical_formula_sum   'Li2 Mn4 P4 O20'
_cell_volume   339.88493016
_cell_formula_units_Z   2
loop_
 _symmetry_equiv_pos_site_id
 _symmetry_equiv_pos_as_xyz
  1  'x, y, z'
loop_
 _atom_site_type_symbol
 _atom_site_label
 _atom_site_symmetry_multiplicity
 _atom_site_fract_x
 _atom_site_fract_y
 _atom_site_fract_z
 _atom_site_occupancy
  Li  Li0  1  0.37793700  0.59926700  0.41556200  1
  Li  Li1  1  0.62206300  0.09926700  0.58443800  1
  Mn  Mn2  1  0.38139700  0.06845700  0.93545900  1
  Mn  Mn3  1  0.61860300  0.56845700  0.06454100  1
  Mn  Mn4  1  0.87753100  0.42812300  0.43167800  1
  Mn  Mn5  1  0.12246900  0.92812300  0.56832200  1
  P  P6  1  0.97348600  0.65287000  0.78000400  1
  P  P7  1  0.47396400  0.84919900  0.27715900  1
  P  P8  1  0.02651400  0.15287000  0.21999600  1
  P  P9  1  0.52603600  0.34919900  0.72284100  1
  O  O10  1  0.42456800  0.21613600  0.77176200  1
  O  O11  1  0.02027700  0.04540500  0.74421500  1
  O  O12  1  0.68775600  0.42410800  0.91458100  1
  O  O13  1  0.22664500  0.57384200  0.91037800  1
  O  O14  1  0.76125300  0.68339800  0.89614100  1
  O  O15  1  0.31224400  0.92410800  0.08541900  1
  O  O16  1  0.23874700  0.18339800  0.10385900  1
  O  O17  1  0.57543200  0.71613600  0.22823800  1
  O  O18  1  0.77335500  0.07384200  0.08962200  1
  O  O19  1  0.51897400  0.45842000  0.24973200  1
  O  O20  1  0.97972300  0.54540500  0.25578500  1
  O  O21  1  0.71849100  0.93247900  0.41088200  1
  O  O22  1  0.92012900  0.27835800  0.28594600  1
  O  O23  1  0.26457000  0.81314900  0.39693800  1
  O  O24  1  0.19357300  0.07259400  0.40993000  1
  O  O25  1  0.73543000  0.31314900  0.60306200  1
  O  O26  1  0.28150900  0.43247900  0.58911800  1
  O  O27  1  0.80642700  0.57259400  0.59007000  1
  O  O28  1  0.48102600  0.95842000  0.75026800  1
  O  O29  1  0.07987100  0.77835800  0.71405400  1
