# generated using pymatgen
data_Mn4O3F5
_symmetry_space_group_name_H-M   'P 1'
_cell_length_a   6.25308400
_cell_length_b   6.43752800
_cell_length_c   7.22939200
_cell_angle_alpha   90.00000000
_cell_angle_beta   90.00000000
_cell_angle_gamma   90.00000000
_symmetry_Int_Tables_number   1
_chemical_formula_structural   Mn4O3F5
_chemical_formula_sum   'Mn8 O6 F10'
_cell_volume   291.01486144
_cell_formula_units_Z   2
loop_
 _symmetry_equiv_pos_site_id
 _symmetry_equiv_pos_as_xyz
  1  'x, y, z'
loop_
 _atom_site_type_symbol
 _atom_site_label
 _atom_site_symmetry_multiplicity
 _atom_site_fract_x
 _atom_site_fract_y
 _atom_site_fract_z
 _atom_site_occupancy
  Mn  Mn0  1  0.25886700  0.99219300  0.50000000  1
  Mn  Mn1  1  0.24113300  0.49219300  0.00000000  1
  Mn  Mn2  1  0.00000000  0.52243000  0.50000000  1
  Mn  Mn3  1  0.00000000  0.99145000  0.00000000  1
  Mn  Mn4  1  0.75886700  0.49219300  0.00000000  1
  Mn  Mn5  1  0.74113300  0.99219300  0.50000000  1
  Mn  Mn6  1  0.50000000  0.02243000  0.00000000  1
  Mn  Mn7  1  0.50000000  0.49145000  0.50000000  1
  O  O8  1  0.00000000  0.81914100  0.50000000  1
  O  O9  1  0.00000000  0.29236800  0.00000000  1
  O  O10  1  0.00000000  0.68824400  0.00000000  1
  O  O11  1  0.50000000  0.31914100  0.00000000  1
  O  O12  1  0.50000000  0.79236800  0.50000000  1
  O  O13  1  0.50000000  0.18824400  0.50000000  1
  F  F14  1  0.74858400  0.49953200  0.30891600  1
  F  F15  1  0.25141600  0.49953200  0.30891600  1
  F  F16  1  0.50000000  0.70385100  0.00000000  1
  F  F17  1  0.24858400  0.99953200  0.19108400  1
  F  F18  1  0.75141600  0.99953200  0.19108400  1
  F  F19  1  0.24858400  0.99953200  0.80891600  1
  F  F20  1  0.75141600  0.99953200  0.80891600  1
  F  F21  1  0.00000000  0.20385100  0.50000000  1
  F  F22  1  0.74858400  0.49953200  0.69108400  1
  F  F23  1  0.25141600  0.49953200  0.69108400  1
