# generated using pymatgen
data_Li2VCr2O6
_symmetry_space_group_name_H-M   'P 1'
_cell_length_a   5.09510709
_cell_length_b   8.97024707
_cell_length_c   10.21706401
_cell_angle_alpha   90.00000000
_cell_angle_beta   90.00000000
_cell_angle_gamma   90.00000000
_symmetry_Int_Tables_number   1
_chemical_formula_structural   Li2VCr2O6
_chemical_formula_sum   'Li8 V4 Cr8 O24'
_cell_volume   466.96446787
_cell_formula_units_Z   4
loop_
 _symmetry_equiv_pos_site_id
 _symmetry_equiv_pos_as_xyz
  1  'x, y, z'
loop_
 _atom_site_type_symbol
 _atom_site_label
 _atom_site_symmetry_multiplicity
 _atom_site_fract_x
 _atom_site_fract_y
 _atom_site_fract_z
 _atom_site_occupancy
  Li  Li0  1  0.89897800  0.75000000  0.25000000  1
  Li  Li1  1  0.10102200  0.75000000  0.75000000  1
  Li  Li2  1  0.39897800  0.75000000  0.25000000  1
  Li  Li3  1  0.60102200  0.75000000  0.75000000  1
  Li  Li4  1  0.39897800  0.25000000  0.25000000  1
  Li  Li5  1  0.60102200  0.25000000  0.75000000  1
  Li  Li6  1  0.89897800  0.25000000  0.25000000  1
  Li  Li7  1  0.10102200  0.25000000  0.75000000  1
  V  V8  1  0.00000000  0.00000000  0.00000000  1
  V  V9  1  0.50000000  0.00000000  0.50000000  1
  V  V10  1  0.50000000  0.50000000  0.00000000  1
  V  V11  1  0.00000000  0.50000000  0.50000000  1
  Cr  Cr12  1  0.50000000  0.66640050  0.50000000  1
  Cr  Cr13  1  0.50000000  0.83359950  0.00000000  1
  Cr  Cr14  1  0.00000000  0.66640050  0.00000000  1
  Cr  Cr15  1  0.00000000  0.83359950  0.50000000  1
  Cr  Cr16  1  0.00000000  0.16640050  0.50000000  1
  Cr  Cr17  1  0.00000000  0.33359950  0.00000000  1
  Cr  Cr18  1  0.50000000  0.16640050  0.00000000  1
  Cr  Cr19  1  0.50000000  0.33359950  0.50000000  1
  O  O20  1  0.68609400  0.00000000  0.09660600  1
  O  O21  1  0.81390600  0.00000000  0.59660600  1
  O  O22  1  0.18609400  0.00000000  0.40339400  1
  O  O23  1  0.31390600  0.00000000  0.90339400  1
  O  O24  1  0.83905850  0.67050900  0.60638800  1
  O  O25  1  0.66094150  0.82949100  0.39361200  1
  O  O26  1  0.83905850  0.82949100  0.89361200  1
  O  O27  1  0.16094150  0.82949100  0.10638800  1
  O  O28  1  0.16094150  0.67050900  0.39361200  1
  O  O29  1  0.33905850  0.67050900  0.89361200  1
  O  O30  1  0.66094150  0.67050900  0.10638800  1
  O  O31  1  0.33905850  0.82949100  0.60638800  1
  O  O32  1  0.18609400  0.50000000  0.09660600  1
  O  O33  1  0.31390600  0.50000000  0.59660600  1
  O  O34  1  0.68609400  0.50000000  0.40339400  1
  O  O35  1  0.81390600  0.50000000  0.90339400  1
  O  O36  1  0.33905850  0.17050900  0.60638800  1
  O  O37  1  0.16094150  0.32949100  0.39361200  1
  O  O38  1  0.33905850  0.32949100  0.89361200  1
  O  O39  1  0.66094150  0.32949100  0.10638800  1
  O  O40  1  0.66094150  0.17050900  0.39361200  1
  O  O41  1  0.83905850  0.17050900  0.89361200  1
  O  O42  1  0.16094150  0.17050900  0.10638800  1
  O  O43  1  0.83905850  0.32949100  0.60638800  1
