# generated using pymatgen
data_LiV3CoO10
_symmetry_space_group_name_H-M   'P 1'
_cell_length_a   9.26342800
_cell_length_b   9.36606000
_cell_length_c   4.65193149
_cell_angle_alpha   90.00000000
_cell_angle_beta   92.44630643
_cell_angle_gamma   90.00000000
_symmetry_Int_Tables_number   1
_chemical_formula_structural   LiV3CoO10
_chemical_formula_sum   'Li2 V6 Co2 O20'
_cell_volume   403.24222812
_cell_formula_units_Z   2
loop_
 _symmetry_equiv_pos_site_id
 _symmetry_equiv_pos_as_xyz
  1  'x, y, z'
loop_
 _atom_site_type_symbol
 _atom_site_label
 _atom_site_symmetry_multiplicity
 _atom_site_fract_x
 _atom_site_fract_y
 _atom_site_fract_z
 _atom_site_occupancy
  Li  Li0  1  0.50000000  0.49513400  0.00000000  1
  Li  Li1  1  0.00000000  0.99513400  0.00000000  1
  V  V2  1  0.50000000  0.74914500  0.50000000  1
  V  V3  1  0.25068700  0.00023000  0.61774100  1
  V  V4  1  0.74931300  0.00023000  0.38225900  1
  V  V5  1  0.00000000  0.24914500  0.50000000  1
  V  V6  1  0.75068700  0.50023000  0.61774100  1
  V  V7  1  0.24931300  0.50023000  0.38225900  1
  Co  Co8  1  0.50000000  0.25069000  0.50000000  1
  Co  Co9  1  0.00000000  0.75069000  0.50000000  1
  O  O10  1  0.61138400  0.85490000  0.29756300  1
  O  O11  1  0.23252950  0.00056550  0.26635700  1
  O  O12  1  0.38861600  0.85490000  0.70243700  1
  O  O13  1  0.60174350  0.63811250  0.73308400  1
  O  O14  1  0.39825650  0.63811250  0.26691600  1
  O  O15  1  0.60636300  0.36832700  0.73037300  1
  O  O16  1  0.39363700  0.36832700  0.26962700  1
  O  O17  1  0.61580900  0.14038000  0.29815800  1
  O  O18  1  0.76747050  0.00056550  0.73364300  1
  O  O19  1  0.38419100  0.14038000  0.70184200  1
  O  O20  1  0.11138400  0.35490000  0.29756300  1
  O  O21  1  0.73252950  0.50056550  0.26635700  1
  O  O22  1  0.88861600  0.35490000  0.70243700  1
  O  O23  1  0.10174350  0.13811250  0.73308400  1
  O  O24  1  0.89825650  0.13811250  0.26691600  1
  O  O25  1  0.10636300  0.86832700  0.73037300  1
  O  O26  1  0.89363700  0.86832700  0.26962700  1
  O  O27  1  0.11580900  0.64038000  0.29815800  1
  O  O28  1  0.26747050  0.50056550  0.73364300  1
  O  O29  1  0.88419100  0.64038000  0.70184200  1
