# generated using pymatgen
data_Li3(NiO2)5
_symmetry_space_group_name_H-M   'P 1'
_cell_length_a   4.99096115
_cell_length_b   5.85008734
_cell_length_c   6.49350179
_cell_angle_alpha   105.39277044
_cell_angle_beta   96.95480511
_cell_angle_gamma   106.04101643
_symmetry_Int_Tables_number   1
_chemical_formula_structural   Li3(NiO2)5
_chemical_formula_sum   'Li3 Ni5 O10'
_cell_volume   171.76503562
_cell_formula_units_Z   1
loop_
 _symmetry_equiv_pos_site_id
 _symmetry_equiv_pos_as_xyz
  1  'x, y, z'
loop_
 _atom_site_type_symbol
 _atom_site_label
 _atom_site_symmetry_multiplicity
 _atom_site_fract_x
 _atom_site_fract_y
 _atom_site_fract_z
 _atom_site_occupancy
  Li  Li0  1  0.50000000  0.50000000  0.00000000  1
  Li  Li1  1  0.29813600  0.10175500  0.60485500  1
  Li  Li2  1  0.70186400  0.89824500  0.39514500  1
  Ni  Ni3  1  0.89914700  0.79423400  0.80615500  1
  Ni  Ni4  1  0.10085300  0.20576600  0.19384500  1
  Ni  Ni5  1  0.50000000  0.00000000  0.00000000  1
  Ni  Ni6  1  0.29826100  0.59921000  0.59914800  1
  Ni  Ni7  1  0.70173900  0.40079000  0.40085200  1
  O  O8  1  0.99468000  0.71946600  0.51587000  1
  O  O9  1  0.00532000  0.28053400  0.48413000  1
  O  O10  1  0.57700500  0.45909600  0.67184800  1
  O  O11  1  0.42299500  0.54090400  0.32815200  1
  O  O12  1  0.56662700  0.91922200  0.71080300  1
  O  O13  1  0.43337300  0.08077800  0.28919700  1
  O  O14  1  0.23158000  0.67313600  0.88308000  1
  O  O15  1  0.76842000  0.32686400  0.11692000  1
  O  O16  1  0.21927200  0.12974500  0.91426800  1
  O  O17  1  0.78072800  0.87025500  0.08573200  1
