# generated using pymatgen
data_FeOF
_symmetry_space_group_name_H-M   'P 1'
_cell_length_a   4.75112700
_cell_length_b   3.12241500
_cell_length_c   9.43724612
_cell_angle_alpha   90.00000000
_cell_angle_beta   90.10590069
_cell_angle_gamma   90.00000000
_symmetry_Int_Tables_number   1
_chemical_formula_structural   FeOF
_chemical_formula_sum   'Fe4 O4 F4'
_cell_volume   140.00121468
_cell_formula_units_Z   4
loop_
 _symmetry_equiv_pos_site_id
 _symmetry_equiv_pos_as_xyz
  1  'x, y, z'
loop_
 _atom_site_type_symbol
 _atom_site_label
 _atom_site_symmetry_multiplicity
 _atom_site_fract_x
 _atom_site_fract_y
 _atom_site_fract_z
 _atom_site_occupancy
  Fe  Fe0  1  0.02403300  0.00000000  0.98882900  1
  Fe  Fe1  1  0.02211300  0.00000000  0.48788000  1
  Fe  Fe2  1  0.51645700  0.50000000  0.27757900  1
  Fe  Fe3  1  0.45137700  0.50000000  0.73902300  1
  O  O4  1  0.19490000  0.50000000  0.40046700  1
  O  O5  1  0.19390400  0.50000000  0.90535000  1
  O  O6  1  0.29337700  0.00000000  0.65140300  1
  O  O7  1  0.70208800  0.00000000  0.35026400  1
  F  F8  1  0.30488500  0.00000000  0.15182200  1
  F  F9  1  0.69268900  0.00000000  0.84885300  1
  F  F10  1  0.80451600  0.50000000  0.09417100  1
  F  F11  1  0.79965900  0.50000000  0.60435800  1
