# generated using pymatgen
data_MnFeCo(PO4)3
_symmetry_space_group_name_H-M   'P 1'
_cell_length_a   9.83659600
_cell_length_b   5.98498000
_cell_length_c   14.59043713
_cell_angle_alpha   90.00000000
_cell_angle_beta   90.24750013
_cell_angle_gamma   90.00000000
_symmetry_Int_Tables_number   1
_chemical_formula_structural   MnFeCo(PO4)3
_chemical_formula_sum   'Mn4 Fe4 Co4 P12 O48'
_cell_volume   858.95772491
_cell_formula_units_Z   4
loop_
 _symmetry_equiv_pos_site_id
 _symmetry_equiv_pos_as_xyz
  1  'x, y, z'
loop_
 _atom_site_type_symbol
 _atom_site_label
 _atom_site_symmetry_multiplicity
 _atom_site_fract_x
 _atom_site_fract_y
 _atom_site_fract_z
 _atom_site_occupancy
  Mn  Mn0  1  0.78420500  0.00000000  0.48041900  1
  Mn  Mn1  1  0.78339200  0.00000000  0.81281100  1
  Mn  Mn2  1  0.71579200  0.50000000  0.64627700  1
  Mn  Mn3  1  0.71524300  0.50000000  0.97781100  1
  Fe  Fe4  1  0.77814700  0.00000000  0.15236700  1
  Fe  Fe5  1  0.72592400  0.50000000  0.31929400  1
  Fe  Fe6  1  0.27376500  0.00000000  0.01051500  1
  Fe  Fe7  1  0.27132900  0.00000000  0.34384900  1
  Co  Co8  1  0.27022200  0.00000000  0.67614900  1
  Co  Co9  1  0.22721800  0.50000000  0.84253900  1
  Co  Co10  1  0.22961400  0.50000000  0.51099800  1
  Co  Co11  1  0.22510000  0.50000000  0.17631600  1
  P  P12  1  0.90139500  0.50000000  0.80559000  1
  P  P13  1  0.90208400  0.50000000  0.13773800  1
  P  P14  1  0.90396200  0.50000000  0.47341400  1
  P  P15  1  0.60042200  0.00000000  0.30596900  1
  P  P16  1  0.59871100  0.00000000  0.97116700  1
  P  P17  1  0.59770600  0.00000000  0.63941700  1
  P  P18  1  0.39906700  0.50000000  0.36182700  1
  P  P19  1  0.40003000  0.50000000  0.02803900  1
  P  P20  1  0.39997900  0.50000000  0.69624500  1
  P  P21  1  0.09833500  0.00000000  0.52968600  1
  P  P22  1  0.09810800  0.00000000  0.19601700  1
  P  P23  1  0.09922700  0.00000000  0.86108000  1
  O  O24  1  0.94504300  0.00000000  0.55309900  1
  O  O25  1  0.94680500  0.00000000  0.21937000  1
  O  O26  1  0.94647100  0.00000000  0.88289700  1
  O  O27  1  0.88179300  0.50000000  0.24168900  1
  O  O28  1  0.88151700  0.50000000  0.57706700  1
  O  O29  1  0.88149800  0.50000000  0.90981400  1
  O  O30  1  0.83008800  0.70072100  0.75656100  1
  O  O31  1  0.83008800  0.29927900  0.75656100  1
  O  O32  1  0.83236500  0.70463100  0.09118900  1
  O  O33  1  0.83236500  0.29536900  0.09118900  1
  O  O34  1  0.82947400  0.69770400  0.42290200  1
  O  O35  1  0.82947400  0.30229600  0.42290200  1
  O  O36  1  0.67429900  0.20107700  0.25818100  1
  O  O37  1  0.67429900  0.79892300  0.25818100  1
  O  O38  1  0.67125200  0.20126300  0.92304400  1
  O  O39  1  0.67125200  0.79873700  0.92304400  1
  O  O40  1  0.66962300  0.20050700  0.59057200  1
  O  O41  1  0.66962300  0.79949300  0.59057200  1
  O  O42  1  0.62027000  0.00000000  0.07491700  1
  O  O43  1  0.62091700  0.00000000  0.41074000  1
  O  O44  1  0.61820000  0.00000000  0.74376400  1
  O  O45  1  0.55150000  0.50000000  0.38239000  1
  O  O46  1  0.55284600  0.50000000  0.05021600  1
  O  O47  1  0.55352500  0.50000000  0.71770600  1
  O  O48  1  0.44863000  0.00000000  0.28625600  1
  O  O49  1  0.44653200  0.00000000  0.94937400  1
  O  O50  1  0.44347500  0.00000000  0.62065600  1
  O  O51  1  0.37484400  0.50000000  0.25742900  1
  O  O52  1  0.37743000  0.50000000  0.59121900  1
  O  O53  1  0.37599400  0.50000000  0.92349200  1
  O  O54  1  0.32637100  0.70182800  0.41056800  1
  O  O55  1  0.32637100  0.29817200  0.41056800  1
  O  O56  1  0.32876000  0.70251600  0.07620200  1
  O  O57  1  0.32876000  0.29748400  0.07620200  1
  O  O58  1  0.32952900  0.70216900  0.74432200  1
  O  O59  1  0.32952900  0.29783100  0.74432200  1
  O  O60  1  0.16974400  0.20160900  0.57919400  1
  O  O61  1  0.16974400  0.79839100  0.57919400  1
  O  O62  1  0.17197600  0.20000600  0.24569300  1
  O  O63  1  0.17197600  0.79999400  0.24569300  1
  O  O64  1  0.16997600  0.20081300  0.91042200  1
  O  O65  1  0.16997600  0.79918700  0.91042200  1
  O  O66  1  0.12181700  0.00000000  0.75656100  1
  O  O67  1  0.11930800  0.00000000  0.09243400  1
  O  O68  1  0.11611500  0.00000000  0.42595900  1
  O  O69  1  0.05577900  0.50000000  0.78675200  1
  O  O70  1  0.05672200  0.50000000  0.45401700  1
  O  O71  1  0.05739700  0.50000000  0.11844400  1
