# generated using pymatgen
data_Li6MnV3(PO4)6
_symmetry_space_group_name_H-M   'P 1'
_cell_length_a   16.78136566
_cell_length_b   16.78136566
_cell_length_c   10.16819815
_cell_angle_alpha   90.00000000
_cell_angle_beta   90.00000000
_cell_angle_gamma   120.00000000
_symmetry_Int_Tables_number   1
_chemical_formula_structural   Li6MnV3(PO4)6
_chemical_formula_sum   'Li36 Mn6 V18 P36 O144'
_cell_volume   2479.87182322
_cell_formula_units_Z   6
loop_
 _symmetry_equiv_pos_site_id
 _symmetry_equiv_pos_as_xyz
  1  'x, y, z'
loop_
 _atom_site_type_symbol
 _atom_site_label
 _atom_site_symmetry_multiplicity
 _atom_site_fract_x
 _atom_site_fract_y
 _atom_site_fract_z
 _atom_site_occupancy
  Li  Li0  1  0.54344967  0.21011633  0.58333333  1
  Li  Li1  1  0.33333333  0.29276267  0.91666667  1
  Li  Li2  1  0.29276267  0.33333333  0.58333333  1
  Li  Li3  1  0.33333333  0.78988367  0.91666667  1
  Li  Li4  1  0.54344967  0.33333333  0.08333333  1
  Li  Li5  1  0.37390400  0.37390400  0.25000000  1
  Li  Li6  1  0.29276267  0.95942933  0.08333333  1
  Li  Li7  1  0.12321700  1.00000000  0.25000000  1
  Li  Li8  1  0.33333333  0.54344967  0.41666667  1
  Li  Li9  1  0.37390400  0.00000000  0.75000000  1
  Li  Li10  1  0.33333333  0.04057067  0.41666667  1
  Li  Li11  1  0.12321700  0.12321700  0.75000000  1
  Li  Li12  1  0.21011633  0.54344967  0.91666667  1
  Li  Li13  1  0.00000000  0.62609600  0.25000000  1
  Li  Li14  1  0.95942933  0.66666667  0.91666667  1
  Li  Li15  1  0.00000000  0.12321700  0.25000000  1
  Li  Li16  1  0.21011633  0.66666667  0.41666667  1
  Li  Li17  1  0.04057067  0.70723733  0.58333333  1
  Li  Li18  1  0.95942933  0.29276267  0.41666667  1
  Li  Li19  1  0.78988367  0.33333333  0.58333333  1
  Li  Li20  1  0.00000000  0.87678300  0.75000000  1
  Li  Li21  1  0.04057067  0.33333333  0.08333333  1
  Li  Li22  1  0.00000000  0.37390400  0.75000000  1
  Li  Li23  1  0.78988367  0.45655033  0.08333333  1
  Li  Li24  1  0.87678300  0.87678300  0.25000000  1
  Li  Li25  1  0.66666667  0.95942933  0.58333333  1
  Li  Li26  1  0.62609600  0.00000000  0.25000000  1
  Li  Li27  1  0.66666667  0.45655033  0.58333333  1
  Li  Li28  1  0.87678300  0.00000000  0.75000000  1
  Li  Li29  1  0.70723733  0.04057067  0.91666667  1
  Li  Li30  1  0.62609600  0.62609600  0.75000000  1
  Li  Li31  1  0.45655033  0.66666667  0.91666667  1
  Li  Li32  1  0.66666667  0.21011633  0.08333333  1
  Li  Li33  1  0.70723733  0.66666667  0.41666667  1
  Li  Li34  1  0.66666667  0.70723733  0.08333333  1
  Li  Li35  1  0.45655033  0.78988367  0.41666667  1
  Mn  Mn36  1  0.00000000  0.00000000  0.00000000  1
  Mn  Mn37  1  0.00000000  0.00000000  0.50000000  1
  Mn  Mn38  1  0.66666667  0.33333333  0.33333333  1
  Mn  Mn39  1  0.66666667  0.33333333  0.83333333  1
  Mn  Mn40  1  0.33333333  0.66666667  0.66666667  1
  Mn  Mn41  1  0.33333333  0.66666667  0.16666667  1
  V  V42  1  0.33333333  0.16666667  0.66666667  1
  V  V43  1  0.16666667  0.33333333  0.83333333  1
  V  V44  1  0.33333333  0.16666667  0.16666667  1
  V  V45  1  0.16666667  0.33333333  0.33333333  1
  V  V46  1  0.16666667  0.83333333  0.83333333  1
  V  V47  1  0.16666667  0.83333333  0.33333333  1
  V  V48  1  0.00000000  0.50000000  0.00000000  1
  V  V49  1  0.83333333  0.66666667  0.16666667  1
  V  V50  1  0.00000000  0.50000000  0.50000000  1
  V  V51  1  0.83333333  0.66666667  0.66666667  1
  V  V52  1  0.83333333  0.16666667  0.16666667  1
  V  V53  1  0.83333333  0.16666667  0.66666667  1
  V  V54  1  0.66666667  0.83333333  0.33333333  1
  V  V55  1  0.50000000  0.00000000  0.50000000  1
  V  V56  1  0.66666667  0.83333333  0.83333333  1
  V  V57  1  0.50000000  0.00000000  0.00000000  1
  V  V58  1  0.50000000  0.50000000  0.50000000  1
  V  V59  1  0.50000000  0.50000000  0.00000000  1
  P  P60  1  0.45822900  0.16588700  0.91779800  1
  P  P61  1  0.49922033  0.12489567  0.24886867  1
  P  P62  1  0.49922033  0.37432467  0.74886867  1
  P  P63  1  0.45822900  0.29234200  0.41779800  1
  P  P64  1  0.29234200  0.45822900  0.08220200  1
  P  P65  1  0.37432467  0.49922033  0.75113133  1
  P  P66  1  0.29234200  0.83411300  0.58220200  1
  P  P67  1  0.20843767  0.04099133  0.91553533  1
  P  P68  1  0.37432467  0.87510433  0.25113133  1
  P  P69  1  0.16744633  0.95900867  0.58446467  1
  P  P70  1  0.16744633  0.20843767  0.08446467  1
  P  P71  1  0.20843767  0.16744633  0.41553533  1
  P  P72  1  0.12489567  0.49922033  0.25113133  1
  P  P73  1  0.16588700  0.45822900  0.58220200  1
  P  P74  1  0.16588700  0.70765800  0.08220200  1
  P  P75  1  0.12489567  0.62567533  0.75113133  1
  P  P76  1  0.95900867  0.79156233  0.41553533  1
  P  P77  1  0.04099133  0.83255367  0.08446467  1
  P  P78  1  0.95900867  0.16744633  0.91553533  1
  P  P79  1  0.87510433  0.37432467  0.24886867  1
  P  P80  1  0.04099133  0.20843767  0.58446467  1
  P  P81  1  0.83411300  0.29234200  0.91779800  1
  P  P82  1  0.83411300  0.54177100  0.41779800  1
  P  P83  1  0.87510433  0.50077967  0.74886867  1
  P  P84  1  0.79156233  0.83255367  0.58446467  1
  P  P85  1  0.83255367  0.79156233  0.91553533  1
  P  P86  1  0.83255367  0.04099133  0.41553533  1
  P  P87  1  0.79156233  0.95900867  0.08446467  1
  P  P88  1  0.62567533  0.12489567  0.74886867  1
  P  P89  1  0.70765800  0.16588700  0.41779800  1
  P  P90  1  0.62567533  0.50077967  0.24886867  1
  P  P91  1  0.54177100  0.70765800  0.58220200  1
  P  P92  1  0.70765800  0.54177100  0.91779800  1
  P  P93  1  0.50077967  0.62567533  0.25113133  1
  P  P94  1  0.50077967  0.87510433  0.75113133  1
  P  P95  1  0.54177100  0.83411300  0.08220200  1
  O  O96  1  0.53496433  0.07422967  0.66535067  1
  O  O97  1  0.40756300  0.20593200  0.00131600  1
  O  O98  1  0.26914833  0.23866767  0.12099867  1
  O  O99  1  0.43225333  0.15758367  0.76908867  1
  O  O100  1  0.49091700  0.09892000  0.39757800  1
  O  O101  1  0.40756300  0.20163100  0.50131600  1
  O  O102  1  0.39751833  0.30285267  0.71233467  1
  O  O103  1  0.56742600  0.34012500  0.71980500  1
  O  O104  1  0.49091700  0.39199700  0.89757800  1
  O  O105  1  0.36381400  0.42799900  0.04566800  1
  O  O106  1  0.56742600  0.22730100  0.21980500  1
  O  O107  1  0.23866767  0.26914833  0.37900133  1
  O  O108  1  0.30285267  0.39751833  0.78766533  1
  O  O109  1  0.43225333  0.27466967  0.26908867  1
  O  O110  1  0.56063433  0.32654167  0.44686167  1
  O  O111  1  0.42799900  0.36381400  0.45433200  1
  O  O112  1  0.56063433  0.23409267  0.94686167  1
  O  O113  1  0.20593200  0.40756300  0.49868400  1
  O  O114  1  0.20593200  0.79836900  0.99868400  1
  O  O115  1  0.32654167  0.56063433  0.05313833  1
  O  O116  1  0.13170233  0.87259867  0.16798267  1
  O  O117  1  0.39199700  0.49091700  0.60242200  1
  O  O118  1  0.32654167  0.76590733  0.55313833  1
  O  O119  1  0.27466967  0.43225333  0.23091133  1
  O  O120  1  0.39199700  0.90108000  0.10242200  1
  O  O121  1  0.34012500  0.56742600  0.78019500  1
  O  O122  1  0.27466967  0.84241633  0.73091133  1
  O  O123  1  0.53496433  0.46073467  0.16535067  1
  O  O124  1  0.34012500  0.77269900  0.28019500  1
  O  O125  1  0.46073467  0.53496433  0.33464933  1
  O  O126  1  0.46073467  0.92577033  0.83464933  1
  O  O127  1  0.10603233  0.09924067  0.38647167  1
  O  O128  1  0.23866767  0.96951933  0.87900133  1
  O  O129  1  0.10603233  0.00679167  0.88647167  1
  O  O130  1  0.23441333  0.05866367  0.06424467  1
  O  O131  1  0.36381400  0.93581500  0.54566800  1
  O  O132  1  0.42799900  0.06418500  0.95433200  1
  O  O133  1  0.09924067  0.10603233  0.11352833  1
  O  O134  1  0.30285267  0.90533433  0.28766533  1
  O  O135  1  0.17574967  0.94133633  0.43575533  1
  O  O136  1  0.09924067  0.99320833  0.61352833  1
  O  O137  1  0.26914833  0.03048067  0.62099867  1
  O  O138  1  0.25910367  0.13170233  0.83201733  1
  O  O139  1  0.17574967  0.23441333  0.93575533  1
  O  O140  1  0.23441333  0.17574967  0.56424467  1
  O  O141  1  0.39751833  0.09466567  0.21233467  1
  O  O142  1  0.25910367  0.12740133  0.33201733  1
  O  O143  1  0.13170233  0.25910367  0.66798267  1
  O  O144  1  0.20163100  0.40756300  0.99868400  1
  O  O145  1  0.07422967  0.53926533  0.33464933  1
  O  O146  1  0.93581500  0.57200100  0.45433200  1
  O  O147  1  0.09892000  0.49091700  0.10242200  1
  O  O148  1  0.15758367  0.43225333  0.73091133  1
  O  O149  1  0.07422967  0.53496433  0.83464933  1
  O  O150  1  0.06418500  0.63618600  0.04566800  1
  O  O151  1  0.23409267  0.67345833  0.05313833  1
  O  O152  1  0.15758367  0.72533033  0.23091133  1
  O  O153  1  0.03048067  0.76133233  0.37900133  1
  O  O154  1  0.23409267  0.56063433  0.55313833  1
  O  O155  1  0.90533433  0.60248167  0.71233467  1
  O  O156  1  0.96951933  0.73085167  0.12099867  1
  O  O157  1  0.09892000  0.60800300  0.60242200  1
  O  O158  1  0.22730100  0.65987500  0.78019500  1
  O  O159  1  0.09466567  0.69714733  0.78766533  1
  O  O160  1  0.22730100  0.56742600  0.28019500  1
  O  O161  1  0.87259867  0.74089633  0.83201733  1
  O  O162  1  0.87259867  0.13170233  0.33201733  1
  O  O163  1  0.99320833  0.89396767  0.38647167  1
  O  O164  1  0.79836900  0.20593200  0.50131600  1
  O  O165  1  0.05866367  0.82425033  0.93575533  1
  O  O166  1  0.99320833  0.09924067  0.88647167  1
  O  O167  1  0.94133633  0.76558667  0.56424467  1
  O  O168  1  0.05866367  0.23441333  0.43575533  1
  O  O169  1  0.00679167  0.90075933  0.11352833  1
  O  O170  1  0.94133633  0.17574967  0.06424467  1
  O  O171  1  0.20163100  0.79406800  0.49868400  1
  O  O172  1  0.00679167  0.10603233  0.61352833  1
  O  O173  1  0.12740133  0.86829767  0.66798267  1
  O  O174  1  0.12740133  0.25910367  0.16798267  1
  O  O175  1  0.77269900  0.43257400  0.71980500  1
  O  O176  1  0.90533433  0.30285267  0.21233467  1
  O  O177  1  0.77269900  0.34012500  0.21980500  1
  O  O178  1  0.90108000  0.39199700  0.39757800  1
  O  O179  1  0.03048067  0.26914833  0.87900133  1
  O  O180  1  0.09466567  0.39751833  0.28766533  1
  O  O181  1  0.76590733  0.43936567  0.44686167  1
  O  O182  1  0.96951933  0.23866767  0.62099867  1
  O  O183  1  0.84241633  0.27466967  0.76908867  1
  O  O184  1  0.76590733  0.32654167  0.94686167  1
  O  O185  1  0.93581500  0.36381400  0.95433200  1
  O  O186  1  0.92577033  0.46503567  0.16535067  1
  O  O187  1  0.84241633  0.56774667  0.26908867  1
  O  O188  1  0.90108000  0.50908300  0.89757800  1
  O  O189  1  0.06418500  0.42799900  0.54566800  1
  O  O190  1  0.92577033  0.46073467  0.66535067  1
  O  O191  1  0.79836900  0.59243700  0.00131600  1
  O  O192  1  0.86829767  0.74089633  0.33201733  1
  O  O193  1  0.74089633  0.87259867  0.66798267  1
  O  O194  1  0.60248167  0.90533433  0.78766533  1
  O  O195  1  0.76558667  0.82425033  0.43575533  1
  O  O196  1  0.82425033  0.76558667  0.06424467  1
  O  O197  1  0.74089633  0.86829767  0.16798267  1
  O  O198  1  0.73085167  0.96951933  0.37900133  1
  O  O199  1  0.90075933  0.00679167  0.38647167  1
  O  O200  1  0.82425033  0.05866367  0.56424467  1
  O  O201  1  0.69714733  0.09466567  0.71233467  1
  O  O202  1  0.90075933  0.89396767  0.88647167  1
  O  O203  1  0.57200100  0.93581500  0.04566800  1
  O  O204  1  0.63618600  0.06418500  0.45433200  1
  O  O205  1  0.76558667  0.94133633  0.93575533  1
  O  O206  1  0.89396767  0.99320833  0.11352833  1
  O  O207  1  0.76133233  0.03048067  0.12099867  1
  O  O208  1  0.89396767  0.90075933  0.61352833  1
  O  O209  1  0.53926533  0.07422967  0.16535067  1
  O  O210  1  0.53926533  0.46503567  0.66535067  1
  O  O211  1  0.65987500  0.22730100  0.71980500  1
  O  O212  1  0.46503567  0.53926533  0.83464933  1
  O  O213  1  0.72533033  0.15758367  0.26908867  1
  O  O214  1  0.65987500  0.43257400  0.21980500  1
  O  O215  1  0.60800300  0.09892000  0.89757800  1
  O  O216  1  0.72533033  0.56774667  0.76908867  1
  O  O217  1  0.67345833  0.23409267  0.44686167  1
  O  O218  1  0.60800300  0.50908300  0.39757800  1
  O  O219  1  0.86829767  0.12740133  0.83201733  1
  O  O220  1  0.67345833  0.43936567  0.94686167  1
  O  O221  1  0.79406800  0.20163100  0.00131600  1
  O  O222  1  0.79406800  0.59243700  0.50131600  1
  O  O223  1  0.43936567  0.76590733  0.05313833  1
  O  O224  1  0.57200100  0.63618600  0.54566800  1
  O  O225  1  0.43936567  0.67345833  0.55313833  1
  O  O226  1  0.56774667  0.72533033  0.73091133  1
  O  O227  1  0.69714733  0.60248167  0.21233467  1
  O  O228  1  0.76133233  0.73085167  0.62099867  1
  O  O229  1  0.43257400  0.77269900  0.78019500  1
  O  O230  1  0.63618600  0.57200100  0.95433200  1
  O  O231  1  0.50908300  0.60800300  0.10242200  1
  O  O232  1  0.43257400  0.65987500  0.28019500  1
  O  O233  1  0.60248167  0.69714733  0.28766533  1
  O  O234  1  0.59243700  0.79836900  0.49868400  1
  O  O235  1  0.50908300  0.90108000  0.60242200  1
  O  O236  1  0.56774667  0.84241633  0.23091133  1
  O  O237  1  0.73085167  0.76133233  0.87900133  1
  O  O238  1  0.59243700  0.79406800  0.99868400  1
  O  O239  1  0.46503567  0.92577033  0.33464933  1
