# generated using pymatgen
data_TaVO4
_symmetry_space_group_name_H-M   'P 1'
_cell_length_a   6.70251916
_cell_length_b   6.70251916
_cell_length_c   6.16314100
_cell_angle_alpha   90.00000000
_cell_angle_beta   90.00000000
_cell_angle_gamma   90.00000000
_symmetry_Int_Tables_number   1
_chemical_formula_structural   TaVO4
_chemical_formula_sum   'Ta4 V4 O16'
_cell_volume   276.87148629
_cell_formula_units_Z   4
loop_
 _symmetry_equiv_pos_site_id
 _symmetry_equiv_pos_as_xyz
  1  'x, y, z'
loop_
 _atom_site_type_symbol
 _atom_site_label
 _atom_site_symmetry_multiplicity
 _atom_site_fract_x
 _atom_site_fract_y
 _atom_site_fract_z
 _atom_site_occupancy
  Ta  Ta0  1  0.00000000  0.50000000  0.00965050  1
  Ta  Ta1  1  0.00000000  0.00000000  0.25965050  1
  Ta  Ta2  1  0.50000000  0.00000000  0.50965050  1
  Ta  Ta3  1  0.50000000  0.50000000  0.75965050  1
  V  V4  1  0.50000000  0.00000000  0.99883550  1
  V  V5  1  0.00000000  0.00000000  0.74883550  1
  V  V6  1  0.00000000  0.50000000  0.49883550  1
  V  V7  1  0.50000000  0.50000000  0.24883550  1
  O  O8  1  0.00000000  0.19957000  0.48960600  1
  O  O9  1  0.00000000  0.19810150  0.00614750  1
  O  O10  1  0.80043000  0.50000000  0.23960600  1
  O  O11  1  0.30189850  0.00000000  0.25614750  1
  O  O12  1  0.19957000  0.50000000  0.23960600  1
  O  O13  1  0.19810150  0.50000000  0.75614750  1
  O  O14  1  0.50000000  0.30043000  0.98960600  1
  O  O15  1  0.50000000  0.30189850  0.50614750  1
  O  O16  1  0.50000000  0.69957000  0.98960600  1
  O  O17  1  0.50000000  0.69810150  0.50614750  1
  O  O18  1  0.30043000  0.00000000  0.73960600  1
  O  O19  1  0.80189850  0.50000000  0.75614750  1
  O  O20  1  0.69957000  0.00000000  0.73960600  1
  O  O21  1  0.69810150  0.00000000  0.25614750  1
  O  O22  1  0.00000000  0.80043000  0.48960600  1
  O  O23  1  0.00000000  0.80189850  0.00614750  1
