# generated using pymatgen
data_Bi12Cl5O16
_symmetry_space_group_name_H-M   'P 1'
_cell_length_a   30.74674000
_cell_length_b   3.95916400
_cell_length_c   10.06109938
_cell_angle_alpha   90.00000000
_cell_angle_beta   90.77035653
_cell_angle_gamma   90.00000000
_symmetry_Int_Tables_number   1
_chemical_formula_structural   Bi12Cl5O16
_chemical_formula_sum   'Bi24 Cl10 O32'
_cell_volume   1224.64087338
_cell_formula_units_Z   2
loop_
 _symmetry_equiv_pos_site_id
 _symmetry_equiv_pos_as_xyz
  1  'x, y, z'
loop_
 _atom_site_type_symbol
 _atom_site_label
 _atom_site_symmetry_multiplicity
 _atom_site_fract_x
 _atom_site_fract_y
 _atom_site_fract_z
 _atom_site_occupancy
  Bi  Bi0  1  0.94103300  0.00000000  0.07648700  1
  Bi  Bi1  1  0.65172300  0.00000000  0.07099900  1
  Bi  Bi2  1  0.82571000  0.00000000  0.23798200  1
  Bi  Bi3  1  0.53346900  0.00000000  0.23585800  1
  Bi  Bi4  1  0.91462600  0.50000000  0.40029500  1
  Bi  Bi5  1  0.70367700  0.00000000  0.43731200  1
  Bi  Bi6  1  0.79632300  0.50000000  0.56268800  1
  Bi  Bi7  1  0.58537400  0.00000000  0.59970500  1
  Bi  Bi8  1  0.96653100  0.50000000  0.76414200  1
  Bi  Bi9  1  0.67429000  0.50000000  0.76201800  1
  Bi  Bi10  1  0.84827700  0.50000000  0.92900100  1
  Bi  Bi11  1  0.55896700  0.50000000  0.92351300  1
  Bi  Bi12  1  0.44103300  0.50000000  0.07648700  1
  Bi  Bi13  1  0.15172300  0.50000000  0.07099900  1
  Bi  Bi14  1  0.32571000  0.50000000  0.23798200  1
  Bi  Bi15  1  0.03346900  0.50000000  0.23585800  1
  Bi  Bi16  1  0.41462600  0.00000000  0.40029500  1
  Bi  Bi17  1  0.20367700  0.50000000  0.43731200  1
  Bi  Bi18  1  0.29632300  0.00000000  0.56268800  1
  Bi  Bi19  1  0.08537400  0.50000000  0.59970500  1
  Bi  Bi20  1  0.46653100  0.00000000  0.76414200  1
  Bi  Bi21  1  0.17429000  0.00000000  0.76201800  1
  Bi  Bi22  1  0.34827700  0.00000000  0.92900100  1
  Bi  Bi23  1  0.05896700  0.00000000  0.92351300  1
  Cl  Cl24  1  0.71988100  0.50000000  0.19581700  1
  Cl  Cl25  1  0.61254200  0.50000000  0.34634900  1
  Cl  Cl26  1  0.00000000  0.00000000  0.50000000  1
  Cl  Cl27  1  0.88745800  0.00000000  0.65365100  1
  Cl  Cl28  1  0.78011900  0.00000000  0.80418300  1
  Cl  Cl29  1  0.21988100  0.00000000  0.19581700  1
  Cl  Cl30  1  0.11254200  0.00000000  0.34634900  1
  Cl  Cl31  1  0.50000000  0.50000000  0.50000000  1
  Cl  Cl32  1  0.38745800  0.50000000  0.65365100  1
  Cl  Cl33  1  0.28011900  0.50000000  0.80418300  1
  O  O34  1  0.86546500  0.00000000  0.02784400  1
  O  O35  1  0.57499600  0.00000000  0.05401800  1
  O  O36  1  0.81946000  0.50000000  0.12145800  1
  O  O37  1  0.51950400  0.50000000  0.13418100  1
  O  O38  1  0.95871900  0.50000000  0.21938200  1
  O  O39  1  0.89745800  0.00000000  0.29746500  1
  O  O40  1  0.84164600  0.50000000  0.38736900  1
  O  O41  1  0.77725000  0.00000000  0.46265000  1
  O  O42  1  0.72275000  0.50000000  0.53735000  1
  O  O43  1  0.65835400  0.00000000  0.61263100  1
  O  O44  1  0.60254200  0.50000000  0.70253500  1
  O  O45  1  0.54128100  0.00000000  0.78061800  1
  O  O46  1  0.98049600  0.00000000  0.86581900  1
  O  O47  1  0.68054000  0.00000000  0.87854200  1
  O  O48  1  0.92500400  0.50000000  0.94598200  1
  O  O49  1  0.63453500  0.50000000  0.97215600  1
  O  O50  1  0.36546500  0.50000000  0.02784400  1
  O  O51  1  0.07499600  0.50000000  0.05401800  1
  O  O52  1  0.31946000  0.00000000  0.12145800  1
  O  O53  1  0.01950400  0.00000000  0.13418100  1
  O  O54  1  0.45871900  0.00000000  0.21938200  1
  O  O55  1  0.39745800  0.50000000  0.29746500  1
  O  O56  1  0.34164600  0.00000000  0.38736900  1
  O  O57  1  0.27725000  0.50000000  0.46265000  1
  O  O58  1  0.22275000  0.00000000  0.53735000  1
  O  O59  1  0.15835400  0.50000000  0.61263100  1
  O  O60  1  0.10254200  0.00000000  0.70253500  1
  O  O61  1  0.04128100  0.50000000  0.78061800  1
  O  O62  1  0.48049600  0.50000000  0.86581900  1
  O  O63  1  0.18054000  0.50000000  0.87854200  1
  O  O64  1  0.42500400  0.00000000  0.94598200  1
  O  O65  1  0.13453500  0.00000000  0.97215600  1
