# generated using pymatgen
data_Li5Cr2Ni5O12
_symmetry_space_group_name_H-M   'P 1'
_cell_length_a   5.01558800
_cell_length_b   8.91768400
_cell_length_c   9.77111095
_cell_angle_alpha   90.00000000
_cell_angle_beta   100.95883999
_cell_angle_gamma   90.00000000
_symmetry_Int_Tables_number   1
_chemical_formula_structural   Li5Cr2Ni5O12
_chemical_formula_sum   'Li10 Cr4 Ni10 O24'
_cell_volume   429.06687048
_cell_formula_units_Z   2
loop_
 _symmetry_equiv_pos_site_id
 _symmetry_equiv_pos_as_xyz
  1  'x, y, z'
loop_
 _atom_site_type_symbol
 _atom_site_label
 _atom_site_symmetry_multiplicity
 _atom_site_fract_x
 _atom_site_fract_y
 _atom_site_fract_z
 _atom_site_occupancy
  Li  Li0  1  0.75013000  0.92049500  0.24795800  1
  Li  Li1  1  0.25085050  0.57854950  0.75308100  1
  Li  Li2  1  0.24987000  0.92049500  0.75204200  1
  Li  Li3  1  0.74914950  0.57854950  0.24691900  1
  Li  Li4  1  0.00000000  0.91886500  0.00000000  1
  Li  Li5  1  0.25013000  0.42049500  0.24795800  1
  Li  Li6  1  0.75085050  0.07854950  0.75308100  1
  Li  Li7  1  0.74987000  0.42049500  0.75204200  1
  Li  Li8  1  0.24914950  0.07854950  0.24691900  1
  Li  Li9  1  0.50000000  0.41886500  0.00000000  1
  Cr  Cr10  1  0.50000000  0.75674200  0.00000000  1
  Cr  Cr11  1  0.00000000  0.74905800  0.50000000  1
  Cr  Cr12  1  0.00000000  0.25674200  0.00000000  1
  Cr  Cr13  1  0.50000000  0.24905800  0.50000000  1
  Ni  Ni14  1  0.50000000  0.58162100  0.50000000  1
  Ni  Ni15  1  0.75526400  0.75237100  0.75348900  1
  Ni  Ni16  1  0.24473600  0.75237100  0.24651100  1
  Ni  Ni17  1  0.50000000  0.91854900  0.50000000  1
  Ni  Ni18  1  0.00000000  0.58403500  0.00000000  1
  Ni  Ni19  1  0.00000000  0.08162100  0.50000000  1
  Ni  Ni20  1  0.25526400  0.25237100  0.75348900  1
  Ni  Ni21  1  0.74473600  0.25237100  0.24651100  1
  Ni  Ni22  1  0.00000000  0.41854900  0.50000000  1
  Ni  Ni23  1  0.50000000  0.08403500  0.00000000  1
  O  O24  1  0.64425600  0.59558200  0.88501800  1
  O  O25  1  0.35574400  0.59558200  0.11498200  1
  O  O26  1  0.63675350  0.74972450  0.38381900  1
  O  O27  1  0.36324650  0.74972450  0.61618100  1
  O  O28  1  0.61390400  0.90746800  0.88320400  1
  O  O29  1  0.38609600  0.90746800  0.11679600  1
  O  O30  1  0.11785350  0.59466650  0.38088900  1
  O  O31  1  0.88214650  0.59466650  0.61911100  1
  O  O32  1  0.14583550  0.74073950  0.88368300  1
  O  O33  1  0.85416450  0.74073950  0.11631700  1
  O  O34  1  0.11760850  0.90596850  0.37969900  1
  O  O35  1  0.88239150  0.90596850  0.62030100  1
  O  O36  1  0.14425600  0.09558200  0.88501800  1
  O  O37  1  0.85574400  0.09558200  0.11498200  1
  O  O38  1  0.13675350  0.24972450  0.38381900  1
  O  O39  1  0.86324650  0.24972450  0.61618100  1
  O  O40  1  0.11390400  0.40746800  0.88320400  1
  O  O41  1  0.88609600  0.40746800  0.11679600  1
  O  O42  1  0.61785350  0.09466650  0.38088900  1
  O  O43  1  0.38214650  0.09466650  0.61911100  1
  O  O44  1  0.64583550  0.24073950  0.88368300  1
  O  O45  1  0.35416450  0.24073950  0.11631700  1
  O  O46  1  0.61760850  0.40596850  0.37969900  1
  O  O47  1  0.38239150  0.40596850  0.62030100  1
