# generated using pymatgen
data_Fe3Ni2Te(PO4)6
_symmetry_space_group_name_H-M   'P 1'
_cell_length_a   8.67456949
_cell_length_b   8.67456949
_cell_length_c   20.70780661
_cell_angle_alpha   90.00000000
_cell_angle_beta   90.00000000
_cell_angle_gamma   120.00000000
_symmetry_Int_Tables_number   1
_chemical_formula_structural   Fe3Ni2Te(PO4)6
_chemical_formula_sum   'Fe9 Ni6 Te3 P18 O72'
_cell_volume   1349.46179221
_cell_formula_units_Z   3
loop_
 _symmetry_equiv_pos_site_id
 _symmetry_equiv_pos_as_xyz
  1  'x, y, z'
loop_
 _atom_site_type_symbol
 _atom_site_label
 _atom_site_symmetry_multiplicity
 _atom_site_fract_x
 _atom_site_fract_y
 _atom_site_fract_z
 _atom_site_occupancy
  Fe  Fe0  1  0.33333333  0.66666667  0.52179567  1
  Fe  Fe1  1  0.33333333  0.66666667  0.31149567  1
  Fe  Fe2  1  0.33333333  0.66666667  0.02317167  1
  Fe  Fe3  1  0.00000000  0.00000000  0.85512900  1
  Fe  Fe4  1  0.00000000  0.00000000  0.64482900  1
  Fe  Fe5  1  0.00000000  0.00000000  0.35650500  1
  Fe  Fe6  1  0.66666667  0.33333333  0.18846233  1
  Fe  Fe7  1  0.66666667  0.33333333  0.97816233  1
  Fe  Fe8  1  0.66666667  0.33333333  0.68983833  1
  Ni  Ni9  1  0.33333333  0.66666667  0.66132067  1
  Ni  Ni10  1  0.33333333  0.66666667  0.16750567  1
  Ni  Ni11  1  0.00000000  0.00000000  0.99465400  1
  Ni  Ni12  1  0.00000000  0.00000000  0.50083900  1
  Ni  Ni13  1  0.66666667  0.33333333  0.32798733  1
  Ni  Ni14  1  0.66666667  0.33333333  0.83417233  1
  Te  Te15  1  0.33333333  0.66666667  0.81069267  1
  Te  Te16  1  0.00000000  0.00000000  0.14402600  1
  Te  Te17  1  0.66666667  0.33333333  0.47735933  1
  P  P18  1  0.65990867  0.03690633  0.08405433  1
  P  P19  1  0.37699767  0.34009133  0.08405433  1
  P  P20  1  0.96309367  0.62300233  0.08405433  1
  P  P21  1  0.69628500  0.69793400  0.25237600  1
  P  P22  1  0.30206600  0.99835100  0.25237600  1
  P  P23  1  0.00164900  0.30371500  0.25237600  1
  P  P24  1  0.32657533  0.37023967  0.41738767  1
  P  P25  1  0.04366433  0.67342467  0.41738767  1
  P  P26  1  0.62976033  0.95633567  0.41738767  1
  P  P27  1  0.36295167  0.03126733  0.58570933  1
  P  P28  1  0.96873267  0.33168433  0.58570933  1
  P  P29  1  0.66831567  0.63704833  0.58570933  1
  P  P30  1  0.99324200  0.70357300  0.75072100  1
  P  P31  1  0.71033100  0.00675800  0.75072100  1
  P  P32  1  0.29642700  0.28966900  0.75072100  1
  P  P33  1  0.02961833  0.36460067  0.91904267  1
  P  P34  1  0.63539933  0.66501767  0.91904267  1
  P  P35  1  0.33498233  0.97038167  0.91904267  1
  O  O36  1  0.53484433  0.85998567  0.35619967  1
  O  O37  1  0.32514133  0.46515567  0.35619967  1
  O  O38  1  0.68041767  0.51288433  0.25891133  1
  O  O39  1  0.14001433  0.67485867  0.35619967  1
  O  O40  1  0.78874800  0.78792700  0.18651700  1
  O  O41  1  0.51027700  0.67758700  0.24296100  1
  O  O42  1  0.48711567  0.16753333  0.25891133  1
  O  O43  1  0.32241300  0.83269000  0.24296100  1
  O  O44  1  0.67616200  0.14047900  0.14503000  1
  O  O45  1  0.16731000  0.48972300  0.24296100  1
  O  O46  1  0.83448567  0.01722933  0.07362733  1
  O  O47  1  0.46431700  0.32383800  0.14503000  1
  O  O48  1  0.21207300  0.00082100  0.18651700  1
  O  O49  1  0.83246667  0.31958233  0.25891133  1
  O  O50  1  0.49957667  0.84679833  0.09250633  1
  O  O51  1  0.99917900  0.21125200  0.18651700  1
  O  O52  1  0.34722167  0.50042333  0.09250633  1
  O  O53  1  0.18274367  0.16551433  0.07362733  1
  O  O54  1  0.15320167  0.65277833  0.09250633  1
  O  O55  1  0.85952100  0.53568300  0.14503000  1
  O  O56  1  0.52298733  0.65887567  0.97582267  1
  O  O57  1  0.98277067  0.81725633  0.07362733  1
  O  O58  1  0.34112433  0.86411167  0.97582267  1
  O  O59  1  0.13588833  0.47701267  0.97582267  1
  O  O60  1  0.20151100  0.19331900  0.68953300  1
  O  O61  1  0.99180800  0.79848900  0.68953300  1
  O  O62  1  0.34708433  0.84621767  0.59224467  1
  O  O63  1  0.80668100  0.00819200  0.68953300  1
  O  O64  1  0.45541467  0.12126033  0.51985033  1
  O  O65  1  0.17694367  0.01092033  0.57629433  1
  O  O66  1  0.15378233  0.50086667  0.59224467  1
  O  O67  1  0.98907967  0.16602333  0.57629433  1
  O  O68  1  0.34282867  0.47381233  0.47836333  1
  O  O69  1  0.83397667  0.82305633  0.57629433  1
  O  O70  1  0.50115233  0.35056267  0.40696067  1
  O  O71  1  0.13098367  0.65717133  0.47836333  1
  O  O72  1  0.87873967  0.33415433  0.51985033  1
  O  O73  1  0.49913333  0.65291567  0.59224467  1
  O  O74  1  0.16624333  0.18013167  0.42583967  1
  O  O75  1  0.66584567  0.54458533  0.51985033  1
  O  O76  1  0.01388833  0.83375667  0.42583967  1
  O  O77  1  0.84941033  0.49884767  0.40696067  1
  O  O78  1  0.81986833  0.98611167  0.42583967  1
  O  O79  1  0.52618767  0.86901633  0.47836333  1
  O  O80  1  0.18965400  0.99220900  0.30915600  1
  O  O81  1  0.64943733  0.15058967  0.40696067  1
  O  O82  1  0.00779100  0.19744500  0.30915600  1
  O  O83  1  0.80255500  0.81034600  0.30915600  1
  O  O84  1  0.86817767  0.52665233  0.02286633  1
  O  O85  1  0.65847467  0.13182233  0.02286633  1
  O  O86  1  0.01375100  0.17955100  0.92557800  1
  O  O87  1  0.47334767  0.34152533  0.02286633  1
  O  O88  1  0.12208133  0.45459367  0.85318367  1
  O  O89  1  0.84361033  0.34425367  0.90962767  1
  O  O90  1  0.82044900  0.83420000  0.92557800  1
  O  O91  1  0.65574633  0.49935667  0.90962767  1
  O  O92  1  0.00949533  0.80714567  0.81169667  1
  O  O93  1  0.50064333  0.15638967  0.90962767  1
  O  O94  1  0.16781900  0.68389600  0.74029400  1
  O  O95  1  0.79765033  0.99050467  0.81169667  1
  O  O96  1  0.54540633  0.66748767  0.85318367  1
  O  O97  1  0.16580000  0.98624900  0.92557800  1
  O  O98  1  0.83291000  0.51346500  0.75917300  1
  O  O99  1  0.33251233  0.87791867  0.85318367  1
  O  O100  1  0.68055500  0.16709000  0.75917300  1
  O  O101  1  0.51607700  0.83218100  0.74029400  1
  O  O102  1  0.48653500  0.31944500  0.75917300  1
  O  O103  1  0.19285433  0.20234967  0.81169667  1
  O  O104  1  0.85632067  0.32554233  0.64248933  1
  O  O105  1  0.31610400  0.48392300  0.74029400  1
  O  O106  1  0.67445767  0.53077833  0.64248933  1
  O  O107  1  0.46922167  0.14367933  0.64248933  1
