# generated using pymatgen
data_Li6FeNiP2(CO7)2
_symmetry_space_group_name_H-M   'P 1'
_cell_length_a   4.97631756
_cell_length_b   6.49548910
_cell_length_c   8.47122537
_cell_angle_alpha   90.00000000
_cell_angle_beta   95.59103464
_cell_angle_gamma   90.00000000
_symmetry_Int_Tables_number   1
_chemical_formula_structural   Li6FeNiP2(CO7)2
_chemical_formula_sum   'Li6 Fe1 Ni1 P2 C2 O14'
_cell_volume   272.51798105
_cell_formula_units_Z   1
loop_
 _symmetry_equiv_pos_site_id
 _symmetry_equiv_pos_as_xyz
  1  'x, y, z'
loop_
 _atom_site_type_symbol
 _atom_site_label
 _atom_site_symmetry_multiplicity
 _atom_site_fract_x
 _atom_site_fract_y
 _atom_site_fract_z
 _atom_site_occupancy
  Li  Li0  1  0.78409100  0.50000000  0.89565700  1
  Li  Li1  1  0.26167300  0.26675700  0.72742200  1
  Li  Li2  1  0.26167300  0.73324300  0.72742200  1
  Li  Li3  1  0.73995600  0.76930200  0.27428900  1
  Li  Li4  1  0.73995600  0.23069800  0.27428900  1
  Li  Li5  1  0.21287300  0.00000000  0.10539700  1
  Fe  Fe6  1  0.21610700  0.50000000  0.33664900  1
  Ni  Ni7  1  0.79268500  0.00000000  0.66718500  1
  P  P8  1  0.72678300  0.50000000  0.58937100  1
  P  P9  1  0.27118000  0.00000000  0.41416400  1
  C  C10  1  0.68786000  0.00000000  0.95775300  1
  C  C11  1  0.31282500  0.50000000  0.03663400  1
  O  O12  1  0.93813300  0.00000000  0.92744700  1
  O  O13  1  0.38081800  0.50000000  0.89282300  1
  O  O14  1  0.50396100  0.00000000  0.83629100  1
  O  O15  1  0.83425300  0.31293400  0.69199300  1
  O  O16  1  0.83425300  0.68706600  0.69199300  1
  O  O17  1  0.16503700  0.00000000  0.57925200  1
  O  O18  1  0.41111800  0.50000000  0.57166600  1
  O  O19  1  0.58729400  0.00000000  0.43745000  1
  O  O20  1  0.82430700  0.50000000  0.42180400  1
  O  O21  1  0.16597600  0.18499300  0.30881700  1
  O  O22  1  0.16597600  0.81500700  0.30881700  1
  O  O23  1  0.49939700  0.50000000  0.15679400  1
  O  O24  1  0.61873300  0.00000000  0.10165100  1
  O  O25  1  0.06328400  0.50000000  0.06706800  1
