# generated using pymatgen
data_Li3Ti(FeO3)2
_symmetry_space_group_name_H-M   'P 1'
_cell_length_a   13.06785800
_cell_length_b   2.98618600
_cell_length_c   6.02432570
_cell_angle_alpha   90.00000000
_cell_angle_beta   103.51950502
_cell_angle_gamma   90.00000000
_symmetry_Int_Tables_number   1
_chemical_formula_structural   Li3Ti(FeO3)2
_chemical_formula_sum   'Li6 Ti2 Fe4 O12'
_cell_volume   228.57340593
_cell_formula_units_Z   2
loop_
 _symmetry_equiv_pos_site_id
 _symmetry_equiv_pos_as_xyz
  1  'x, y, z'
loop_
 _atom_site_type_symbol
 _atom_site_label
 _atom_site_symmetry_multiplicity
 _atom_site_fract_x
 _atom_site_fract_y
 _atom_site_fract_z
 _atom_site_occupancy
  Li  Li0  1  0.00000000  0.00000000  0.00000000  1
  Li  Li1  1  0.16791700  0.50000000  0.33114500  1
  Li  Li2  1  0.33208300  0.00000000  0.66885500  1
  Li  Li3  1  0.50000000  0.50000000  0.00000000  1
  Li  Li4  1  0.66791700  0.00000000  0.33114500  1
  Li  Li5  1  0.83208300  0.50000000  0.66885500  1
  Ti  Ti6  1  0.00000000  0.00000000  0.50000000  1
  Ti  Ti7  1  0.50000000  0.50000000  0.50000000  1
  Fe  Fe8  1  0.17132000  0.50000000  0.84297900  1
  Fe  Fe9  1  0.32868000  0.00000000  0.15702100  1
  Fe  Fe10  1  0.67132000  0.00000000  0.84297900  1
  Fe  Fe11  1  0.82868000  0.50000000  0.15702100  1
  O  O12  1  0.15502700  0.00000000  0.58631800  1
  O  O13  1  0.33359000  0.50000000  0.92591800  1
  O  O14  1  0.34497300  0.50000000  0.41368200  1
  O  O15  1  0.49996100  0.00000000  0.27721900  1
  O  O16  1  0.00003900  0.50000000  0.72278100  1
  O  O17  1  0.16641000  0.00000000  0.07408200  1
  O  O18  1  0.65502700  0.50000000  0.58631800  1
  O  O19  1  0.83359000  0.00000000  0.92591800  1
  O  O20  1  0.84497300  0.00000000  0.41368200  1
  O  O21  1  0.99996100  0.50000000  0.27721900  1
  O  O22  1  0.50003900  0.00000000  0.72278100  1
  O  O23  1  0.66641000  0.50000000  0.07408200  1
