# generated using pymatgen
data_LiMnCO4
_symmetry_space_group_name_H-M   'P 1'
_cell_length_a   3.37760180
_cell_length_b   9.18451700
_cell_length_c   9.61311699
_cell_angle_alpha   90.00000000
_cell_angle_beta   98.25261375
_cell_angle_gamma   90.00000000
_symmetry_Int_Tables_number   1
_chemical_formula_structural   LiMnCO4
_chemical_formula_sum   'Li4 Mn4 C4 O16'
_cell_volume   295.12660477
_cell_formula_units_Z   4
loop_
 _symmetry_equiv_pos_site_id
 _symmetry_equiv_pos_as_xyz
  1  'x, y, z'
loop_
 _atom_site_type_symbol
 _atom_site_label
 _atom_site_symmetry_multiplicity
 _atom_site_fract_x
 _atom_site_fract_y
 _atom_site_fract_z
 _atom_site_occupancy
  Li  Li0  1  0.79728200  0.67986800  0.08819850  1
  Li  Li1  1  0.79728200  0.82013200  0.58819850  1
  Li  Li2  1  0.20271800  0.17986800  0.41180150  1
  Li  Li3  1  0.20271800  0.32013200  0.91180150  1
  Mn  Mn4  1  0.77573700  0.43551400  0.61036150  1
  Mn  Mn5  1  0.22426300  0.93551400  0.88963850  1
  Mn  Mn6  1  0.77573700  0.06448600  0.11036150  1
  Mn  Mn7  1  0.22426300  0.56448600  0.38963850  1
  C  C8  1  0.79294700  0.36796800  0.15779850  1
  C  C9  1  0.79294700  0.13203200  0.65779850  1
  C  C10  1  0.20705300  0.86796800  0.34220150  1
  C  C11  1  0.20705300  0.63203200  0.84220150  1
  O  O12  1  0.81263400  0.49100100  0.22845150  1
  O  O13  1  0.81263400  0.00899900  0.72845150  1
  O  O14  1  0.18736600  0.99100100  0.27154850  1
  O  O15  1  0.18736600  0.50899900  0.77154850  1
  O  O16  1  0.72880900  0.88950800  0.00352450  1
  O  O17  1  0.72880900  0.61049200  0.50352450  1
  O  O18  1  0.27119100  0.38950800  0.49647550  1
  O  O19  1  0.27119100  0.11049200  0.99647550  1
  O  O20  1  0.80999700  0.24501700  0.22903450  1
  O  O21  1  0.80999700  0.25498300  0.72903450  1
  O  O22  1  0.19000300  0.74501700  0.27096550  1
  O  O23  1  0.19000300  0.75498300  0.77096550  1
  O  O24  1  0.75214400  0.36798400  0.02508050  1
  O  O25  1  0.75214400  0.13201600  0.52508050  1
  O  O26  1  0.24785600  0.86798400  0.47491950  1
  O  O27  1  0.24785600  0.63201600  0.97491950  1
