# generated using pymatgen
data_Li3V2(PO4)3
_symmetry_space_group_name_H-M   'P 1'
_cell_length_a   11.83212600
_cell_length_b   11.83212600
_cell_length_c   11.83212600
_cell_angle_alpha   90.00000000
_cell_angle_beta   90.00000000
_cell_angle_gamma   90.00000000
_symmetry_Int_Tables_number   1
_chemical_formula_structural   Li3V2(PO4)3
_chemical_formula_sum   'Li24 V16 P24 O96'
_cell_volume   1656.48824150
_cell_formula_units_Z   8
loop_
 _symmetry_equiv_pos_site_id
 _symmetry_equiv_pos_as_xyz
  1  'x, y, z'
loop_
 _atom_site_type_symbol
 _atom_site_label
 _atom_site_symmetry_multiplicity
 _atom_site_fract_x
 _atom_site_fract_y
 _atom_site_fract_z
 _atom_site_occupancy
  Li  Li0  1  0.87500000  0.50000000  0.25000000  1
  Li  Li1  1  0.00000000  0.25000000  0.62500000  1
  Li  Li2  1  0.00000000  0.25000000  0.12500000  1
  Li  Li3  1  0.12500000  0.00000000  0.25000000  1
  Li  Li4  1  0.25000000  0.87500000  0.50000000  1
  Li  Li5  1  0.25000000  0.12500000  0.00000000  1
  Li  Li6  1  0.25000000  0.62500000  0.00000000  1
  Li  Li7  1  0.25000000  0.37500000  0.50000000  1
  Li  Li8  1  0.37500000  0.50000000  0.25000000  1
  Li  Li9  1  0.50000000  0.25000000  0.87500000  1
  Li  Li10  1  0.50000000  0.25000000  0.37500000  1
  Li  Li11  1  0.62500000  0.00000000  0.25000000  1
  Li  Li12  1  0.37500000  0.00000000  0.75000000  1
  Li  Li13  1  0.50000000  0.75000000  0.12500000  1
  Li  Li14  1  0.50000000  0.75000000  0.62500000  1
  Li  Li15  1  0.62500000  0.50000000  0.75000000  1
  Li  Li16  1  0.75000000  0.37500000  0.00000000  1
  Li  Li17  1  0.75000000  0.62500000  0.50000000  1
  Li  Li18  1  0.75000000  0.12500000  0.50000000  1
  Li  Li19  1  0.75000000  0.87500000  0.00000000  1
  Li  Li20  1  0.87500000  0.00000000  0.75000000  1
  Li  Li21  1  0.00000000  0.75000000  0.37500000  1
  Li  Li22  1  0.00000000  0.75000000  0.87500000  1
  Li  Li23  1  0.12500000  0.50000000  0.75000000  1
  V  V24  1  0.75000000  0.25000000  0.25000000  1
  V  V25  1  0.00000000  0.00000000  0.00000000  1
  V  V26  1  0.00000000  0.00000000  0.50000000  1
  V  V27  1  0.00000000  0.50000000  0.00000000  1
  V  V28  1  0.25000000  0.75000000  0.25000000  1
  V  V29  1  0.25000000  0.25000000  0.75000000  1
  V  V30  1  0.25000000  0.25000000  0.25000000  1
  V  V31  1  0.50000000  0.00000000  0.00000000  1
  V  V32  1  0.25000000  0.75000000  0.75000000  1
  V  V33  1  0.50000000  0.50000000  0.50000000  1
  V  V34  1  0.50000000  0.50000000  0.00000000  1
  V  V35  1  0.50000000  0.00000000  0.50000000  1
  V  V36  1  0.75000000  0.25000000  0.75000000  1
  V  V37  1  0.75000000  0.75000000  0.25000000  1
  V  V38  1  0.75000000  0.75000000  0.75000000  1
  V  V39  1  0.00000000  0.50000000  0.50000000  1
  P  P40  1  0.75000000  0.37500000  0.50000000  1
  P  P41  1  0.00000000  0.25000000  0.37500000  1
  P  P42  1  0.00000000  0.75000000  0.12500000  1
  P  P43  1  0.12500000  0.00000000  0.75000000  1
  P  P44  1  0.12500000  0.50000000  0.25000000  1
  P  P45  1  0.25000000  0.12500000  0.50000000  1
  P  P46  1  0.25000000  0.37500000  0.00000000  1
  P  P47  1  0.37500000  0.00000000  0.25000000  1
  P  P48  1  0.37500000  0.50000000  0.75000000  1
  P  P49  1  0.50000000  0.25000000  0.12500000  1
  P  P50  1  0.50000000  0.75000000  0.37500000  1
  P  P51  1  0.75000000  0.12500000  0.00000000  1
  P  P52  1  0.25000000  0.87500000  0.00000000  1
  P  P53  1  0.50000000  0.75000000  0.87500000  1
  P  P54  1  0.50000000  0.25000000  0.62500000  1
  P  P55  1  0.62500000  0.50000000  0.25000000  1
  P  P56  1  0.62500000  0.00000000  0.75000000  1
  P  P57  1  0.75000000  0.62500000  0.00000000  1
  P  P58  1  0.75000000  0.87500000  0.50000000  1
  P  P59  1  0.87500000  0.50000000  0.75000000  1
  P  P60  1  0.87500000  0.00000000  0.25000000  1
  P  P61  1  0.00000000  0.75000000  0.62500000  1
  P  P62  1  0.00000000  0.25000000  0.87500000  1
  P  P63  1  0.25000000  0.62500000  0.50000000  1
  O  O64  1  0.70740850  0.59084450  0.29803050  1
  O  O65  1  0.79803050  0.29259150  0.59084450  1
  O  O66  1  0.84084450  0.45740850  0.45196950  1
  O  O67  1  0.90915550  0.70196950  0.20740850  1
  O  O68  1  0.90915550  0.29803050  0.29259150  1
  O  O69  1  0.90915550  0.20196950  0.79259150  1
  O  O70  1  0.95196950  0.15915550  0.45740850  1
  O  O71  1  0.95740850  0.04803050  0.15915550  1
  O  O72  1  0.04259150  0.54803050  0.34084450  1
  O  O73  1  0.04259150  0.45196950  0.15915550  1
  O  O74  1  0.04259150  0.04803050  0.65915550  1
  O  O75  1  0.04803050  0.34084450  0.45740850  1
  O  O76  1  0.04803050  0.65915550  0.04259150  1
  O  O77  1  0.04803050  0.15915550  0.95740850  1
  O  O78  1  0.09084450  0.20196950  0.29259150  1
  O  O79  1  0.15915550  0.04259150  0.45196950  1
  O  O80  1  0.15915550  0.95740850  0.04803050  1
  O  O81  1  0.15915550  0.45740850  0.95196950  1
  O  O82  1  0.20196950  0.29259150  0.09084450  1
  O  O83  1  0.20196950  0.20740850  0.59084450  1
  O  O84  1  0.20196950  0.79259150  0.90915550  1
  O  O85  1  0.20740850  0.40915550  0.29803050  1
  O  O86  1  0.20740850  0.59084450  0.20196950  1
  O  O87  1  0.20740850  0.90915550  0.70196950  1
  O  O88  1  0.29259150  0.09084450  0.20196950  1
  O  O89  1  0.29259150  0.90915550  0.29803050  1
  O  O90  1  0.29259150  0.59084450  0.79803050  1
  O  O91  1  0.29803050  0.70740850  0.59084450  1
  O  O92  1  0.29803050  0.20740850  0.40915550  1
  O  O93  1  0.29803050  0.29259150  0.90915550  1
  O  O94  1  0.34084450  0.45740850  0.04803050  1
  O  O95  1  0.34084450  0.04259150  0.54803050  1
  O  O96  1  0.34084450  0.54259150  0.45196950  1
  O  O97  1  0.40915550  0.29803050  0.20740850  1
  O  O98  1  0.45196950  0.34084450  0.54259150  1
  O  O99  1  0.45196950  0.15915550  0.04259150  1
  O  O100  1  0.45196950  0.84084450  0.45740850  1
  O  O101  1  0.45740850  0.45196950  0.84084450  1
  O  O102  1  0.45740850  0.95196950  0.15915550  1
  O  O103  1  0.45740850  0.04803050  0.34084450  1
  O  O104  1  0.54259150  0.45196950  0.34084450  1
  O  O105  1  0.54803050  0.34084450  0.04259150  1
  O  O106  1  0.59084450  0.79803050  0.29259150  1
  O  O107  1  0.59084450  0.29803050  0.70740850  1
  O  O108  1  0.59084450  0.20196950  0.20740850  1
  O  O109  1  0.65915550  0.04259150  0.04803050  1
  O  O110  1  0.70196950  0.20740850  0.90915550  1
  O  O111  1  0.79259150  0.90915550  0.20196950  1
  O  O112  1  0.20740850  0.09084450  0.79803050  1
  O  O113  1  0.29803050  0.79259150  0.09084450  1
  O  O114  1  0.34084450  0.95740850  0.95196950  1
  O  O115  1  0.40915550  0.20196950  0.70740850  1
  O  O116  1  0.40915550  0.79803050  0.79259150  1
  O  O117  1  0.40915550  0.70196950  0.29259150  1
  O  O118  1  0.45196950  0.65915550  0.95740850  1
  O  O119  1  0.45740850  0.54803050  0.65915550  1
  O  O120  1  0.54259150  0.04803050  0.84084450  1
  O  O121  1  0.54259150  0.95196950  0.65915550  1
  O  O122  1  0.54259150  0.54803050  0.15915550  1
  O  O123  1  0.54803050  0.84084450  0.95740850  1
  O  O124  1  0.54803050  0.15915550  0.54259150  1
  O  O125  1  0.54803050  0.65915550  0.45740850  1
  O  O126  1  0.59084450  0.70196950  0.79259150  1
  O  O127  1  0.65915550  0.54259150  0.95196950  1
  O  O128  1  0.65915550  0.45740850  0.54803050  1
  O  O129  1  0.65915550  0.95740850  0.45196950  1
  O  O130  1  0.70196950  0.79259150  0.59084450  1
  O  O131  1  0.70196950  0.70740850  0.09084450  1
  O  O132  1  0.70196950  0.29259150  0.40915550  1
  O  O133  1  0.70740850  0.90915550  0.79803050  1
  O  O134  1  0.70740850  0.09084450  0.70196950  1
  O  O135  1  0.70740850  0.40915550  0.20196950  1
  O  O136  1  0.79259150  0.59084450  0.70196950  1
  O  O137  1  0.79259150  0.40915550  0.79803050  1
  O  O138  1  0.79259150  0.09084450  0.29803050  1
  O  O139  1  0.79803050  0.20740850  0.09084450  1
  O  O140  1  0.79803050  0.70740850  0.90915550  1
  O  O141  1  0.79803050  0.79259150  0.40915550  1
  O  O142  1  0.84084450  0.95740850  0.54803050  1
  O  O143  1  0.84084450  0.54259150  0.04803050  1
  O  O144  1  0.84084450  0.04259150  0.95196950  1
  O  O145  1  0.90915550  0.79803050  0.70740850  1
  O  O146  1  0.95196950  0.84084450  0.04259150  1
  O  O147  1  0.95196950  0.65915550  0.54259150  1
  O  O148  1  0.95196950  0.34084450  0.95740850  1
  O  O149  1  0.95740850  0.95196950  0.34084450  1
  O  O150  1  0.95740850  0.45196950  0.65915550  1
  O  O151  1  0.95740850  0.54803050  0.84084450  1
  O  O152  1  0.04259150  0.95196950  0.84084450  1
  O  O153  1  0.04803050  0.84084450  0.54259150  1
  O  O154  1  0.09084450  0.29803050  0.79259150  1
  O  O155  1  0.09084450  0.79803050  0.20740850  1
  O  O156  1  0.09084450  0.70196950  0.70740850  1
  O  O157  1  0.15915550  0.54259150  0.54803050  1
  O  O158  1  0.20196950  0.70740850  0.40915550  1
  O  O159  1  0.29259150  0.40915550  0.70196950  1
