# generated using pymatgen
data_CrFeO4
_symmetry_space_group_name_H-M   'P 1'
_cell_length_a   5.58831800
_cell_length_b   8.39874400
_cell_length_c   6.33330500
_cell_angle_alpha   90.00000000
_cell_angle_beta   90.00000000
_cell_angle_gamma   90.00000000
_symmetry_Int_Tables_number   1
_chemical_formula_structural   CrFeO4
_chemical_formula_sum   'Cr4 Fe4 O16'
_cell_volume   297.25273457
_cell_formula_units_Z   4
loop_
 _symmetry_equiv_pos_site_id
 _symmetry_equiv_pos_as_xyz
  1  'x, y, z'
loop_
 _atom_site_type_symbol
 _atom_site_label
 _atom_site_symmetry_multiplicity
 _atom_site_fract_x
 _atom_site_fract_y
 _atom_site_fract_z
 _atom_site_occupancy
  Cr  Cr0  1  0.50000000  0.85625800  0.25000000  1
  Cr  Cr1  1  0.50000000  0.14374200  0.75000000  1
  Cr  Cr2  1  0.00000000  0.35625800  0.25000000  1
  Cr  Cr3  1  0.00000000  0.64374200  0.75000000  1
  Fe  Fe4  1  0.00000000  0.00000000  0.00000000  1
  Fe  Fe5  1  0.00000000  0.00000000  0.50000000  1
  Fe  Fe6  1  0.50000000  0.50000000  0.00000000  1
  Fe  Fe7  1  0.50000000  0.50000000  0.50000000  1
  O  O8  1  0.23882750  0.97449750  0.25000000  1
  O  O9  1  0.23882750  0.02550250  0.75000000  1
  O  O10  1  0.50000000  0.73291900  0.04139800  1
  O  O11  1  0.50000000  0.73291900  0.45860200  1
  O  O12  1  0.50000000  0.26708100  0.54139800  1
  O  O13  1  0.50000000  0.26708100  0.95860200  1
  O  O14  1  0.76117250  0.97449750  0.25000000  1
  O  O15  1  0.76117250  0.02550250  0.75000000  1
  O  O16  1  0.73882750  0.47449750  0.25000000  1
  O  O17  1  0.73882750  0.52550250  0.75000000  1
  O  O18  1  0.00000000  0.23291900  0.04139800  1
  O  O19  1  0.00000000  0.23291900  0.45860200  1
  O  O20  1  0.00000000  0.76708100  0.54139800  1
  O  O21  1  0.00000000  0.76708100  0.95860200  1
  O  O22  1  0.26117250  0.47449750  0.25000000  1
  O  O23  1  0.26117250  0.52550250  0.75000000  1
