# generated using pymatgen
data_Zn3Co9O16
_symmetry_space_group_name_H-M   'P 1'
_cell_length_a   5.78125638
_cell_length_b   5.78125638
_cell_length_c   28.53179871
_cell_angle_alpha   90.00000000
_cell_angle_beta   90.00000000
_cell_angle_gamma   120.00000000
_symmetry_Int_Tables_number   1
_chemical_formula_structural   Zn3Co9O16
_chemical_formula_sum   'Zn9 Co27 O48'
_cell_volume   825.85583570
_cell_formula_units_Z   3
loop_
 _symmetry_equiv_pos_site_id
 _symmetry_equiv_pos_as_xyz
  1  'x, y, z'
loop_
 _atom_site_type_symbol
 _atom_site_label
 _atom_site_symmetry_multiplicity
 _atom_site_fract_x
 _atom_site_fract_y
 _atom_site_fract_z
 _atom_site_occupancy
  Zn  Zn0  1  0.66666667  0.33333333  0.02085333  1
  Zn  Zn1  1  0.33333333  0.66666667  0.04256467  1
  Zn  Zn2  1  0.33333333  0.66666667  0.16600167  1
  Zn  Zn3  1  0.33333333  0.66666667  0.35418667  1
  Zn  Zn4  1  0.00000000  0.00000000  0.37589800  1
  Zn  Zn5  1  0.00000000  0.00000000  0.49933500  1
  Zn  Zn6  1  0.00000000  0.00000000  0.68752000  1
  Zn  Zn7  1  0.66666667  0.33333333  0.70923133  1
  Zn  Zn8  1  0.66666667  0.33333333  0.83266833  1
  Co  Co9  1  0.83363967  0.16636033  0.10538933  1
  Co  Co10  1  0.66666667  0.33333333  0.33277433  1
  Co  Co11  1  0.83363967  0.66727933  0.10538933  1
  Co  Co12  1  0.33272067  0.16636033  0.10538933  1
  Co  Co13  1  0.66666667  0.33333333  0.20870933  1
  Co  Co14  1  0.66828733  0.83414367  0.26965667  1
  Co  Co15  1  0.16585633  0.33171267  0.26965667  1
  Co  Co16  1  0.16585633  0.83414367  0.26965667  1
  Co  Co17  1  0.00000000  0.00000000  0.18748700  1
  Co  Co18  1  0.50030633  0.49969367  0.43872267  1
  Co  Co19  1  0.33333333  0.66666667  0.66610767  1
  Co  Co20  1  0.50030633  0.00061267  0.43872267  1
  Co  Co21  1  0.99938733  0.49969367  0.43872267  1
  Co  Co22  1  0.33333333  0.66666667  0.54204267  1
  Co  Co23  1  0.33495400  0.16747700  0.60299000  1
  Co  Co24  1  0.83252300  0.66504600  0.60299000  1
  Co  Co25  1  0.83252300  0.16747700  0.60299000  1
  Co  Co26  1  0.66666667  0.33333333  0.52082033  1
  Co  Co27  1  0.16697300  0.83302700  0.77205600  1
  Co  Co28  1  0.00000000  0.00000000  0.99944100  1
  Co  Co29  1  0.16697300  0.33394600  0.77205600  1
  Co  Co30  1  0.66605400  0.83302700  0.77205600  1
  Co  Co31  1  0.00000000  0.00000000  0.87537600  1
  Co  Co32  1  0.00162067  0.50081033  0.93632333  1
  Co  Co33  1  0.49918967  0.99837933  0.93632333  1
  Co  Co34  1  0.49918967  0.50081033  0.93632333  1
  Co  Co35  1  0.33333333  0.66666667  0.85415367  1
  O  O36  1  0.51394667  0.48605333  0.06867633  1
  O  O37  1  0.66666667  0.33333333  0.14002333  1
  O  O38  1  0.70599600  0.85299800  0.14412100  1
  O  O39  1  0.14700200  0.29400400  0.14412100  1
  O  O40  1  0.51394667  0.02789333  0.06867633  1
  O  O41  1  0.97210667  0.48605333  0.06867633  1
  O  O42  1  0.14700200  0.85299800  0.14412100  1
  O  O43  1  0.48910333  0.51089667  0.30637367  1
  O  O44  1  0.33333333  0.66666667  0.23549567  1
  O  O45  1  0.00000000  0.00000000  0.06940700  1
  O  O46  1  0.02179333  0.51089667  0.30637367  1
  O  O47  1  0.48910333  0.97820667  0.30637367  1
  O  O48  1  0.85245533  0.70491067  0.23080167  1
  O  O49  1  0.29508933  0.14754467  0.23080167  1
  O  O50  1  0.85245533  0.14754467  0.23080167  1
  O  O51  1  0.00000000  0.00000000  0.30496800  1
  O  O52  1  0.18061333  0.81938667  0.40200967  1
  O  O53  1  0.33333333  0.66666667  0.47335667  1
  O  O54  1  0.37266267  0.18633133  0.47745433  1
  O  O55  1  0.81366867  0.62733733  0.47745433  1
  O  O56  1  0.18061333  0.36122667  0.40200967  1
  O  O57  1  0.63877333  0.81938667  0.40200967  1
  O  O58  1  0.81366867  0.18633133  0.47745433  1
  O  O59  1  0.15577000  0.84423000  0.63970700  1
  O  O60  1  0.00000000  0.00000000  0.56882900  1
  O  O61  1  0.66666667  0.33333333  0.40274033  1
  O  O62  1  0.68846000  0.84423000  0.63970700  1
  O  O63  1  0.15577000  0.31154000  0.63970700  1
  O  O64  1  0.51912200  0.03824400  0.56413500  1
  O  O65  1  0.96175600  0.48087800  0.56413500  1
  O  O66  1  0.51912200  0.48087800  0.56413500  1
  O  O67  1  0.66666667  0.33333333  0.63830133  1
  O  O68  1  0.84728000  0.15272000  0.73534300  1
  O  O69  1  0.00000000  0.00000000  0.80669000  1
  O  O70  1  0.03932933  0.51966467  0.81078767  1
  O  O71  1  0.48033533  0.96067067  0.81078767  1
  O  O72  1  0.84728000  0.69456000  0.73534300  1
  O  O73  1  0.30544000  0.15272000  0.73534300  1
  O  O74  1  0.48033533  0.51966467  0.81078767  1
  O  O75  1  0.82243667  0.17756333  0.97304033  1
  O  O76  1  0.66666667  0.33333333  0.90216233  1
  O  O77  1  0.33333333  0.66666667  0.73607367  1
  O  O78  1  0.35512667  0.17756333  0.97304033  1
  O  O79  1  0.82243667  0.64487333  0.97304033  1
  O  O80  1  0.18578867  0.37157733  0.89746833  1
  O  O81  1  0.62842267  0.81421133  0.89746833  1
  O  O82  1  0.18578867  0.81421133  0.89746833  1
  O  O83  1  0.33333333  0.66666667  0.97163467  1
