# generated using pymatgen
data_V2O5
_symmetry_space_group_name_H-M   'P 1'
_cell_length_a   5.81874800
_cell_length_b   9.80336200
_cell_length_c   19.79251000
_cell_angle_alpha   90.00000000
_cell_angle_beta   90.00000000
_cell_angle_gamma   90.00000000
_symmetry_Int_Tables_number   1
_chemical_formula_structural   V2O5
_chemical_formula_sum   'V16 O40'
_cell_volume   1129.02994774
_cell_formula_units_Z   8
loop_
 _symmetry_equiv_pos_site_id
 _symmetry_equiv_pos_as_xyz
  1  'x, y, z'
loop_
 _atom_site_type_symbol
 _atom_site_label
 _atom_site_symmetry_multiplicity
 _atom_site_fract_x
 _atom_site_fract_y
 _atom_site_fract_z
 _atom_site_occupancy
  V  V0  1  0.26532450  0.17210500  0.82642250  1
  V  V1  1  0.51532450  0.92210500  0.92357750  1
  V  V2  1  0.01532450  0.07789500  0.57642250  1
  V  V3  1  0.26532450  0.32789500  0.67357750  1
  V  V4  1  0.76532450  0.17210500  0.32642250  1
  V  V5  1  0.01532450  0.92210500  0.42357750  1
  V  V6  1  0.51532450  0.07789500  0.07642250  1
  V  V7  1  0.76532450  0.32789500  0.17357750  1
  V  V8  1  0.76532450  0.67210500  0.82642250  1
  V  V9  1  0.01532450  0.42210500  0.92357750  1
  V  V10  1  0.51532450  0.57789500  0.57642250  1
  V  V11  1  0.76532450  0.82789500  0.67357750  1
  V  V12  1  0.26532450  0.67210500  0.32642250  1
  V  V13  1  0.51532450  0.42210500  0.42357750  1
  V  V14  1  0.01532450  0.57789500  0.07642250  1
  V  V15  1  0.26532450  0.82789500  0.17357750  1
  O  O16  1  0.37719500  0.25000000  0.75000000  1
  O  O17  1  0.02546900  0.09754100  0.80867700  1
  O  O18  1  0.46420650  0.05079400  0.86253550  1
  O  O19  1  0.21420650  0.30079400  0.88746450  1
  O  O20  1  0.27546900  0.84754100  0.94132300  1
  O  O21  1  0.12719500  0.00000000  0.50000000  1
  O  O22  1  0.77546900  0.15245900  0.55867700  1
  O  O23  1  0.21420650  0.19920600  0.61253550  1
  O  O24  1  0.96420650  0.94920600  0.63746450  1
  O  O25  1  0.52546900  0.90245900  0.69132300  1
  O  O26  1  0.87719500  0.25000000  0.25000000  1
  O  O27  1  0.52546900  0.09754100  0.30867700  1
  O  O28  1  0.96420650  0.05079400  0.36253550  1
  O  O29  1  0.71420650  0.30079400  0.38746450  1
  O  O30  1  0.77546900  0.84754100  0.44132300  1
  O  O31  1  0.62719500  0.00000000  0.00000000  1
  O  O32  1  0.27546900  0.15245900  0.05867700  1
  O  O33  1  0.71420650  0.19920600  0.11253550  1
  O  O34  1  0.46420650  0.94920600  0.13746450  1
  O  O35  1  0.02546900  0.90245900  0.19132300  1
  O  O36  1  0.87719500  0.75000000  0.75000000  1
  O  O37  1  0.52546900  0.59754100  0.80867700  1
  O  O38  1  0.96420650  0.55079400  0.86253550  1
  O  O39  1  0.71420650  0.80079400  0.88746450  1
  O  O40  1  0.77546900  0.34754100  0.94132300  1
  O  O41  1  0.62719500  0.50000000  0.50000000  1
  O  O42  1  0.27546900  0.65245900  0.55867700  1
  O  O43  1  0.71420650  0.69920600  0.61253550  1
  O  O44  1  0.46420650  0.44920600  0.63746450  1
  O  O45  1  0.02546900  0.40245900  0.69132300  1
  O  O46  1  0.37719500  0.75000000  0.25000000  1
  O  O47  1  0.02546900  0.59754100  0.30867700  1
  O  O48  1  0.46420650  0.55079400  0.36253550  1
  O  O49  1  0.21420650  0.80079400  0.38746450  1
  O  O50  1  0.27546900  0.34754100  0.44132300  1
  O  O51  1  0.12719500  0.50000000  0.00000000  1
  O  O52  1  0.77546900  0.65245900  0.05867700  1
  O  O53  1  0.21420650  0.69920600  0.11253550  1
  O  O54  1  0.96420650  0.44920600  0.13746450  1
  O  O55  1  0.52546900  0.40245900  0.19132300  1
