# generated using pymatgen
data_Mn3Fe3O8
_symmetry_space_group_name_H-M   'P 1'
_cell_length_a   6.10263800
_cell_length_b   6.22332600
_cell_length_c   8.17898800
_cell_angle_alpha   90.00000000
_cell_angle_beta   90.00000000
_cell_angle_gamma   90.00000000
_symmetry_Int_Tables_number   1
_chemical_formula_structural   Mn3Fe3O8
_chemical_formula_sum   'Mn6 Fe6 O16'
_cell_volume   310.62737845
_cell_formula_units_Z   2
loop_
 _symmetry_equiv_pos_site_id
 _symmetry_equiv_pos_as_xyz
  1  'x, y, z'
loop_
 _atom_site_type_symbol
 _atom_site_label
 _atom_site_symmetry_multiplicity
 _atom_site_fract_x
 _atom_site_fract_y
 _atom_site_fract_z
 _atom_site_occupancy
  Mn  Mn0  1  0.00000000  0.75118750  0.37544900  1
  Mn  Mn1  1  0.00000000  0.50000000  0.00488150  1
  Mn  Mn2  1  0.50000000  0.74881250  0.87544900  1
  Mn  Mn3  1  0.50000000  0.25118750  0.87544900  1
  Mn  Mn4  1  0.50000000  0.00000000  0.50488150  1
  Mn  Mn5  1  0.00000000  0.24881250  0.37544900  1
  Fe  Fe6  1  0.24961450  0.50000000  0.62425050  1
  Fe  Fe7  1  0.50000000  0.50000000  0.24936350  1
  Fe  Fe8  1  0.25038550  0.00000000  0.12425050  1
  Fe  Fe9  1  0.74961450  0.00000000  0.12425050  1
  Fe  Fe10  1  0.00000000  0.00000000  0.74936350  1
  Fe  Fe11  1  0.75038550  0.50000000  0.62425050  1
  O  O12  1  0.22926950  0.50000000  0.38675150  1
  O  O13  1  0.00000000  0.78418800  0.13807550  1
  O  O14  1  0.00000000  0.71826600  0.61283950  1
  O  O15  1  0.00000000  0.21581200  0.13807550  1
  O  O16  1  0.76935300  0.00000000  0.36050700  1
  O  O17  1  0.27073050  0.00000000  0.88675150  1
  O  O18  1  0.23064700  0.00000000  0.36050700  1
  O  O19  1  0.50000000  0.78173400  0.11283950  1
  O  O20  1  0.72926950  0.00000000  0.88675150  1
  O  O21  1  0.50000000  0.28418800  0.63807550  1
  O  O22  1  0.50000000  0.21826600  0.11283950  1
  O  O23  1  0.50000000  0.71581200  0.63807550  1
  O  O24  1  0.26935300  0.50000000  0.86050700  1
  O  O25  1  0.77073050  0.50000000  0.38675150  1
  O  O26  1  0.73064700  0.50000000  0.86050700  1
  O  O27  1  0.00000000  0.28173400  0.61283950  1
