# generated using pymatgen
data_BaYb2(MoO4)4
_symmetry_space_group_name_H-M   'P 1'
_cell_length_a   5.28074600
_cell_length_b   12.79936600
_cell_length_c   19.83515392
_cell_angle_alpha   90.00000000
_cell_angle_beta   91.64453691
_cell_angle_gamma   90.00000000
_symmetry_Int_Tables_number   1
_chemical_formula_structural   BaYb2(MoO4)4
_chemical_formula_sum   'Ba4 Yb8 Mo16 O64'
_cell_volume   1340.10982996
_cell_formula_units_Z   4
loop_
 _symmetry_equiv_pos_site_id
 _symmetry_equiv_pos_as_xyz
  1  'x, y, z'
loop_
 _atom_site_type_symbol
 _atom_site_label
 _atom_site_symmetry_multiplicity
 _atom_site_fract_x
 _atom_site_fract_y
 _atom_site_fract_z
 _atom_site_occupancy
  Ba  Ba0  1  0.50000000  0.53298500  0.25000000  1
  Ba  Ba1  1  0.00000000  0.96701500  0.75000000  1
  Ba  Ba2  1  0.00000000  0.03298500  0.25000000  1
  Ba  Ba3  1  0.50000000  0.46701500  0.75000000  1
  Yb  Yb4  1  0.00395450  0.85189450  0.96955900  1
  Yb  Yb5  1  0.49604550  0.64810550  0.03044100  1
  Yb  Yb6  1  0.50395450  0.64810550  0.46955900  1
  Yb  Yb7  1  0.99604550  0.85189450  0.53044100  1
  Yb  Yb8  1  0.50395450  0.35189450  0.96955900  1
  Yb  Yb9  1  0.99604550  0.14810550  0.03044100  1
  Yb  Yb10  1  0.00395450  0.14810550  0.46955900  1
  Yb  Yb11  1  0.49604550  0.35189450  0.53044100  1
  Mo  Mo12  1  0.99793950  0.74128350  0.14575900  1
  Mo  Mo13  1  0.49793950  0.75871650  0.64575900  1
  Mo  Mo14  1  0.98744700  0.55866000  0.91064300  1
  Mo  Mo15  1  0.48744700  0.94134000  0.41064300  1
  Mo  Mo16  1  0.51255300  0.94134000  0.08935700  1
  Mo  Mo17  1  0.50206050  0.75871650  0.85424100  1
  Mo  Mo18  1  0.00206050  0.74128350  0.35424100  1
  Mo  Mo19  1  0.01255300  0.55866000  0.58935700  1
  Mo  Mo20  1  0.49793950  0.24128350  0.14575900  1
  Mo  Mo21  1  0.99793950  0.25871650  0.64575900  1
  Mo  Mo22  1  0.48744700  0.05866000  0.91064300  1
  Mo  Mo23  1  0.98744700  0.44134000  0.41064300  1
  Mo  Mo24  1  0.01255300  0.44134000  0.08935700  1
  Mo  Mo25  1  0.00206050  0.25871650  0.85424100  1
  Mo  Mo26  1  0.50206050  0.24128350  0.35424100  1
  Mo  Mo27  1  0.51255300  0.05866000  0.58935700  1
  O  O28  1  0.72711400  0.95133800  0.60181600  1
  O  O29  1  0.23882050  0.84921850  0.63350100  1
  O  O30  1  0.83888950  0.66910850  0.95391200  1
  O  O31  1  0.33888950  0.83089150  0.45391200  1
  O  O32  1  0.12551150  0.58389450  0.83084100  1
  O  O33  1  0.79274000  0.69530900  0.28969000  1
  O  O34  1  0.13377800  0.86465400  0.32732400  1
  O  O35  1  0.24832350  0.98339750  0.03517200  1
  O  O36  1  0.76117950  0.84921850  0.86649900  1
  O  O37  1  0.70726000  0.80469100  0.71031000  1
  O  O38  1  0.37448850  0.91610550  0.16915900  1
  O  O39  1  0.20726000  0.69530900  0.21031000  1
  O  O40  1  0.62551150  0.91610550  0.33084100  1
  O  O41  1  0.87448850  0.58389450  0.66915900  1
  O  O42  1  0.29274000  0.80469100  0.78969000  1
  O  O43  1  0.86622200  0.86465400  0.17267600  1
  O  O44  1  0.77288600  0.54866200  0.39818400  1
  O  O45  1  0.74832350  0.51660250  0.53517200  1
  O  O46  1  0.63377800  0.63534600  0.82732400  1
  O  O47  1  0.66111050  0.83089150  0.04608800  1
  O  O48  1  0.75167650  0.98339750  0.46482800  1
  O  O49  1  0.27288600  0.95133800  0.89818400  1
  O  O50  1  0.73882050  0.65078150  0.13350100  1
  O  O51  1  0.16111050  0.66910850  0.54608800  1
  O  O52  1  0.16937550  0.76167650  0.06802200  1
  O  O53  1  0.25167650  0.51660250  0.96482800  1
  O  O54  1  0.83062450  0.76167650  0.43197800  1
  O  O55  1  0.26117950  0.65078150  0.36649900  1
  O  O56  1  0.33062450  0.73832350  0.93197800  1
  O  O57  1  0.22711400  0.54866200  0.10181600  1
  O  O58  1  0.66937550  0.73832350  0.56802200  1
  O  O59  1  0.36622200  0.63534600  0.67267600  1
  O  O60  1  0.22711400  0.45133800  0.60181600  1
  O  O61  1  0.73882050  0.34921850  0.63350100  1
  O  O62  1  0.33888950  0.16910850  0.95391200  1
  O  O63  1  0.83888950  0.33089150  0.45391200  1
  O  O64  1  0.62551150  0.08389450  0.83084100  1
  O  O65  1  0.29274000  0.19530900  0.28969000  1
  O  O66  1  0.63377800  0.36465400  0.32732400  1
  O  O67  1  0.74832350  0.48339750  0.03517200  1
  O  O68  1  0.26117950  0.34921850  0.86649900  1
  O  O69  1  0.20726000  0.30469100  0.71031000  1
  O  O70  1  0.87448850  0.41610550  0.16915900  1
  O  O71  1  0.70726000  0.19530900  0.21031000  1
  O  O72  1  0.12551150  0.41610550  0.33084100  1
  O  O73  1  0.37448850  0.08389450  0.66915900  1
  O  O74  1  0.79274000  0.30469100  0.78969000  1
  O  O75  1  0.36622200  0.36465400  0.17267600  1
  O  O76  1  0.27288600  0.04866200  0.39818400  1
  O  O77  1  0.24832350  0.01660250  0.53517200  1
  O  O78  1  0.13377800  0.13534600  0.82732400  1
  O  O79  1  0.16111050  0.33089150  0.04608800  1
  O  O80  1  0.25167650  0.48339750  0.46482800  1
  O  O81  1  0.77288600  0.45133800  0.89818400  1
  O  O82  1  0.23882050  0.15078150  0.13350100  1
  O  O83  1  0.66111050  0.16910850  0.54608800  1
  O  O84  1  0.66937550  0.26167650  0.06802200  1
  O  O85  1  0.75167650  0.01660250  0.96482800  1
  O  O86  1  0.33062450  0.26167650  0.43197800  1
  O  O87  1  0.76117950  0.15078150  0.36649900  1
  O  O88  1  0.83062450  0.23832350  0.93197800  1
  O  O89  1  0.72711400  0.04866200  0.10181600  1
  O  O90  1  0.16937550  0.23832350  0.56802200  1
  O  O91  1  0.86622200  0.13534600  0.67267600  1
