# generated using pymatgen
data_Li4Cr3Cu3(SbO8)2
_symmetry_space_group_name_H-M   'P 1'
_cell_length_a   10.32323882
_cell_length_b   5.93129683
_cell_length_c   9.62741468
_cell_angle_alpha   90.00000000
_cell_angle_beta   91.09365807
_cell_angle_gamma   90.00000000
_symmetry_Int_Tables_number   1
_chemical_formula_structural   Li4Cr3Cu3(SbO8)2
_chemical_formula_sum   'Li8 Cr6 Cu6 Sb4 O32'
_cell_volume   589.38107933
_cell_formula_units_Z   2
loop_
 _symmetry_equiv_pos_site_id
 _symmetry_equiv_pos_as_xyz
  1  'x, y, z'
loop_
 _atom_site_type_symbol
 _atom_site_label
 _atom_site_symmetry_multiplicity
 _atom_site_fract_x
 _atom_site_fract_y
 _atom_site_fract_z
 _atom_site_occupancy
  Li  Li0  1  0.66525850  0.00000000  0.09731300  1
  Li  Li1  1  0.49994450  0.50000000  0.00725000  1
  Li  Li2  1  0.50111000  0.50000000  0.51029200  1
  Li  Li3  1  0.83666100  0.50000000  0.59834300  1
  Li  Li4  1  0.16525850  0.50000000  0.09731300  1
  Li  Li5  1  0.99994450  0.00000000  0.00725000  1
  Li  Li6  1  0.00111000  0.00000000  0.51029200  1
  Li  Li7  1  0.33666100  0.00000000  0.59834300  1
  Cr  Cr8  1  0.82967700  0.00000000  0.78489300  1
  Cr  Cr9  1  0.91405450  0.74531850  0.28587600  1
  Cr  Cr10  1  0.91405450  0.25468150  0.28587600  1
  Cr  Cr11  1  0.32967700  0.50000000  0.78489300  1
  Cr  Cr12  1  0.41405450  0.24531850  0.28587600  1
  Cr  Cr13  1  0.41405450  0.75468150  0.28587600  1
  Cu  Cu14  1  0.58592800  0.24558300  0.78677400  1
  Cu  Cu15  1  0.58592800  0.75441700  0.78677400  1
  Cu  Cu16  1  0.66953200  0.50000000  0.28540300  1
  Cu  Cu17  1  0.08592800  0.74558300  0.78677400  1
  Cu  Cu18  1  0.08592800  0.25441700  0.78677400  1
  Cu  Cu19  1  0.16953200  0.00000000  0.28540300  1
  Sb  Sb20  1  0.66629200  0.00000000  0.51061300  1
  Sb  Sb21  1  0.83145250  0.50000000  0.01185100  1
  Sb  Sb22  1  0.16629200  0.50000000  0.51061300  1
  Sb  Sb23  1  0.33145250  0.00000000  0.01185100  1
  O  O24  1  0.58019500  0.25338500  0.40677300  1
  O  O25  1  0.52189800  0.00000000  0.65586900  1
  O  O26  1  0.66889700  0.00000000  0.88844300  1
  O  O27  1  0.49992600  0.50000000  0.69835100  1
  O  O28  1  0.99566450  0.00000000  0.19449200  1
  O  O29  1  0.58019500  0.74661500  0.40677300  1
  O  O30  1  0.74482350  0.22241050  0.65299800  1
  O  O31  1  0.74482350  0.77758950  0.65299800  1
  O  O32  1  0.66136950  0.50000000  0.90785000  1
  O  O33  1  0.83262050  0.00000000  0.40259400  1
  O  O34  1  0.75927600  0.72416100  0.15565200  1
  O  O35  1  0.75927600  0.27583900  0.15565200  1
  O  O36  1  0.83751950  0.50000000  0.39185900  1
  O  O37  1  0.91311650  0.75229150  0.90586800  1
  O  O38  1  0.98096900  0.50000000  0.15759000  1
  O  O39  1  0.91311650  0.24770850  0.90586800  1
  O  O40  1  0.08019500  0.75338500  0.40677300  1
  O  O41  1  0.02189800  0.50000000  0.65586900  1
  O  O42  1  0.16889700  0.50000000  0.88844300  1
  O  O43  1  0.99992600  0.00000000  0.69835100  1
  O  O44  1  0.49566450  0.50000000  0.19449200  1
  O  O45  1  0.08019500  0.24661500  0.40677300  1
  O  O46  1  0.24482350  0.72241050  0.65299800  1
  O  O47  1  0.24482350  0.27758950  0.65299800  1
  O  O48  1  0.16136950  0.00000000  0.90785000  1
  O  O49  1  0.33262050  0.50000000  0.40259400  1
  O  O50  1  0.25927600  0.22416100  0.15565200  1
  O  O51  1  0.25927600  0.77583900  0.15565200  1
  O  O52  1  0.33751950  0.00000000  0.39185900  1
  O  O53  1  0.41311650  0.25229150  0.90586800  1
  O  O54  1  0.48096900  0.00000000  0.15759000  1
  O  O55  1  0.41311650  0.74770850  0.90586800  1
