# generated using pymatgen
data_Li4Ti3Co3(SbO8)2
_symmetry_space_group_name_H-M   'P 1'
_cell_length_a   10.47512613
_cell_length_b   5.96884858
_cell_length_c   9.75634047
_cell_angle_alpha   90.00000000
_cell_angle_beta   91.05391300
_cell_angle_gamma   90.00000000
_symmetry_Int_Tables_number   1
_chemical_formula_structural   Li4Ti3Co3(SbO8)2
_chemical_formula_sum   'Li8 Ti6 Co6 Sb4 O32'
_cell_volume   609.90654631
_cell_formula_units_Z   2
loop_
 _symmetry_equiv_pos_site_id
 _symmetry_equiv_pos_as_xyz
  1  'x, y, z'
loop_
 _atom_site_type_symbol
 _atom_site_label
 _atom_site_symmetry_multiplicity
 _atom_site_fract_x
 _atom_site_fract_y
 _atom_site_fract_z
 _atom_site_occupancy
  Li  Li0  1  0.16098025  0.50000000  0.89759650  1
  Li  Li1  1  0.49251725  0.50000000  0.98008300  1
  Li  Li2  1  0.00247675  0.00000000  0.49520500  1
  Li  Li3  1  0.33241100  0.00000000  0.40700050  1
  Li  Li4  1  0.66098025  0.00000000  0.89759650  1
  Li  Li5  1  0.99251725  0.00000000  0.98008300  1
  Li  Li6  1  0.50247675  0.50000000  0.49520500  1
  Li  Li7  1  0.83241100  0.50000000  0.40700050  1
  Ti  Ti8  1  0.17455025  0.00000000  0.71896050  1
  Ti  Ti9  1  0.08792125  0.25262575  0.21498950  1
  Ti  Ti10  1  0.08792125  0.74737425  0.21498950  1
  Ti  Ti11  1  0.67455025  0.50000000  0.71896050  1
  Ti  Ti12  1  0.58792125  0.75262575  0.21498950  1
  Ti  Ti13  1  0.58792125  0.24737425  0.21498950  1
  Co  Co14  1  0.32737625  0.50000000  0.20961950  1
  Co  Co15  1  0.41394050  0.75926600  0.71055850  1
  Co  Co16  1  0.41394050  0.24073400  0.71055850  1
  Co  Co17  1  0.82737625  0.00000000  0.20961950  1
  Co  Co18  1  0.91394050  0.25926600  0.71055850  1
  Co  Co19  1  0.91394050  0.74073400  0.71055850  1
  Sb  Sb20  1  0.17271750  0.50000000  0.49320500  1
  Sb  Sb21  1  0.34039075  0.00000000  0.98467600  1
  Sb  Sb22  1  0.67271750  0.00000000  0.49320500  1
  Sb  Sb23  1  0.84039075  0.50000000  0.98467600  1
  O  O24  1  0.02176875  0.50000000  0.33949750  1
  O  O25  1  0.15014625  0.50000000  0.10590450  1
  O  O26  1  0.00728300  0.00000000  0.30265400  1
  O  O27  1  0.00895400  0.00000000  0.79502550  1
  O  O28  1  0.17093100  0.00000000  0.10599100  1
  O  O29  1  0.34017625  0.50000000  0.58326200  1
  O  O30  1  0.31825050  0.00000000  0.60341900  1
  O  O31  1  0.48112125  0.00000000  0.85218100  1
  O  O32  1  0.09199700  0.25160450  0.59490950  1
  O  O33  1  0.09199700  0.74839550  0.59490950  1
  O  O34  1  0.23223200  0.27306250  0.34178250  1
  O  O35  1  0.23223200  0.72693750  0.34178250  1
  O  O36  1  0.25192650  0.78222500  0.85477000  1
  O  O37  1  0.25192650  0.21777500  0.85477000  1
  O  O38  1  0.42128750  0.75207600  0.09981450  1
  O  O39  1  0.42128750  0.24792400  0.09981450  1
  O  O40  1  0.52176875  0.00000000  0.33949750  1
  O  O41  1  0.65014625  0.00000000  0.10590450  1
  O  O42  1  0.50728300  0.50000000  0.30265400  1
  O  O43  1  0.50895400  0.50000000  0.79502550  1
  O  O44  1  0.67093100  0.50000000  0.10599100  1
  O  O45  1  0.84017625  0.00000000  0.58326200  1
  O  O46  1  0.81825050  0.50000000  0.60341900  1
  O  O47  1  0.98112125  0.50000000  0.85218100  1
  O  O48  1  0.59199700  0.75160450  0.59490950  1
  O  O49  1  0.59199700  0.24839550  0.59490950  1
  O  O50  1  0.73223200  0.77306250  0.34178250  1
  O  O51  1  0.73223200  0.22693750  0.34178250  1
  O  O52  1  0.75192650  0.28222500  0.85477000  1
  O  O53  1  0.75192650  0.71777500  0.85477000  1
  O  O54  1  0.92128750  0.25207600  0.09981450  1
  O  O55  1  0.92128750  0.74792400  0.09981450  1
