# generated using pymatgen
data_Li3V4(OF3)3
_symmetry_space_group_name_H-M   'P 1'
_cell_length_a   5.16014289
_cell_length_b   5.56483780
_cell_length_c   9.04025104
_cell_angle_alpha   107.07650714
_cell_angle_beta   89.92621994
_cell_angle_gamma   117.32899188
_symmetry_Int_Tables_number   1
_chemical_formula_structural   Li3V4(OF3)3
_chemical_formula_sum   'Li3 V4 O3 F9'
_cell_volume   217.71014436
_cell_formula_units_Z   1
loop_
 _symmetry_equiv_pos_site_id
 _symmetry_equiv_pos_as_xyz
  1  'x, y, z'
loop_
 _atom_site_type_symbol
 _atom_site_label
 _atom_site_symmetry_multiplicity
 _atom_site_fract_x
 _atom_site_fract_y
 _atom_site_fract_z
 _atom_site_occupancy
  Li  Li0  1  0.64410115  0.39083286  0.88294026  1
  Li  Li1  1  0.80079771  0.01930513  0.59358542  1
  Li  Li2  1  0.06579687  0.74194312  0.35645598  1
  V  V3  1  0.98070407  0.00999753  0.00524319  1
  V  V4  1  0.75148138  0.24511012  0.24644223  1
  V  V5  1  0.53040477  0.47969374  0.50250732  1
  V  V6  1  0.21916713  0.73723077  0.74815823  1
  O  O7  1  0.80961676  0.57825758  0.68788567  1
  O  O8  1  0.80972864  0.18616678  0.06462263  1
  O  O9  1  0.70277087  0.31632041  0.43169849  1
  F  F10  1  0.78791143  0.88076779  0.38402161  1
  F  F11  1  0.74697878  0.62032565  0.12525006  1
  F  F12  1  0.67817481  0.94341590  0.80449269  1
  F  F13  1  0.33242304  0.70682462  0.55557709  1
  F  F14  1  0.29485976  0.03844177  0.19510276  1
  F  F15  1  0.26280785  0.38447094  0.87361820  1
  F  F16  1  0.23958348  0.11922730  0.63078759  1
  F  F17  1  0.16526788  0.82250197  0.93372641  1
  F  F18  1  0.19368663  0.46317803  0.32146417  1
