# generated using pymatgen
data_Mn6O11F
_symmetry_space_group_name_H-M   'P 1'
_cell_length_a   6.31942800
_cell_length_b   19.33250400
_cell_length_c   2.96680100
_cell_angle_alpha   90.00000000
_cell_angle_beta   90.00000000
_cell_angle_gamma   90.00000000
_symmetry_Int_Tables_number   1
_chemical_formula_structural   Mn6O11F
_chemical_formula_sum   'Mn12 O22 F2'
_cell_volume   362.45516725
_cell_formula_units_Z   2
loop_
 _symmetry_equiv_pos_site_id
 _symmetry_equiv_pos_as_xyz
  1  'x, y, z'
loop_
 _atom_site_type_symbol
 _atom_site_label
 _atom_site_symmetry_multiplicity
 _atom_site_fract_x
 _atom_site_fract_y
 _atom_site_fract_z
 _atom_site_occupancy
  Mn  Mn0  1  0.50000000  0.49252400  0.00000000  1
  Mn  Mn1  1  0.50000000  0.32990800  0.50000000  1
  Mn  Mn2  1  0.00000000  0.49981200  0.50000000  1
  Mn  Mn3  1  0.50000000  0.16635300  0.00000000  1
  Mn  Mn4  1  0.00000000  0.33531500  0.00000000  1
  Mn  Mn5  1  0.00000000  0.17386300  0.50000000  1
  Mn  Mn6  1  0.00000000  0.99252400  0.00000000  1
  Mn  Mn7  1  0.00000000  0.82990800  0.50000000  1
  Mn  Mn8  1  0.50000000  0.99981200  0.50000000  1
  Mn  Mn9  1  0.00000000  0.66635300  0.00000000  1
  Mn  Mn10  1  0.50000000  0.83531500  0.00000000  1
  Mn  Mn11  1  0.50000000  0.67386300  0.50000000  1
  O  O12  1  0.50000000  0.43187300  0.50000000  1
  O  O13  1  0.30315300  0.00124700  0.00000000  1
  O  O14  1  0.69464700  0.33310900  0.00000000  1
  O  O15  1  0.69684700  0.00124700  0.00000000  1
  O  O16  1  0.19317600  0.16588000  0.00000000  1
  O  O17  1  0.50000000  0.23038000  0.50000000  1
  O  O18  1  0.00000000  0.39932700  0.50000000  1
  O  O19  1  0.00000000  0.27058900  0.50000000  1
  O  O20  1  0.50000000  0.10185700  0.50000000  1
  O  O21  1  0.80682400  0.16588000  0.00000000  1
  O  O22  1  0.30535300  0.33310900  0.00000000  1
  O  O23  1  0.00000000  0.93187300  0.50000000  1
  O  O24  1  0.80315300  0.50124700  0.00000000  1
  O  O25  1  0.19464700  0.83310900  0.00000000  1
  O  O26  1  0.19684700  0.50124700  0.00000000  1
  O  O27  1  0.69317600  0.66588000  0.00000000  1
  O  O28  1  0.00000000  0.73038000  0.50000000  1
  O  O29  1  0.50000000  0.89932700  0.50000000  1
  O  O30  1  0.50000000  0.77058900  0.50000000  1
  O  O31  1  0.00000000  0.60185700  0.50000000  1
  O  O32  1  0.30682400  0.66588000  0.00000000  1
  O  O33  1  0.80535300  0.83310900  0.00000000  1
  F  F34  1  0.00000000  0.06566500  0.50000000  1
  F  F35  1  0.50000000  0.56566500  0.50000000  1
