# generated using pymatgen
data_Li4Mn5NiO12
_symmetry_space_group_name_H-M   'P 1'
_cell_length_a   5.12288400
_cell_length_b   8.89172400
_cell_length_c   10.25207850
_cell_angle_alpha   90.00000000
_cell_angle_beta   90.53891500
_cell_angle_gamma   90.00000000
_symmetry_Int_Tables_number   1
_chemical_formula_structural   Li4Mn5NiO12
_chemical_formula_sum   'Li8 Mn10 Ni2 O24'
_cell_volume   466.97454459
_cell_formula_units_Z   2
loop_
 _symmetry_equiv_pos_site_id
 _symmetry_equiv_pos_as_xyz
  1  'x, y, z'
loop_
 _atom_site_type_symbol
 _atom_site_label
 _atom_site_symmetry_multiplicity
 _atom_site_fract_x
 _atom_site_fract_y
 _atom_site_fract_z
 _atom_site_occupancy
  Li  Li0  1  0.08633750  0.75235150  0.24852200  1
  Li  Li1  1  0.91366250  0.75235150  0.75147800  1
  Li  Li2  1  0.58633750  0.74764850  0.24852200  1
  Li  Li3  1  0.41366250  0.74764850  0.75147800  1
  Li  Li4  1  0.58633750  0.25235150  0.24852200  1
  Li  Li5  1  0.41366250  0.25235150  0.75147800  1
  Li  Li6  1  0.08633750  0.24764850  0.24852200  1
  Li  Li7  1  0.91366250  0.24764850  0.75147800  1
  Mn  Mn8  1  0.00000000  0.83641000  0.50000000  1
  Mn  Mn9  1  0.00000000  0.66295700  0.00000000  1
  Mn  Mn10  1  0.50000000  0.00000000  0.50000000  1
  Mn  Mn11  1  0.50000000  0.83704300  0.00000000  1
  Mn  Mn12  1  0.50000000  0.66359000  0.50000000  1
  Mn  Mn13  1  0.50000000  0.33641000  0.50000000  1
  Mn  Mn14  1  0.50000000  0.16295700  0.00000000  1
  Mn  Mn15  1  0.00000000  0.50000000  0.50000000  1
  Mn  Mn16  1  0.00000000  0.33704300  0.00000000  1
  Mn  Mn17  1  0.00000000  0.16359000  0.50000000  1
  Ni  Ni18  1  0.00000000  0.00000000  0.00000000  1
  Ni  Ni19  1  0.50000000  0.50000000  0.00000000  1
  O  O20  1  0.82371300  0.81895000  0.10444600  1
  O  O21  1  0.17628700  0.81895000  0.89555400  1
  O  O22  1  0.83781050  0.68139450  0.39160400  1
  O  O23  1  0.16218950  0.68139450  0.60839600  1
  O  O24  1  0.35156900  0.00000000  0.09812500  1
  O  O25  1  0.17422900  0.00000000  0.59408300  1
  O  O26  1  0.64843100  0.00000000  0.90187500  1
  O  O27  1  0.82577100  0.00000000  0.40591700  1
  O  O28  1  0.33781050  0.81860550  0.39160400  1
  O  O29  1  0.66218950  0.81860550  0.60839600  1
  O  O30  1  0.67628700  0.68105000  0.89555400  1
  O  O31  1  0.32371300  0.68105000  0.10444600  1
  O  O32  1  0.32371300  0.31895000  0.10444600  1
  O  O33  1  0.67628700  0.31895000  0.89555400  1
  O  O34  1  0.33781050  0.18139450  0.39160400  1
  O  O35  1  0.66218950  0.18139450  0.60839600  1
  O  O36  1  0.85156900  0.50000000  0.09812500  1
  O  O37  1  0.67422900  0.50000000  0.59408300  1
  O  O38  1  0.14843100  0.50000000  0.90187500  1
  O  O39  1  0.32577100  0.50000000  0.40591700  1
  O  O40  1  0.83781050  0.31860550  0.39160400  1
  O  O41  1  0.16218950  0.31860550  0.60839600  1
  O  O42  1  0.17628700  0.18105000  0.89555400  1
  O  O43  1  0.82371300  0.18105000  0.10444600  1
