# generated using pymatgen
data_Li4Mn3Cr(PO4)4
_symmetry_space_group_name_H-M   'P 1'
_cell_length_a   4.79138600
_cell_length_b   6.22609100
_cell_length_c   10.47440075
_cell_angle_alpha   90.00000000
_cell_angle_beta   90.97184956
_cell_angle_gamma   90.00000000
_symmetry_Int_Tables_number   1
_chemical_formula_structural   Li4Mn3Cr(PO4)4
_chemical_formula_sum   'Li4 Mn3 Cr1 P4 O16'
_cell_volume   312.42323966
_cell_formula_units_Z   1
loop_
 _symmetry_equiv_pos_site_id
 _symmetry_equiv_pos_as_xyz
  1  'x, y, z'
loop_
 _atom_site_type_symbol
 _atom_site_label
 _atom_site_symmetry_multiplicity
 _atom_site_fract_x
 _atom_site_fract_y
 _atom_site_fract_z
 _atom_site_occupancy
  Li  Li0  1  0.00299300  0.75065500  0.00147900  1
  Li  Li1  1  0.00299300  0.24934500  0.00147900  1
  Li  Li2  1  0.49962100  0.24877900  0.49893200  1
  Li  Li3  1  0.49962100  0.75122100  0.49893200  1
  Mn  Mn4  1  0.02971600  0.00000000  0.71915800  1
  Mn  Mn5  1  0.46980700  0.00000000  0.21793800  1
  Mn  Mn6  1  0.52933200  0.50000000  0.78149700  1
  Cr  Cr7  1  0.95177700  0.50000000  0.28404800  1
  P  P8  1  0.08591700  0.50000000  0.58996900  1
  P  P9  1  0.41133700  0.50000000  0.09516800  1
  P  P10  1  0.59227200  0.00000000  0.90760800  1
  P  P11  1  0.91187800  0.00000000  0.40813100  1
  O  O12  1  0.19673800  0.50000000  0.45073000  1
  O  O13  1  0.22282000  0.69900500  0.65873700  1
  O  O14  1  0.22282000  0.30099500  0.65873700  1
  O  O15  1  0.23324200  0.00000000  0.40589800  1
  O  O16  1  0.27063900  0.00000000  0.90242500  1
  O  O17  1  0.28153700  0.70151700  0.16063300  1
  O  O18  1  0.28153700  0.29848300  0.16063300  1
  O  O19  1  0.29590900  0.50000000  0.95509600  1
  O  O20  1  0.71600900  0.00000000  0.04571600  1
  O  O21  1  0.72281300  0.19940900  0.83837300  1
  O  O22  1  0.72281300  0.80059100  0.83837300  1
  O  O23  1  0.73486600  0.50000000  0.10401100  1
  O  O24  1  0.76485600  0.50000000  0.59524000  1
  O  O25  1  0.77780400  0.19780600  0.33793100  1
  O  O26  1  0.77780400  0.80219400  0.33793100  1
  O  O27  1  0.79053000  0.00000000  0.54519700  1
