# generated using pymatgen
data_LiMn3(P3O10)2
_symmetry_space_group_name_H-M   'P 1'
_cell_length_a   10.20963800
_cell_length_b   13.33637800
_cell_length_c   12.01263800
_cell_angle_alpha   90.00000000
_cell_angle_beta   90.00000000
_cell_angle_gamma   90.00000000
_symmetry_Int_Tables_number   1
_chemical_formula_structural   LiMn3(P3O10)2
_chemical_formula_sum   'Li4 Mn12 P24 O80'
_cell_volume   1635.63588425
_cell_formula_units_Z   4
loop_
 _symmetry_equiv_pos_site_id
 _symmetry_equiv_pos_as_xyz
  1  'x, y, z'
loop_
 _atom_site_type_symbol
 _atom_site_label
 _atom_site_symmetry_multiplicity
 _atom_site_fract_x
 _atom_site_fract_y
 _atom_site_fract_z
 _atom_site_occupancy
  Li  Li0  1  0.56904800  0.00000000  0.00000000  1
  Li  Li1  1  0.43095200  0.00000000  0.50000000  1
  Li  Li2  1  0.06904800  0.50000000  0.00000000  1
  Li  Li3  1  0.93095200  0.50000000  0.50000000  1
  Mn  Mn4  1  0.14135000  0.00000000  0.50000000  1
  Mn  Mn5  1  0.50000000  0.79363700  0.25000000  1
  Mn  Mn6  1  0.50000000  0.73827000  0.75000000  1
  Mn  Mn7  1  0.50000000  0.20636300  0.75000000  1
  Mn  Mn8  1  0.50000000  0.26173000  0.25000000  1
  Mn  Mn9  1  0.85865000  0.00000000  0.00000000  1
  Mn  Mn10  1  0.64135000  0.50000000  0.50000000  1
  Mn  Mn11  1  0.00000000  0.29363700  0.25000000  1
  Mn  Mn12  1  0.00000000  0.23827000  0.75000000  1
  Mn  Mn13  1  0.00000000  0.70636300  0.75000000  1
  Mn  Mn14  1  0.00000000  0.76173000  0.25000000  1
  Mn  Mn15  1  0.35865000  0.50000000  0.00000000  1
  P  P16  1  0.23139400  0.13684900  0.17970900  1
  P  P17  1  0.23139400  0.86315100  0.82029100  1
  P  P18  1  0.25288150  0.06275450  0.72310600  1
  P  P19  1  0.25288150  0.93724550  0.27689400  1
  P  P20  1  0.44375150  0.29211050  0.51266300  1
  P  P21  1  0.44375150  0.70788950  0.48733700  1
  P  P22  1  0.55624850  0.70788950  0.01266300  1
  P  P23  1  0.55624850  0.29211050  0.98733700  1
  P  P24  1  0.74711850  0.93724550  0.22310600  1
  P  P25  1  0.74711850  0.06275450  0.77689400  1
  P  P26  1  0.76860600  0.86315100  0.67970900  1
  P  P27  1  0.76860600  0.13684900  0.32029100  1
  P  P28  1  0.73139400  0.63684900  0.17970900  1
  P  P29  1  0.73139400  0.36315100  0.82029100  1
  P  P30  1  0.75288150  0.56275450  0.72310600  1
  P  P31  1  0.75288150  0.43724550  0.27689400  1
  P  P32  1  0.94375150  0.79211050  0.51266300  1
  P  P33  1  0.94375150  0.20788950  0.48733700  1
  P  P34  1  0.05624850  0.20788950  0.01266300  1
  P  P35  1  0.05624850  0.79211050  0.98733700  1
  P  P36  1  0.24711850  0.43724550  0.22310600  1
  P  P37  1  0.24711850  0.56275450  0.77689400  1
  P  P38  1  0.26860600  0.36315100  0.67970900  1
  P  P39  1  0.26860600  0.63684900  0.32029100  1
  O  O40  1  0.19515450  0.01949850  0.18748600  1
  O  O41  1  0.19515450  0.98050150  0.81251400  1
  O  O42  1  0.20010450  0.16549850  0.05293900  1
  O  O43  1  0.20010450  0.83450150  0.94706100  1
  O  O44  1  0.29319800  0.00702400  0.61661000  1
  O  O45  1  0.29319800  0.99297600  0.38339000  1
  O  O46  1  0.36327750  0.69206950  0.24309100  1
  O  O47  1  0.36327750  0.30793050  0.75690900  1
  O  O48  1  0.37344050  0.89551250  0.21576000  1
  O  O49  1  0.37344050  0.10448750  0.78424000  1
  O  O50  1  0.85929200  0.86597700  0.20199000  1
  O  O51  1  0.85929200  0.13402300  0.79801000  1
  O  O52  1  0.37551200  0.14687800  0.19844900  1
  O  O53  1  0.37551200  0.85312200  0.80155100  1
  O  O54  1  0.41892450  0.25342050  0.39527500  1
  O  O55  1  0.41892450  0.74657950  0.60472500  1
  O  O56  1  0.46168550  0.37645950  0.97368800  1
  O  O57  1  0.46168550  0.62354050  0.02631200  1
  O  O58  1  0.47171900  0.20056900  0.58903400  1
  O  O59  1  0.47171900  0.79943100  0.41096600  1
  O  O60  1  0.52828100  0.79943100  0.08903400  1
  O  O61  1  0.52828100  0.20056900  0.91096600  1
  O  O62  1  0.53831450  0.62354050  0.47368800  1
  O  O63  1  0.53831450  0.37645950  0.52631200  1
  O  O64  1  0.58107550  0.74657950  0.89527500  1
  O  O65  1  0.58107550  0.25342050  0.10472500  1
  O  O66  1  0.62448800  0.85312200  0.69844900  1
  O  O67  1  0.62448800  0.14687800  0.30155100  1
  O  O68  1  0.14070800  0.13402300  0.70199000  1
  O  O69  1  0.14070800  0.86597700  0.29801000  1
  O  O70  1  0.62655950  0.10448750  0.71576000  1
  O  O71  1  0.62655950  0.89551250  0.28424000  1
  O  O72  1  0.63672250  0.69206950  0.25690900  1
  O  O73  1  0.63672250  0.30793050  0.74309100  1
  O  O74  1  0.70680200  0.99297600  0.11661000  1
  O  O75  1  0.70680200  0.00702400  0.88339000  1
  O  O76  1  0.79989550  0.83450150  0.55293900  1
  O  O77  1  0.79989550  0.16549850  0.44706100  1
  O  O78  1  0.80484550  0.98050150  0.68748600  1
  O  O79  1  0.80484550  0.01949850  0.31251400  1
  O  O80  1  0.69515450  0.51949850  0.18748600  1
  O  O81  1  0.69515450  0.48050150  0.81251400  1
  O  O82  1  0.70010450  0.66549850  0.05293900  1
  O  O83  1  0.70010450  0.33450150  0.94706100  1
  O  O84  1  0.79319800  0.50702400  0.61661000  1
  O  O85  1  0.79319800  0.49297600  0.38339000  1
  O  O86  1  0.86327750  0.19206950  0.24309100  1
  O  O87  1  0.86327750  0.80793050  0.75690900  1
  O  O88  1  0.87344050  0.39551250  0.21576000  1
  O  O89  1  0.87344050  0.60448750  0.78424000  1
  O  O90  1  0.35929200  0.36597700  0.20199000  1
  O  O91  1  0.35929200  0.63402300  0.79801000  1
  O  O92  1  0.87551200  0.64687800  0.19844900  1
  O  O93  1  0.87551200  0.35312200  0.80155100  1
  O  O94  1  0.91892450  0.75342050  0.39527500  1
  O  O95  1  0.91892450  0.24657950  0.60472500  1
  O  O96  1  0.96168550  0.87645950  0.97368800  1
  O  O97  1  0.96168550  0.12354050  0.02631200  1
  O  O98  1  0.97171900  0.70056900  0.58903400  1
  O  O99  1  0.97171900  0.29943100  0.41096600  1
  O  O100  1  0.02828100  0.29943100  0.08903400  1
  O  O101  1  0.02828100  0.70056900  0.91096600  1
  O  O102  1  0.03831450  0.12354050  0.47368800  1
  O  O103  1  0.03831450  0.87645950  0.52631200  1
  O  O104  1  0.08107550  0.24657950  0.89527500  1
  O  O105  1  0.08107550  0.75342050  0.10472500  1
  O  O106  1  0.12448800  0.35312200  0.69844900  1
  O  O107  1  0.12448800  0.64687800  0.30155100  1
  O  O108  1  0.64070800  0.63402300  0.70199000  1
  O  O109  1  0.64070800  0.36597700  0.29801000  1
  O  O110  1  0.12655950  0.60448750  0.71576000  1
  O  O111  1  0.12655950  0.39551250  0.28424000  1
  O  O112  1  0.13672250  0.19206950  0.25690900  1
  O  O113  1  0.13672250  0.80793050  0.74309100  1
  O  O114  1  0.20680200  0.49297600  0.11661000  1
  O  O115  1  0.20680200  0.50702400  0.88339000  1
  O  O116  1  0.29989550  0.33450150  0.55293900  1
  O  O117  1  0.29989550  0.66549850  0.44706100  1
  O  O118  1  0.30484550  0.48050150  0.68748600  1
  O  O119  1  0.30484550  0.51949850  0.31251400  1
