# generated using pymatgen
data_Na2CrO4
_symmetry_space_group_name_H-M   'P 1'
_cell_length_a   15.67975234
_cell_length_b   15.67975234
_cell_length_c   10.59992372
_cell_angle_alpha   90.00000000
_cell_angle_beta   90.00000000
_cell_angle_gamma   120.00000000
_symmetry_Int_Tables_number   1
_chemical_formula_structural   Na2CrO4
_chemical_formula_sum   'Na36 Cr18 O72'
_cell_volume   2256.89715507
_cell_formula_units_Z   18
loop_
 _symmetry_equiv_pos_site_id
 _symmetry_equiv_pos_as_xyz
  1  'x, y, z'
loop_
 _atom_site_type_symbol
 _atom_site_label
 _atom_site_symmetry_multiplicity
 _atom_site_fract_x
 _atom_site_fract_y
 _atom_site_fract_z
 _atom_site_occupancy
  Na  Na0  1  0.52601100  0.64552000  0.58626000  1
  Na  Na1  1  0.88049100  0.52601100  0.41374000  1
  Na  Na2  1  0.79221400  0.81073900  0.58544100  1
  Na  Na3  1  0.64552000  0.11950900  0.41374000  1
  Na  Na4  1  0.98147500  0.79221400  0.41455900  1
  Na  Na5  1  0.81073900  0.01852500  0.41455900  1
  Na  Na6  1  0.18926100  0.98147500  0.58544100  1
  Na  Na7  1  0.01852500  0.20778600  0.58544100  1
  Na  Na8  1  0.35448000  0.88049100  0.58626000  1
  Na  Na9  1  0.20778600  0.18926100  0.41455900  1
  Na  Na10  1  0.11950900  0.47398900  0.58626000  1
  Na  Na11  1  0.47398900  0.35448000  0.41374000  1
  Na  Na12  1  0.19267767  0.97885333  0.91959333  1
  Na  Na13  1  0.54715767  0.85934433  0.74707333  1
  Na  Na14  1  0.45888067  0.14407233  0.91877433  1
  Na  Na15  1  0.31218667  0.45284233  0.74707333  1
  Na  Na16  1  0.64814167  0.12554733  0.74789233  1
  Na  Na17  1  0.47740567  0.35185833  0.74789233  1
  Na  Na18  1  0.85592767  0.31480833  0.91877433  1
  Na  Na19  1  0.68519167  0.54111933  0.91877433  1
  Na  Na20  1  0.02114667  0.21382433  0.91959333  1
  Na  Na21  1  0.87445267  0.52259433  0.74789233  1
  Na  Na22  1  0.78617567  0.80732233  0.91959333  1
  Na  Na23  1  0.14065567  0.68781333  0.74707333  1
  Na  Na24  1  0.85934433  0.31218667  0.25292667  1
  Na  Na25  1  0.21382433  0.19267767  0.08040667  1
  Na  Na26  1  0.12554733  0.47740567  0.25210767  1
  Na  Na27  1  0.97885333  0.78617567  0.08040667  1
  Na  Na28  1  0.31480833  0.45888067  0.08122567  1
  Na  Na29  1  0.14407233  0.68519167  0.08122567  1
  Na  Na30  1  0.52259433  0.64814167  0.25210767  1
  Na  Na31  1  0.35185833  0.87445267  0.25210767  1
  Na  Na32  1  0.68781333  0.54715767  0.25292667  1
  Na  Na33  1  0.54111933  0.85592767  0.08122567  1
  Na  Na34  1  0.45284233  0.14065567  0.25292667  1
  Na  Na35  1  0.80732233  0.02114667  0.08040667  1
  Cr  Cr36  1  0.78896267  0.80346233  0.25093433  1
  Cr  Cr37  1  0.98550033  0.78896267  0.74906567  1
  Cr  Cr38  1  0.80346233  0.01449967  0.74906567  1
  Cr  Cr39  1  0.19653767  0.98550033  0.25093433  1
  Cr  Cr40  1  0.01449967  0.21103733  0.25093433  1
  Cr  Cr41  1  0.21103733  0.19653767  0.74906567  1
  Cr  Cr42  1  0.45562933  0.13679567  0.58426767  1
  Cr  Cr43  1  0.65216700  0.12229600  0.08239900  1
  Cr  Cr44  1  0.47012900  0.34783300  0.08239900  1
  Cr  Cr45  1  0.86320433  0.31883367  0.58426767  1
  Cr  Cr46  1  0.68116633  0.54437067  0.58426767  1
  Cr  Cr47  1  0.87770400  0.52987100  0.08239900  1
  Cr  Cr48  1  0.12229600  0.47012900  0.91760100  1
  Cr  Cr49  1  0.31883367  0.45562933  0.41573233  1
  Cr  Cr50  1  0.13679567  0.68116633  0.41573233  1
  Cr  Cr51  1  0.52987100  0.65216700  0.91760100  1
  Cr  Cr52  1  0.34783300  0.87770400  0.91760100  1
  Cr  Cr53  1  0.54437067  0.86320433  0.41573233  1
  O  O54  1  0.74282400  0.54271900  0.45645500  1
  O  O55  1  0.67477500  0.64717200  0.58595000  1
  O  O56  1  0.54271900  0.79989500  0.54354500  1
  O  O57  1  0.64717200  0.97239700  0.41405000  1
  O  O58  1  0.79606800  0.86574700  0.38149400  1
  O  O59  1  0.78379133  0.89968067  0.75316467  1
  O  O60  1  0.88411067  0.78379133  0.24683533  1
  O  O61  1  0.02760300  0.67477500  0.41405000  1
  O  O62  1  0.93032100  0.79606800  0.61850600  1
  O  O63  1  0.86574700  0.06967900  0.61850600  1
  O  O64  1  0.20010500  0.74282400  0.54354500  1
  O  O65  1  0.89968067  0.11588933  0.24683533  1
  O  O66  1  0.10031933  0.88411067  0.75316467  1
  O  O67  1  0.79989500  0.25717600  0.45645500  1
  O  O68  1  0.13425300  0.93032100  0.38149400  1
  O  O69  1  0.06967900  0.20393200  0.38149400  1
  O  O70  1  0.97239700  0.32522500  0.58595000  1
  O  O71  1  0.11588933  0.21620867  0.75316467  1
  O  O72  1  0.21620867  0.10031933  0.24683533  1
  O  O73  1  0.20393200  0.13425300  0.61850600  1
  O  O74  1  0.35282800  0.02760300  0.58595000  1
  O  O75  1  0.45728100  0.20010500  0.45645500  1
  O  O76  1  0.32522500  0.35282800  0.41405000  1
  O  O77  1  0.25717600  0.45728100  0.54354500  1
  O  O78  1  0.40949067  0.87605233  0.78978833  1
  O  O79  1  0.34144167  0.98050533  0.91928333  1
  O  O80  1  0.20938567  0.13322833  0.87687833  1
  O  O81  1  0.31383867  0.30573033  0.74738333  1
  O  O82  1  0.46273467  0.19908033  0.71482733  1
  O  O83  1  0.45045800  0.23301400  0.08649800  1
  O  O84  1  0.55077733  0.11712467  0.58016867  1
  O  O85  1  0.69426967  0.00810833  0.74738333  1
  O  O86  1  0.59698767  0.12940133  0.95183933  1
  O  O87  1  0.53241367  0.40301233  0.95183933  1
  O  O88  1  0.86677167  0.07615733  0.87687833  1
  O  O89  1  0.56634733  0.44922267  0.58016867  1
  O  O90  1  0.76698600  0.21744400  0.08649800  1
  O  O91  1  0.46656167  0.59050933  0.78978833  1
  O  O92  1  0.80091967  0.26365433  0.71482733  1
  O  O93  1  0.73634567  0.53726533  0.71482733  1
  O  O94  1  0.63906367  0.65855833  0.91928333  1
  O  O95  1  0.78255600  0.54954200  0.08649800  1
  O  O96  1  0.88287533  0.43365267  0.58016867  1
  O  O97  1  0.87059867  0.46758633  0.95183933  1
  O  O98  1  0.01949467  0.36093633  0.91928333  1
  O  O99  1  0.12394767  0.53343833  0.78978833  1
  O  O100  1  0.99189167  0.68616133  0.74738333  1
  O  O101  1  0.92384267  0.79061433  0.87687833  1
  O  O102  1  0.07615733  0.20938567  0.12312167  1
  O  O103  1  0.00810833  0.31383867  0.25261667  1
  O  O104  1  0.87605233  0.46656167  0.21021167  1
  O  O105  1  0.98050533  0.63906367  0.08071667  1
  O  O106  1  0.12940133  0.53241367  0.04816067  1
  O  O107  1  0.11712467  0.56634733  0.41983133  1
  O  O108  1  0.21744400  0.45045800  0.91350200  1
  O  O109  1  0.36093633  0.34144167  0.08071667  1
  O  O110  1  0.26365433  0.46273467  0.28517267  1
  O  O111  1  0.19908033  0.73634567  0.28517267  1
  O  O112  1  0.53343833  0.40949067  0.21021167  1
  O  O113  1  0.23301400  0.78255600  0.91350200  1
  O  O114  1  0.43365267  0.55077733  0.41983133  1
  O  O115  1  0.13322833  0.92384267  0.12312167  1
  O  O116  1  0.46758633  0.59698767  0.04816067  1
  O  O117  1  0.40301233  0.87059867  0.04816067  1
  O  O118  1  0.30573033  0.99189167  0.25261667  1
  O  O119  1  0.44922267  0.88287533  0.41983133  1
  O  O120  1  0.54954200  0.76698600  0.91350200  1
  O  O121  1  0.53726533  0.80091967  0.28517267  1
  O  O122  1  0.68616133  0.69426967  0.25261667  1
  O  O123  1  0.79061433  0.86677167  0.12312167  1
  O  O124  1  0.65855833  0.01949467  0.08071667  1
  O  O125  1  0.59050933  0.12394767  0.21021167  1
