# generated using pymatgen
data_Fe3CuNi2(PO4)6
_symmetry_space_group_name_H-M   'P 1'
_cell_length_a   8.60462188
_cell_length_b   8.60462188
_cell_length_c   20.62297836
_cell_angle_alpha   90.00000000
_cell_angle_beta   90.00000000
_cell_angle_gamma   120.00000000
_symmetry_Int_Tables_number   1
_chemical_formula_structural   Fe3CuNi2(PO4)6
_chemical_formula_sum   'Fe9 Cu3 Ni6 P18 O72'
_cell_volume   1322.34750261
_cell_formula_units_Z   3
loop_
 _symmetry_equiv_pos_site_id
 _symmetry_equiv_pos_as_xyz
  1  'x, y, z'
loop_
 _atom_site_type_symbol
 _atom_site_label
 _atom_site_symmetry_multiplicity
 _atom_site_fract_x
 _atom_site_fract_y
 _atom_site_fract_z
 _atom_site_occupancy
  Fe  Fe0  1  0.33333333  0.66666667  0.81034567  1
  Fe  Fe1  1  0.33333333  0.66666667  0.02187067  1
  Fe  Fe2  1  0.33333333  0.66666667  0.31030067  1
  Fe  Fe3  1  0.00000000  0.00000000  0.14367900  1
  Fe  Fe4  1  0.00000000  0.00000000  0.35520400  1
  Fe  Fe5  1  0.00000000  0.00000000  0.64363400  1
  Fe  Fe6  1  0.66666667  0.33333333  0.47701233  1
  Fe  Fe7  1  0.66666667  0.33333333  0.68853733  1
  Fe  Fe8  1  0.66666667  0.33333333  0.97696733  1
  Cu  Cu9  1  0.33333333  0.66666667  0.52240067  1
  Cu  Cu10  1  0.00000000  0.00000000  0.85573400  1
  Cu  Cu11  1  0.66666667  0.33333333  0.18906733  1
  Ni  Ni12  1  0.33333333  0.66666667  0.66625167  1
  Ni  Ni13  1  0.33333333  0.66666667  0.16659467  1
  Ni  Ni14  1  0.00000000  0.00000000  0.99958500  1
  Ni  Ni15  1  0.00000000  0.00000000  0.49992800  1
  Ni  Ni16  1  0.66666667  0.33333333  0.33291833  1
  Ni  Ni17  1  0.66666667  0.33333333  0.83326133  1
  P  P18  1  0.66668400  0.62764400  0.08365900  1
  P  P19  1  0.96096000  0.33331600  0.08365900  1
  P  P20  1  0.37235600  0.03904000  0.08365900  1
  P  P21  1  0.29680800  0.29662100  0.24895800  1
  P  P22  1  0.70337900  0.00018700  0.24895800  1
  P  P23  1  0.99981300  0.70319200  0.24895800  1
  P  P24  1  0.33335067  0.96097733  0.41699233  1
  P  P25  1  0.62762667  0.66664933  0.41699233  1
  P  P26  1  0.03902267  0.37237333  0.41699233  1
  P  P27  1  0.96347467  0.62995433  0.58229133  1
  P  P28  1  0.37004567  0.33352033  0.58229133  1
  P  P29  1  0.66647967  0.03652533  0.58229133  1
  P  P30  1  0.00001733  0.29431067  0.75032567  1
  P  P31  1  0.29429333  0.99998267  0.75032567  1
  P  P32  1  0.70568933  0.70570667  0.75032567  1
  P  P33  1  0.63014133  0.96328767  0.91562467  1
  P  P34  1  0.03671233  0.66685367  0.91562467  1
  P  P35  1  0.33314633  0.36985867  0.91562467  1
  O  O36  1  0.33979233  0.47157467  0.97730067  1
  O  O37  1  0.52842533  0.86821767  0.97730067  1
  O  O38  1  0.83386533  0.81848367  0.07459067  1
  O  O39  1  0.13178233  0.66020767  0.97730067  1
  O  O40  1  0.66637033  0.53556167  0.14722667  1
  O  O41  1  0.50061433  0.65449167  0.09146067  1
  O  O42  1  0.98461833  0.16613467  0.07459067  1
  O  O43  1  0.15387733  0.49938567  0.09146067  1
  O  O44  1  0.20093200  0.19476100  0.18802500  1
  O  O45  1  0.34550833  0.84612267  0.09146067  1
  O  O46  1  0.48524900  0.31500100  0.25916100  1
  O  O47  1  0.80523900  0.00617100  0.18802500  1
  O  O48  1  0.86919133  0.33362967  0.14722667  1
  O  O49  1  0.18151633  0.01538167  0.07459067  1
  O  O50  1  0.32089567  0.48710133  0.24090933  1
  O  O51  1  0.46443833  0.13080867  0.14722667  1
  O  O52  1  0.51289867  0.83379433  0.24090933  1
  O  O53  1  0.68499900  0.17024800  0.25916100  1
  O  O54  1  0.16620567  0.67910433  0.24090933  1
  O  O55  1  0.99382900  0.79906800  0.18802500  1
  O  O56  1  0.53195733  0.67305367  0.35612267  1
  O  O57  1  0.82975200  0.51475100  0.25916100  1
  O  O58  1  0.14109633  0.46804267  0.35612267  1
  O  O59  1  0.32694633  0.85890367  0.35612267  1
  O  O60  1  0.00645900  0.80490800  0.31063400  1
  O  O61  1  0.19509200  0.20155100  0.31063400  1
  O  O62  1  0.50053200  0.15181700  0.40792400  1
  O  O63  1  0.79844900  0.99354100  0.31063400  1
  O  O64  1  0.33303700  0.86889500  0.48056000  1
  O  O65  1  0.16728100  0.98782500  0.42479400  1
  O  O66  1  0.65128500  0.49946800  0.40792400  1
  O  O67  1  0.82054400  0.83271900  0.42479400  1
  O  O68  1  0.86759867  0.52809433  0.52135833  1
  O  O69  1  0.01217500  0.17945600  0.42479400  1
  O  O70  1  0.15191567  0.64833433  0.59249433  1
  O  O71  1  0.47190567  0.33950433  0.52135833  1
  O  O72  1  0.53585800  0.66696300  0.48056000  1
  O  O73  1  0.84818300  0.34871500  0.40792400  1
  O  O74  1  0.98756233  0.82043467  0.57424267  1
  O  O75  1  0.13110500  0.46414200  0.48056000  1
  O  O76  1  0.17956533  0.16712767  0.57424267  1
  O  O77  1  0.35166567  0.50358133  0.59249433  1
  O  O78  1  0.83287233  0.01243767  0.57424267  1
  O  O79  1  0.66049567  0.13240133  0.52135833  1
  O  O80  1  0.19862400  0.00638700  0.68945600  1
  O  O81  1  0.49641867  0.84808433  0.59249433  1
  O  O82  1  0.80776300  0.80137600  0.68945600  1
  O  O83  1  0.99361300  0.19223700  0.68945600  1
  O  O84  1  0.67312567  0.13824133  0.64396733  1
  O  O85  1  0.86175867  0.53488433  0.64396733  1
  O  O86  1  0.16719867  0.48515033  0.74125733  1
  O  O87  1  0.46511567  0.32687433  0.64396733  1
  O  O88  1  0.99970367  0.20222833  0.81389333  1
  O  O89  1  0.83394767  0.32115833  0.75812733  1
  O  O90  1  0.31795167  0.83280133  0.74125733  1
  O  O91  1  0.48721067  0.16605233  0.75812733  1
  O  O92  1  0.53426533  0.86142767  0.85469167  1
  O  O93  1  0.67884167  0.51278933  0.75812733  1
  O  O94  1  0.81858233  0.98166767  0.92582767  1
  O  O95  1  0.13857233  0.67283767  0.85469167  1
  O  O96  1  0.20252467  0.00029633  0.81389333  1
  O  O97  1  0.51484967  0.68204833  0.74125733  1
  O  O98  1  0.65422900  0.15376800  0.90757600  1
  O  O99  1  0.79777167  0.79747533  0.81389333  1
  O  O100  1  0.84623200  0.50046100  0.90757600  1
  O  O101  1  0.01833233  0.83691467  0.92582767  1
  O  O102  1  0.49953900  0.34577100  0.90757600  1
  O  O103  1  0.32716233  0.46573467  0.85469167  1
  O  O104  1  0.86529067  0.33972033  0.02278933  1
  O  O105  1  0.16308533  0.18141767  0.92582767  1
  O  O106  1  0.47442967  0.13470933  0.02278933  1
  O  O107  1  0.66027967  0.52557033  0.02278933  1
