# generated using pymatgen
data_Li11V12(CoO8)4
_symmetry_space_group_name_H-M   'P 1'
_cell_length_a   11.78071000
_cell_length_b   11.78161400
_cell_length_c   8.41712584
_cell_angle_alpha   90.00000000
_cell_angle_beta   90.19518567
_cell_angle_gamma   90.00000000
_symmetry_Int_Tables_number   1
_chemical_formula_structural   Li11V12(CoO8)4
_chemical_formula_sum   'Li22 V24 Co8 O64'
_cell_volume   1168.25474957
_cell_formula_units_Z   2
loop_
 _symmetry_equiv_pos_site_id
 _symmetry_equiv_pos_as_xyz
  1  'x, y, z'
loop_
 _atom_site_type_symbol
 _atom_site_label
 _atom_site_symmetry_multiplicity
 _atom_site_fract_x
 _atom_site_fract_y
 _atom_site_fract_z
 _atom_site_occupancy
  Li  Li0  1  0.50000000  0.62588900  0.50000000  1
  Li  Li1  1  0.37173400  0.13040200  0.62715400  1
  Li  Li2  1  0.87818350  0.99635350  0.74421300  1
  Li  Li3  1  0.37910650  0.75049650  0.74459000  1
  Li  Li4  1  0.74728450  0.87406150  0.99265300  1
  Li  Li5  1  0.50000000  0.36823900  0.00000000  1
  Li  Li6  1  0.50000000  0.88185100  0.00000000  1
  Li  Li7  1  0.25271550  0.87406150  0.00734700  1
  Li  Li8  1  0.62089350  0.75049650  0.25541000  1
  Li  Li9  1  0.12181650  0.99635350  0.25578700  1
  Li  Li10  1  0.62826600  0.13040200  0.37284600  1
  Li  Li11  1  0.00000000  0.12588900  0.50000000  1
  Li  Li12  1  0.87173400  0.63040200  0.62715400  1
  Li  Li13  1  0.37818350  0.49635350  0.74421300  1
  Li  Li14  1  0.87910650  0.25049650  0.74459000  1
  Li  Li15  1  0.24728450  0.37406150  0.99265300  1
  Li  Li16  1  0.00000000  0.86823900  0.00000000  1
  Li  Li17  1  0.00000000  0.38185100  0.00000000  1
  Li  Li18  1  0.75271550  0.37406150  0.00734700  1
  Li  Li19  1  0.12089350  0.25049650  0.25541000  1
  Li  Li20  1  0.62181650  0.49635350  0.25578700  1
  Li  Li21  1  0.12826600  0.63040200  0.37284600  1
  V  V22  1  0.24783000  0.87343400  0.49362000  1
  V  V23  1  0.50000000  0.87754800  0.50000000  1
  V  V24  1  0.75217000  0.87343400  0.50638000  1
  V  V25  1  0.13200700  0.00214800  0.74153700  1
  V  V26  1  0.61863100  0.24384600  0.73872300  1
  V  V27  1  0.62460850  0.99824050  0.74043000  1
  V  V28  1  0.50000000  0.62853700  0.00000000  1
  V  V29  1  0.25631850  0.12699050  0.99596000  1
  V  V30  1  0.74368150  0.12699050  0.00404000  1
  V  V31  1  0.37539150  0.99824050  0.25957000  1
  V  V32  1  0.38136900  0.24384600  0.26127700  1
  V  V33  1  0.86799300  0.00214800  0.25846300  1
  V  V34  1  0.74783000  0.37343400  0.49362000  1
  V  V35  1  0.00000000  0.37754800  0.50000000  1
  V  V36  1  0.25217000  0.37343400  0.50638000  1
  V  V37  1  0.63200700  0.50214800  0.74153700  1
  V  V38  1  0.11863100  0.74384600  0.73872300  1
  V  V39  1  0.12460850  0.49824050  0.74043000  1
  V  V40  1  0.00000000  0.12853700  0.00000000  1
  V  V41  1  0.75631850  0.62699050  0.99596000  1
  V  V42  1  0.24368150  0.62699050  0.00404000  1
  V  V43  1  0.87539150  0.49824050  0.25957000  1
  V  V44  1  0.88136900  0.74384600  0.26127700  1
  V  V45  1  0.36799300  0.50214800  0.25846300  1
  Co  Co46  1  0.50000000  0.37271300  0.50000000  1
  Co  Co47  1  0.62816650  0.74824350  0.74546100  1
  Co  Co48  1  0.50000000  0.12417400  0.00000000  1
  Co  Co49  1  0.37183350  0.74824350  0.25453900  1
  Co  Co50  1  0.00000000  0.87271300  0.50000000  1
  Co  Co51  1  0.12816650  0.24824350  0.74546100  1
  Co  Co52  1  0.00000000  0.62417400  0.00000000  1
  Co  Co53  1  0.87183350  0.24824350  0.25453900  1
  O  O54  1  0.87884400  0.98331700  0.50336500  1
  O  O55  1  0.37852050  0.26185950  0.49075900  1
  O  O56  1  0.37097150  0.99060150  0.49591000  1
  O  O57  1  0.37735350  0.76128250  0.48930900  1
  O  O58  1  0.62264650  0.76128250  0.51069100  1
  O  O59  1  0.62902850  0.99060150  0.50409000  1
  O  O60  1  0.62147950  0.26185950  0.50924100  1
  O  O61  1  0.12115600  0.98331700  0.49663500  1
  O  O62  1  0.74396150  0.87022750  0.73166600  1
  O  O63  1  0.51649300  0.86803200  0.74618800  1
  O  O64  1  0.24091850  0.86583950  0.72983200  1
  O  O65  1  0.51475250  0.37768250  0.73433400  1
  O  O66  1  0.51134350  0.13298950  0.75602400  1
  O  O67  1  0.74258550  0.12670850  0.76289100  1
  O  O68  1  0.51295000  0.62631500  0.75238400  1
  O  O69  1  0.24284500  0.12746500  0.76464900  1
  O  O70  1  0.63309700  0.00564900  0.98186000  1
  O  O71  1  0.63592400  0.24669200  0.98074500  1
  O  O72  1  0.12885500  0.01225400  0.99601100  1
  O  O73  1  0.62679250  0.74207050  0.98201600  1
  O  O74  1  0.37320750  0.74207050  0.01798400  1
  O  O75  1  0.87114500  0.01225400  0.00398900  1
  O  O76  1  0.36407600  0.24669200  0.01925500  1
  O  O77  1  0.36690300  0.00564900  0.01814000  1
  O  O78  1  0.75715500  0.12746500  0.23535100  1
  O  O79  1  0.48705000  0.62631500  0.24761600  1
  O  O80  1  0.25741450  0.12670850  0.23710900  1
  O  O81  1  0.48865650  0.13298950  0.24397600  1
  O  O82  1  0.48524750  0.37768250  0.26566600  1
  O  O83  1  0.75908150  0.86583950  0.27016800  1
  O  O84  1  0.48350700  0.86803200  0.25381200  1
  O  O85  1  0.25603850  0.87022750  0.26833400  1
  O  O86  1  0.37884400  0.48331700  0.50336500  1
  O  O87  1  0.87852050  0.76185950  0.49075900  1
  O  O88  1  0.87097150  0.49060150  0.49591000  1
  O  O89  1  0.87735350  0.26128250  0.48930900  1
  O  O90  1  0.12264650  0.26128250  0.51069100  1
  O  O91  1  0.12902850  0.49060150  0.50409000  1
  O  O92  1  0.12147950  0.76185950  0.50924100  1
  O  O93  1  0.62115600  0.48331700  0.49663500  1
  O  O94  1  0.24396150  0.37022750  0.73166600  1
  O  O95  1  0.01649300  0.36803200  0.74618800  1
  O  O96  1  0.74091850  0.36583950  0.72983200  1
  O  O97  1  0.01475250  0.87768250  0.73433400  1
  O  O98  1  0.01134350  0.63298950  0.75602400  1
  O  O99  1  0.24258550  0.62670850  0.76289100  1
  O  O100  1  0.01295000  0.12631500  0.75238400  1
  O  O101  1  0.74284500  0.62746500  0.76464900  1
  O  O102  1  0.13309700  0.50564900  0.98186000  1
  O  O103  1  0.13592400  0.74669200  0.98074500  1
  O  O104  1  0.62885500  0.51225400  0.99601100  1
  O  O105  1  0.12679250  0.24207050  0.98201600  1
  O  O106  1  0.87320750  0.24207050  0.01798400  1
  O  O107  1  0.37114500  0.51225400  0.00398900  1
  O  O108  1  0.86407600  0.74669200  0.01925500  1
  O  O109  1  0.86690300  0.50564900  0.01814000  1
  O  O110  1  0.25715500  0.62746500  0.23535100  1
  O  O111  1  0.98705000  0.12631500  0.24761600  1
  O  O112  1  0.75741450  0.62670850  0.23710900  1
  O  O113  1  0.98865650  0.63298950  0.24397600  1
  O  O114  1  0.98524750  0.87768250  0.26566600  1
  O  O115  1  0.25908150  0.36583950  0.27016800  1
  O  O116  1  0.98350700  0.36803200  0.25381200  1
  O  O117  1  0.75603850  0.37022750  0.26833400  1
