# generated using pymatgen
data_Co3SbO8
_symmetry_space_group_name_H-M   'P 1'
_cell_length_a   5.85005984
_cell_length_b   5.85005984
_cell_length_c   14.32844879
_cell_angle_alpha   90.00000000
_cell_angle_beta   90.00000000
_cell_angle_gamma   120.00000000
_symmetry_Int_Tables_number   1
_chemical_formula_structural   Co3SbO8
_chemical_formula_sum   'Co9 Sb3 O24'
_cell_volume   424.66886828
_cell_formula_units_Z   3
loop_
 _symmetry_equiv_pos_site_id
 _symmetry_equiv_pos_as_xyz
  1  'x, y, z'
loop_
 _atom_site_type_symbol
 _atom_site_label
 _atom_site_symmetry_multiplicity
 _atom_site_fract_x
 _atom_site_fract_y
 _atom_site_fract_z
 _atom_site_occupancy
  Co  Co0  1  0.00000000  0.50000000  0.00000000  1
  Co  Co1  1  0.16666667  0.33333333  0.33333333  1
  Co  Co2  1  0.50000000  0.50000000  0.00000000  1
  Co  Co3  1  0.66666667  0.83333333  0.33333333  1
  Co  Co4  1  0.83333333  0.66666667  0.66666667  1
  Co  Co5  1  0.16666667  0.83333333  0.33333333  1
  Co  Co6  1  0.33333333  0.16666667  0.66666667  1
  Co  Co7  1  0.50000000  0.00000000  0.00000000  1
  Co  Co8  1  0.83333333  0.16666667  0.66666667  1
  Sb  Sb9  1  0.00000000  0.00000000  0.00000000  1
  Sb  Sb10  1  0.66666667  0.33333333  0.33333333  1
  Sb  Sb11  1  0.33333333  0.66666667  0.66666667  1
  O  O12  1  0.17458300  0.82541700  0.06847700  1
  O  O13  1  0.17458300  0.34916600  0.06847700  1
  O  O14  1  0.65083400  0.82541700  0.06847700  1
  O  O15  1  0.33333333  0.66666667  0.39492567  1
  O  O16  1  0.33333333  0.66666667  0.93840767  1
  O  O17  1  0.01583267  0.50791633  0.26485633  1
  O  O18  1  0.49208367  0.98416733  0.26485633  1
  O  O19  1  0.49208367  0.50791633  0.26485633  1
  O  O20  1  0.84124967  0.15875033  0.40181033  1
  O  O21  1  0.84124967  0.68249933  0.40181033  1
  O  O22  1  0.31750067  0.15875033  0.40181033  1
  O  O23  1  0.00000000  0.00000000  0.72825900  1
  O  O24  1  0.00000000  0.00000000  0.27174100  1
  O  O25  1  0.68249933  0.84124967  0.59818967  1
  O  O26  1  0.15875033  0.31750067  0.59818967  1
  O  O27  1  0.15875033  0.84124967  0.59818967  1
  O  O28  1  0.50791633  0.49208367  0.73514367  1
  O  O29  1  0.50791633  0.01583267  0.73514367  1
  O  O30  1  0.98416733  0.49208367  0.73514367  1
  O  O31  1  0.66666667  0.33333333  0.06159233  1
  O  O32  1  0.66666667  0.33333333  0.60507433  1
  O  O33  1  0.34916600  0.17458300  0.93152300  1
  O  O34  1  0.82541700  0.65083400  0.93152300  1
  O  O35  1  0.82541700  0.17458300  0.93152300  1
