# generated using pymatgen
data_Ba8Ta7O24
_symmetry_space_group_name_H-M   'P 1'
_cell_length_a   5.91210378
_cell_length_b   5.91210378
_cell_length_c   19.18489000
_cell_angle_alpha   90.00000000
_cell_angle_beta   90.00000000
_cell_angle_gamma   120.00000000
_symmetry_Int_Tables_number   1
_chemical_formula_structural   Ba8Ta7O24
_chemical_formula_sum   'Ba8 Ta7 O24'
_cell_volume   580.72970748
_cell_formula_units_Z   1
loop_
 _symmetry_equiv_pos_site_id
 _symmetry_equiv_pos_as_xyz
  1  'x, y, z'
loop_
 _atom_site_type_symbol
 _atom_site_label
 _atom_site_symmetry_multiplicity
 _atom_site_fract_x
 _atom_site_fract_y
 _atom_site_fract_z
 _atom_site_occupancy
  Ba  Ba0  1  0.00000000  0.00000000  0.24987000  1
  Ba  Ba1  1  0.00000000  0.00000000  0.85276400  1
  Ba  Ba2  1  0.66666667  0.33333333  0.98312600  1
  Ba  Ba3  1  0.66666667  0.33333333  0.50334500  1
  Ba  Ba4  1  0.00000000  0.00000000  0.63348400  1
  Ba  Ba5  1  0.33333333  0.66666667  0.13181200  1
  Ba  Ba6  1  0.33333333  0.66666667  0.75817400  1
  Ba  Ba7  1  0.33333333  0.66666667  0.36597800  1
  Ta  Ta8  1  0.00000000  0.00000000  0.06093400  1
  Ta  Ta9  1  0.66666667  0.33333333  0.18301400  1
  Ta  Ta10  1  0.66666667  0.33333333  0.31844800  1
  Ta  Ta11  1  0.66666667  0.33333333  0.69477800  1
  Ta  Ta12  1  0.00000000  0.00000000  0.43899600  1
  Ta  Ta13  1  0.33333333  0.66666667  0.56261400  1
  Ta  Ta14  1  0.33333333  0.66666667  0.93604400  1
  O  O15  1  0.82905900  0.17094100  0.74025500  1
  O  O16  1  0.67087000  0.83543500  0.00860800  1
  O  O17  1  0.66482800  0.83241400  0.49845600  1
  O  O18  1  0.83722300  0.16277700  0.12735700  1
  O  O19  1  0.83626400  0.16373600  0.37727900  1
  O  O20  1  0.83722300  0.67444600  0.12735700  1
  O  O21  1  0.83626400  0.67252800  0.37727900  1
  O  O22  1  0.82905900  0.65811800  0.74025500  1
  O  O23  1  0.98756400  0.49378200  0.25047700  1
  O  O24  1  0.32747200  0.16373600  0.37727900  1
  O  O25  1  0.32555400  0.16277700  0.12735700  1
  O  O26  1  0.16456500  0.83543500  0.00860800  1
  O  O27  1  0.16758600  0.83241400  0.49845600  1
  O  O28  1  0.00576700  0.50288350  0.61914600  1
  O  O29  1  0.02234400  0.51117200  0.88416500  1
  O  O30  1  0.34188200  0.17094100  0.74025500  1
  O  O31  1  0.49711650  0.99423300  0.61914600  1
  O  O32  1  0.16456500  0.32913000  0.00860800  1
  O  O33  1  0.16758600  0.33517200  0.49845600  1
  O  O34  1  0.48882800  0.97765600  0.88416500  1
  O  O35  1  0.50621800  0.01243600  0.25047700  1
  O  O36  1  0.48882800  0.51117200  0.88416500  1
  O  O37  1  0.49711650  0.50288350  0.61914600  1
  O  O38  1  0.50621800  0.49378200  0.25047700  1
