# generated using pymatgen
data_V(SO4)2
_symmetry_space_group_name_H-M   'P 1'
_cell_length_a   8.33413438
_cell_length_b   8.33413438
_cell_length_c   22.36163041
_cell_angle_alpha   90.00000000
_cell_angle_beta   90.00000000
_cell_angle_gamma   120.00000000
_symmetry_Int_Tables_number   1
_chemical_formula_structural   V(SO4)2
_chemical_formula_sum   'V9 S18 O72'
_cell_volume   1345.10161641
_cell_formula_units_Z   9
loop_
 _symmetry_equiv_pos_site_id
 _symmetry_equiv_pos_as_xyz
  1  'x, y, z'
loop_
 _atom_site_type_symbol
 _atom_site_label
 _atom_site_symmetry_multiplicity
 _atom_site_fract_x
 _atom_site_fract_y
 _atom_site_fract_z
 _atom_site_occupancy
  V  V0  1  0.66666667  0.33333333  0.18485233  1
  V  V1  1  0.33333333  0.66666667  0.01908567  1
  V  V2  1  0.00000000  0.00000000  0.15000400  1
  V  V3  1  0.33333333  0.66666667  0.51818567  1
  V  V4  1  0.00000000  0.00000000  0.35241900  1
  V  V5  1  0.66666667  0.33333333  0.48333733  1
  V  V6  1  0.00000000  0.00000000  0.85151900  1
  V  V7  1  0.66666667  0.33333333  0.68575233  1
  V  V8  1  0.33333333  0.66666667  0.81667067  1
  S  S9  1  0.70826267  0.70699833  0.24924033  1
  S  S10  1  0.29300167  0.00126433  0.24924033  1
  S  S11  1  0.99873567  0.29173733  0.24924033  1
  S  S12  1  0.66147200  0.04169500  0.08191700  1
  S  S13  1  0.38022300  0.33852800  0.08191700  1
  S  S14  1  0.95830500  0.61977700  0.08191700  1
  S  S15  1  0.37492933  0.04033167  0.58257367  1
  S  S16  1  0.95966833  0.33459767  0.58257367  1
  S  S17  1  0.66540233  0.62507067  0.58257367  1
  S  S18  1  0.32813867  0.37502833  0.41525033  1
  S  S19  1  0.04688967  0.67186133  0.41525033  1
  S  S20  1  0.62497167  0.95311033  0.41525033  1
  S  S21  1  0.04159600  0.37366500  0.91590700  1
  S  S22  1  0.62633500  0.66793100  0.91590700  1
  S  S23  1  0.33206900  0.95840400  0.91590700  1
  S  S24  1  0.99480533  0.70836167  0.74858367  1
  S  S25  1  0.71355633  0.00519467  0.74858367  1
  S  S26  1  0.29163833  0.28644367  0.74858367  1
  O  O27  1  0.85785667  0.55830733  0.02734133  1
  O  O28  1  0.70045067  0.14214333  0.02734133  1
  O  O29  1  0.76731700  0.56879800  0.23547000  1
  O  O30  1  0.44169267  0.29954933  0.02734133  1
  O  O31  1  0.79081733  0.85849667  0.20093867  1
  O  O32  1  0.51514833  0.63762267  0.25260667  1
  O  O33  1  0.36237733  0.87752567  0.25260667  1
  O  O34  1  0.43120200  0.19851900  0.23547000  1
  O  O35  1  0.12247433  0.48485167  0.25260667  1
  O  O36  1  0.84424667  0.05521333  0.10437133  1
  O  O37  1  0.58897700  0.10664900  0.13155700  1
  O  O38  1  0.51767200  0.41102300  0.13155700  1
  O  O39  1  0.14150333  0.93232067  0.20093867  1
  O  O40  1  0.06767933  0.20918267  0.20093867  1
  O  O41  1  0.80148100  0.23268300  0.23547000  1
  O  O42  1  0.52616200  0.83818300  0.07624200  1
  O  O43  1  0.21096667  0.15575333  0.10437133  1
  O  O44  1  0.31202100  0.47383800  0.07624200  1
  O  O45  1  0.16181700  0.68797900  0.07624200  1
  O  O46  1  0.89335100  0.48232800  0.13155700  1
  O  O47  1  0.20231167  0.01106033  0.30734833  1
  O  O48  1  0.94478667  0.78903333  0.10437133  1
  O  O49  1  0.98893967  0.19125133  0.30734833  1
  O  O50  1  0.80874867  0.79768833  0.30734833  1
  O  O51  1  0.52452333  0.89164067  0.36067467  1
  O  O52  1  0.36711733  0.47547667  0.36067467  1
  O  O53  1  0.43398367  0.90213133  0.56880333  1
  O  O54  1  0.10835933  0.63288267  0.36067467  1
  O  O55  1  0.45748400  0.19183000  0.53427200  1
  O  O56  1  0.18181500  0.97095600  0.58594000  1
  O  O57  1  0.02904400  0.21085900  0.58594000  1
  O  O58  1  0.09786867  0.53185233  0.56880333  1
  O  O59  1  0.78914100  0.81818500  0.58594000  1
  O  O60  1  0.51091333  0.38854667  0.43770467  1
  O  O61  1  0.25564367  0.43998233  0.46489033  1
  O  O62  1  0.18433867  0.74435633  0.46489033  1
  O  O63  1  0.80817000  0.26565400  0.53427200  1
  O  O64  1  0.73434600  0.54251600  0.53427200  1
  O  O65  1  0.46814767  0.56601633  0.56880333  1
  O  O66  1  0.19282867  0.17151633  0.40957533  1
  O  O67  1  0.87763333  0.48908667  0.43770467  1
  O  O68  1  0.97868767  0.80717133  0.40957533  1
  O  O69  1  0.82848367  0.02131233  0.40957533  1
  O  O70  1  0.56001767  0.81566133  0.46489033  1
  O  O71  1  0.86897833  0.34439367  0.64068167  1
  O  O72  1  0.61145333  0.12236667  0.43770467  1
  O  O73  1  0.65560633  0.52458467  0.64068167  1
  O  O74  1  0.47541533  0.13102167  0.64068167  1
  O  O75  1  0.19119000  0.22497400  0.69400800  1
  O  O76  1  0.03378400  0.80881000  0.69400800  1
  O  O77  1  0.10065033  0.23546467  0.90213667  1
  O  O78  1  0.77502600  0.96621600  0.69400800  1
  O  O79  1  0.12415067  0.52516333  0.86760533  1
  O  O80  1  0.84848167  0.30428933  0.91927333  1
  O  O81  1  0.69571067  0.54419233  0.91927333  1
  O  O82  1  0.76453533  0.86518567  0.90213667  1
  O  O83  1  0.45580767  0.15151833  0.91927333  1
  O  O84  1  0.17758000  0.72188000  0.77103800  1
  O  O85  1  0.92231033  0.77331567  0.79822367  1
  O  O86  1  0.85100533  0.07768967  0.79822367  1
  O  O87  1  0.47483667  0.59898733  0.86760533  1
  O  O88  1  0.40101267  0.87584933  0.86760533  1
  O  O89  1  0.13481433  0.89934967  0.90213667  1
  O  O90  1  0.85949533  0.50484967  0.74290867  1
  O  O91  1  0.54430000  0.82242000  0.77103800  1
  O  O92  1  0.64535433  0.14050467  0.74290867  1
  O  O93  1  0.49515033  0.35464567  0.74290867  1
  O  O94  1  0.22668433  0.14899467  0.79822367  1
  O  O95  1  0.53564500  0.67772700  0.97401500  1
  O  O96  1  0.27812000  0.45570000  0.77103800  1
  O  O97  1  0.32227300  0.85791800  0.97401500  1
  O  O98  1  0.14208200  0.46435500  0.97401500  1
