# generated using pymatgen
data_Mn3(P2O7)2
_symmetry_space_group_name_H-M   'P 1'
_cell_length_a   5.33529384
_cell_length_b   6.49564063
_cell_length_c   16.25949112
_cell_angle_alpha   93.02036473
_cell_angle_beta   99.17521346
_cell_angle_gamma   107.43482461
_symmetry_Int_Tables_number   1
_chemical_formula_structural   Mn3(P2O7)2
_chemical_formula_sum   'Mn6 P8 O28'
_cell_volume   527.69720429
_cell_formula_units_Z   2
loop_
 _symmetry_equiv_pos_site_id
 _symmetry_equiv_pos_as_xyz
  1  'x, y, z'
loop_
 _atom_site_type_symbol
 _atom_site_label
 _atom_site_symmetry_multiplicity
 _atom_site_fract_x
 _atom_site_fract_y
 _atom_site_fract_z
 _atom_site_occupancy
  Mn  Mn0  1  0.24277500  0.28742800  0.41448000  1
  Mn  Mn1  1  0.87688800  0.39229400  0.82704100  1
  Mn  Mn2  1  0.42372100  0.97516700  0.67919300  1
  Mn  Mn3  1  0.12311200  0.60770600  0.17295900  1
  Mn  Mn4  1  0.57627900  0.02483300  0.32080700  1
  Mn  Mn5  1  0.75722500  0.71257200  0.58552000  1
  P  P6  1  0.36934600  0.22897300  0.92193800  1
  P  P7  1  0.17630200  0.78135900  0.45805600  1
  P  P8  1  0.70881600  0.56483100  0.31521900  1
  P  P9  1  0.04157600  0.10015400  0.20903500  1
  P  P10  1  0.82369800  0.21864100  0.54194400  1
  P  P11  1  0.95842400  0.89984600  0.79096500  1
  P  P12  1  0.29118400  0.43516900  0.68478100  1
  P  P13  1  0.63065400  0.77102700  0.07806200  1
  O  O14  1  0.33983300  0.67321600  0.08964700  1
  O  O15  1  0.96481000  0.13639200  0.29592600  1
  O  O16  1  0.64158000  0.85943800  0.99389400  1
  O  O17  1  0.75776100  0.97100200  0.15315300  1
  O  O18  1  0.45896200  0.65967000  0.66469900  1
  O  O19  1  0.03519000  0.86360800  0.70407400  1
  O  O20  1  0.87772100  0.15723900  0.45557400  1
  O  O21  1  0.54103800  0.34033000  0.33530100  1
  O  O22  1  0.87544600  0.68305800  0.40559400  1
  O  O23  1  0.22420200  0.95334500  0.21521700  1
  O  O24  1  0.16311300  0.31057300  0.17321600  1
  O  O25  1  0.52571400  0.69942800  0.28680100  1
  O  O26  1  0.83688700  0.68942700  0.82678400  1
  O  O27  1  0.90629500  0.54589900  0.26074800  1
  O  O28  1  0.31862900  0.97942300  0.41594400  1
  O  O29  1  0.12227900  0.84276100  0.54442600  1
  O  O30  1  0.79413700  0.61547200  0.09210000  1
  O  O31  1  0.77579800  0.04665500  0.78478300  1
  O  O32  1  0.68137100  0.02057700  0.58405600  1
  O  O33  1  0.47428600  0.30057200  0.71319900  1
  O  O34  1  0.67903000  0.38866800  0.54135900  1
  O  O35  1  0.20586300  0.38452800  0.90790000  1
  O  O36  1  0.32097000  0.61133200  0.45864100  1
  O  O37  1  0.09370500  0.45410100  0.73925200  1
  O  O38  1  0.12455400  0.31694200  0.59440600  1
  O  O39  1  0.35842000  0.14056200  0.00610600  1
  O  O40  1  0.66016700  0.32678400  0.91035300  1
  O  O41  1  0.24223900  0.02899800  0.84684700  1
