# generated using pymatgen
data_LiTiFeO4
_symmetry_space_group_name_H-M   'P 1'
_cell_length_a   5.96458589
_cell_length_b   6.00987000
_cell_length_c   8.49191566
_cell_angle_alpha   90.00000000
_cell_angle_beta   90.00000000
_cell_angle_gamma   90.00000000
_symmetry_Int_Tables_number   1
_chemical_formula_structural   LiTiFeO4
_chemical_formula_sum   'Li4 Ti4 Fe4 O16'
_cell_volume   304.40448461
_cell_formula_units_Z   4
loop_
 _symmetry_equiv_pos_site_id
 _symmetry_equiv_pos_as_xyz
  1  'x, y, z'
loop_
 _atom_site_type_symbol
 _atom_site_label
 _atom_site_symmetry_multiplicity
 _atom_site_fract_x
 _atom_site_fract_y
 _atom_site_fract_z
 _atom_site_occupancy
  Li  Li0  1  0.00000000  0.75000000  0.12060150  1
  Li  Li1  1  0.00000000  0.25000000  0.87939850  1
  Li  Li2  1  0.50000000  0.25000000  0.62060150  1
  Li  Li3  1  0.50000000  0.75000000  0.37939850  1
  Ti  Ti4  1  0.25000000  0.25000000  0.25000000  1
  Ti  Ti5  1  0.75000000  0.25000000  0.25000000  1
  Ti  Ti6  1  0.75000000  0.75000000  0.75000000  1
  Ti  Ti7  1  0.25000000  0.75000000  0.75000000  1
  Fe  Fe8  1  0.50000000  0.50000000  0.00000000  1
  Fe  Fe9  1  0.50000000  0.00000000  0.00000000  1
  Fe  Fe10  1  0.00000000  0.00000000  0.50000000  1
  Fe  Fe11  1  0.00000000  0.50000000  0.50000000  1
  O  O12  1  0.00000000  0.02917000  0.25649200  1
  O  O13  1  0.50000000  0.97083000  0.75649200  1
  O  O14  1  0.50000000  0.02917000  0.24350800  1
  O  O15  1  0.00000000  0.97083000  0.74350800  1
  O  O16  1  0.72807750  0.75000000  0.98155250  1
  O  O17  1  0.27192250  0.75000000  0.98155250  1
  O  O18  1  0.27192250  0.25000000  0.01844750  1
  O  O19  1  0.72807750  0.25000000  0.01844750  1
  O  O20  1  0.50000000  0.52917000  0.75649200  1
  O  O21  1  0.00000000  0.47083000  0.25649200  1
  O  O22  1  0.00000000  0.52917000  0.74350800  1
  O  O23  1  0.50000000  0.47083000  0.24350800  1
  O  O24  1  0.22807750  0.25000000  0.48155250  1
  O  O25  1  0.77192250  0.25000000  0.48155250  1
  O  O26  1  0.77192250  0.75000000  0.51844750  1
  O  O27  1  0.22807750  0.75000000  0.51844750  1
