# generated using pymatgen
data_Li4NbFe5O12
_symmetry_space_group_name_H-M   'P 1'
_cell_length_a   5.26988200
_cell_length_b   9.14555800
_cell_length_c   10.49404115
_cell_angle_alpha   90.00000000
_cell_angle_beta   95.85785161
_cell_angle_gamma   90.00000000
_symmetry_Int_Tables_number   1
_chemical_formula_structural   Li4NbFe5O12
_chemical_formula_sum   'Li8 Nb2 Fe10 O24'
_cell_volume   503.12987551
_cell_formula_units_Z   2
loop_
 _symmetry_equiv_pos_site_id
 _symmetry_equiv_pos_as_xyz
  1  'x, y, z'
loop_
 _atom_site_type_symbol
 _atom_site_label
 _atom_site_symmetry_multiplicity
 _atom_site_fract_x
 _atom_site_fract_y
 _atom_site_fract_z
 _atom_site_occupancy
  Li  Li0  1  0.70551950  0.83055150  0.71059800  1
  Li  Li1  1  0.29448050  0.83055150  0.28940200  1
  Li  Li2  1  0.20551950  0.66944850  0.71059800  1
  Li  Li3  1  0.79448050  0.66944850  0.28940200  1
  Li  Li4  1  0.20551950  0.33055150  0.71059800  1
  Li  Li5  1  0.79448050  0.33055150  0.28940200  1
  Li  Li6  1  0.70551950  0.16944850  0.71059800  1
  Li  Li7  1  0.29448050  0.16944850  0.28940200  1
  Nb  Nb8  1  0.00000000  0.00000000  0.00000000  1
  Nb  Nb9  1  0.50000000  0.50000000  0.00000000  1
  Fe  Fe10  1  0.50000000  0.66317800  0.50000000  1
  Fe  Fe11  1  0.50000000  0.83470400  0.00000000  1
  Fe  Fe12  1  0.50000000  0.00000000  0.50000000  1
  Fe  Fe13  1  0.00000000  0.66529600  0.00000000  1
  Fe  Fe14  1  0.00000000  0.83682200  0.50000000  1
  Fe  Fe15  1  0.00000000  0.16317800  0.50000000  1
  Fe  Fe16  1  0.00000000  0.33470400  0.00000000  1
  Fe  Fe17  1  0.00000000  0.50000000  0.50000000  1
  Fe  Fe18  1  0.50000000  0.16529600  0.00000000  1
  Fe  Fe19  1  0.50000000  0.33682200  0.50000000  1
  O  O20  1  0.68388750  0.66585350  0.10148900  1
  O  O21  1  0.31611250  0.66585350  0.89851100  1
  O  O22  1  0.63867300  0.82601600  0.39287400  1
  O  O23  1  0.36132700  0.82601600  0.60712600  1
  O  O24  1  0.83933900  0.00000000  0.60427100  1
  O  O25  1  0.68964700  0.00000000  0.09636300  1
  O  O26  1  0.31035300  0.00000000  0.90363700  1
  O  O27  1  0.16066100  0.00000000  0.39572900  1
  O  O28  1  0.13867300  0.67398400  0.39287400  1
  O  O29  1  0.86132700  0.67398400  0.60712600  1
  O  O30  1  0.18388750  0.83414650  0.10148900  1
  O  O31  1  0.81611250  0.83414650  0.89851100  1
  O  O32  1  0.18388750  0.16585350  0.10148900  1
  O  O33  1  0.81611250  0.16585350  0.89851100  1
  O  O34  1  0.13867300  0.32601600  0.39287400  1
  O  O35  1  0.86132700  0.32601600  0.60712600  1
  O  O36  1  0.33933900  0.50000000  0.60427100  1
  O  O37  1  0.18964700  0.50000000  0.09636300  1
  O  O38  1  0.81035300  0.50000000  0.90363700  1
  O  O39  1  0.66066100  0.50000000  0.39572900  1
  O  O40  1  0.63867300  0.17398400  0.39287400  1
  O  O41  1  0.36132700  0.17398400  0.60712600  1
  O  O42  1  0.68388750  0.33414650  0.10148900  1
  O  O43  1  0.31611250  0.33414650  0.89851100  1
