# generated using pymatgen
data_Li3(NiO2)4
_symmetry_space_group_name_H-M   'P 1'
_cell_length_a   10.19151717
_cell_length_b   5.61196941
_cell_length_c   5.80219194
_cell_angle_alpha   90.00000000
_cell_angle_beta   124.35026546
_cell_angle_gamma   90.00000000
_symmetry_Int_Tables_number   1
_chemical_formula_structural   Li3(NiO2)4
_chemical_formula_sum   'Li6 Ni8 O16'
_cell_volume   273.97933233
_cell_formula_units_Z   2
loop_
 _symmetry_equiv_pos_site_id
 _symmetry_equiv_pos_as_xyz
  1  'x, y, z'
loop_
 _atom_site_type_symbol
 _atom_site_label
 _atom_site_symmetry_multiplicity
 _atom_site_fract_x
 _atom_site_fract_y
 _atom_site_fract_z
 _atom_site_occupancy
  Li  Li0  1  0.00000000  0.50000000  0.50000000  1
  Li  Li1  1  0.75000000  0.25000000  0.50000000  1
  Li  Li2  1  0.75000000  0.75000000  0.50000000  1
  Li  Li3  1  0.50000000  0.00000000  0.50000000  1
  Li  Li4  1  0.25000000  0.75000000  0.50000000  1
  Li  Li5  1  0.25000000  0.25000000  0.50000000  1
  Ni  Ni6  1  0.25000000  0.75000000  0.00000000  1
  Ni  Ni7  1  0.25000000  0.25000000  0.00000000  1
  Ni  Ni8  1  0.00000000  0.50000000  0.00000000  1
  Ni  Ni9  1  0.00000000  0.00000000  0.00000000  1
  Ni  Ni10  1  0.75000000  0.25000000  0.00000000  1
  Ni  Ni11  1  0.75000000  0.75000000  0.00000000  1
  Ni  Ni12  1  0.50000000  0.00000000  0.00000000  1
  Ni  Ni13  1  0.50000000  0.50000000  0.00000000  1
  O  O14  1  0.75255550  0.50000000  0.22139700  1
  O  O15  1  0.24744450  0.50000000  0.77860300  1
  O  O16  1  0.22327700  0.50000000  0.20573800  1
  O  O17  1  0.77672300  0.50000000  0.79426200  1
  O  O18  1  0.00082850  0.74549550  0.21972100  1
  O  O19  1  0.99917150  0.74549550  0.78027900  1
  O  O20  1  0.00082850  0.25450450  0.21972100  1
  O  O21  1  0.99917150  0.25450450  0.78027900  1
  O  O22  1  0.25255550  0.00000000  0.22139700  1
  O  O23  1  0.74744450  0.00000000  0.77860300  1
  O  O24  1  0.72327700  0.00000000  0.20573800  1
  O  O25  1  0.27672300  0.00000000  0.79426200  1
  O  O26  1  0.50082850  0.24549550  0.21972100  1
  O  O27  1  0.49917150  0.24549550  0.78027900  1
  O  O28  1  0.50082850  0.75450450  0.21972100  1
  O  O29  1  0.49917150  0.75450450  0.78027900  1
