# generated using pymatgen
data_Li4Cr2Fe3Co3O16
_symmetry_space_group_name_H-M   'P 1'
_cell_length_a   9.97415600
_cell_length_b   5.76340800
_cell_length_c   9.38121656
_cell_angle_alpha   90.00000000
_cell_angle_beta   90.44469764
_cell_angle_gamma   90.00000000
_symmetry_Int_Tables_number   1
_chemical_formula_structural   Li4Cr2Fe3Co3O16
_chemical_formula_sum   'Li8 Cr4 Fe6 Co6 O32'
_cell_volume   539.26421505
_cell_formula_units_Z   2
loop_
 _symmetry_equiv_pos_site_id
 _symmetry_equiv_pos_as_xyz
  1  'x, y, z'
loop_
 _atom_site_type_symbol
 _atom_site_label
 _atom_site_symmetry_multiplicity
 _atom_site_fract_x
 _atom_site_fract_y
 _atom_site_fract_z
 _atom_site_occupancy
  Li  Li0  1  0.66748400  0.00000000  0.89513400  1
  Li  Li1  1  0.00325300  0.00000000  0.99825400  1
  Li  Li2  1  0.00608000  0.00000000  0.49533900  1
  Li  Li3  1  0.33341100  0.00000000  0.39215500  1
  Li  Li4  1  0.16748400  0.50000000  0.89513400  1
  Li  Li5  1  0.50325300  0.50000000  0.99825400  1
  Li  Li6  1  0.50608000  0.50000000  0.49533900  1
  Li  Li7  1  0.83341100  0.50000000  0.39215500  1
  Cr  Cr8  1  0.66312200  0.00000000  0.48789300  1
  Cr  Cr9  1  0.33210800  0.00000000  0.98853000  1
  Cr  Cr10  1  0.16312200  0.50000000  0.48789300  1
  Cr  Cr11  1  0.83210800  0.50000000  0.98853000  1
  Fe  Fe12  1  0.83012100  0.00000000  0.21504200  1
  Fe  Fe13  1  0.41646150  0.24592650  0.71442500  1
  Fe  Fe14  1  0.41646150  0.75407350  0.71442500  1
  Fe  Fe15  1  0.33012100  0.50000000  0.21504200  1
  Fe  Fe16  1  0.91646150  0.74592650  0.71442500  1
  Fe  Fe17  1  0.91646150  0.25407350  0.71442500  1
  Co  Co18  1  0.58474050  0.24440450  0.21303000  1
  Co  Co19  1  0.58474050  0.75559550  0.21303000  1
  Co  Co20  1  0.17046300  0.00000000  0.71494000  1
  Co  Co21  1  0.08474050  0.74440450  0.21303000  1
  Co  Co22  1  0.08474050  0.25559550  0.21303000  1
  Co  Co23  1  0.67046300  0.50000000  0.71494000  1
  O  O24  1  0.58050150  0.25720750  0.60260500  1
  O  O25  1  0.51919800  0.00000000  0.33164100  1
  O  O26  1  0.65986100  0.00000000  0.10611200  1
  O  O27  1  0.00708800  0.00000000  0.30799200  1
  O  O28  1  0.00296900  0.00000000  0.80957300  1
  O  O29  1  0.58050150  0.74279250  0.60260500  1
  O  O30  1  0.73634250  0.22536250  0.33959600  1
  O  O31  1  0.73634250  0.77463750  0.33959600  1
  O  O32  1  0.16393800  0.00000000  0.10645100  1
  O  O33  1  0.84015700  0.00000000  0.59962500  1
  O  O34  1  0.25896300  0.22162500  0.83666700  1
  O  O35  1  0.25896300  0.77837500  0.83666700  1
  O  O36  1  0.33273300  0.00000000  0.60998500  1
  O  O37  1  0.42195650  0.25205750  0.09815600  1
  O  O38  1  0.48101600  0.00000000  0.83863000  1
  O  O39  1  0.42195650  0.74794250  0.09815600  1
  O  O40  1  0.08050150  0.75720750  0.60260500  1
  O  O41  1  0.01919800  0.50000000  0.33164100  1
  O  O42  1  0.15986100  0.50000000  0.10611200  1
  O  O43  1  0.50708800  0.50000000  0.30799200  1
  O  O44  1  0.50296900  0.50000000  0.80957300  1
  O  O45  1  0.08050150  0.24279250  0.60260500  1
  O  O46  1  0.23634250  0.72536250  0.33959600  1
  O  O47  1  0.23634250  0.27463750  0.33959600  1
  O  O48  1  0.66393800  0.50000000  0.10645100  1
  O  O49  1  0.34015700  0.50000000  0.59962500  1
  O  O50  1  0.75896300  0.72162500  0.83666700  1
  O  O51  1  0.75896300  0.27837500  0.83666700  1
  O  O52  1  0.83273300  0.50000000  0.60998500  1
  O  O53  1  0.92195650  0.75205750  0.09815600  1
  O  O54  1  0.98101600  0.50000000  0.83863000  1
  O  O55  1  0.92195650  0.24794250  0.09815600  1
