# generated using pymatgen
data_TiFe3Sb2(PO4)6
_symmetry_space_group_name_H-M   'P 1'
_cell_length_a   8.74379978
_cell_length_b   8.74379978
_cell_length_c   22.00910548
_cell_angle_alpha   90.00000000
_cell_angle_beta   90.00000000
_cell_angle_gamma   120.00000000
_symmetry_Int_Tables_number   1
_chemical_formula_structural   TiFe3Sb2(PO4)6
_chemical_formula_sum   'Ti3 Fe9 Sb6 P18 O72'
_cell_volume   1457.24788078
_cell_formula_units_Z   3
loop_
 _symmetry_equiv_pos_site_id
 _symmetry_equiv_pos_as_xyz
  1  'x, y, z'
loop_
 _atom_site_type_symbol
 _atom_site_label
 _atom_site_symmetry_multiplicity
 _atom_site_fract_x
 _atom_site_fract_y
 _atom_site_fract_z
 _atom_site_occupancy
  Ti  Ti0  1  0.00000000  0.00000000  0.14521100  1
  Ti  Ti1  1  0.66666667  0.33333333  0.47854433  1
  Ti  Ti2  1  0.33333333  0.66666667  0.81187767  1
  Fe  Fe3  1  0.66666667  0.33333333  0.17734033  1
  Fe  Fe4  1  0.33333333  0.66666667  0.31571667  1
  Fe  Fe5  1  0.33333333  0.66666667  0.01860167  1
  Fe  Fe6  1  0.33333333  0.66666667  0.51067367  1
  Fe  Fe7  1  0.00000000  0.00000000  0.64905000  1
  Fe  Fe8  1  0.00000000  0.00000000  0.35193500  1
  Fe  Fe9  1  0.00000000  0.00000000  0.84400700  1
  Fe  Fe10  1  0.66666667  0.33333333  0.98238333  1
  Fe  Fe11  1  0.66666667  0.33333333  0.68526833  1
  Sb  Sb12  1  0.66666667  0.33333333  0.31924833  1
  Sb  Sb13  1  0.33333333  0.66666667  0.16575267  1
  Sb  Sb14  1  0.33333333  0.66666667  0.65258167  1
  Sb  Sb15  1  0.00000000  0.00000000  0.49908600  1
  Sb  Sb16  1  0.00000000  0.00000000  0.98591500  1
  Sb  Sb17  1  0.66666667  0.33333333  0.83241933  1
  P  P18  1  0.66701367  0.03671833  0.08408333  1
  P  P19  1  0.36970467  0.33298633  0.08408333  1
  P  P20  1  0.96328167  0.63029533  0.08408333  1
  P  P21  1  0.71386667  0.71138533  0.25061633  1
  P  P22  1  0.28861467  0.00248133  0.25061633  1
  P  P23  1  0.99751867  0.28613333  0.25061633  1
  P  P24  1  0.33368033  0.37005167  0.41741667  1
  P  P25  1  0.03637133  0.66631967  0.41741667  1
  P  P26  1  0.62994833  0.96362867  0.41741667  1
  P  P27  1  0.38053333  0.04471867  0.58394967  1
  P  P28  1  0.95528133  0.33581467  0.58394967  1
  P  P29  1  0.66418533  0.61946667  0.58394967  1
  P  P30  1  0.00034700  0.70338500  0.75075000  1
  P  P31  1  0.70303800  0.99965300  0.75075000  1
  P  P32  1  0.29661500  0.29696200  0.75075000  1
  P  P33  1  0.04720000  0.37805200  0.91728300  1
  P  P34  1  0.62194800  0.66914800  0.91728300  1
  P  P35  1  0.33085200  0.95280000  0.91728300  1
  O  O36  1  0.87047233  0.55139267  0.02466467  1
  O  O37  1  0.68092033  0.12952767  0.02466467  1
  O  O38  1  0.69056467  0.51719733  0.25116733  1
  O  O39  1  0.44860733  0.31907967  0.02466467  1
  O  O40  1  0.82143000  0.80935400  0.19398100  1
  O  O41  1  0.52733200  0.68934500  0.24462500  1
  O  O42  1  0.48280267  0.17336733  0.25116733  1
  O  O43  1  0.31065500  0.83798700  0.24462500  1
  O  O44  1  0.65721067  0.13093133  0.14162533  1
  O  O45  1  0.16201300  0.47266800  0.24462500  1
  O  O46  1  0.83022533  0.00816867  0.08830967  1
  O  O47  1  0.47372067  0.34278933  0.14162533  1
  O  O48  1  0.19064600  0.01207600  0.19398100  1
  O  O49  1  0.82663267  0.30943533  0.25116733  1
  O  O50  1  0.49711033  0.84679567  0.08605967  1
  O  O51  1  0.98792400  0.17857000  0.19398100  1
  O  O52  1  0.34968533  0.50288967  0.08605967  1
  O  O53  1  0.17794333  0.16977467  0.08830967  1
  O  O54  1  0.15320433  0.65031467  0.08605967  1
  O  O55  1  0.86906867  0.52627933  0.14162533  1
  O  O56  1  0.20129600  0.00822000  0.30980000  1
  O  O57  1  0.99183133  0.82205667  0.08830967  1
  O  O58  1  0.99178000  0.19307600  0.30980000  1
  O  O59  1  0.80692400  0.79870400  0.30980000  1
  O  O60  1  0.53713900  0.88472600  0.35799800  1
  O  O61  1  0.34758700  0.46286100  0.35799800  1
  O  O62  1  0.35723133  0.85053067  0.58450067  1
  O  O63  1  0.11527400  0.65241300  0.35799800  1
  O  O64  1  0.48809667  0.14268733  0.52731433  1
  O  O65  1  0.19399867  0.02267833  0.57795833  1
  O  O66  1  0.14946933  0.50670067  0.58450067  1
  O  O67  1  0.97732167  0.17132033  0.57795833  1
  O  O68  1  0.32387733  0.46426467  0.47495867  1
  O  O69  1  0.82867967  0.80600133  0.57795833  1
  O  O70  1  0.49689200  0.34150200  0.42164300  1
  O  O71  1  0.14038733  0.67612267  0.47495867  1
  O  O72  1  0.85731267  0.34540933  0.52731433  1
  O  O73  1  0.49329933  0.64276867  0.58450067  1
  O  O74  1  0.16377700  0.18012900  0.41939300  1
  O  O75  1  0.65459067  0.51190333  0.52731433  1
  O  O76  1  0.01635200  0.83622300  0.41939300  1
  O  O77  1  0.84461000  0.50310800  0.42164300  1
  O  O78  1  0.81987100  0.98364800  0.41939300  1
  O  O79  1  0.53573533  0.85961267  0.47495867  1
  O  O80  1  0.86796267  0.34155333  0.64313333  1
  O  O81  1  0.65849800  0.15539000  0.42164300  1
  O  O82  1  0.65844667  0.52640933  0.64313333  1
  O  O83  1  0.47359067  0.13203733  0.64313333  1
  O  O84  1  0.20380567  0.21805933  0.69133133  1
  O  O85  1  0.01425367  0.79619433  0.69133133  1
  O  O86  1  0.02389800  0.18386400  0.91783400  1
  O  O87  1  0.78194067  0.98574633  0.69133133  1
  O  O88  1  0.15476333  0.47602067  0.86064767  1
  O  O89  1  0.86066533  0.35601167  0.91129167  1
  O  O90  1  0.81613600  0.84003400  0.91783400  1
  O  O91  1  0.64398833  0.50465367  0.91129167  1
  O  O92  1  0.99054400  0.79759800  0.80829200  1
  O  O93  1  0.49534633  0.13933467  0.91129167  1
  O  O94  1  0.16355867  0.67483533  0.75497633  1
  O  O95  1  0.80705400  0.00945600  0.80829200  1
  O  O96  1  0.52397933  0.67874267  0.86064767  1
  O  O97  1  0.15996600  0.97610200  0.91783400  1
  O  O98  1  0.83044367  0.51346233  0.75272633  1
  O  O99  1  0.32125733  0.84523667  0.86064767  1
  O  O100  1  0.68301867  0.16955633  0.75272633  1
  O  O101  1  0.51127667  0.83644133  0.75497633  1
  O  O102  1  0.48653767  0.31698133  0.75272633  1
  O  O103  1  0.20240200  0.19294600  0.80829200  1
  O  O104  1  0.53462933  0.67488667  0.97646667  1
  O  O105  1  0.32516467  0.48872333  0.75497633  1
  O  O106  1  0.32511333  0.85974267  0.97646667  1
  O  O107  1  0.14025733  0.46537067  0.97646667  1
