# generated using pymatgen
data_Li2Co3NiO8
_symmetry_space_group_name_H-M   'P 1'
_cell_length_a   5.67024839
_cell_length_b   5.67024839
_cell_length_c   13.81788920
_cell_angle_alpha   90.00000000
_cell_angle_beta   90.00000000
_cell_angle_gamma   120.00000000
_symmetry_Int_Tables_number   1
_chemical_formula_structural   Li2Co3NiO8
_chemical_formula_sum   'Li6 Co9 Ni3 O24'
_cell_volume   384.74811863
_cell_formula_units_Z   3
loop_
 _symmetry_equiv_pos_site_id
 _symmetry_equiv_pos_as_xyz
  1  'x, y, z'
loop_
 _atom_site_type_symbol
 _atom_site_label
 _atom_site_symmetry_multiplicity
 _atom_site_fract_x
 _atom_site_fract_y
 _atom_site_fract_z
 _atom_site_occupancy
  Li  Li0  1  0.33333333  0.66666667  0.54122167  1
  Li  Li1  1  0.33333333  0.66666667  0.79211167  1
  Li  Li2  1  0.00000000  0.00000000  0.87455500  1
  Li  Li3  1  0.00000000  0.00000000  0.12544500  1
  Li  Li4  1  0.66666667  0.33333333  0.20788833  1
  Li  Li5  1  0.66666667  0.33333333  0.45877833  1
  Co  Co6  1  0.50000000  0.50000000  0.00000000  1
  Co  Co7  1  0.00000000  0.50000000  0.00000000  1
  Co  Co8  1  0.16666667  0.33333333  0.33333333  1
  Co  Co9  1  0.16666667  0.83333333  0.33333333  1
  Co  Co10  1  0.66666667  0.83333333  0.33333333  1
  Co  Co11  1  0.83333333  0.66666667  0.66666667  1
  Co  Co12  1  0.83333333  0.16666667  0.66666667  1
  Co  Co13  1  0.33333333  0.16666667  0.66666667  1
  Co  Co14  1  0.50000000  0.00000000  0.00000000  1
  Ni  Ni15  1  0.33333333  0.66666667  0.16666667  1
  Ni  Ni16  1  1.00000000  1.00000000  0.50000000  1
  Ni  Ni17  1  0.66666667  0.33333333  0.83333333  1
  O  O18  1  0.03724667  0.51862333  0.25363433  1
  O  O19  1  0.48137667  0.51862333  0.25363433  1
  O  O20  1  0.33333333  0.66666667  0.93226167  1
  O  O21  1  0.48137667  0.96275333  0.25363433  1
  O  O22  1  0.18529000  0.37058000  0.07969900  1
  O  O23  1  0.33333333  0.66666667  0.40107167  1
  O  O24  1  0.18529000  0.81471000  0.07969900  1
  O  O25  1  0.62942000  0.81471000  0.07969900  1
  O  O26  1  0.70391333  0.85195667  0.58696767  1
  O  O27  1  0.14804333  0.85195667  0.58696767  1
  O  O28  1  0.00000000  0.00000000  0.26559500  1
  O  O29  1  0.14804333  0.29608667  0.58696767  1
  O  O30  1  0.85195667  0.70391333  0.41303233  1
  O  O31  1  0.00000000  0.00000000  0.73440500  1
  O  O32  1  0.85195667  0.14804333  0.41303233  1
  O  O33  1  0.29608667  0.14804333  0.41303233  1
  O  O34  1  0.37058000  0.18529000  0.92030100  1
  O  O35  1  0.81471000  0.18529000  0.92030100  1
  O  O36  1  0.66666667  0.33333333  0.59892833  1
  O  O37  1  0.81471000  0.62942000  0.92030100  1
  O  O38  1  0.51862333  0.03724667  0.74636567  1
  O  O39  1  0.66666667  0.33333333  0.06773833  1
  O  O40  1  0.51862333  0.48137667  0.74636567  1
  O  O41  1  0.96275333  0.48137667  0.74636567  1
