# generated using pymatgen
data_K11Mn4O16
_symmetry_space_group_name_H-M   'P 1'
_cell_length_a   7.98433800
_cell_length_b   7.98433800
_cell_length_c   17.63566600
_cell_angle_alpha   90.00000000
_cell_angle_beta   90.00000000
_cell_angle_gamma   90.00000000
_symmetry_Int_Tables_number   1
_chemical_formula_structural   K11Mn4O16
_chemical_formula_sum   'K22 Mn8 O32'
_cell_volume   1124.26759318
_cell_formula_units_Z   2
loop_
 _symmetry_equiv_pos_site_id
 _symmetry_equiv_pos_as_xyz
  1  'x, y, z'
loop_
 _atom_site_type_symbol
 _atom_site_label
 _atom_site_symmetry_multiplicity
 _atom_site_fract_x
 _atom_site_fract_y
 _atom_site_fract_z
 _atom_site_occupancy
  K  K0  1  0.17587250  0.17587250  0.39504450  1
  K  K1  1  0.00000000  0.50000000  0.25000000  1
  K  K2  1  0.00000000  0.50000000  0.00000000  1
  K  K3  1  0.50000000  0.50000000  0.28924900  1
  K  K4  1  0.00000000  0.00000000  0.00000000  1
  K  K5  1  0.00000000  0.00000000  0.21075100  1
  K  K6  1  0.32412750  0.67587250  0.10495550  1
  K  K7  1  0.82412750  0.82412750  0.39504450  1
  K  K8  1  0.67587250  0.32412750  0.10495550  1
  K  K9  1  0.50000000  0.00000000  0.25000000  1
  K  K10  1  0.50000000  0.00000000  0.00000000  1
  K  K11  1  0.67587250  0.67587250  0.89504450  1
  K  K12  1  0.50000000  0.00000000  0.75000000  1
  K  K13  1  0.50000000  0.00000000  0.50000000  1
  K  K14  1  0.00000000  0.00000000  0.78924900  1
  K  K15  1  0.50000000  0.50000000  0.50000000  1
  K  K16  1  0.50000000  0.50000000  0.71075100  1
  K  K17  1  0.82412750  0.17587250  0.60495550  1
  K  K18  1  0.32412750  0.32412750  0.89504450  1
  K  K19  1  0.17587250  0.82412750  0.60495550  1
  K  K20  1  0.00000000  0.50000000  0.75000000  1
  K  K21  1  0.00000000  0.50000000  0.50000000  1
  Mn  Mn22  1  0.76284450  0.76284450  0.12352450  1
  Mn  Mn23  1  0.23715550  0.23715550  0.12352450  1
  Mn  Mn24  1  0.26284450  0.73715550  0.37647550  1
  Mn  Mn25  1  0.73715550  0.26284450  0.37647550  1
  Mn  Mn26  1  0.26284450  0.26284450  0.62352450  1
  Mn  Mn27  1  0.73715550  0.73715550  0.62352450  1
  Mn  Mn28  1  0.76284450  0.23715550  0.87647550  1
  Mn  Mn29  1  0.23715550  0.76284450  0.87647550  1
  O  O30  1  0.65828200  0.65828200  0.05525900  1
  O  O31  1  0.29884250  0.29884250  0.21233750  1
  O  O32  1  0.72537250  0.97201550  0.11393750  1
  O  O33  1  0.22537250  0.52798450  0.38606250  1
  O  O34  1  0.84171800  0.15828200  0.44474100  1
  O  O35  1  0.70115750  0.70115750  0.21233750  1
  O  O36  1  0.79884250  0.20115750  0.28766250  1
  O  O37  1  0.52798450  0.22537250  0.38606250  1
  O  O38  1  0.97201550  0.72537250  0.11393750  1
  O  O39  1  0.02798450  0.27462750  0.11393750  1
  O  O40  1  0.47201550  0.77462750  0.38606250  1
  O  O41  1  0.20115750  0.79884250  0.28766250  1
  O  O42  1  0.34171800  0.34171800  0.05525900  1
  O  O43  1  0.15828200  0.84171800  0.44474100  1
  O  O44  1  0.77462750  0.47201550  0.38606250  1
  O  O45  1  0.27462750  0.02798450  0.11393750  1
  O  O46  1  0.15828200  0.15828200  0.55525900  1
  O  O47  1  0.79884250  0.79884250  0.71233750  1
  O  O48  1  0.22537250  0.47201550  0.61393750  1
  O  O49  1  0.72537250  0.02798450  0.88606250  1
  O  O50  1  0.34171800  0.65828200  0.94474100  1
  O  O51  1  0.20115750  0.20115750  0.71233750  1
  O  O52  1  0.29884250  0.70115750  0.78766250  1
  O  O53  1  0.02798450  0.72537250  0.88606250  1
  O  O54  1  0.47201550  0.22537250  0.61393750  1
  O  O55  1  0.52798450  0.77462750  0.61393750  1
  O  O56  1  0.97201550  0.27462750  0.88606250  1
  O  O57  1  0.70115750  0.29884250  0.78766250  1
  O  O58  1  0.84171800  0.84171800  0.55525900  1
  O  O59  1  0.65828200  0.34171800  0.94474100  1
  O  O60  1  0.27462750  0.97201550  0.88606250  1
  O  O61  1  0.77462750  0.52798450  0.61393750  1
