# generated using pymatgen
data_Li2Cu3(CO3)3
_symmetry_space_group_name_H-M   'P 1'
_cell_length_a   8.10594600
_cell_length_b   6.18749600
_cell_length_c   8.14945503
_cell_angle_alpha   90.00000000
_cell_angle_beta   119.61804095
_cell_angle_gamma   90.00000000
_symmetry_Int_Tables_number   1
_chemical_formula_structural   Li2Cu3(CO3)3
_chemical_formula_sum   'Li4 Cu6 C6 O18'
_cell_volume   355.33382170
_cell_formula_units_Z   2
loop_
 _symmetry_equiv_pos_site_id
 _symmetry_equiv_pos_as_xyz
  1  'x, y, z'
loop_
 _atom_site_type_symbol
 _atom_site_label
 _atom_site_symmetry_multiplicity
 _atom_site_fract_x
 _atom_site_fract_y
 _atom_site_fract_z
 _atom_site_occupancy
  Li  Li0  1  0.03489800  0.00000000  0.37756700  1
  Li  Li1  1  0.34386900  0.50000000  0.96700400  1
  Li  Li2  1  0.62109600  0.00000000  0.65624200  1
  Li  Li3  1  0.62020100  0.50000000  0.65621100  1
  Cu  Cu4  1  0.32048200  0.75074300  0.29312000  1
  Cu  Cu5  1  0.32048200  0.24925700  0.29312000  1
  Cu  Cu6  1  0.97980500  0.24874200  0.67532200  1
  Cu  Cu7  1  0.97980500  0.75125800  0.67532200  1
  Cu  Cu8  1  0.70089300  0.74748700  0.03431400  1
  Cu  Cu9  1  0.70089300  0.25251300  0.03431400  1
  C  C10  1  0.33619800  0.74991100  0.66861400  1
  C  C11  1  0.33619800  0.25008900  0.66861400  1
  C  C12  1  0.99550000  0.00000000  0.99630700  1
  C  C13  1  0.00148700  0.50000000  0.99860800  1
  C  C14  1  0.66526500  0.00000000  0.33653300  1
  C  C15  1  0.66555000  0.50000000  0.33174600  1
  O  O16  1  0.06712000  0.00000000  0.88653600  1
  O  O17  1  0.07353600  0.50000000  0.88490200  1
  O  O18  1  0.15533500  0.23400300  0.55889800  1
  O  O19  1  0.15533500  0.76599700  0.55889800  1
  O  O20  1  0.40966900  0.73061000  0.84831500  1
  O  O21  1  0.40966900  0.26939000  0.84831500  1
  O  O22  1  0.10573600  0.00000000  0.18043300  1
  O  O23  1  0.11145700  0.50000000  0.17957700  1
  O  O24  1  0.44880700  0.75274700  0.59380300  1
  O  O25  1  0.44880700  0.24725300  0.59380300  1
  O  O26  1  0.81005200  0.00000000  0.92731900  1
  O  O27  1  0.81716700  0.50000000  0.92469600  1
  O  O28  1  0.48284400  0.00000000  0.25478500  1
  O  O29  1  0.47936800  0.50000000  0.24780600  1
  O  O30  1  0.76665900  0.00000000  0.52150000  1
  O  O31  1  0.76271100  0.50000000  0.51550400  1
  O  O32  1  0.75381100  0.00000000  0.23905500  1
  O  O33  1  0.74835000  0.50000000  0.23111800  1
