# generated using pymatgen
data_Li7TiFe3(PO4)6
_symmetry_space_group_name_H-M   'P 1'
_cell_length_a   8.82016405
_cell_length_b   8.82016405
_cell_length_c   21.80858823
_cell_angle_alpha   90.00000000
_cell_angle_beta   90.00000000
_cell_angle_gamma   120.00000000
_symmetry_Int_Tables_number   1
_chemical_formula_structural   Li7TiFe3(PO4)6
_chemical_formula_sum   'Li21 Ti3 Fe9 P18 O72'
_cell_volume   1469.30349111
_cell_formula_units_Z   3
loop_
 _symmetry_equiv_pos_site_id
 _symmetry_equiv_pos_as_xyz
  1  'x, y, z'
loop_
 _atom_site_type_symbol
 _atom_site_label
 _atom_site_symmetry_multiplicity
 _atom_site_fract_x
 _atom_site_fract_y
 _atom_site_fract_z
 _atom_site_occupancy
  Li  Li0  1  0.75912500  0.97160700  0.03946100  1
  Li  Li1  1  0.02839300  0.78751800  0.03946100  1
  Li  Li2  1  0.33333333  0.66666667  0.13541367  1
  Li  Li3  1  0.21248200  0.24087500  0.03946100  1
  Li  Li4  1  0.38912633  0.94912167  0.22203667  1
  Li  Li5  1  0.55999533  0.61087367  0.22203667  1
  Li  Li6  1  0.05087833  0.44000467  0.22203667  1
  Li  Li7  1  0.42579167  0.30494033  0.37279433  1
  Li  Li8  1  0.69505967  0.12085133  0.37279433  1
  Li  Li9  1  0.00000000  0.00000000  0.46874700  1
  Li  Li10  1  0.87914867  0.57420833  0.37279433  1
  Li  Li11  1  0.05579300  0.28245500  0.55537000  1
  Li  Li12  1  0.22666200  0.94420700  0.55537000  1
  Li  Li13  1  0.71754500  0.77333800  0.55537000  1
  Li  Li14  1  0.09245833  0.63827367  0.70612767  1
  Li  Li15  1  0.36172633  0.45418467  0.70612767  1
  Li  Li16  1  0.66666667  0.33333333  0.80208033  1
  Li  Li17  1  0.54581533  0.90754167  0.70612767  1
  Li  Li18  1  0.72245967  0.61578833  0.88870333  1
  Li  Li19  1  0.89332867  0.27754033  0.88870333  1
  Li  Li20  1  0.38421167  0.10667133  0.88870333  1
  Ti  Ti21  1  0.66666667  0.33333333  0.18802933  1
  Ti  Ti22  1  0.33333333  0.66666667  0.52136267  1
  Ti  Ti23  1  0.00000000  0.00000000  0.85469600  1
  Fe  Fe24  1  0.33333333  0.66666667  0.01931467  1
  Fe  Fe25  1  0.00000000  0.00000000  0.14656000  1
  Fe  Fe26  1  0.33333333  0.66666667  0.31300467  1
  Fe  Fe27  1  0.00000000  0.00000000  0.35264800  1
  Fe  Fe28  1  0.66666667  0.33333333  0.47989333  1
  Fe  Fe29  1  0.00000000  0.00000000  0.64633800  1
  Fe  Fe30  1  0.66666667  0.33333333  0.68598133  1
  Fe  Fe31  1  0.33333333  0.66666667  0.81322667  1
  Fe  Fe32  1  0.66666667  0.33333333  0.97967133  1
  P  P33  1  0.37171433  0.04053867  0.08274267  1
  P  P34  1  0.66882433  0.62828567  0.08274267  1
  P  P35  1  0.95946133  0.33117567  0.08274267  1
  P  P36  1  0.70738700  0.99987900  0.24822400  1
  P  P37  1  0.00012100  0.70750800  0.24822400  1
  P  P38  1  0.29249200  0.29261300  0.24822400  1
  P  P39  1  0.03838100  0.37387200  0.41607600  1
  P  P40  1  0.33549100  0.96161900  0.41607600  1
  P  P41  1  0.62612800  0.66450900  0.41607600  1
  P  P42  1  0.37405367  0.33321233  0.58155733  1
  P  P43  1  0.66678767  0.04084133  0.58155733  1
  P  P44  1  0.95915867  0.62594633  0.58155733  1
  P  P45  1  0.70504767  0.70720533  0.74940933  1
  P  P46  1  0.00215767  0.29495233  0.74940933  1
  P  P47  1  0.29279467  0.99784233  0.74940933  1
  P  P48  1  0.04072033  0.66654567  0.91489067  1
  P  P49  1  0.33345433  0.37417467  0.91489067  1
  P  P50  1  0.62582533  0.95927967  0.91489067  1
  O  O51  1  0.18306867  0.01779333  0.08436033  1
  O  O52  1  0.47502667  0.13918433  0.14254833  1
  O  O53  1  0.35577100  0.85887000  0.08543200  1
  O  O54  1  0.69465567  0.54884333  0.02479733  1
  O  O55  1  0.83472467  0.81693133  0.08436033  1
  O  O56  1  0.50309900  0.64422900  0.08543200  1
  O  O57  1  0.85418767  0.30534433  0.02479733  1
  O  O58  1  0.14113000  0.49690100  0.08543200  1
  O  O59  1  0.81448600  0.00003300  0.19375800  1
  O  O60  1  0.65738267  0.14794933  0.24177933  1
  O  O61  1  0.45115667  0.14581233  0.02479733  1
  O  O62  1  0.99996700  0.81445300  0.19375800  1
  O  O63  1  0.66415767  0.52497333  0.14254833  1
  O  O64  1  0.23214133  0.19873767  0.31012667  1
  O  O65  1  0.98220667  0.16527533  0.08436033  1
  O  O66  1  0.86081567  0.33584233  0.14254833  1
  O  O67  1  0.52999500  0.82507500  0.24383500  1
  O  O68  1  0.80126233  0.03340367  0.31012667  1
  O  O69  1  0.17492500  0.70492000  0.24383500  1
  O  O70  1  0.85205067  0.50943333  0.24177933  1
  O  O71  1  0.96659633  0.76785867  0.31012667  1
  O  O72  1  0.18554700  0.18551400  0.19375800  1
  O  O73  1  0.29508000  0.47000500  0.24383500  1
  O  O74  1  0.49056667  0.34261733  0.24177933  1
  O  O75  1  0.84973533  0.35112667  0.41769367  1
  O  O76  1  0.14169333  0.47251767  0.47588167  1
  O  O77  1  0.02243767  0.19220333  0.41876533  1
  O  O78  1  0.36132233  0.88217667  0.35813067  1
  O  O79  1  0.50139133  0.15026467  0.41769367  1
  O  O80  1  0.16976567  0.97756233  0.41876533  1
  O  O81  1  0.52085433  0.63867767  0.35813067  1
  O  O82  1  0.80779667  0.83023433  0.41876533  1
  O  O83  1  0.48115267  0.33336633  0.52709133  1
  O  O84  1  0.32404933  0.48128267  0.57511267  1
  O  O85  1  0.11782333  0.47914567  0.35813067  1
  O  O86  1  0.66663367  0.14778633  0.52709133  1
  O  O87  1  0.33082433  0.85830667  0.47588167  1
  O  O88  1  0.89880800  0.53207100  0.64346000  1
  O  O89  1  0.64887333  0.49860867  0.41769367  1
  O  O90  1  0.52748233  0.66917567  0.47588167  1
  O  O91  1  0.19666167  0.15840833  0.57716833  1
  O  O92  1  0.46792900  0.36673700  0.64346000  1
  O  O93  1  0.84159167  0.03825333  0.57716833  1
  O  O94  1  0.51871733  0.84276667  0.57511267  1
  O  O95  1  0.63326300  0.10119200  0.64346000  1
  O  O96  1  0.85221367  0.51884733  0.52709133  1
  O  O97  1  0.96174667  0.80333833  0.57716833  1
  O  O98  1  0.15723333  0.67595067  0.57511267  1
  O  O99  1  0.51640200  0.68446000  0.75102700  1
  O  O100  1  0.80836000  0.80585100  0.80921500  1
  O  O101  1  0.68910433  0.52553667  0.75209867  1
  O  O102  1  0.02798900  0.21551000  0.69146400  1
  O  O103  1  0.16805800  0.48359800  0.75102700  1
  O  O104  1  0.83643233  0.31089567  0.75209867  1
  O  O105  1  0.18752100  0.97201100  0.69146400  1
  O  O106  1  0.47446333  0.16356767  0.75209867  1
  O  O107  1  0.14781933  0.66669967  0.86042467  1
  O  O108  1  0.99071600  0.81461600  0.90844600  1
  O  O109  1  0.78449000  0.81247900  0.69146400  1
  O  O110  1  0.33330033  0.48111967  0.86042467  1
  O  O111  1  0.99749100  0.19164000  0.80921500  1
  O  O112  1  0.56547467  0.86540433  0.97679333  1
  O  O113  1  0.31554000  0.83194200  0.75102700  1
  O  O114  1  0.19414900  0.00250900  0.80921500  1
  O  O115  1  0.86332833  0.49174167  0.91050167  1
  O  O116  1  0.13459567  0.70007033  0.97679333  1
  O  O117  1  0.50825833  0.37158667  0.91050167  1
  O  O118  1  0.18538400  0.17610000  0.90844600  1
  O  O119  1  0.29992967  0.43452533  0.97679333  1
  O  O120  1  0.51888033  0.85218067  0.86042467  1
  O  O121  1  0.62841333  0.13667167  0.91050167  1
  O  O122  1  0.82390000  0.00928400  0.90844600  1
