# generated using pymatgen
data_Li2Cr(SiO3)2
_symmetry_space_group_name_H-M   'P 1'
_cell_length_a   6.03752430
_cell_length_b   10.04643256
_cell_length_c   9.12547521
_cell_angle_alpha   90.00000000
_cell_angle_beta   90.69085452
_cell_angle_gamma   90.00000000
_symmetry_Int_Tables_number   1
_chemical_formula_structural   Li2Cr(SiO3)2
_chemical_formula_sum   'Li8 Cr4 Si8 O24'
_cell_volume   553.47076174
_cell_formula_units_Z   4
loop_
 _symmetry_equiv_pos_site_id
 _symmetry_equiv_pos_as_xyz
  1  'x, y, z'
loop_
 _atom_site_type_symbol
 _atom_site_label
 _atom_site_symmetry_multiplicity
 _atom_site_fract_x
 _atom_site_fract_y
 _atom_site_fract_z
 _atom_site_occupancy
  Li  Li0  1  0.55002050  0.85955550  0.61391600  1
  Li  Li1  1  0.55002050  0.14044450  0.11391600  1
  Li  Li2  1  0.44997950  0.85955550  0.88608400  1
  Li  Li3  1  0.44997950  0.14044450  0.38608400  1
  Li  Li4  1  0.05002050  0.35955550  0.61391600  1
  Li  Li5  1  0.05002050  0.64044450  0.11391600  1
  Li  Li6  1  0.94997950  0.35955550  0.88608400  1
  Li  Li7  1  0.94997950  0.64044450  0.38608400  1
  Cr  Cr8  1  0.50000000  0.25605200  0.75000000  1
  Cr  Cr9  1  0.50000000  0.74394800  0.25000000  1
  Cr  Cr10  1  0.00000000  0.75605200  0.75000000  1
  Cr  Cr11  1  0.00000000  0.24394800  0.25000000  1
  Si  Si12  1  0.83629900  0.03543500  0.86153200  1
  Si  Si13  1  0.83629900  0.96456500  0.36153200  1
  Si  Si14  1  0.16370100  0.03543500  0.63846800  1
  Si  Si15  1  0.16370100  0.96456500  0.13846800  1
  Si  Si16  1  0.33629900  0.53543500  0.86153200  1
  Si  Si17  1  0.33629900  0.46456500  0.36153200  1
  Si  Si18  1  0.66370100  0.53543500  0.63846800  1
  Si  Si19  1  0.66370100  0.46456500  0.13846800  1
  O  O20  1  0.74782400  0.89775000  0.78348500  1
  O  O21  1  0.74782400  0.10225000  0.28348500  1
  O  O22  1  0.63353150  0.13114450  0.90841500  1
  O  O23  1  0.63353150  0.86885550  0.40841500  1
  O  O24  1  0.50000000  0.62200700  0.75000000  1
  O  O25  1  0.00000000  0.00000000  0.00000000  1
  O  O26  1  0.50000000  0.37799300  0.25000000  1
  O  O27  1  0.00000000  0.00000000  0.50000000  1
  O  O28  1  0.36646850  0.13114450  0.59158500  1
  O  O29  1  0.36646850  0.86885550  0.09158500  1
  O  O30  1  0.25217600  0.89775000  0.71651500  1
  O  O31  1  0.25217600  0.10225000  0.21651500  1
  O  O32  1  0.24782400  0.39775000  0.78348500  1
  O  O33  1  0.24782400  0.60225000  0.28348500  1
  O  O34  1  0.13353150  0.63114450  0.90841500  1
  O  O35  1  0.13353150  0.36885550  0.40841500  1
  O  O36  1  0.00000000  0.12200700  0.75000000  1
  O  O37  1  0.50000000  0.50000000  0.00000000  1
  O  O38  1  0.00000000  0.87799300  0.25000000  1
  O  O39  1  0.50000000  0.50000000  0.50000000  1
  O  O40  1  0.86646850  0.63114450  0.59158500  1
  O  O41  1  0.86646850  0.36885550  0.09158500  1
  O  O42  1  0.75217600  0.39775000  0.71651500  1
  O  O43  1  0.75217600  0.60225000  0.21651500  1
