# generated using pymatgen
data_Li4V5O9F
_symmetry_space_group_name_H-M   'P 1'
_cell_length_a   5.18582326
_cell_length_b   5.23388761
_cell_length_c   7.99786477
_cell_angle_alpha   108.75070622
_cell_angle_beta   101.58046204
_cell_angle_gamma   100.74927255
_symmetry_Int_Tables_number   1
_chemical_formula_structural   Li4V5O9F
_chemical_formula_sum   'Li4 V5 O9 F1'
_cell_volume   193.85865696
_cell_formula_units_Z   1
loop_
 _symmetry_equiv_pos_site_id
 _symmetry_equiv_pos_as_xyz
  1  'x, y, z'
loop_
 _atom_site_type_symbol
 _atom_site_label
 _atom_site_symmetry_multiplicity
 _atom_site_fract_x
 _atom_site_fract_y
 _atom_site_fract_z
 _atom_site_occupancy
  Li  Li0  1  0.29348011  0.49650276  0.09735843  1
  Li  Li1  1  0.90614157  0.49394789  0.31444017  1
  Li  Li2  1  0.49252198  0.50541618  0.49166288  1
  Li  Li3  1  0.68409127  0.51679300  0.89888187  1
  V  V4  1  0.00377475  0.99965775  0.00594970  1
  V  V5  1  0.60466522  0.99990030  0.19823657  1
  V  V6  1  0.80548140  0.99144110  0.59702365  1
  V  V7  1  0.20549756  0.98997171  0.40387105  1
  V  V8  1  0.38336397  0.99219351  0.79971481  1
  O  O9  1  0.95351105  0.22684721  0.15127081  1
  O  O10  1  0.55922599  0.22291695  0.36154680  1
  O  O11  1  0.15556510  0.21113352  0.55213177  1
  O  O12  1  0.35520734  0.21420412  0.96168350  1
  O  O13  1  0.64439726  0.77627970  0.03546107  1
  O  O14  1  0.84074912  0.77694419  0.43167494  1
  O  O15  1  0.25219086  0.76949668  0.24994117  1
  O  O16  1  0.46709986  0.78282188  0.65201335  1
  O  O17  1  0.03196899  0.78370956  0.84902860  1
  F  F18  1  0.73955361  0.24147097  0.75330587  1
