# generated using pymatgen
data_LiBiF5
_symmetry_space_group_name_H-M   'P 1'
_cell_length_a   7.02018800
_cell_length_b   7.02018800
_cell_length_c   4.43809000
_cell_angle_alpha   90.00000000
_cell_angle_beta   90.00000000
_cell_angle_gamma   90.00000000
_symmetry_Int_Tables_number   1
_chemical_formula_structural   LiBiF5
_chemical_formula_sum   'Li2 Bi2 F10'
_cell_volume   218.72256502
_cell_formula_units_Z   2
loop_
 _symmetry_equiv_pos_site_id
 _symmetry_equiv_pos_as_xyz
  1  'x, y, z'
loop_
 _atom_site_type_symbol
 _atom_site_label
 _atom_site_symmetry_multiplicity
 _atom_site_fract_x
 _atom_site_fract_y
 _atom_site_fract_z
 _atom_site_occupancy
  Li  Li0  1  0.00000000  0.00000000  0.00000000  1
  Li  Li1  1  0.50000000  0.50000000  0.50000000  1
  Bi  Bi2  1  0.50000000  0.00000000  0.25000000  1
  Bi  Bi3  1  0.00000000  0.50000000  0.75000000  1
  F  F4  1  0.50000000  0.00000000  0.75000000  1
  F  F5  1  0.40587800  0.70977400  0.26869000  1
  F  F6  1  0.79022600  0.90587800  0.23131000  1
  F  F7  1  0.20977400  0.09412200  0.23131000  1
  F  F8  1  0.59412200  0.29022600  0.26869000  1
  F  F9  1  0.00000000  0.50000000  0.25000000  1
  F  F10  1  0.90587800  0.20977400  0.76869000  1
  F  F11  1  0.29022600  0.40587800  0.73131000  1
  F  F12  1  0.70977400  0.59412200  0.73131000  1
  F  F13  1  0.09412200  0.79022600  0.76869000  1
