# generated using pymatgen
data_Li2V3FeO8
_symmetry_space_group_name_H-M   'P 1'
_cell_length_a   5.93732193
_cell_length_b   5.93732193
_cell_length_c   14.30352327
_cell_angle_alpha   90.00000000
_cell_angle_beta   90.00000000
_cell_angle_gamma   120.00000000
_symmetry_Int_Tables_number   1
_chemical_formula_structural   Li2V3FeO8
_chemical_formula_sum   'Li6 V9 Fe3 O24'
_cell_volume   436.67150515
_cell_formula_units_Z   3
loop_
 _symmetry_equiv_pos_site_id
 _symmetry_equiv_pos_as_xyz
  1  'x, y, z'
loop_
 _atom_site_type_symbol
 _atom_site_label
 _atom_site_symmetry_multiplicity
 _atom_site_fract_x
 _atom_site_fract_y
 _atom_site_fract_z
 _atom_site_occupancy
  Li  Li0  1  0.33333333  0.66666667  0.54141067  1
  Li  Li1  1  0.33333333  0.66666667  0.79192267  1
  Li  Li2  1  0.00000000  0.00000000  0.87474400  1
  Li  Li3  1  0.00000000  0.00000000  0.12525600  1
  Li  Li4  1  0.66666667  0.33333333  0.20807733  1
  Li  Li5  1  0.66666667  0.33333333  0.45858933  1
  V  V6  1  0.00000000  0.50000000  0.00000000  1
  V  V7  1  0.50000000  0.50000000  0.00000000  1
  V  V8  1  0.16666667  0.33333333  0.33333333  1
  V  V9  1  0.66666667  0.83333333  0.33333333  1
  V  V10  1  0.16666667  0.83333333  0.33333333  1
  V  V11  1  0.83333333  0.66666667  0.66666667  1
  V  V12  1  0.33333333  0.16666667  0.66666667  1
  V  V13  1  0.83333333  0.16666667  0.66666667  1
  V  V14  1  0.50000000  0.00000000  0.00000000  1
  Fe  Fe15  1  0.33333333  0.66666667  0.16666667  1
  Fe  Fe16  1  1.00000000  1.00000000  0.50000000  1
  Fe  Fe17  1  0.66666667  0.33333333  0.83333333  1
  O  O18  1  0.33333333  0.66666667  0.40597667  1
  O  O19  1  0.48408667  0.96817333  0.25606833  1
  O  O20  1  0.48408667  0.51591333  0.25606833  1
  O  O21  1  0.03182667  0.51591333  0.25606833  1
  O  O22  1  0.63484000  0.81742000  0.07726500  1
  O  O23  1  0.18258000  0.81742000  0.07726500  1
  O  O24  1  0.18258000  0.36516000  0.07726500  1
  O  O25  1  0.33333333  0.66666667  0.92735667  1
  O  O26  1  0.00000000  0.00000000  0.73931000  1
  O  O27  1  0.15075333  0.30150667  0.58940167  1
  O  O28  1  0.15075333  0.84924667  0.58940167  1
  O  O29  1  0.69849333  0.84924667  0.58940167  1
  O  O30  1  0.30150667  0.15075333  0.41059833  1
  O  O31  1  0.84924667  0.15075333  0.41059833  1
  O  O32  1  0.84924667  0.69849333  0.41059833  1
  O  O33  1  0.00000000  0.00000000  0.26069000  1
  O  O34  1  0.66666667  0.33333333  0.07264333  1
  O  O35  1  0.81742000  0.63484000  0.92273500  1
  O  O36  1  0.81742000  0.18258000  0.92273500  1
  O  O37  1  0.36516000  0.18258000  0.92273500  1
  O  O38  1  0.96817333  0.48408667  0.74393167  1
  O  O39  1  0.51591333  0.48408667  0.74393167  1
  O  O40  1  0.51591333  0.03182667  0.74393167  1
  O  O41  1  0.66666667  0.33333333  0.59402333  1
