# generated using pymatgen
data_Na3NiPCO7
_symmetry_space_group_name_H-M   'P 1'
_cell_length_a   5.33490707
_cell_length_b   6.56628000
_cell_length_c   8.86780037
_cell_angle_alpha   90.00000000
_cell_angle_beta   90.86894199
_cell_angle_gamma   90.00000000
_symmetry_Int_Tables_number   1
_chemical_formula_structural   Na3NiPCO7
_chemical_formula_sum   'Na6 Ni2 P2 C2 O14'
_cell_volume   310.60770021
_cell_formula_units_Z   2
loop_
 _symmetry_equiv_pos_site_id
 _symmetry_equiv_pos_as_xyz
  1  'x, y, z'
loop_
 _atom_site_type_symbol
 _atom_site_label
 _atom_site_symmetry_multiplicity
 _atom_site_fract_x
 _atom_site_fract_y
 _atom_site_fract_z
 _atom_site_occupancy
  Na  Na0  1  0.99799675  0.48533300  0.00119700  1
  Na  Na1  1  0.00200325  0.98533300  0.99880300  1
  Na  Na2  1  0.56103675  0.22812000  0.16158450  1
  Na  Na3  1  0.43896325  0.72812000  0.83841550  1
  Na  Na4  1  0.50188675  0.48909200  0.49801950  1
  Na  Na5  1  0.49811325  0.98909200  0.50198050  1
  Ni  Ni6  1  0.95342425  0.73701750  0.28717650  1
  Ni  Ni7  1  0.04657575  0.23701750  0.71282350  1
  P  P8  1  0.01936025  0.23718450  0.34702500  1
  P  P9  1  0.98063975  0.73718450  0.65297500  1
  C  C10  1  0.50072425  0.73734750  0.16381700  1
  C  C11  1  0.49927575  0.23734750  0.83618300  1
  O  O12  1  0.67668725  0.73731650  0.06228200  1
  O  O13  1  0.32331275  0.23731650  0.93771800  1
  O  O14  1  0.26524275  0.73508700  0.12160200  1
  O  O15  1  0.73475725  0.23508700  0.87839800  1
  O  O16  1  0.92549575  0.04863400  0.25252850  1
  O  O17  1  0.07450425  0.54863400  0.74747150  1
  O  O18  1  0.91850275  0.42489800  0.25422600  1
  O  O19  1  0.08149725  0.92489800  0.74577400  1
  O  O20  1  0.56485375  0.74032600  0.30456050  1
  O  O21  1  0.43514625  0.24032600  0.69543950  1
  O  O22  1  0.30692275  0.23949900  0.35890800  1
  O  O23  1  0.69307725  0.73949900  0.64109200  1
  O  O24  1  0.89347975  0.23475200  0.50406200  1
  O  O25  1  0.10652025  0.73475200  0.49593800  1
