# generated using pymatgen
data_Li4V2Fe3O10
_symmetry_space_group_name_H-M   'P 1'
_cell_length_a   6.63311388
_cell_length_b   7.87177515
_cell_length_c   7.96968201
_cell_angle_alpha   96.56893825
_cell_angle_beta   114.50879501
_cell_angle_gamma   89.67215731
_symmetry_Int_Tables_number   1
_chemical_formula_structural   Li4V2Fe3O10
_chemical_formula_sum   'Li8 V4 Fe6 O20'
_cell_volume   375.75060629
_cell_formula_units_Z   2
loop_
 _symmetry_equiv_pos_site_id
 _symmetry_equiv_pos_as_xyz
  1  'x, y, z'
loop_
 _atom_site_type_symbol
 _atom_site_label
 _atom_site_symmetry_multiplicity
 _atom_site_fract_x
 _atom_site_fract_y
 _atom_site_fract_z
 _atom_site_occupancy
  Li  Li0  1  0.90424300  0.40310000  0.59346500  1
  Li  Li1  1  0.81144000  0.29812600  0.21603000  1
  Li  Li2  1  0.25365300  0.24689200  0.50859200  1
  Li  Li3  1  0.74634700  0.75310800  0.49140800  1
  Li  Li4  1  0.18856000  0.70187400  0.78397000  1
  Li  Li5  1  0.09575700  0.59690000  0.40653500  1
  Li  Li6  1  0.40947800  0.90571000  0.59727700  1
  Li  Li7  1  0.59052200  0.09429000  0.40272300  1
  V  V8  1  0.54962900  0.53566400  0.69664200  1
  V  V9  1  0.45037100  0.46433600  0.30335800  1
  V  V10  1  0.02500100  0.05035500  0.68694200  1
  V  V11  1  0.97499900  0.94964500  0.31305800  1
  Fe  Fe12  1  0.35826900  0.34178900  0.89077700  1
  Fe  Fe13  1  0.64173100  0.65821100  0.10922300  1
  Fe  Fe14  1  0.00000000  0.50000000  0.00000000  1
  Fe  Fe15  1  0.50000000  0.00000000  0.00000000  1
  Fe  Fe16  1  0.86171400  0.85689800  0.90317000  1
  Fe  Fe17  1  0.13828600  0.14310200  0.09683000  1
  O  O18  1  0.33168700  0.56113400  0.05756700  1
  O  O19  1  0.74871200  0.52763800  0.33339600  1
  O  O20  1  0.25128800  0.47236200  0.66660400  1
  O  O21  1  0.12865500  0.38561100  0.23351700  1
  O  O22  1  0.66831300  0.43886600  0.94243300  1
  O  O23  1  0.56461200  0.35047300  0.53873000  1
  O  O24  1  0.66134600  0.88195000  0.24917200  1
  O  O25  1  0.04448000  0.27746300  0.85657400  1
  O  O26  1  0.06825500  0.84236100  0.53970100  1
  O  O27  1  0.95552000  0.72253700  0.14342600  1
  O  O28  1  0.53506700  0.75650000  0.84423800  1
  O  O29  1  0.43538800  0.64952700  0.46127000  1
  O  O30  1  0.46493300  0.24350000  0.15576200  1
  O  O31  1  0.87134500  0.61438900  0.76648300  1
  O  O32  1  0.93174500  0.15763900  0.46029900  1
  O  O33  1  0.83425000  0.06461000  0.07355300  1
  O  O34  1  0.33865400  0.11805000  0.75082800  1
  O  O35  1  0.24689100  0.02790900  0.34008200  1
  O  O36  1  0.75310900  0.97209100  0.65991800  1
  O  O37  1  0.16575000  0.93539000  0.92644700  1
