# generated using pymatgen
data_Na2FeAsCO7
_symmetry_space_group_name_H-M   'P 1'
_cell_length_a   5.38045504
_cell_length_b   6.79793030
_cell_length_c   9.15040177
_cell_angle_alpha   90.00000000
_cell_angle_beta   91.81258237
_cell_angle_gamma   90.00000000
_symmetry_Int_Tables_number   1
_chemical_formula_structural   Na2FeAsCO7
_chemical_formula_sum   'Na4 Fe2 As2 C2 O14'
_cell_volume   334.51725049
_cell_formula_units_Z   2
loop_
 _symmetry_equiv_pos_site_id
 _symmetry_equiv_pos_as_xyz
  1  'x, y, z'
loop_
 _atom_site_type_symbol
 _atom_site_label
 _atom_site_symmetry_multiplicity
 _atom_site_fract_x
 _atom_site_fract_y
 _atom_site_fract_z
 _atom_site_occupancy
  Na  Na0  1  0.23356975  0.49750750  0.78433825  1
  Na  Na1  1  0.23356975  0.00249250  0.78433825  1
  Na  Na2  1  0.76643025  0.50249250  0.21566175  1
  Na  Na3  1  0.76643025  0.99750750  0.21566175  1
  Fe  Fe4  1  0.78775825  0.25000000  0.64886525  1
  Fe  Fe5  1  0.21224175  0.75000000  0.35113475  1
  As  As6  1  0.71579775  0.75000000  0.57386075  1
  As  As7  1  0.28420225  0.25000000  0.42613925  1
  C  C8  1  0.72681475  0.25000000  0.92166925  1
  C  C9  1  0.27318525  0.75000000  0.07833075  1
  O  O10  1  0.30920625  0.75000000  0.94310925  1
  O  O11  1  0.69079375  0.25000000  0.05689075  1
  O  O12  1  0.94791025  0.25000000  0.86491325  1
  O  O13  1  0.05208975  0.75000000  0.13508675  1
  O  O14  1  0.54280225  0.25000000  0.82184875  1
  O  O15  1  0.45719775  0.75000000  0.17815125  1
  O  O16  1  0.14948575  0.25000000  0.59462875  1
  O  O17  1  0.85051425  0.75000000  0.40537125  1
  O  O18  1  0.39465025  0.75000000  0.54457275  1
  O  O19  1  0.60534975  0.25000000  0.45542725  1
  O  O20  1  0.80245775  0.95251900  0.67349475  1
  O  O21  1  0.80245775  0.54748100  0.67349475  1
  O  O22  1  0.19754225  0.45251900  0.32650525  1
  O  O23  1  0.19754225  0.04748100  0.32650525  1
