# generated using pymatgen
data_TaCrO4
_symmetry_space_group_name_H-M   'P 1'
_cell_length_a   4.50064300
_cell_length_b   5.03035400
_cell_length_c   11.95069600
_cell_angle_alpha   90.00000000
_cell_angle_beta   90.00000000
_cell_angle_gamma   90.00000000
_symmetry_Int_Tables_number   1
_chemical_formula_structural   TaCrO4
_chemical_formula_sum   'Ta4 Cr4 O16'
_cell_volume   270.56169616
_cell_formula_units_Z   4
loop_
 _symmetry_equiv_pos_site_id
 _symmetry_equiv_pos_as_xyz
  1  'x, y, z'
loop_
 _atom_site_type_symbol
 _atom_site_label
 _atom_site_symmetry_multiplicity
 _atom_site_fract_x
 _atom_site_fract_y
 _atom_site_fract_z
 _atom_site_occupancy
  Ta  Ta0  1  0.00000000  0.75000000  0.92425700  1
  Ta  Ta1  1  0.00000000  0.25000000  0.07574300  1
  Ta  Ta2  1  0.50000000  0.25000000  0.57574300  1
  Ta  Ta3  1  0.50000000  0.75000000  0.42425700  1
  Cr  Cr4  1  0.00000000  0.75000000  0.67804900  1
  Cr  Cr5  1  0.00000000  0.25000000  0.32195100  1
  Cr  Cr6  1  0.50000000  0.75000000  0.17804900  1
  Cr  Cr7  1  0.50000000  0.25000000  0.82195100  1
  O  O8  1  0.23320900  0.91896550  0.80980600  1
  O  O9  1  0.23320900  0.41896550  0.19019400  1
  O  O10  1  0.24132700  0.41817350  0.94412900  1
  O  O11  1  0.24132700  0.91817350  0.05587100  1
  O  O12  1  0.25867300  0.91817350  0.55587100  1
  O  O13  1  0.25867300  0.41817350  0.44412900  1
  O  O14  1  0.26679100  0.41896550  0.69019400  1
  O  O15  1  0.26679100  0.91896550  0.30980600  1
  O  O16  1  0.73320900  0.08103450  0.69019400  1
  O  O17  1  0.73320900  0.58103450  0.30980600  1
  O  O18  1  0.74132700  0.58182650  0.55587100  1
  O  O19  1  0.74132700  0.08182650  0.44412900  1
  O  O20  1  0.75867300  0.08182650  0.94412900  1
  O  O21  1  0.75867300  0.58182650  0.05587100  1
  O  O22  1  0.76679100  0.58103450  0.80980600  1
  O  O23  1  0.76679100  0.08103450  0.19019400  1
