# generated using pymatgen
data_Li5Mn2V5O12
_symmetry_space_group_name_H-M   'P 1'
_cell_length_a   5.29852000
_cell_length_b   9.05827200
_cell_length_c   9.97902552
_cell_angle_alpha   90.00000000
_cell_angle_beta   99.91488680
_cell_angle_gamma   90.00000000
_symmetry_Int_Tables_number   1
_chemical_formula_structural   Li5Mn2V5O12
_chemical_formula_sum   'Li10 Mn4 V10 O24'
_cell_volume   471.79440963
_cell_formula_units_Z   2
loop_
 _symmetry_equiv_pos_site_id
 _symmetry_equiv_pos_as_xyz
  1  'x, y, z'
loop_
 _atom_site_type_symbol
 _atom_site_label
 _atom_site_symmetry_multiplicity
 _atom_site_fract_x
 _atom_site_fract_y
 _atom_site_fract_z
 _atom_site_occupancy
  Li  Li0  1  0.25444100  0.91601500  0.76158300  1
  Li  Li1  1  0.23367800  0.08048900  0.23773200  1
  Li  Li2  1  0.74555900  0.91601500  0.23841700  1
  Li  Li3  1  0.76632200  0.08048900  0.76226800  1
  Li  Li4  1  0.50000000  0.41808400  0.00000000  1
  Li  Li5  1  0.75444100  0.41601500  0.76158300  1
  Li  Li6  1  0.73367800  0.58048900  0.23773200  1
  Li  Li7  1  0.24555900  0.41601500  0.23841700  1
  Li  Li8  1  0.26632200  0.58048900  0.76226800  1
  Li  Li9  1  0.00000000  0.91808400  0.00000000  1
  Mn  Mn10  1  0.50000000  0.74610800  0.00000000  1
  Mn  Mn11  1  0.50000000  0.25225200  0.50000000  1
  Mn  Mn12  1  0.00000000  0.24610800  0.00000000  1
  Mn  Mn13  1  0.00000000  0.75225200  0.50000000  1
  V  V14  1  0.74293950  0.25645250  0.24105400  1
  V  V15  1  0.25706050  0.25645250  0.75894600  1
  V  V16  1  0.50000000  0.92134900  0.50000000  1
  V  V17  1  0.50000000  0.07712400  0.00000000  1
  V  V18  1  0.50000000  0.58271000  0.50000000  1
  V  V19  1  0.24293950  0.75645250  0.24105400  1
  V  V20  1  0.75706050  0.75645250  0.75894600  1
  V  V21  1  0.00000000  0.42134900  0.50000000  1
  V  V22  1  0.00000000  0.57712400  0.00000000  1
  V  V23  1  0.00000000  0.08271000  0.50000000  1
  O  O24  1  0.84726550  0.08656550  0.12297000  1
  O  O25  1  0.15273450  0.08656550  0.87703000  1
  O  O26  1  0.40455900  0.75323200  0.62140000  1
  O  O27  1  0.59544100  0.75323200  0.37860000  1
  O  O28  1  0.37063600  0.91362400  0.12792200  1
  O  O29  1  0.62936400  0.91362400  0.87207800  1
  O  O30  1  0.35148350  0.08330750  0.61724100  1
  O  O31  1  0.64851650  0.08330750  0.38275900  1
  O  O32  1  0.39876000  0.23941900  0.13018400  1
  O  O33  1  0.60124000  0.23941900  0.86981600  1
  O  O34  1  0.85732250  0.92208250  0.61885700  1
  O  O35  1  0.14267750  0.92208250  0.38114300  1
  O  O36  1  0.34726550  0.58656550  0.12297000  1
  O  O37  1  0.65273450  0.58656550  0.87703000  1
  O  O38  1  0.90455900  0.25323200  0.62140000  1
  O  O39  1  0.09544100  0.25323200  0.37860000  1
  O  O40  1  0.87063600  0.41362400  0.12792200  1
  O  O41  1  0.12936400  0.41362400  0.87207800  1
  O  O42  1  0.85148350  0.58330750  0.61724100  1
  O  O43  1  0.14851650  0.58330750  0.38275900  1
  O  O44  1  0.89876000  0.73941900  0.13018400  1
  O  O45  1  0.10124000  0.73941900  0.86981600  1
  O  O46  1  0.35732250  0.42208250  0.61885700  1
  O  O47  1  0.64267750  0.42208250  0.38114300  1
