# generated using pymatgen
data_Li6MnV3(PO4)6
_symmetry_space_group_name_H-M   'P 1'
_cell_length_a   11.73123600
_cell_length_b   12.64991200
_cell_length_c   12.74538887
_cell_angle_alpha   90.00000000
_cell_angle_beta   113.87733413
_cell_angle_gamma   90.00000000
_symmetry_Int_Tables_number   1
_chemical_formula_structural   Li6MnV3(PO4)6
_chemical_formula_sum   'Li24 Mn4 V12 P24 O96'
_cell_volume   1729.52684405
_cell_formula_units_Z   4
loop_
 _symmetry_equiv_pos_site_id
 _symmetry_equiv_pos_as_xyz
  1  'x, y, z'
loop_
 _atom_site_type_symbol
 _atom_site_label
 _atom_site_symmetry_multiplicity
 _atom_site_fract_x
 _atom_site_fract_y
 _atom_site_fract_z
 _atom_site_occupancy
  Li  Li0  1  0.50034550  0.50601250  0.25185700  1
  Li  Li1  1  0.49965450  0.50601250  0.74814300  1
  Li  Li2  1  0.50000000  0.78621700  0.50000000  1
  Li  Li3  1  0.50099700  0.00076200  0.37641700  1
  Li  Li4  1  0.50000000  0.78799900  0.00000000  1
  Li  Li5  1  0.49900300  0.00076200  0.62358300  1
  Li  Li6  1  0.50139150  0.21250050  0.25158200  1
  Li  Li7  1  0.49982550  0.00008950  0.87484600  1
  Li  Li8  1  0.50017450  0.00008950  0.12515400  1
  Li  Li9  1  0.49860850  0.21250050  0.74841800  1
  Li  Li10  1  0.50000000  0.49389700  0.50000000  1
  Li  Li11  1  0.50000000  0.49317500  0.00000000  1
  Li  Li12  1  0.00034550  0.00601250  0.25185700  1
  Li  Li13  1  0.99965450  0.00601250  0.74814300  1
  Li  Li14  1  0.00000000  0.28621700  0.50000000  1
  Li  Li15  1  0.00099700  0.50076200  0.37641700  1
  Li  Li16  1  0.00000000  0.28799900  0.00000000  1
  Li  Li17  1  0.99900300  0.50076200  0.62358300  1
  Li  Li18  1  0.00139150  0.71250050  0.25158200  1
  Li  Li19  1  0.99982550  0.50008950  0.87484600  1
  Li  Li20  1  0.00017450  0.50008950  0.12515400  1
  Li  Li21  1  0.99860850  0.71250050  0.74841800  1
  Li  Li22  1  0.00000000  0.99389700  0.50000000  1
  Li  Li23  1  0.00000000  0.99317500  0.00000000  1
  Mn  Mn24  1  0.78338800  0.15885900  0.55819000  1
  Mn  Mn25  1  0.21661200  0.15885900  0.44181000  1
  Mn  Mn26  1  0.28338800  0.65885900  0.55819000  1
  Mn  Mn27  1  0.71661200  0.65885900  0.44181000  1
  V  V28  1  0.78215300  0.83955300  0.30525100  1
  V  V29  1  0.78136250  0.83872050  0.80354700  1
  V  V30  1  0.21863750  0.83872050  0.19645300  1
  V  V31  1  0.78116450  0.16159550  0.05484400  1
  V  V32  1  0.21784700  0.83955300  0.69474900  1
  V  V33  1  0.21883550  0.16159550  0.94515600  1
  V  V34  1  0.28215300  0.33955300  0.30525100  1
  V  V35  1  0.28136250  0.33872050  0.80354700  1
  V  V36  1  0.71863750  0.33872050  0.19645300  1
  V  V37  1  0.28116450  0.66159550  0.05484400  1
  V  V38  1  0.71784700  0.33955300  0.69474900  1
  V  V39  1  0.71883550  0.66159550  0.94515600  1
  P  P40  1  0.50128050  0.78584850  0.25012500  1
  P  P41  1  0.76410300  0.89919600  0.55714600  1
  P  P42  1  0.76166500  0.10088100  0.30742800  1
  P  P43  1  0.49871950  0.78584850  0.74987500  1
  P  P44  1  0.76189000  0.89944700  0.05680700  1
  P  P45  1  0.76120750  0.10055550  0.80655300  1
  P  P46  1  0.23589700  0.89919600  0.44285400  1
  P  P47  1  0.23879250  0.10055550  0.19344700  1
  P  P48  1  0.50000000  0.21465300  0.50000000  1
  P  P49  1  0.23811000  0.89944700  0.94319300  1
  P  P50  1  0.23833500  0.10088100  0.69257200  1
  P  P51  1  0.50000000  0.21454300  0.00000000  1
  P  P52  1  0.00128050  0.28584850  0.25012500  1
  P  P53  1  0.26410300  0.39919600  0.55714600  1
  P  P54  1  0.26166500  0.60088100  0.30742800  1
  P  P55  1  0.99871950  0.28584850  0.74987500  1
  P  P56  1  0.26189000  0.39944700  0.05680700  1
  P  P57  1  0.26120750  0.60055550  0.80655300  1
  P  P58  1  0.73589700  0.39919600  0.44285400  1
  P  P59  1  0.73879250  0.60055550  0.19344700  1
  P  P60  1  0.00000000  0.71465300  0.50000000  1
  P  P61  1  0.73811000  0.39944700  0.94319300  1
  P  P62  1  0.73833500  0.60088100  0.69257200  1
  P  P63  1  0.00000000  0.71454300  0.00000000  1
  O  O64  1  0.82374350  0.83595850  0.17027400  1
  O  O65  1  0.77720400  0.82988100  0.46053100  1
  O  O66  1  0.45718950  0.71386750  0.14220800  1
  O  O67  1  0.82261900  0.83285900  0.67011300  1
  O  O68  1  0.54566500  0.71602200  0.36100200  1
  O  O69  1  0.84268950  0.99928250  0.31962400  1
  O  O70  1  0.59936400  0.86276000  0.24000200  1
  O  O71  1  0.85063150  0.99809550  0.57660700  1
  O  O72  1  0.77571200  0.82595700  0.96187500  1
  O  O73  1  0.45433500  0.71602200  0.63899800  1
  O  O74  1  0.54281050  0.71386750  0.85779200  1
  O  O75  1  0.84297100  0.99900300  0.82045600  1
  O  O76  1  0.62661950  0.92109650  0.52411800  1
  O  O77  1  0.77518850  0.17490350  0.21234700  1
  O  O78  1  0.82561300  0.16236100  0.42273800  1
  O  O79  1  0.40117250  0.86143650  0.25894700  1
  O  O80  1  0.59882750  0.86143650  0.74105300  1
  O  O81  1  0.62366650  0.08042650  0.27296400  1
  O  O82  1  0.84339600  0.00137500  0.07119400  1
  O  O83  1  0.62388150  0.92004550  0.02275100  1
  O  O84  1  0.77462600  0.17564800  0.71179900  1
  O  O85  1  0.37338050  0.92109650  0.47588200  1
  O  O86  1  0.82407200  0.16364700  0.92054600  1
  O  O87  1  0.40063600  0.86276000  0.75999800  1
  O  O88  1  0.60006900  0.13796200  0.49073500  1
  O  O89  1  0.17738100  0.83285900  0.32988700  1
  O  O90  1  0.62387750  0.07954450  0.77349300  1
  O  O91  1  0.22279600  0.82988100  0.53946900  1
  O  O92  1  0.37612250  0.07954450  0.22650700  1
  O  O93  1  0.15702900  0.99900300  0.17954400  1
  O  O94  1  0.37611850  0.92004550  0.97724900  1
  O  O95  1  0.39993100  0.13796200  0.50926500  1
  O  O96  1  0.59939600  0.13773500  0.99099700  1
  O  O97  1  0.17625650  0.83595850  0.82972600  1
  O  O98  1  0.22428800  0.82595700  0.03812500  1
  O  O99  1  0.37633350  0.08042650  0.72703600  1
  O  O100  1  0.14936850  0.99809550  0.42339300  1
  O  O101  1  0.45731000  0.28558400  0.39137200  1
  O  O102  1  0.54269000  0.28558400  0.60862800  1
  O  O103  1  0.22537400  0.17564800  0.28820100  1
  O  O104  1  0.15731050  0.99928250  0.68037600  1
  O  O105  1  0.40060400  0.13773500  0.00900300  1
  O  O106  1  0.15660400  0.00137500  0.92880600  1
  O  O107  1  0.45623600  0.28528500  0.89148000  1
  O  O108  1  0.17438700  0.16236100  0.57726200  1
  O  O109  1  0.54376400  0.28528500  0.10852000  1
  O  O110  1  0.22481150  0.17490350  0.78765300  1
  O  O111  1  0.17592800  0.16364700  0.07945400  1
  O  O112  1  0.32374350  0.33595850  0.17027400  1
  O  O113  1  0.27720400  0.32988100  0.46053100  1
  O  O114  1  0.95718950  0.21386750  0.14220800  1
  O  O115  1  0.32261900  0.33285900  0.67011300  1
  O  O116  1  0.04566500  0.21602200  0.36100200  1
  O  O117  1  0.34268950  0.49928250  0.31962400  1
  O  O118  1  0.09936400  0.36276000  0.24000200  1
  O  O119  1  0.35063150  0.49809550  0.57660700  1
  O  O120  1  0.27571200  0.32595700  0.96187500  1
  O  O121  1  0.95433500  0.21602200  0.63899800  1
  O  O122  1  0.04281050  0.21386750  0.85779200  1
  O  O123  1  0.34297100  0.49900300  0.82045600  1
  O  O124  1  0.12661950  0.42109650  0.52411800  1
  O  O125  1  0.27518850  0.67490350  0.21234700  1
  O  O126  1  0.32561300  0.66236100  0.42273800  1
  O  O127  1  0.90117250  0.36143650  0.25894700  1
  O  O128  1  0.09882750  0.36143650  0.74105300  1
  O  O129  1  0.12366650  0.58042650  0.27296400  1
  O  O130  1  0.34339600  0.50137500  0.07119400  1
  O  O131  1  0.12388150  0.42004550  0.02275100  1
  O  O132  1  0.27462600  0.67564800  0.71179900  1
  O  O133  1  0.87338050  0.42109650  0.47588200  1
  O  O134  1  0.32407200  0.66364700  0.92054600  1
  O  O135  1  0.90063600  0.36276000  0.75999800  1
  O  O136  1  0.10006900  0.63796200  0.49073500  1
  O  O137  1  0.67738100  0.33285900  0.32988700  1
  O  O138  1  0.12387750  0.57954450  0.77349300  1
  O  O139  1  0.72279600  0.32988100  0.53946900  1
  O  O140  1  0.87612250  0.57954450  0.22650700  1
  O  O141  1  0.65702900  0.49900300  0.17954400  1
  O  O142  1  0.87611850  0.42004550  0.97724900  1
  O  O143  1  0.89993100  0.63796200  0.50926500  1
  O  O144  1  0.09939600  0.63773500  0.99099700  1
  O  O145  1  0.67625650  0.33595850  0.82972600  1
  O  O146  1  0.72428800  0.32595700  0.03812500  1
  O  O147  1  0.87633350  0.58042650  0.72703600  1
  O  O148  1  0.64936850  0.49809550  0.42339300  1
  O  O149  1  0.95731000  0.78558400  0.39137200  1
  O  O150  1  0.04269000  0.78558400  0.60862800  1
  O  O151  1  0.72537400  0.67564800  0.28820100  1
  O  O152  1  0.65731050  0.49928250  0.68037600  1
  O  O153  1  0.90060400  0.63773500  0.00900300  1
  O  O154  1  0.65660400  0.50137500  0.92880600  1
  O  O155  1  0.95623600  0.78528500  0.89148000  1
  O  O156  1  0.67438700  0.66236100  0.57726200  1
  O  O157  1  0.04376400  0.78528500  0.10852000  1
  O  O158  1  0.72481150  0.67490350  0.78765300  1
  O  O159  1  0.67592800  0.66364700  0.07945400  1
