# generated using pymatgen
data_Li2Co4O7F
_symmetry_space_group_name_H-M   'P 1'
_cell_length_a   9.82575200
_cell_length_b   5.79396800
_cell_length_c   5.78573842
_cell_angle_alpha   90.00000000
_cell_angle_beta   124.91812151
_cell_angle_gamma   90.00000000
_symmetry_Int_Tables_number   1
_chemical_formula_structural   Li2Co4O7F
_chemical_formula_sum   'Li4 Co8 O14 F2'
_cell_volume   270.08415902
_cell_formula_units_Z   2
loop_
 _symmetry_equiv_pos_site_id
 _symmetry_equiv_pos_as_xyz
  1  'x, y, z'
loop_
 _atom_site_type_symbol
 _atom_site_label
 _atom_site_symmetry_multiplicity
 _atom_site_fract_x
 _atom_site_fract_y
 _atom_site_fract_z
 _atom_site_occupancy
  Li  Li0  1  0.49950200  0.00000000  0.99907000  1
  Li  Li1  1  0.38497600  0.50000000  0.13168200  1
  Li  Li2  1  0.99950200  0.50000000  0.99907000  1
  Li  Li3  1  0.88497600  0.00000000  0.13168200  1
  Co  Co4  1  0.11548400  0.00000000  0.86855100  1
  Co  Co5  1  0.24739500  0.75473400  0.50581800  1
  Co  Co6  1  0.24739500  0.24526600  0.50581800  1
  Co  Co7  1  0.00243800  0.50000000  0.49539100  1
  Co  Co8  1  0.61548400  0.50000000  0.86855100  1
  Co  Co9  1  0.74739500  0.25473400  0.50581800  1
  Co  Co10  1  0.74739500  0.74526600  0.50581800  1
  Co  Co11  1  0.50243800  0.00000000  0.49539100  1
  O  O12  1  0.24101600  0.50000000  0.71350700  1
  O  O13  1  0.02432350  0.26922650  0.29322000  1
  O  O14  1  0.02432350  0.73077350  0.29322000  1
  O  O15  1  0.47824950  0.76949150  0.70914900  1
  O  O16  1  0.25041700  0.00000000  0.71765000  1
  O  O17  1  0.47824950  0.23050850  0.70914900  1
  O  O18  1  0.25732750  0.00000000  0.28601500  1
  O  O19  1  0.74101600  0.00000000  0.71350700  1
  O  O20  1  0.52432350  0.76922650  0.29322000  1
  O  O21  1  0.52432350  0.23077350  0.29322000  1
  O  O22  1  0.97824950  0.26949150  0.70914900  1
  O  O23  1  0.75041700  0.50000000  0.71765000  1
  O  O24  1  0.97824950  0.73050850  0.70914900  1
  O  O25  1  0.75732750  0.50000000  0.28601500  1
  F  F26  1  0.24831600  0.50000000  0.27120700  1
  F  F27  1  0.74831600  0.00000000  0.27120700  1
