# generated using pymatgen
data_Li5NiOF5
_symmetry_space_group_name_H-M   'P 1'
_cell_length_a   3.17388034
_cell_length_b   3.17388034
_cell_length_c   15.23886508
_cell_angle_alpha   90.00000000
_cell_angle_beta   90.00000000
_cell_angle_gamma   120.00000000
_symmetry_Int_Tables_number   1
_chemical_formula_structural   Li5NiOF5
_chemical_formula_sum   'Li5 Ni1 O1 F5'
_cell_volume   132.94265690
_cell_formula_units_Z   1
loop_
 _symmetry_equiv_pos_site_id
 _symmetry_equiv_pos_as_xyz
  1  'x, y, z'
loop_
 _atom_site_type_symbol
 _atom_site_label
 _atom_site_symmetry_multiplicity
 _atom_site_fract_x
 _atom_site_fract_y
 _atom_site_fract_z
 _atom_site_occupancy
  Li  Li0  1  0.66666667  0.33333333  0.33835000  1
  Li  Li1  1  0.66666667  0.33333333  0.66201150  1
  Li  Li2  1  0.00000000  0.00000000  0.50014800  1
  Li  Li3  1  0.00000000  0.00000000  0.17676450  1
  Li  Li4  1  0.00000000  0.00000000  0.82489750  1
  Ni  Ni5  1  0.66666667  0.33333333  0.99139300  1
  O  O6  1  0.00000000  0.00000000  0.95567750  1
  F  F7  1  0.66666667  0.33333333  0.46238800  1
  F  F8  1  0.66666667  0.33333333  0.78634450  1
  F  F9  1  0.66666667  0.33333333  0.14004750  1
  F  F10  1  0.00000000  0.00000000  0.30078500  1
  F  F11  1  0.00000000  0.00000000  0.62422600  1
