# generated using pymatgen
data_SbRhO4
_symmetry_space_group_name_H-M   'P 1'
_cell_length_a   6.64392200
_cell_length_b   6.64392200
_cell_length_c   6.33950200
_cell_angle_alpha   90.00000000
_cell_angle_beta   90.00000000
_cell_angle_gamma   90.00000000
_symmetry_Int_Tables_number   1
_chemical_formula_structural   SbRhO4
_chemical_formula_sum   'Sb4 Rh4 O16'
_cell_volume   279.83639253
_cell_formula_units_Z   4
loop_
 _symmetry_equiv_pos_site_id
 _symmetry_equiv_pos_as_xyz
  1  'x, y, z'
loop_
 _atom_site_type_symbol
 _atom_site_label
 _atom_site_symmetry_multiplicity
 _atom_site_fract_x
 _atom_site_fract_y
 _atom_site_fract_z
 _atom_site_occupancy
  Sb  Sb0  1  0.50000000  0.50000000  0.25318200  1
  Sb  Sb1  1  0.50000000  0.00000000  0.00318200  1
  Sb  Sb2  1  0.00000000  0.00000000  0.75318200  1
  Sb  Sb3  1  0.00000000  0.50000000  0.50318200  1
  Rh  Rh4  1  0.00000000  0.00000000  0.24625600  1
  Rh  Rh5  1  0.50000000  0.00000000  0.49625600  1
  Rh  Rh6  1  0.50000000  0.50000000  0.74625600  1
  Rh  Rh7  1  0.00000000  0.50000000  0.99625600  1
  O  O8  1  0.69136700  0.00000000  0.75387400  1
  O  O9  1  0.69264150  0.00000000  0.24640750  1
  O  O10  1  0.50000000  0.30735850  0.49640750  1
  O  O11  1  0.50000000  0.30863300  0.00387400  1
  O  O12  1  0.00000000  0.19264150  0.99640750  1
  O  O13  1  0.50000000  0.69136700  0.00387400  1
  O  O14  1  0.80735850  0.50000000  0.74640750  1
  O  O15  1  0.80863300  0.50000000  0.25387400  1
  O  O16  1  0.19136700  0.50000000  0.25387400  1
  O  O17  1  0.19264150  0.50000000  0.74640750  1
  O  O18  1  0.00000000  0.80735850  0.99640750  1
  O  O19  1  0.00000000  0.80863300  0.50387400  1
  O  O20  1  0.50000000  0.69264150  0.49640750  1
  O  O21  1  0.00000000  0.19136700  0.50387400  1
  O  O22  1  0.30735850  0.00000000  0.24640750  1
  O  O23  1  0.30863300  0.00000000  0.75387400  1
