# generated using pymatgen
data_Li4Co3O3F4
_symmetry_space_group_name_H-M   'P 1'
_cell_length_a   2.95248000
_cell_length_b   2.95248000
_cell_length_c   29.98495000
_cell_angle_alpha   90.00000000
_cell_angle_beta   90.00000000
_cell_angle_gamma   90.00000000
_symmetry_Int_Tables_number   1
_chemical_formula_structural   Li4Co3O3F4
_chemical_formula_sum   'Li8 Co6 O6 F8'
_cell_volume   261.38295158
_cell_formula_units_Z   2
loop_
 _symmetry_equiv_pos_site_id
 _symmetry_equiv_pos_as_xyz
  1  'x, y, z'
loop_
 _atom_site_type_symbol
 _atom_site_label
 _atom_site_symmetry_multiplicity
 _atom_site_fract_x
 _atom_site_fract_y
 _atom_site_fract_z
 _atom_site_occupancy
  Li  Li0  1  0.00000000  0.00000000  0.14767500  1
  Li  Li1  1  0.50000000  0.50000000  0.21659500  1
  Li  Li2  1  0.00000000  0.00000000  0.28340500  1
  Li  Li3  1  0.50000000  0.50000000  0.35232500  1
  Li  Li4  1  0.50000000  0.50000000  0.64767500  1
  Li  Li5  1  0.00000000  0.00000000  0.71659500  1
  Li  Li6  1  0.50000000  0.50000000  0.78340500  1
  Li  Li7  1  0.00000000  0.00000000  0.85232500  1
  Co  Co8  1  0.00000000  0.00000000  0.42605200  1
  Co  Co9  1  0.00000000  0.00000000  0.00000000  1
  Co  Co10  1  0.50000000  0.50000000  0.07394800  1
  Co  Co11  1  0.50000000  0.50000000  0.92605200  1
  Co  Co12  1  0.50000000  0.50000000  0.50000000  1
  Co  Co13  1  0.00000000  0.00000000  0.57394800  1
  O  O14  1  0.50000000  0.50000000  0.42450500  1
  O  O15  1  0.50000000  0.50000000  0.00000000  1
  O  O16  1  0.00000000  0.00000000  0.07549500  1
  O  O17  1  0.00000000  0.00000000  0.92450500  1
  O  O18  1  0.00000000  0.00000000  0.50000000  1
  O  O19  1  0.50000000  0.50000000  0.57549500  1
  F  F20  1  0.50000000  0.50000000  0.14927300  1
  F  F21  1  0.00000000  0.00000000  0.21622500  1
  F  F22  1  0.50000000  0.50000000  0.28377500  1
  F  F23  1  0.00000000  0.00000000  0.35072700  1
  F  F24  1  0.00000000  0.00000000  0.64927300  1
  F  F25  1  0.50000000  0.50000000  0.71622500  1
  F  F26  1  0.00000000  0.00000000  0.78377500  1
  F  F27  1  0.50000000  0.50000000  0.85072700  1
