# generated using pymatgen
data_Li2Ti2V5O12
_symmetry_space_group_name_H-M   'P 1'
_cell_length_a   5.13714600
_cell_length_b   9.12723400
_cell_length_c   9.92019992
_cell_angle_alpha   90.00000000
_cell_angle_beta   101.26029975
_cell_angle_gamma   90.00000000
_symmetry_Int_Tables_number   1
_chemical_formula_structural   Li2Ti2V5O12
_chemical_formula_sum   'Li4 Ti4 V10 O24'
_cell_volume   456.18386565
_cell_formula_units_Z   2
loop_
 _symmetry_equiv_pos_site_id
 _symmetry_equiv_pos_as_xyz
  1  'x, y, z'
loop_
 _atom_site_type_symbol
 _atom_site_label
 _atom_site_symmetry_multiplicity
 _atom_site_fract_x
 _atom_site_fract_y
 _atom_site_fract_z
 _atom_site_occupancy
  Li  Li0  1  0.75618200  0.41822800  0.50072600  1
  Li  Li1  1  0.51112100  0.40966000  0.73597400  1
  Li  Li2  1  0.24381800  0.91822800  0.49927400  1
  Li  Li3  1  0.48887900  0.90966000  0.26402600  1
  Ti  Ti4  1  0.21937000  0.24591400  0.48829000  1
  Ti  Ti5  1  0.77233000  0.24841900  0.00594000  1
  Ti  Ti6  1  0.22767000  0.74841900  0.99406000  1
  Ti  Ti7  1  0.78063000  0.74591400  0.51171000  1
  V  V8  1  0.26086200  0.07783300  0.99097400  1
  V  V9  1  0.74662700  0.07145600  0.51319200  1
  V  V10  1  0.99744700  0.25314400  0.74186000  1
  V  V11  1  0.50947400  0.26078500  0.25849100  1
  V  V12  1  0.25321200  0.42703700  0.99356800  1
  V  V13  1  0.25337300  0.57145600  0.48680800  1
  V  V14  1  0.73913800  0.57783300  0.00902600  1
  V  V15  1  0.00255300  0.75314400  0.25814000  1
  V  V16  1  0.49052600  0.76078500  0.74150900  1
  V  V17  1  0.74678800  0.92703700  0.00643200  1
  O  O18  1  0.11435800  0.10274900  0.61356000  1
  O  O19  1  0.88631200  0.10016700  0.88995500  1
  O  O20  1  0.87300000  0.23783800  0.38859900  1
  O  O21  1  0.40052200  0.10329200  0.38308700  1
  O  O22  1  0.61318600  0.10350200  0.11937600  1
  O  O23  1  0.13423700  0.24888700  0.10688800  1
  O  O24  1  0.14810700  0.39876900  0.61107700  1
  O  O25  1  0.64508800  0.25098600  0.62200700  1
  O  O26  1  0.37058100  0.25437200  0.88036400  1
  O  O27  1  0.85992800  0.40268600  0.88414400  1
  O  O28  1  0.62742100  0.40261800  0.11664500  1
  O  O29  1  0.37686400  0.39953700  0.38518200  1
  O  O30  1  0.88564200  0.60274900  0.38644000  1
  O  O31  1  0.11368800  0.60016700  0.11004500  1
  O  O32  1  0.12700000  0.73783800  0.61140100  1
  O  O33  1  0.59947800  0.60329200  0.61691300  1
  O  O34  1  0.86576300  0.74888700  0.89311200  1
  O  O35  1  0.38681400  0.60350200  0.88062400  1
  O  O36  1  0.35491200  0.75098600  0.37799300  1
  O  O37  1  0.14007200  0.90268600  0.11585600  1
  O  O38  1  0.85189300  0.89876900  0.38892300  1
  O  O39  1  0.62941900  0.75437200  0.11963600  1
  O  O40  1  0.62313600  0.89953700  0.61481800  1
  O  O41  1  0.37257900  0.90261800  0.88335500  1
