# generated using pymatgen
data_Li2(NiO2)3
_symmetry_space_group_name_H-M   'P 1'
_cell_length_a   8.41050400
_cell_length_b   4.99892400
_cell_length_c   10.20103152
_cell_angle_alpha   90.00000000
_cell_angle_beta   106.13842610
_cell_angle_gamma   90.00000000
_symmetry_Int_Tables_number   1
_chemical_formula_structural   Li2(NiO2)3
_chemical_formula_sum   'Li8 Ni12 O24'
_cell_volume   411.98560514
_cell_formula_units_Z   4
loop_
 _symmetry_equiv_pos_site_id
 _symmetry_equiv_pos_as_xyz
  1  'x, y, z'
loop_
 _atom_site_type_symbol
 _atom_site_label
 _atom_site_symmetry_multiplicity
 _atom_site_fract_x
 _atom_site_fract_y
 _atom_site_fract_z
 _atom_site_occupancy
  Li  Li0  1  0.99739850  0.41165350  0.24302300  1
  Li  Li1  1  0.66400650  0.57948850  0.74336700  1
  Li  Li2  1  0.99739850  0.58834650  0.74302300  1
  Li  Li3  1  0.66400650  0.42051150  0.24336700  1
  Li  Li4  1  0.49739850  0.91165350  0.24302300  1
  Li  Li5  1  0.16400650  0.07948850  0.74336700  1
  Li  Li6  1  0.49739850  0.08834650  0.74302300  1
  Li  Li7  1  0.16400650  0.92051150  0.24336700  1
  Ni  Ni8  1  0.08504400  0.41803400  0.50291000  1
  Ni  Ni9  1  0.75114200  0.58187500  0.00192400  1
  Ni  Ni10  1  0.41418100  0.41726200  0.49301200  1
  Ni  Ni11  1  0.08504400  0.58196600  0.00291000  1
  Ni  Ni12  1  0.75114200  0.41812500  0.50192400  1
  Ni  Ni13  1  0.41418100  0.58273800  0.99301200  1
  Ni  Ni14  1  0.58504400  0.91803400  0.50291000  1
  Ni  Ni15  1  0.25114200  0.08187500  0.00192400  1
  Ni  Ni16  1  0.91418100  0.91726200  0.49301200  1
  Ni  Ni17  1  0.58504400  0.08196600  0.00291000  1
  Ni  Ni18  1  0.25114200  0.91812500  0.50192400  1
  Ni  Ni19  1  0.91418100  0.08273800  0.99301200  1
  O  O20  1  0.05951950  0.92231950  0.89266900  1
  O  O21  1  0.78825000  0.72755900  0.60606200  1
  O  O22  1  0.21198800  0.58856800  0.40008900  1
  O  O23  1  0.95612400  0.73198000  0.10453300  1
  O  O24  1  0.11161250  0.77293650  0.60155100  1
  O  O25  1  0.21198800  0.41143200  0.90008900  1
  O  O26  1  0.78825000  0.27244100  0.10606200  1
  O  O27  1  0.95612400  0.26802000  0.60453300  1
  O  O28  1  0.87303300  0.56241600  0.39273400  1
  O  O29  1  0.11161250  0.22706350  0.10155100  1
  O  O30  1  0.87303300  0.43758400  0.89273400  1
  O  O31  1  0.05951950  0.07768050  0.39266900  1
  O  O32  1  0.55951950  0.42231950  0.89266900  1
  O  O33  1  0.28825000  0.22755900  0.60606200  1
  O  O34  1  0.71198800  0.08856800  0.40008900  1
  O  O35  1  0.45612400  0.23198000  0.10453300  1
  O  O36  1  0.61161250  0.27293650  0.60155100  1
  O  O37  1  0.71198800  0.91143200  0.90008900  1
  O  O38  1  0.28825000  0.77244100  0.10606200  1
  O  O39  1  0.45612400  0.76802000  0.60453300  1
  O  O40  1  0.37303300  0.06241600  0.39273400  1
  O  O41  1  0.61161250  0.72706350  0.10155100  1
  O  O42  1  0.37303300  0.93758400  0.89273400  1
  O  O43  1  0.55951950  0.57768050  0.39266900  1
