# generated using pymatgen
data_Mn5O3F5
_symmetry_space_group_name_H-M   'P 1'
_cell_length_a   10.97811800
_cell_length_b   6.29993800
_cell_length_c   6.19234345
_cell_angle_alpha   90.00000000
_cell_angle_beta   122.44991349
_cell_angle_gamma   90.00000000
_symmetry_Int_Tables_number   1
_chemical_formula_structural   Mn5O3F5
_chemical_formula_sum   'Mn10 O6 F10'
_cell_volume   361.40156376
_cell_formula_units_Z   2
loop_
 _symmetry_equiv_pos_site_id
 _symmetry_equiv_pos_as_xyz
  1  'x, y, z'
loop_
 _atom_site_type_symbol
 _atom_site_label
 _atom_site_symmetry_multiplicity
 _atom_site_fract_x
 _atom_site_fract_y
 _atom_site_fract_z
 _atom_site_occupancy
  Mn  Mn0  1  0.12537000  0.50000000  0.87522500  1
  Mn  Mn1  1  0.27304100  0.00000000  0.76835100  1
  Mn  Mn2  1  0.37654800  0.76066800  0.36382800  1
  Mn  Mn3  1  0.37654800  0.23933200  0.36382800  1
  Mn  Mn4  1  0.48849400  0.50000000  0.00952800  1
  Mn  Mn5  1  0.62537000  0.00000000  0.87522500  1
  Mn  Mn6  1  0.77304100  0.50000000  0.76835100  1
  Mn  Mn7  1  0.87654800  0.26066800  0.36382800  1
  Mn  Mn8  1  0.87654800  0.73933200  0.36382800  1
  Mn  Mn9  1  0.98849400  0.00000000  0.00952800  1
  O  O10  1  0.39422200  0.00000000  0.61094000  1
  O  O11  1  0.35696900  0.50000000  0.14513800  1
  O  O12  1  0.36769100  0.00000000  0.14378000  1
  O  O13  1  0.89422200  0.50000000  0.61094000  1
  O  O14  1  0.85696900  0.00000000  0.14513800  1
  O  O15  1  0.86769100  0.50000000  0.14378000  1
  F  F16  1  0.12127150  0.24449650  0.63241600  1
  F  F17  1  0.12127150  0.75550350  0.63241600  1
  F  F18  1  0.38579600  0.50000000  0.61077200  1
  F  F19  1  0.12875050  0.25029550  0.12196300  1
  F  F20  1  0.12875050  0.74970450  0.12196300  1
  F  F21  1  0.62127150  0.74449650  0.63241600  1
  F  F22  1  0.62127150  0.25550350  0.63241600  1
  F  F23  1  0.88579600  0.00000000  0.61077200  1
  F  F24  1  0.62875050  0.75029550  0.12196300  1
  F  F25  1  0.62875050  0.24970450  0.12196300  1
