# generated using pymatgen
data_Li4Ti3V3Cr2O16
_symmetry_space_group_name_H-M   'P 1'
_cell_length_a   10.28448400
_cell_length_b   5.88557800
_cell_length_c   9.62822388
_cell_angle_alpha   90.00000000
_cell_angle_beta   90.13537522
_cell_angle_gamma   90.00000000
_symmetry_Int_Tables_number   1
_chemical_formula_structural   Li4Ti3V3Cr2O16
_chemical_formula_sum   'Li8 Ti6 V6 Cr4 O32'
_cell_volume   582.79604276
_cell_formula_units_Z   2
loop_
 _symmetry_equiv_pos_site_id
 _symmetry_equiv_pos_as_xyz
  1  'x, y, z'
loop_
 _atom_site_type_symbol
 _atom_site_label
 _atom_site_symmetry_multiplicity
 _atom_site_fract_x
 _atom_site_fract_y
 _atom_site_fract_z
 _atom_site_occupancy
  Li  Li0  1  0.66867300  0.00000000  0.89305900  1
  Li  Li1  1  0.99779300  0.00000000  0.99446700  1
  Li  Li2  1  0.50067500  0.50000000  0.49732600  1
  Li  Li3  1  0.83364800  0.50000000  0.39237300  1
  Li  Li4  1  0.16867300  0.50000000  0.89305900  1
  Li  Li5  1  0.49779300  0.50000000  0.99446700  1
  Li  Li6  1  0.00067500  0.00000000  0.49732600  1
  Li  Li7  1  0.33364800  0.00000000  0.39237300  1
  Ti  Ti8  1  0.58731850  0.24723850  0.21558400  1
  Ti  Ti9  1  0.58731850  0.75276150  0.21558400  1
  Ti  Ti10  1  0.66812900  0.50000000  0.72095500  1
  Ti  Ti11  1  0.08731850  0.74723850  0.21558400  1
  Ti  Ti12  1  0.08731850  0.25276150  0.21558400  1
  Ti  Ti13  1  0.16812900  0.00000000  0.72095500  1
  V  V14  1  0.83093300  0.00000000  0.20921500  1
  V  V15  1  0.91744300  0.26342100  0.70855700  1
  V  V16  1  0.91744300  0.73657900  0.70855700  1
  V  V17  1  0.33093300  0.50000000  0.20921500  1
  V  V18  1  0.41744300  0.76342100  0.70855700  1
  V  V19  1  0.41744300  0.23657900  0.70855700  1
  Cr  Cr20  1  0.66836200  0.00000000  0.48593400  1
  Cr  Cr21  1  0.83526600  0.50000000  0.98541800  1
  Cr  Cr22  1  0.16836200  0.50000000  0.48593400  1
  Cr  Cr23  1  0.33526600  0.00000000  0.98541800  1
  O  O24  1  0.58267950  0.25074550  0.60444500  1
  O  O25  1  0.52144800  0.00000000  0.33901700  1
  O  O26  1  0.65587600  0.00000000  0.10122800  1
  O  O27  1  0.50540600  0.50000000  0.31171300  1
  O  O28  1  0.50119500  0.50000000  0.80920800  1
  O  O29  1  0.58267950  0.74925450  0.60444500  1
  O  O30  1  0.73743150  0.22367050  0.33935600  1
  O  O31  1  0.73743150  0.77632950  0.33935600  1
  O  O32  1  0.66437300  0.50000000  0.10343500  1
  O  O33  1  0.83806400  0.00000000  0.60580300  1
  O  O34  1  0.75896700  0.71836400  0.83874000  1
  O  O35  1  0.75896700  0.28163600  0.83874000  1
  O  O36  1  0.82357000  0.50000000  0.59757200  1
  O  O37  1  0.91947150  0.75149050  0.10436500  1
  O  O38  1  0.98144700  0.50000000  0.83877100  1
  O  O39  1  0.91947150  0.24850950  0.10436500  1
  O  O40  1  0.08267950  0.75074550  0.60444500  1
  O  O41  1  0.02144800  0.50000000  0.33901700  1
  O  O42  1  0.15587600  0.50000000  0.10122800  1
  O  O43  1  0.00540600  0.00000000  0.31171300  1
  O  O44  1  0.00119500  0.00000000  0.80920800  1
  O  O45  1  0.08267950  0.24925450  0.60444500  1
  O  O46  1  0.23743150  0.72367050  0.33935600  1
  O  O47  1  0.23743150  0.27632950  0.33935600  1
  O  O48  1  0.16437300  0.00000000  0.10343500  1
  O  O49  1  0.33806400  0.50000000  0.60580300  1
  O  O50  1  0.25896700  0.21836400  0.83874000  1
  O  O51  1  0.25896700  0.78163600  0.83874000  1
  O  O52  1  0.32357000  0.00000000  0.59757200  1
  O  O53  1  0.41947150  0.25149050  0.10436500  1
  O  O54  1  0.48144700  0.00000000  0.83877100  1
  O  O55  1  0.41947150  0.74850950  0.10436500  1
