# generated using pymatgen
data_Li2Mn(BO3)2
_symmetry_space_group_name_H-M   'P 1'
_cell_length_a   5.43937113
_cell_length_b   7.73137000
_cell_length_c   5.96998805
_cell_angle_alpha   90.00000000
_cell_angle_beta   118.06520040
_cell_angle_gamma   90.00000000
_symmetry_Int_Tables_number   1
_chemical_formula_structural   Li2Mn(BO3)2
_chemical_formula_sum   'Li4 Mn2 B4 O12'
_cell_volume   221.53910718
_cell_formula_units_Z   2
loop_
 _symmetry_equiv_pos_site_id
 _symmetry_equiv_pos_as_xyz
  1  'x, y, z'
loop_
 _atom_site_type_symbol
 _atom_site_label
 _atom_site_symmetry_multiplicity
 _atom_site_fract_x
 _atom_site_fract_y
 _atom_site_fract_z
 _atom_site_occupancy
  Li  Li0  1  0.61330650  0.43492000  0.30949000  1
  Li  Li1  1  0.38669350  0.93492000  0.19051000  1
  Li  Li2  1  0.61330650  0.06508000  0.80949000  1
  Li  Li3  1  0.38669350  0.56508000  0.69051000  1
  Mn  Mn4  1  0.00000000  0.00000000  0.50000000  1
  Mn  Mn5  1  0.00000000  0.50000000  0.00000000  1
  B  B6  1  0.12794750  0.25746100  0.37067800  1
  B  B7  1  0.87205250  0.75746100  0.12932200  1
  B  B8  1  0.12794750  0.24253900  0.87067800  1
  B  B9  1  0.87205250  0.74253900  0.62932200  1
  O  O10  1  0.27357150  0.10242900  0.41430600  1
  O  O11  1  0.23087150  0.41443400  0.34215500  1
  O  O12  1  0.11295250  0.73800000  0.10458300  1
  O  O13  1  0.88704750  0.23800000  0.39541700  1
  O  O14  1  0.76912850  0.91443400  0.15784500  1
  O  O15  1  0.72642850  0.60242900  0.08569400  1
  O  O16  1  0.27357150  0.39757100  0.91430600  1
  O  O17  1  0.23087150  0.08556600  0.84215500  1
  O  O18  1  0.11295250  0.76200000  0.60458300  1
  O  O19  1  0.88704750  0.26200000  0.89541700  1
  O  O20  1  0.76912850  0.58556600  0.65784500  1
  O  O21  1  0.72642850  0.89757100  0.58569400  1
