# generated using pymatgen
data_LiMn2(BO3)2
_symmetry_space_group_name_H-M   'P 1'
_cell_length_a   5.35792817
_cell_length_b   8.92239466
_cell_length_c   10.34754295
_cell_angle_alpha   90.00000000
_cell_angle_beta   94.18959289
_cell_angle_gamma   90.00000000
_symmetry_Int_Tables_number   1
_chemical_formula_structural   LiMn2(BO3)2
_chemical_formula_sum   'Li4 Mn8 B8 O24'
_cell_volume   493.34810374
_cell_formula_units_Z   4
loop_
 _symmetry_equiv_pos_site_id
 _symmetry_equiv_pos_as_xyz
  1  'x, y, z'
loop_
 _atom_site_type_symbol
 _atom_site_label
 _atom_site_symmetry_multiplicity
 _atom_site_fract_x
 _atom_site_fract_y
 _atom_site_fract_z
 _atom_site_occupancy
  Li  Li0  1  0.85363650  0.01595950  0.42580300  1
  Li  Li1  1  0.85363650  0.98404050  0.92580300  1
  Li  Li2  1  0.35363650  0.51595950  0.42580300  1
  Li  Li3  1  0.35363650  0.48404050  0.92580300  1
  Mn  Mn4  1  0.34115750  0.18206950  0.37500600  1
  Mn  Mn5  1  0.65345600  0.15300500  0.13251800  1
  Mn  Mn6  1  0.34115750  0.81793050  0.87500600  1
  Mn  Mn7  1  0.65345600  0.84699500  0.63251800  1
  Mn  Mn8  1  0.84115750  0.68206950  0.37500600  1
  Mn  Mn9  1  0.15345600  0.65300500  0.13251800  1
  Mn  Mn10  1  0.84115750  0.31793050  0.87500600  1
  Mn  Mn11  1  0.15345600  0.34699500  0.63251800  1
  B  B12  1  0.32645950  0.15605450  0.87544400  1
  B  B13  1  0.66726550  0.18633450  0.62073400  1
  B  B14  1  0.32645950  0.84394550  0.37544400  1
  B  B15  1  0.66726550  0.81366550  0.12073400  1
  B  B16  1  0.82645950  0.65605450  0.87544400  1
  B  B17  1  0.16726550  0.68633450  0.62073400  1
  B  B18  1  0.82645950  0.34394550  0.37544400  1
  B  B19  1  0.16726550  0.31366550  0.12073400  1
  O  O20  1  0.27745700  0.19024500  0.18849100  1
  O  O21  1  0.42744100  0.21060000  0.56000200  1
  O  O22  1  0.19175500  0.02803800  0.88409300  1
  O  O23  1  0.58519900  0.15669400  0.90632000  1
  O  O24  1  0.71157300  0.20512100  0.34104000  1
  O  O25  1  0.19175500  0.97196200  0.38409300  1
  O  O26  1  0.79168100  0.05678700  0.60801700  1
  O  O27  1  0.27745700  0.80975500  0.68849100  1
  O  O28  1  0.79168100  0.94321300  0.10801700  1
  O  O29  1  0.58519900  0.84330600  0.40632000  1
  O  O30  1  0.42744100  0.78940000  0.06000200  1
  O  O31  1  0.71157300  0.79487900  0.84104000  1
  O  O32  1  0.77745700  0.69024500  0.18849100  1
  O  O33  1  0.92744100  0.71060000  0.56000200  1
  O  O34  1  0.69175500  0.52803800  0.88409300  1
  O  O35  1  0.08519900  0.65669400  0.90632000  1
  O  O36  1  0.21157300  0.70512100  0.34104000  1
  O  O37  1  0.69175500  0.47196200  0.38409300  1
  O  O38  1  0.29168100  0.55678700  0.60801700  1
  O  O39  1  0.77745700  0.30975500  0.68849100  1
  O  O40  1  0.29168100  0.44321300  0.10801700  1
  O  O41  1  0.08519900  0.34330600  0.40632000  1
  O  O42  1  0.92744100  0.28940000  0.06000200  1
  O  O43  1  0.21157300  0.29487900  0.84104000  1
