# generated using pymatgen
data_Co25Cu11O48
_symmetry_space_group_name_H-M   'P 1'
_cell_length_a   9.92431600
_cell_length_b   17.25100800
_cell_length_c   9.92570129
_cell_angle_alpha   90.00000000
_cell_angle_beta   109.24183231
_cell_angle_gamma   90.00000000
_symmetry_Int_Tables_number   1
_chemical_formula_structural   Co25Cu11O48
_chemical_formula_sum   'Co50 Cu22 O96'
_cell_volume   1604.39324044
_cell_formula_units_Z   2
loop_
 _symmetry_equiv_pos_site_id
 _symmetry_equiv_pos_as_xyz
  1  'x, y, z'
loop_
 _atom_site_type_symbol
 _atom_site_label
 _atom_site_symmetry_multiplicity
 _atom_site_fract_x
 _atom_site_fract_y
 _atom_site_fract_z
 _atom_site_occupancy
  Co  Co0  1  0.85382300  0.00000000  0.06231800  1
  Co  Co1  1  0.66557500  0.08339500  0.24869300  1
  Co  Co2  1  0.66527100  0.24997700  0.24982500  1
  Co  Co3  1  0.16557500  0.41660500  0.24869300  1
  Co  Co4  1  0.41552600  0.33282100  0.25032500  1
  Co  Co5  1  0.66619400  0.33302500  0.50028300  1
  Co  Co6  1  0.66794300  0.00000000  0.49932400  1
  Co  Co7  1  0.91858900  0.00000000  0.75017700  1
  Co  Co8  1  0.41626200  0.00000000  0.25068600  1
  Co  Co9  1  0.66599200  0.41657100  0.25173000  1
  Co  Co10  1  0.16527100  0.25002300  0.24982500  1
  Co  Co11  1  0.66685000  0.25024900  0.74994700  1
  Co  Co12  1  0.16599200  0.08342900  0.25173000  1
  Co  Co13  1  0.16745400  0.41636000  0.74895700  1
  Co  Co14  1  0.66745400  0.08364000  0.74895700  1
  Co  Co15  1  0.66589850  0.16738050  0.99923600  1
  Co  Co16  1  0.16619400  0.16697500  0.50028300  1
  Co  Co17  1  0.41722200  0.16729500  0.74931400  1
  Co  Co18  1  0.91552600  0.16717900  0.25032500  1
  Co  Co19  1  0.66865400  0.41681100  0.75100300  1
  Co  Co20  1  0.16865400  0.08318900  0.75100300  1
  Co  Co21  1  0.16685000  0.24975100  0.74994700  1
  Co  Co22  1  0.91722200  0.33270500  0.74931400  1
  Co  Co23  1  0.16589850  0.33261950  0.99923600  1
  Co  Co24  1  0.16799700  0.00000000  0.00169900  1
  Co  Co25  1  0.35382300  0.50000000  0.06231800  1
  Co  Co26  1  0.16557500  0.58339500  0.24869300  1
  Co  Co27  1  0.16527100  0.74997700  0.24982500  1
  Co  Co28  1  0.66557500  0.91660500  0.24869300  1
  Co  Co29  1  0.91552600  0.83282100  0.25032500  1
  Co  Co30  1  0.16619400  0.83302500  0.50028300  1
  Co  Co31  1  0.16794300  0.50000000  0.49932400  1
  Co  Co32  1  0.41858900  0.50000000  0.75017700  1
  Co  Co33  1  0.91626200  0.50000000  0.25068600  1
  Co  Co34  1  0.16599200  0.91657100  0.25173000  1
  Co  Co35  1  0.66527100  0.75002300  0.24982500  1
  Co  Co36  1  0.16685000  0.75024900  0.74994700  1
  Co  Co37  1  0.66599200  0.58342900  0.25173000  1
  Co  Co38  1  0.66745400  0.91636000  0.74895700  1
  Co  Co39  1  0.16745400  0.58364000  0.74895700  1
  Co  Co40  1  0.16589850  0.66738050  0.99923600  1
  Co  Co41  1  0.66619400  0.66697500  0.50028300  1
  Co  Co42  1  0.91722200  0.66729500  0.74931400  1
  Co  Co43  1  0.41552600  0.66717900  0.25032500  1
  Co  Co44  1  0.16865400  0.91681100  0.75100300  1
  Co  Co45  1  0.66865400  0.58318900  0.75100300  1
  Co  Co46  1  0.66685000  0.74975100  0.74994700  1
  Co  Co47  1  0.41722200  0.83270500  0.74931400  1
  Co  Co48  1  0.66589850  0.83261950  0.99923600  1
  Co  Co49  1  0.66799700  0.50000000  0.00169900  1
  Cu  Cu50  1  0.97919200  0.00000000  0.43957700  1
  Cu  Cu51  1  0.35257550  0.16614550  0.06229600  1
  Cu  Cu52  1  0.47875750  0.16603450  0.43707500  1
  Cu  Cu53  1  0.35477850  0.33352450  0.56172800  1
  Cu  Cu54  1  0.85257550  0.33385450  0.06229600  1
  Cu  Cu55  1  0.35532100  0.00000000  0.56413300  1
  Cu  Cu56  1  0.97875750  0.33396550  0.43707500  1
  Cu  Cu57  1  0.47940650  0.33360350  0.93775600  1
  Cu  Cu58  1  0.48051100  0.00000000  0.93479500  1
  Cu  Cu59  1  0.85477850  0.16647550  0.56172800  1
  Cu  Cu60  1  0.97940650  0.16639650  0.93775600  1
  Cu  Cu61  1  0.47919200  0.50000000  0.43957700  1
  Cu  Cu62  1  0.85257550  0.66614550  0.06229600  1
  Cu  Cu63  1  0.97875750  0.66603450  0.43707500  1
  Cu  Cu64  1  0.85477850  0.83352450  0.56172800  1
  Cu  Cu65  1  0.35257550  0.83385450  0.06229600  1
  Cu  Cu66  1  0.85532100  0.50000000  0.56413300  1
  Cu  Cu67  1  0.47875750  0.83396550  0.43707500  1
  Cu  Cu68  1  0.97940650  0.83360350  0.93775600  1
  Cu  Cu69  1  0.98051100  0.50000000  0.93479500  1
  Cu  Cu70  1  0.35477850  0.66647550  0.56172800  1
  Cu  Cu71  1  0.47940650  0.66639650  0.93775600  1
  O  O72  1  0.54675800  0.40659700  0.36987400  1
  O  O73  1  0.28423950  0.40654650  0.13070300  1
  O  O74  1  0.78423950  0.09345350  0.13070300  1
  O  O75  1  0.78260050  0.16653850  0.35338500  1
  O  O76  1  0.56134900  0.16663900  0.13130900  1
  O  O77  1  0.54822500  0.33339200  0.14639900  1
  O  O78  1  0.77088100  0.00000000  0.36545500  1
  O  O79  1  0.54751800  0.00000000  0.14429600  1
  O  O80  1  0.04852700  0.42644200  0.36768100  1
  O  O81  1  0.54746600  0.25935200  0.36874700  1
  O  O82  1  0.55074400  0.42616500  0.86946200  1
  O  O83  1  0.54852700  0.07355800  0.36768100  1
  O  O84  1  0.28365700  0.25915300  0.13151400  1
  O  O85  1  0.78413200  0.42599100  0.13388300  1
  O  O86  1  0.78693050  0.07363550  0.63177100  1
  O  O87  1  0.28693050  0.42636450  0.63177100  1
  O  O88  1  0.28413200  0.07400900  0.13388300  1
  O  O89  1  0.06266900  0.00000000  0.13372500  1
  O  O90  1  0.06134900  0.33336100  0.13130900  1
  O  O91  1  0.56326900  0.33388000  0.63347000  1
  O  O92  1  0.28260050  0.33346150  0.35338500  1
  O  O93  1  0.56392000  0.00000000  0.63256600  1
  O  O94  1  0.28310200  0.00000000  0.35570700  1
  O  O95  1  0.78481800  0.00000000  0.85314600  1
  O  O96  1  0.77082100  0.16727800  0.86698100  1
  O  O97  1  0.54985750  0.16715450  0.64558800  1
  O  O98  1  0.26971750  0.16695750  0.36781700  1
  O  O99  1  0.04822500  0.16660800  0.14639900  1
  O  O100  1  0.54814150  0.24109850  0.86768800  1
  O  O101  1  0.04746600  0.24064800  0.36874700  1
  O  O102  1  0.54854000  0.09333200  0.86686800  1
  O  O103  1  0.04675800  0.09340300  0.36987400  1
  O  O104  1  0.04854000  0.40666800  0.86686800  1
  O  O105  1  0.28597750  0.09337850  0.63141300  1
  O  O106  1  0.78597750  0.40662150  0.63141300  1
  O  O107  1  0.28485950  0.24089250  0.63133400  1
  O  O108  1  0.78365700  0.24084700  0.13151400  1
  O  O109  1  0.06326900  0.16612000  0.63347000  1
  O  O110  1  0.28530950  0.16685550  0.85392300  1
  O  O111  1  0.76971750  0.33304250  0.36781700  1
  O  O112  1  0.27082100  0.33272200  0.86698100  1
  O  O113  1  0.04985750  0.33284550  0.64558800  1
  O  O114  1  0.27274800  0.00000000  0.86907800  1
  O  O115  1  0.05213800  0.00000000  0.64736200  1
  O  O116  1  0.04814150  0.25890150  0.86768800  1
  O  O117  1  0.05074400  0.07383500  0.86946200  1
  O  O118  1  0.78485950  0.25910750  0.63133400  1
  O  O119  1  0.78530950  0.33314450  0.85392300  1
  O  O120  1  0.04675800  0.90659700  0.36987400  1
  O  O121  1  0.78423950  0.90654650  0.13070300  1
  O  O122  1  0.28423950  0.59345350  0.13070300  1
  O  O123  1  0.28260050  0.66653850  0.35338500  1
  O  O124  1  0.06134900  0.66663900  0.13130900  1
  O  O125  1  0.04822500  0.83339200  0.14639900  1
  O  O126  1  0.27088100  0.50000000  0.36545500  1
  O  O127  1  0.04751800  0.50000000  0.14429600  1
  O  O128  1  0.54852700  0.92644200  0.36768100  1
  O  O129  1  0.04746600  0.75935200  0.36874700  1
  O  O130  1  0.05074400  0.92616500  0.86946200  1
  O  O131  1  0.04852700  0.57355800  0.36768100  1
  O  O132  1  0.78365700  0.75915300  0.13151400  1
  O  O133  1  0.28413200  0.92599100  0.13388300  1
  O  O134  1  0.28693050  0.57363550  0.63177100  1
  O  O135  1  0.78693050  0.92636450  0.63177100  1
  O  O136  1  0.78413200  0.57400900  0.13388300  1
  O  O137  1  0.56266900  0.50000000  0.13372500  1
  O  O138  1  0.56134900  0.83336100  0.13130900  1
  O  O139  1  0.06326900  0.83388000  0.63347000  1
  O  O140  1  0.78260050  0.83346150  0.35338500  1
  O  O141  1  0.06392000  0.50000000  0.63256600  1
  O  O142  1  0.78310200  0.50000000  0.35570700  1
  O  O143  1  0.28481800  0.50000000  0.85314600  1
  O  O144  1  0.27082100  0.66727800  0.86698100  1
  O  O145  1  0.04985750  0.66715450  0.64558800  1
  O  O146  1  0.76971750  0.66695750  0.36781700  1
  O  O147  1  0.54822500  0.66660800  0.14639900  1
  O  O148  1  0.04814150  0.74109850  0.86768800  1
  O  O149  1  0.54746600  0.74064800  0.36874700  1
  O  O150  1  0.04854000  0.59333200  0.86686800  1
  O  O151  1  0.54675800  0.59340300  0.36987400  1
  O  O152  1  0.54854000  0.90666800  0.86686800  1
  O  O153  1  0.78597750  0.59337850  0.63141300  1
  O  O154  1  0.28597750  0.90662150  0.63141300  1
  O  O155  1  0.78485950  0.74089250  0.63133400  1
  O  O156  1  0.28365700  0.74084700  0.13151400  1
  O  O157  1  0.56326900  0.66612000  0.63347000  1
  O  O158  1  0.78530950  0.66685550  0.85392300  1
  O  O159  1  0.26971750  0.83304250  0.36781700  1
  O  O160  1  0.77082100  0.83272200  0.86698100  1
  O  O161  1  0.54985750  0.83284550  0.64558800  1
  O  O162  1  0.77274800  0.50000000  0.86907800  1
  O  O163  1  0.55213800  0.50000000  0.64736200  1
  O  O164  1  0.54814150  0.75890150  0.86768800  1
  O  O165  1  0.55074400  0.57383500  0.86946200  1
  O  O166  1  0.28485950  0.75910750  0.63133400  1
  O  O167  1  0.28530950  0.83314450  0.85392300  1
