# generated using pymatgen
data_LiMn(SiO3)2
_symmetry_space_group_name_H-M   'P 1'
_cell_length_a   10.04095202
_cell_length_b   8.89584641
_cell_length_c   5.32450271
_cell_angle_alpha   90.00000000
_cell_angle_beta   112.57840409
_cell_angle_gamma   90.00000000
_symmetry_Int_Tables_number   1
_chemical_formula_structural   LiMn(SiO3)2
_chemical_formula_sum   'Li4 Mn4 Si8 O24'
_cell_volume   439.14700555
_cell_formula_units_Z   4
loop_
 _symmetry_equiv_pos_site_id
 _symmetry_equiv_pos_as_xyz
  1  'x, y, z'
loop_
 _atom_site_type_symbol
 _atom_site_label
 _atom_site_symmetry_multiplicity
 _atom_site_fract_x
 _atom_site_fract_y
 _atom_site_fract_z
 _atom_site_occupancy
  Li  Li0  1  0.00000000  0.74623600  0.75000000  1
  Li  Li1  1  0.00000000  0.25376400  0.25000000  1
  Li  Li2  1  0.50000000  0.24623600  0.75000000  1
  Li  Li3  1  0.50000000  0.75376400  0.25000000  1
  Mn  Mn4  1  0.00000000  0.89538200  0.25000000  1
  Mn  Mn5  1  0.00000000  0.10461800  0.75000000  1
  Mn  Mn6  1  0.50000000  0.39538200  0.25000000  1
  Mn  Mn7  1  0.50000000  0.60461800  0.75000000  1
  Si  Si8  1  0.20530050  0.59167850  0.23692000  1
  Si  Si9  1  0.20530050  0.40832150  0.73692000  1
  Si  Si10  1  0.79469950  0.59167850  0.26308000  1
  Si  Si11  1  0.79469950  0.40832150  0.76308000  1
  Si  Si12  1  0.70530050  0.09167850  0.23692000  1
  Si  Si13  1  0.70530050  0.90832150  0.73692000  1
  Si  Si14  1  0.29469950  0.09167850  0.26308000  1
  Si  Si15  1  0.29469950  0.90832150  0.76308000  1
  O  O16  1  0.38542750  0.59064350  0.36321000  1
  O  O17  1  0.13205400  0.75531900  0.16300800  1
  O  O18  1  0.38542750  0.40935650  0.86321000  1
  O  O19  1  0.15118750  0.50078050  0.44795500  1
  O  O20  1  0.86794600  0.75531900  0.33699200  1
  O  O21  1  0.15118750  0.49921950  0.94795500  1
  O  O22  1  0.84881250  0.50078050  0.05204500  1
  O  O23  1  0.13205400  0.24468100  0.66300800  1
  O  O24  1  0.84881250  0.49921950  0.55204500  1
  O  O25  1  0.61457250  0.59064350  0.13679000  1
  O  O26  1  0.86794600  0.24468100  0.83699200  1
  O  O27  1  0.61457250  0.40935650  0.63679000  1
  O  O28  1  0.88542750  0.09064350  0.36321000  1
  O  O29  1  0.63205400  0.25531900  0.16300800  1
  O  O30  1  0.88542750  0.90935650  0.86321000  1
  O  O31  1  0.65118750  0.00078050  0.44795500  1
  O  O32  1  0.36794600  0.25531900  0.33699200  1
  O  O33  1  0.65118750  0.99921950  0.94795500  1
  O  O34  1  0.34881250  0.00078050  0.05204500  1
  O  O35  1  0.63205400  0.74468100  0.66300800  1
  O  O36  1  0.34881250  0.99921950  0.55204500  1
  O  O37  1  0.11457250  0.09064350  0.13679000  1
  O  O38  1  0.36794600  0.74468100  0.83699200  1
  O  O39  1  0.11457250  0.90935650  0.63679000  1
