# generated using pymatgen
data_Li2AlFeO4
_symmetry_space_group_name_H-M   'P 1'
_cell_length_a   7.53100100
_cell_length_b   7.60823700
_cell_length_c   6.39983300
_cell_angle_alpha   90.00000000
_cell_angle_beta   90.00000000
_cell_angle_gamma   90.00000000
_symmetry_Int_Tables_number   1
_chemical_formula_structural   Li2AlFeO4
_chemical_formula_sum   'Li8 Al4 Fe4 O16'
_cell_volume   366.69533021
_cell_formula_units_Z   4
loop_
 _symmetry_equiv_pos_site_id
 _symmetry_equiv_pos_as_xyz
  1  'x, y, z'
loop_
 _atom_site_type_symbol
 _atom_site_label
 _atom_site_symmetry_multiplicity
 _atom_site_fract_x
 _atom_site_fract_y
 _atom_site_fract_z
 _atom_site_occupancy
  Li  Li0  1  0.81638300  0.50000000  0.50000000  1
  Li  Li1  1  0.18361700  0.50000000  0.00000000  1
  Li  Li2  1  0.00000000  0.18545400  0.75000000  1
  Li  Li3  1  0.00000000  0.81454600  0.25000000  1
  Li  Li4  1  0.31638300  0.00000000  0.50000000  1
  Li  Li5  1  0.68361700  0.00000000  0.00000000  1
  Li  Li6  1  0.50000000  0.68545400  0.75000000  1
  Li  Li7  1  0.50000000  0.31454600  0.25000000  1
  Al  Al8  1  0.82587500  0.50000000  0.00000000  1
  Al  Al9  1  0.17412500  0.50000000  0.50000000  1
  Al  Al10  1  0.32587500  0.00000000  0.00000000  1
  Al  Al11  1  0.67412500  0.00000000  0.50000000  1
  Fe  Fe12  1  0.00000000  0.82488250  0.75000000  1
  Fe  Fe13  1  0.00000000  0.17511750  0.25000000  1
  Fe  Fe14  1  0.50000000  0.32488250  0.75000000  1
  Fe  Fe15  1  0.50000000  0.67511750  0.25000000  1
  O  O16  1  0.69089150  0.50996550  0.22748400  1
  O  O17  1  0.69089150  0.49003450  0.77251600  1
  O  O18  1  0.30910850  0.49003450  0.72748400  1
  O  O19  1  0.30910850  0.50996550  0.27251600  1
  O  O20  1  0.97672150  0.31886250  0.01057000  1
  O  O21  1  0.97672150  0.68113750  0.98943000  1
  O  O22  1  0.02327850  0.31886250  0.48943000  1
  O  O23  1  0.02327850  0.68113750  0.51057000  1
  O  O24  1  0.19089150  0.00996550  0.22748400  1
  O  O25  1  0.19089150  0.99003450  0.77251600  1
  O  O26  1  0.80910850  0.99003450  0.72748400  1
  O  O27  1  0.80910850  0.00996550  0.27251600  1
  O  O28  1  0.47672150  0.81886250  0.01057000  1
  O  O29  1  0.47672150  0.18113750  0.98943000  1
  O  O30  1  0.52327850  0.81886250  0.48943000  1
  O  O31  1  0.52327850  0.18113750  0.51057000  1
