# generated using pymatgen
data_LiCuF4
_symmetry_space_group_name_H-M   'P 1'
_cell_length_a   3.76505902
_cell_length_b   14.91970264
_cell_length_c   5.12850755
_cell_angle_alpha   90.00000000
_cell_angle_beta   90.00000000
_cell_angle_gamma   90.00000000
_symmetry_Int_Tables_number   1
_chemical_formula_structural   LiCuF4
_chemical_formula_sum   'Li4 Cu4 F16'
_cell_volume   288.08653173
_cell_formula_units_Z   4
loop_
 _symmetry_equiv_pos_site_id
 _symmetry_equiv_pos_as_xyz
  1  'x, y, z'
loop_
 _atom_site_type_symbol
 _atom_site_label
 _atom_site_symmetry_multiplicity
 _atom_site_fract_x
 _atom_site_fract_y
 _atom_site_fract_z
 _atom_site_occupancy
  Li  Li0  1  0.00000000  0.81095700  0.03943400  1
  Li  Li1  1  0.50000000  0.68904300  0.53943400  1
  Li  Li2  1  0.50000000  0.31095700  0.03943400  1
  Li  Li3  1  0.00000000  0.18904300  0.53943400  1
  Cu  Cu4  1  0.00000000  0.59068350  0.02974600  1
  Cu  Cu5  1  0.50000000  0.90931650  0.52974600  1
  Cu  Cu6  1  0.50000000  0.09068350  0.02974600  1
  Cu  Cu7  1  0.00000000  0.40931650  0.52974600  1
  F  F8  1  0.00000000  0.65798450  0.71894700  1
  F  F9  1  0.00000000  0.52258600  0.34352700  1
  F  F10  1  0.00000000  0.90719500  0.53135100  1
  F  F11  1  0.00000000  0.69842100  0.22967800  1
  F  F12  1  0.50000000  0.97741400  0.84352700  1
  F  F13  1  0.50000000  0.59280500  0.03135100  1
  F  F14  1  0.50000000  0.80157900  0.72967800  1
  F  F15  1  0.50000000  0.84201550  0.21894700  1
  F  F16  1  0.50000000  0.15798450  0.71894700  1
  F  F17  1  0.50000000  0.02258600  0.34352700  1
  F  F18  1  0.50000000  0.40719500  0.53135100  1
  F  F19  1  0.50000000  0.19842100  0.22967800  1
  F  F20  1  0.00000000  0.47741400  0.84352700  1
  F  F21  1  0.00000000  0.09280500  0.03135100  1
  F  F22  1  0.00000000  0.30157900  0.72967800  1
  F  F23  1  0.00000000  0.34201550  0.21894700  1
