# generated using pymatgen
data_LiNiBO3
_symmetry_space_group_name_H-M   'P 1'
_cell_length_a   8.07603724
_cell_length_b   8.07603724
_cell_length_c   3.06196350
_cell_angle_alpha   90.00000000
_cell_angle_beta   90.00000000
_cell_angle_gamma   120.00000000
_symmetry_Int_Tables_number   1
_chemical_formula_structural   LiNiBO3
_chemical_formula_sum   'Li3 Ni3 B3 O9'
_cell_volume   172.95266850
_cell_formula_units_Z   3
loop_
 _symmetry_equiv_pos_site_id
 _symmetry_equiv_pos_as_xyz
  1  'x, y, z'
loop_
 _atom_site_type_symbol
 _atom_site_label
 _atom_site_symmetry_multiplicity
 _atom_site_fract_x
 _atom_site_fract_y
 _atom_site_fract_z
 _atom_site_occupancy
  Li  Li0  1  0.05888267  0.36747733  0.00000000  1
  Li  Li1  1  0.30859467  0.94111733  0.00000000  1
  Li  Li2  1  0.63252267  0.69140533  0.00000000  1
  Ni  Ni3  1  0.69838967  0.04741483  0.50000000  1
  Ni  Ni4  1  0.34902517  0.30161033  0.50000000  1
  Ni  Ni5  1  0.95258517  0.65097483  0.50000000  1
  B  B6  1  0.00000000  0.00000000  0.00000000  1
  B  B7  1  0.33333333  0.66666667  0.50000000  1
  B  B8  1  0.66666667  0.33333333  0.00000000  1
  O  O9  1  0.23197867  0.46809683  0.50000000  1
  O  O10  1  0.23611817  0.76802133  0.50000000  1
  O  O11  1  0.53190317  0.76388183  0.50000000  1
  O  O12  1  0.19705767  0.11545783  0.00000000  1
  O  O13  1  0.88454217  0.08159983  0.00000000  1
  O  O14  1  0.91840017  0.80294233  0.00000000  1
  O  O15  1  0.86515167  0.44705883  0.00000000  1
  O  O16  1  0.55294117  0.41809283  0.00000000  1
  O  O17  1  0.58190717  0.13484833  0.00000000  1
