# generated using pymatgen
data_Ce4YO9
_symmetry_space_group_name_H-M   'P 1'
_cell_length_a   3.82150800
_cell_length_b   5.52485600
_cell_length_c   19.55536000
_cell_angle_alpha   90.00000000
_cell_angle_beta   90.00000000
_cell_angle_gamma   90.00000000
_symmetry_Int_Tables_number   1
_chemical_formula_structural   Ce4YO9
_chemical_formula_sum   'Ce8 Y2 O18'
_cell_volume   412.87781861
_cell_formula_units_Z   2
loop_
 _symmetry_equiv_pos_site_id
 _symmetry_equiv_pos_as_xyz
  1  'x, y, z'
loop_
 _atom_site_type_symbol
 _atom_site_label
 _atom_site_symmetry_multiplicity
 _atom_site_fract_x
 _atom_site_fract_y
 _atom_site_fract_z
 _atom_site_occupancy
  Ce  Ce0  1  0.50000000  0.49630400  0.30138800  1
  Ce  Ce1  1  0.50000000  0.48890700  0.10574100  1
  Ce  Ce2  1  0.00000000  0.98890700  0.39425900  1
  Ce  Ce3  1  0.00000000  0.99630400  0.19861200  1
  Ce  Ce4  1  0.00000000  0.99630400  0.80138800  1
  Ce  Ce5  1  0.00000000  0.98890700  0.60574100  1
  Ce  Ce6  1  0.50000000  0.48890700  0.89425900  1
  Ce  Ce7  1  0.50000000  0.49630400  0.69861200  1
  Y  Y8  1  0.00000000  0.04879400  0.00000000  1
  Y  Y9  1  0.50000000  0.54879400  0.50000000  1
  O  O10  1  0.50000000  0.74291200  0.19651600  1
  O  O11  1  0.00000000  0.74773600  0.08274400  1
  O  O12  1  0.50000000  0.24773600  0.41725600  1
  O  O13  1  0.50000000  0.24410300  0.20228300  1
  O  O14  1  0.00000000  0.24291200  0.30348400  1
  O  O15  1  0.00000000  0.25241600  0.10457600  1
  O  O16  1  0.50000000  0.25644700  0.00000000  1
  O  O17  1  0.00000000  0.74410300  0.29771700  1
  O  O18  1  0.50000000  0.75241600  0.39542400  1
  O  O19  1  0.00000000  0.24291200  0.69651600  1
  O  O20  1  0.50000000  0.24773600  0.58274400  1
  O  O21  1  0.00000000  0.74773600  0.91725600  1
  O  O22  1  0.00000000  0.74410300  0.70228300  1
  O  O23  1  0.50000000  0.74291200  0.80348400  1
  O  O24  1  0.50000000  0.75241600  0.60457600  1
  O  O25  1  0.00000000  0.75644700  0.50000000  1
  O  O26  1  0.50000000  0.24410300  0.79771700  1
  O  O27  1  0.00000000  0.25241600  0.89542400  1
