# generated using pymatgen
data_Ni2(SO4)3
_symmetry_space_group_name_H-M   'P 1'
_cell_length_a   8.30790382
_cell_length_b   8.30790382
_cell_length_c   22.62016678
_cell_angle_alpha   90.00000000
_cell_angle_beta   90.00000000
_cell_angle_gamma   120.00000000
_symmetry_Int_Tables_number   1
_chemical_formula_structural   Ni2(SO4)3
_chemical_formula_sum   'Ni12 S18 O72'
_cell_volume   1352.10168808
_cell_formula_units_Z   6
loop_
 _symmetry_equiv_pos_site_id
 _symmetry_equiv_pos_as_xyz
  1  'x, y, z'
loop_
 _atom_site_type_symbol
 _atom_site_label
 _atom_site_symmetry_multiplicity
 _atom_site_fract_x
 _atom_site_fract_y
 _atom_site_fract_z
 _atom_site_occupancy
  Ni  Ni0  1  0.00000000  0.00000000  0.14305400  1
  Ni  Ni1  1  0.33333333  0.66666667  0.01421667  1
  Ni  Ni2  1  0.33333333  0.66666667  0.31911667  1
  Ni  Ni3  1  0.66666667  0.33333333  0.19027933  1
  Ni  Ni4  1  0.66666667  0.33333333  0.47638733  1
  Ni  Ni5  1  0.00000000  0.00000000  0.34755000  1
  Ni  Ni6  1  0.00000000  0.00000000  0.65245000  1
  Ni  Ni7  1  0.33333333  0.66666667  0.52361267  1
  Ni  Ni8  1  0.33333333  0.66666667  0.80972067  1
  Ni  Ni9  1  0.66666667  0.33333333  0.68088333  1
  Ni  Ni10  1  0.66666667  0.33333333  0.98578333  1
  Ni  Ni11  1  0.00000000  0.00000000  0.85694600  1
  S  S12  1  0.96036633  0.33664867  0.08261267  1
  S  S13  1  0.29038433  0.29369967  0.25072067  1
  S  S14  1  0.00331533  0.70961567  0.25072067  1
  S  S15  1  0.66335133  0.62371767  0.08261267  1
  S  S16  1  0.37628233  0.03963367  0.08261267  1
  S  S17  1  0.70630033  0.99668467  0.25072067  1
  S  S18  1  0.62703300  0.66998200  0.41594600  1
  S  S19  1  0.95705100  0.62703300  0.58405400  1
  S  S20  1  0.66998200  0.04294900  0.58405400  1
  S  S21  1  0.33001800  0.95705100  0.41594600  1
  S  S22  1  0.04294900  0.37296700  0.41594600  1
  S  S23  1  0.37296700  0.33001800  0.58405400  1
  S  S24  1  0.29369967  0.00331533  0.74927933  1
  S  S25  1  0.62371767  0.96036633  0.91738733  1
  S  S26  1  0.33664867  0.37628233  0.91738733  1
  S  S27  1  0.99668467  0.29038433  0.74927933  1
  S  S28  1  0.70961567  0.70630033  0.74927933  1
  S  S29  1  0.03963367  0.66335133  0.91738733  1
  O  O30  1  0.91799700  0.77005000  0.29771500  1
  O  O31  1  0.85205300  0.08200300  0.29771500  1
  O  O32  1  0.87829800  0.34381800  0.13936800  1
  O  O33  1  0.04398633  0.21613767  0.08721467  1
  O  O34  1  0.22995000  0.14794700  0.29771500  1
  O  O35  1  0.88280433  0.50548467  0.24611867  1
  O  O36  1  0.20114667  0.21163133  0.19396533  1
  O  O37  1  0.10291433  0.52865067  0.06654467  1
  O  O38  1  0.24093033  0.43624767  0.26678867  1
  O  O39  1  0.01048467  0.79885333  0.19396533  1
  O  O40  1  0.49451533  0.37731967  0.24611867  1
  O  O41  1  0.19531733  0.75906967  0.26678867  1
  O  O42  1  0.47134933  0.57426367  0.06654467  1
  O  O43  1  0.17215133  0.95601367  0.08721467  1
  O  O44  1  0.65618200  0.53448000  0.13936800  1
  O  O45  1  0.42573633  0.89708567  0.06654467  1
  O  O46  1  0.56375233  0.80468267  0.26678867  1
  O  O47  1  0.46552000  0.12170200  0.13936800  1
  O  O48  1  0.78386233  0.82784867  0.08721467  1
  O  O49  1  0.43671667  0.18538633  0.03561833  1
  O  O50  1  0.62268033  0.11719567  0.24611867  1
  O  O51  1  0.78836867  0.98951533  0.19396533  1
  O  O52  1  0.81461367  0.25133033  0.03561833  1
  O  O53  1  0.74866967  0.56328333  0.03561833  1
  O  O54  1  0.58466367  0.10338333  0.63104833  1
  O  O55  1  0.51871967  0.41533633  0.63104833  1
  O  O56  1  0.54496467  0.67715133  0.47270133  1
  O  O57  1  0.71065300  0.54947100  0.42054800  1
  O  O58  1  0.89661667  0.48128033  0.63104833  1
  O  O59  1  0.54947100  0.83881800  0.57945200  1
  O  O60  1  0.86781333  0.54496467  0.52729867  1
  O  O61  1  0.76958100  0.86198400  0.39987800  1
  O  O62  1  0.90759700  0.76958100  0.60012200  1
  O  O63  1  0.67715133  0.13218667  0.52729867  1
  O  O64  1  0.16118200  0.71065300  0.57945200  1
  O  O65  1  0.86198400  0.09240300  0.60012200  1
  O  O66  1  0.13801600  0.90759700  0.39987800  1
  O  O67  1  0.83881800  0.28934700  0.42054800  1
  O  O68  1  0.32284867  0.86781333  0.47270133  1
  O  O69  1  0.09240300  0.23041900  0.39987800  1
  O  O70  1  0.23041900  0.13801600  0.60012200  1
  O  O71  1  0.13218667  0.45503533  0.47270133  1
  O  O72  1  0.45052900  0.16118200  0.42054800  1
  O  O73  1  0.10338333  0.51871967  0.36895167  1
  O  O74  1  0.28934700  0.45052900  0.57945200  1
  O  O75  1  0.45503533  0.32284867  0.52729867  1
  O  O76  1  0.48128033  0.58466367  0.36895167  1
  O  O77  1  0.41533633  0.89661667  0.36895167  1
  O  O78  1  0.25133033  0.43671667  0.96438167  1
  O  O79  1  0.18538633  0.74866967  0.96438167  1
  O  O80  1  0.21163133  0.01048467  0.80603467  1
  O  O81  1  0.37731967  0.88280433  0.75388133  1
  O  O82  1  0.56328333  0.81461367  0.96438167  1
  O  O83  1  0.21613767  0.17215133  0.91278533  1
  O  O84  1  0.53448000  0.87829800  0.86063200  1
  O  O85  1  0.43624767  0.19531733  0.73321133  1
  O  O86  1  0.57426367  0.10291433  0.93345533  1
  O  O87  1  0.34381800  0.46552000  0.86063200  1
  O  O88  1  0.82784867  0.04398633  0.91278533  1
  O  O89  1  0.52865067  0.42573633  0.93345533  1
  O  O90  1  0.80468267  0.24093033  0.73321133  1
  O  O91  1  0.50548467  0.62268033  0.75388133  1
  O  O92  1  0.98951533  0.20114667  0.80603467  1
  O  O93  1  0.75906967  0.56375233  0.73321133  1
  O  O94  1  0.89708567  0.47134933  0.93345533  1
  O  O95  1  0.79885333  0.78836867  0.80603467  1
  O  O96  1  0.11719567  0.49451533  0.75388133  1
  O  O97  1  0.77005000  0.85205300  0.70228500  1
  O  O98  1  0.95601367  0.78386233  0.91278533  1
  O  O99  1  0.12170200  0.65618200  0.86063200  1
  O  O100  1  0.14794700  0.91799700  0.70228500  1
  O  O101  1  0.08200300  0.22995000  0.70228500  1
