# generated using pymatgen
data_Li4Mn7O9F7
_symmetry_space_group_name_H-M   'P 1'
_cell_length_a   10.65541400
_cell_length_b   5.86009600
_cell_length_c   10.85093014
_cell_angle_alpha   90.00000000
_cell_angle_beta   111.10212120
_cell_angle_gamma   90.00000000
_symmetry_Int_Tables_number   1
_chemical_formula_structural   Li4Mn7O9F7
_chemical_formula_sum   'Li8 Mn14 O18 F14'
_cell_volume   632.11462155
_cell_formula_units_Z   2
loop_
 _symmetry_equiv_pos_site_id
 _symmetry_equiv_pos_as_xyz
  1  'x, y, z'
loop_
 _atom_site_type_symbol
 _atom_site_label
 _atom_site_symmetry_multiplicity
 _atom_site_fract_x
 _atom_site_fract_y
 _atom_site_fract_z
 _atom_site_occupancy
  Li  Li0  1  0.50760400  0.50000000  0.98922800  1
  Li  Li1  1  0.60874900  0.00000000  0.87552000  1
  Li  Li2  1  0.62357100  0.50000000  0.38702600  1
  Li  Li3  1  0.51238600  0.00000000  0.49198000  1
  Li  Li4  1  0.00760400  0.00000000  0.98922800  1
  Li  Li5  1  0.10874900  0.50000000  0.87552000  1
  Li  Li6  1  0.12357100  0.00000000  0.38702600  1
  Li  Li7  1  0.01238600  0.50000000  0.49198000  1
  Mn  Mn8  1  0.78993500  0.50000000  0.92639200  1
  Mn  Mn9  1  0.82013050  0.23970750  0.69317800  1
  Mn  Mn10  1  0.82013050  0.76029250  0.69317800  1
  Mn  Mn11  1  0.30905550  0.75422750  0.19562200  1
  Mn  Mn12  1  0.56624100  0.00000000  0.19518700  1
  Mn  Mn13  1  0.30894300  0.50000000  0.43410900  1
  Mn  Mn14  1  0.30905550  0.24577250  0.19562200  1
  Mn  Mn15  1  0.28993500  0.00000000  0.92639200  1
  Mn  Mn16  1  0.32013050  0.73970750  0.69317800  1
  Mn  Mn17  1  0.32013050  0.26029250  0.69317800  1
  Mn  Mn18  1  0.80905550  0.25422750  0.19562200  1
  Mn  Mn19  1  0.06624100  0.50000000  0.19518700  1
  Mn  Mn20  1  0.80894300  0.00000000  0.43410900  1
  Mn  Mn21  1  0.80905550  0.74577250  0.19562200  1
  O  O22  1  0.43700100  0.00000000  0.28341400  1
  O  O23  1  0.72348200  0.00000000  0.56610600  1
  O  O24  1  0.40836900  0.00000000  0.80428600  1
  O  O25  1  0.21325400  0.00000000  0.08002900  1
  O  O26  1  0.41803800  0.50000000  0.79636200  1
  O  O27  1  0.19352800  0.72073100  0.32629800  1
  O  O28  1  0.19352800  0.27926900  0.32629800  1
  O  O29  1  0.40916100  0.50000000  0.31100100  1
  O  O30  1  0.18777600  0.50000000  0.09790100  1
  O  O31  1  0.93700100  0.50000000  0.28341400  1
  O  O32  1  0.22348200  0.50000000  0.56610600  1
  O  O33  1  0.90836900  0.50000000  0.80428600  1
  O  O34  1  0.71325400  0.50000000  0.08002900  1
  O  O35  1  0.91803800  0.00000000  0.79636200  1
  O  O36  1  0.69352800  0.22073100  0.32629800  1
  O  O37  1  0.69352800  0.77926900  0.32629800  1
  O  O38  1  0.90916100  0.00000000  0.31100100  1
  O  O39  1  0.68777600  0.00000000  0.09790100  1
  F  F40  1  0.42768250  0.73650550  0.54072800  1
  F  F41  1  0.68471150  0.76273750  0.81000800  1
  F  F42  1  0.71223600  0.50000000  0.57797000  1
  F  F43  1  0.43925000  0.25040500  0.06428200  1
  F  F44  1  0.42768250  0.26349450  0.54072800  1
  F  F45  1  0.43925000  0.74959500  0.06428200  1
  F  F46  1  0.68471150  0.23726250  0.81000800  1
  F  F47  1  0.92768250  0.23650550  0.54072800  1
  F  F48  1  0.18471150  0.26273750  0.81000800  1
  F  F49  1  0.21223600  0.00000000  0.57797000  1
  F  F50  1  0.93925000  0.75040500  0.06428200  1
  F  F51  1  0.92768250  0.76349450  0.54072800  1
  F  F52  1  0.93925000  0.24959500  0.06428200  1
  F  F53  1  0.18471150  0.73726250  0.81000800  1
