# generated using pymatgen
data_K5HfIn(MoO4)6
_symmetry_space_group_name_H-M   'P 1'
_cell_length_a   10.77095212
_cell_length_b   10.77095212
_cell_length_c   38.27294739
_cell_angle_alpha   90.00000000
_cell_angle_beta   90.00000000
_cell_angle_gamma   120.00000000
_symmetry_Int_Tables_number   1
_chemical_formula_structural   K5HfIn(MoO4)6
_chemical_formula_sum   'K30 Hf6 In6 Mo36 O144'
_cell_volume   3845.30445463
_cell_formula_units_Z   6
loop_
 _symmetry_equiv_pos_site_id
 _symmetry_equiv_pos_as_xyz
  1  'x, y, z'
loop_
 _atom_site_type_symbol
 _atom_site_label
 _atom_site_symmetry_multiplicity
 _atom_site_fract_x
 _atom_site_fract_y
 _atom_site_fract_z
 _atom_site_occupancy
  K  K0  1  0.66666667  0.33333333  0.18669433  1
  K  K1  1  0.33333333  0.66666667  0.31330567  1
  K  K2  1  0.38590600  0.00000000  0.25000000  1
  K  K3  1  0.00000000  0.38590600  0.25000000  1
  K  K4  1  0.61409400  0.61409400  0.25000000  1
  K  K5  1  0.05257267  0.71923933  0.08333333  1
  K  K6  1  0.66666667  0.94742733  0.08333333  1
  K  K7  1  0.28076067  0.33333333  0.08333333  1
  K  K8  1  0.33333333  0.66666667  0.02002767  1
  K  K9  1  0.00000000  0.00000000  0.14663900  1
  K  K10  1  0.33333333  0.66666667  0.52002767  1
  K  K11  1  0.00000000  0.00000000  0.64663900  1
  K  K12  1  0.05257267  0.33333333  0.58333333  1
  K  K13  1  0.66666667  0.71923933  0.58333333  1
  K  K14  1  0.28076067  0.94742733  0.58333333  1
  K  K15  1  0.71923933  0.05257267  0.41666667  1
  K  K16  1  0.33333333  0.28076067  0.41666667  1
  K  K17  1  0.94742733  0.66666667  0.41666667  1
  K  K18  1  0.00000000  0.00000000  0.35336100  1
  K  K19  1  0.66666667  0.33333333  0.47997233  1
  K  K20  1  0.00000000  0.00000000  0.85336100  1
  K  K21  1  0.66666667  0.33333333  0.97997233  1
  K  K22  1  0.71923933  0.66666667  0.91666667  1
  K  K23  1  0.33333333  0.05257267  0.91666667  1
  K  K24  1  0.94742733  0.28076067  0.91666667  1
  K  K25  1  0.38590600  0.38590600  0.75000000  1
  K  K26  1  0.00000000  0.61409400  0.75000000  1
  K  K27  1  0.61409400  0.00000000  0.75000000  1
  K  K28  1  0.66666667  0.33333333  0.68669433  1
  K  K29  1  0.33333333  0.66666667  0.81330567  1
  Hf  Hf30  1  0.00000000  0.00000000  0.00000000  1
  Hf  Hf31  1  0.33333333  0.66666667  0.16666667  1
  Hf  Hf32  1  0.66666667  0.33333333  0.33333333  1
  Hf  Hf33  1  0.00000000  0.00000000  0.50000000  1
  Hf  Hf34  1  0.33333333  0.66666667  0.66666667  1
  Hf  Hf35  1  0.66666667  0.33333333  0.83333333  1
  In  In36  1  0.66666667  0.33333333  0.08333333  1
  In  In37  1  0.00000000  0.00000000  0.25000000  1
  In  In38  1  0.33333333  0.66666667  0.41666667  1
  In  In39  1  0.66666667  0.33333333  0.58333333  1
  In  In40  1  0.00000000  0.00000000  0.75000000  1
  In  In41  1  0.33333333  0.66666667  0.91666667  1
  Mo  Mo42  1  0.70546967  0.65107233  0.03235933  1
  Mo  Mo43  1  0.34892767  0.05439733  0.03235933  1
  Mo  Mo44  1  0.94560267  0.29453033  0.03235933  1
  Mo  Mo45  1  0.03880300  0.72106400  0.19902600  1
  Mo  Mo46  1  0.68226100  0.96119700  0.19902600  1
  Mo  Mo47  1  0.38773067  0.01559433  0.13430733  1
  Mo  Mo48  1  0.27893600  0.31773900  0.19902600  1
  Mo  Mo49  1  0.98440567  0.37213633  0.13430733  1
  Mo  Mo50  1  0.62786367  0.61226933  0.13430733  1
  Mo  Mo51  1  0.72106400  0.03880300  0.30097400  1
  Mo  Mo52  1  0.31773900  0.27893600  0.30097400  1
  Mo  Mo53  1  0.96119700  0.68226100  0.30097400  1
  Mo  Mo54  1  0.37213633  0.98440567  0.36569267  1
  Mo  Mo55  1  0.01559433  0.38773067  0.36569267  1
  Mo  Mo56  1  0.61226933  0.62786367  0.36569267  1
  Mo  Mo57  1  0.70546967  0.05439733  0.53235933  1
  Mo  Mo58  1  0.34892767  0.29453033  0.53235933  1
  Mo  Mo59  1  0.05439733  0.34892767  0.46764067  1
  Mo  Mo60  1  0.94560267  0.65107233  0.53235933  1
  Mo  Mo61  1  0.65107233  0.70546967  0.46764067  1
  Mo  Mo62  1  0.29453033  0.94560267  0.46764067  1
  Mo  Mo63  1  0.38773067  0.37213633  0.63430733  1
  Mo  Mo64  1  0.98440567  0.61226933  0.63430733  1
  Mo  Mo65  1  0.62786367  0.01559433  0.63430733  1
  Mo  Mo66  1  0.03880300  0.31773900  0.69902600  1
  Mo  Mo67  1  0.68226100  0.72106400  0.69902600  1
  Mo  Mo68  1  0.27893600  0.96119700  0.69902600  1
  Mo  Mo69  1  0.37213633  0.38773067  0.86569267  1
  Mo  Mo70  1  0.01559433  0.62786367  0.86569267  1
  Mo  Mo71  1  0.72106400  0.68226100  0.80097400  1
  Mo  Mo72  1  0.61226933  0.98440567  0.86569267  1
  Mo  Mo73  1  0.31773900  0.03880300  0.80097400  1
  Mo  Mo74  1  0.96119700  0.27893600  0.80097400  1
  Mo  Mo75  1  0.05439733  0.70546967  0.96764067  1
  Mo  Mo76  1  0.65107233  0.94560267  0.96764067  1
  Mo  Mo77  1  0.29453033  0.34892767  0.96764067  1
  O  O78  1  0.58145400  0.43724500  0.11603600  1
  O  O79  1  0.56275500  0.14420900  0.11603600  1
  O  O80  1  0.85579100  0.41854600  0.11603600  1
  O  O81  1  0.75187933  0.52245767  0.05063067  1
  O  O82  1  0.47754233  0.22942167  0.05063067  1
  O  O83  1  0.77057833  0.24812067  0.05063067  1
  O  O84  1  0.33099100  0.93927200  0.32154100  1
  O  O85  1  0.80375267  0.49906133  0.30027133  1
  O  O86  1  0.06072800  0.39171900  0.32154100  1
  O  O87  1  0.69530867  0.19624733  0.30027133  1
  O  O88  1  0.10894667  0.68629933  0.27972533  1
  O  O89  1  0.60828100  0.66900900  0.32154100  1
  O  O90  1  0.57735267  0.89105333  0.27972533  1
  O  O91  1  0.89105333  0.57735267  0.22027467  1
  O  O92  1  0.31370067  0.42264733  0.27972533  1
  O  O93  1  0.50093867  0.30469133  0.30027133  1
  O  O94  1  0.68629933  0.10894667  0.22027467  1
  O  O95  1  0.19624733  0.69530867  0.19972867  1
  O  O96  1  0.39171900  0.06072800  0.17845900  1
  O  O97  1  0.99765767  0.72505233  0.15487433  1
  O  O98  1  0.49906133  0.80375267  0.19972867  1
  O  O99  1  0.93927200  0.33099100  0.17845900  1
  O  O100  1  0.30469133  0.50093867  0.19972867  1
  O  O101  1  0.42264733  0.31370067  0.22027467  1
  O  O102  1  0.24401933  0.01963267  0.11305867  1
  O  O103  1  0.36197533  0.83239467  0.13360467  1
  O  O104  1  0.72739467  0.00234233  0.15487433  1
  O  O105  1  0.16760533  0.52958067  0.13360467  1
  O  O106  1  0.66900900  0.60828100  0.17845900  1
  O  O107  1  0.27494767  0.27260533  0.15487433  1
  O  O108  1  0.47041933  0.63802467  0.13360467  1
  O  O109  1  0.98036733  0.22438667  0.11305867  1
  O  O110  1  0.16572800  0.02864200  0.03306200  1
  O  O111  1  0.35296600  0.91068600  0.05360800  1
  O  O112  1  0.77561333  0.75598067  0.11305867  1
  O  O113  1  0.08931400  0.44228000  0.05360800  1
  O  O114  1  0.05838567  0.66432433  0.01179233  1
  O  O115  1  0.55772000  0.64703400  0.05360800  1
  O  O116  1  0.97135800  0.13708600  0.03306200  1
  O  O117  1  0.60593867  0.94161433  0.01179233  1
  O  O118  1  0.86291400  0.83427200  0.03306200  1
  O  O119  1  0.33567567  0.39406133  0.01179233  1
  O  O120  1  0.89608833  0.08521267  0.28270267  1
  O  O121  1  0.18912433  0.10391167  0.28270267  1
  O  O122  1  0.91478733  0.81087567  0.28270267  1
  O  O123  1  0.81087567  0.91478733  0.21729733  1
  O  O124  1  0.10391167  0.18912433  0.21729733  1
  O  O125  1  0.08521267  0.89608833  0.21729733  1
  O  O126  1  0.24812067  0.77057833  0.44936933  1
  O  O127  1  0.22942167  0.47754233  0.44936933  1
  O  O128  1  0.52245767  0.75187933  0.44936933  1
  O  O129  1  0.41854600  0.85579100  0.38396400  1
  O  O130  1  0.14420900  0.56275500  0.38396400  1
  O  O131  1  0.43724500  0.58145400  0.38396400  1
  O  O132  1  0.99765767  0.27260533  0.65487433  1
  O  O133  1  0.47041933  0.83239467  0.63360467  1
  O  O134  1  0.72739467  0.72505233  0.65487433  1
  O  O135  1  0.36197533  0.52958067  0.63360467  1
  O  O136  1  0.77561333  0.01963267  0.61305867  1
  O  O137  1  0.27494767  0.00234233  0.65487433  1
  O  O138  1  0.24401933  0.22438667  0.61305867  1
  O  O139  1  0.55772000  0.91068600  0.55360800  1
  O  O140  1  0.98036733  0.75598067  0.61305867  1
  O  O141  1  0.16760533  0.63802467  0.63360467  1
  O  O142  1  0.35296600  0.44228000  0.55360800  1
  O  O143  1  0.86291400  0.02864200  0.53306200  1
  O  O144  1  0.05838567  0.39406133  0.51179233  1
  O  O145  1  0.66432433  0.05838567  0.48820767  1
  O  O146  1  0.16572800  0.13708600  0.53306200  1
  O  O147  1  0.60593867  0.66432433  0.51179233  1
  O  O148  1  0.97135800  0.83427200  0.53306200  1
  O  O149  1  0.08931400  0.64703400  0.55360800  1
  O  O150  1  0.91068600  0.35296600  0.44639200  1
  O  O151  1  0.02864200  0.16572800  0.46693800  1
  O  O152  1  0.39406133  0.33567567  0.48820767  1
  O  O153  1  0.83427200  0.86291400  0.46693800  1
  O  O154  1  0.33567567  0.94161433  0.51179233  1
  O  O155  1  0.94161433  0.60593867  0.48820767  1
  O  O156  1  0.13708600  0.97135800  0.46693800  1
  O  O157  1  0.64703400  0.55772000  0.44639200  1
  O  O158  1  0.83239467  0.36197533  0.36639533  1
  O  O159  1  0.01963267  0.24401933  0.38694133  1
  O  O160  1  0.44228000  0.08931400  0.44639200  1
  O  O161  1  0.75598067  0.77561333  0.38694133  1
  O  O162  1  0.72505233  0.99765767  0.34512567  1
  O  O163  1  0.22438667  0.98036733  0.38694133  1
  O  O164  1  0.63802467  0.47041933  0.36639533  1
  O  O165  1  0.27260533  0.27494767  0.34512567  1
  O  O166  1  0.52958067  0.16760533  0.36639533  1
  O  O167  1  0.00234233  0.72739467  0.34512567  1
  O  O168  1  0.56275500  0.41854600  0.61603600  1
  O  O169  1  0.85579100  0.43724500  0.61603600  1
  O  O170  1  0.58145400  0.14420900  0.61603600  1
  O  O171  1  0.47754233  0.24812067  0.55063067  1
  O  O172  1  0.77057833  0.52245767  0.55063067  1
  O  O173  1  0.75187933  0.22942167  0.55063067  1
  O  O174  1  0.91478733  0.10391167  0.78270267  1
  O  O175  1  0.89608833  0.81087567  0.78270267  1
  O  O176  1  0.18912433  0.08521267  0.78270267  1
  O  O177  1  0.08521267  0.18912433  0.71729733  1
  O  O178  1  0.81087567  0.89608833  0.71729733  1
  O  O179  1  0.10391167  0.91478733  0.71729733  1
  O  O180  1  0.66432433  0.60593867  0.98820767  1
  O  O181  1  0.13708600  0.16572800  0.96693800  1
  O  O182  1  0.39406133  0.05838567  0.98820767  1
  O  O183  1  0.02864200  0.86291400  0.96693800  1
  O  O184  1  0.44228000  0.35296600  0.94639200  1
  O  O185  1  0.94161433  0.33567567  0.98820767  1
  O  O186  1  0.91068600  0.55772000  0.94639200  1
  O  O187  1  0.22438667  0.24401933  0.88694133  1
  O  O188  1  0.64703400  0.08931400  0.94639200  1
  O  O189  1  0.83427200  0.97135800  0.96693800  1
  O  O190  1  0.01963267  0.77561333  0.88694133  1
  O  O191  1  0.52958067  0.36197533  0.86639533  1
  O  O192  1  0.72505233  0.72739467  0.84512567  1
  O  O193  1  0.33099100  0.39171900  0.82154100  1
  O  O194  1  0.83239467  0.47041933  0.86639533  1
  O  O195  1  0.27260533  0.99765767  0.84512567  1
  O  O196  1  0.63802467  0.16760533  0.86639533  1
  O  O197  1  0.75598067  0.98036733  0.88694133  1
  O  O198  1  0.57735267  0.68629933  0.77972533  1
  O  O199  1  0.69530867  0.49906133  0.80027133  1
  O  O200  1  0.06072800  0.66900900  0.82154100  1
  O  O201  1  0.50093867  0.19624733  0.80027133  1
  O  O202  1  0.00234233  0.27494767  0.84512567  1
  O  O203  1  0.60828100  0.93927200  0.82154100  1
  O  O204  1  0.80375267  0.30469133  0.80027133  1
  O  O205  1  0.31370067  0.89105333  0.77972533  1
  O  O206  1  0.49906133  0.69530867  0.69972867  1
  O  O207  1  0.68629933  0.57735267  0.72027467  1
  O  O208  1  0.10894667  0.42264733  0.77972533  1
  O  O209  1  0.42264733  0.10894667  0.72027467  1
  O  O210  1  0.39171900  0.33099100  0.67845900  1
  O  O211  1  0.89105333  0.31370067  0.72027467  1
  O  O212  1  0.30469133  0.80375267  0.69972867  1
  O  O213  1  0.93927200  0.60828100  0.67845900  1
  O  O214  1  0.19624733  0.50093867  0.69972867  1
  O  O215  1  0.66900900  0.06072800  0.67845900  1
  O  O216  1  0.22942167  0.75187933  0.94936933  1
  O  O217  1  0.52245767  0.77057833  0.94936933  1
  O  O218  1  0.24812067  0.47754233  0.94936933  1
  O  O219  1  0.14420900  0.58145400  0.88396400  1
  O  O220  1  0.43724500  0.85579100  0.88396400  1
  O  O221  1  0.41854600  0.56275500  0.88396400  1
