# generated using pymatgen
data_Li3V2CrO6
_symmetry_space_group_name_H-M   'P 1'
_cell_length_a   13.05706425
_cell_length_b   2.97338521
_cell_length_c   5.97695731
_cell_angle_alpha   90.00000000
_cell_angle_beta   103.92725114
_cell_angle_gamma   90.00000000
_symmetry_Int_Tables_number   1
_chemical_formula_structural   Li3V2CrO6
_chemical_formula_sum   'Li6 V4 Cr2 O12'
_cell_volume   225.22578256
_cell_formula_units_Z   2
loop_
 _symmetry_equiv_pos_site_id
 _symmetry_equiv_pos_as_xyz
  1  'x, y, z'
loop_
 _atom_site_type_symbol
 _atom_site_label
 _atom_site_symmetry_multiplicity
 _atom_site_fract_x
 _atom_site_fract_y
 _atom_site_fract_z
 _atom_site_occupancy
  Li  Li0  1  0.00000000  0.00000000  0.00000000  1
  Li  Li1  1  0.16388300  0.50000000  0.33244000  1
  Li  Li2  1  0.83611700  0.50000000  0.66756000  1
  Li  Li3  1  0.50000000  0.50000000  0.00000000  1
  Li  Li4  1  0.66388300  0.00000000  0.33244000  1
  Li  Li5  1  0.33611700  0.00000000  0.66756000  1
  V  V6  1  0.16621075  0.50000000  0.83342300  1
  V  V7  1  0.83378925  0.50000000  0.16657700  1
  V  V8  1  0.66621075  0.00000000  0.83342300  1
  V  V9  1  0.33378925  0.00000000  0.16657700  1
  Cr  Cr10  1  0.00000000  0.00000000  0.50000000  1
  Cr  Cr11  1  0.50000000  0.50000000  0.50000000  1
  O  O12  1  0.16126800  0.00000000  0.59555300  1
  O  O13  1  0.83873200  0.00000000  0.40444700  1
  O  O14  1  0.83057200  0.00000000  0.92927900  1
  O  O15  1  0.66942800  0.50000000  0.07072100  1
  O  O16  1  0.99719650  0.50000000  0.26646700  1
  O  O17  1  0.00280350  0.50000000  0.73353300  1
  O  O18  1  0.66126800  0.50000000  0.59555300  1
  O  O19  1  0.33873200  0.50000000  0.40444700  1
  O  O20  1  0.33057200  0.50000000  0.92927900  1
  O  O21  1  0.16942800  0.00000000  0.07072100  1
  O  O22  1  0.49719650  0.00000000  0.26646700  1
  O  O23  1  0.50280350  0.00000000  0.73353300  1
