# generated using pymatgen
data_Fe3Co3(SbO8)2
_symmetry_space_group_name_H-M   'P 1'
_cell_length_a   10.19021000
_cell_length_b   5.85597600
_cell_length_c   9.26903854
_cell_angle_alpha   90.00000000
_cell_angle_beta   92.17985809
_cell_angle_gamma   90.00000000
_symmetry_Int_Tables_number   1
_chemical_formula_structural   Fe3Co3(SbO8)2
_chemical_formula_sum   'Fe6 Co6 Sb4 O32'
_cell_volume   552.71686853
_cell_formula_units_Z   2
loop_
 _symmetry_equiv_pos_site_id
 _symmetry_equiv_pos_as_xyz
  1  'x, y, z'
loop_
 _atom_site_type_symbol
 _atom_site_label
 _atom_site_symmetry_multiplicity
 _atom_site_fract_x
 _atom_site_fract_y
 _atom_site_fract_z
 _atom_site_occupancy
  Fe  Fe0  1  0.66577000  0.50000000  0.78707700  1
  Fe  Fe1  1  0.57977500  0.24814300  0.29073800  1
  Fe  Fe2  1  0.57977500  0.75185700  0.29073800  1
  Fe  Fe3  1  0.16577000  0.00000000  0.78707700  1
  Fe  Fe4  1  0.07977500  0.74814300  0.29073800  1
  Fe  Fe5  1  0.07977500  0.25185700  0.29073800  1
  Co  Co6  1  0.91391050  0.74465350  0.78628500  1
  Co  Co7  1  0.91391050  0.25534650  0.78628500  1
  Co  Co8  1  0.82805800  0.00000000  0.28238300  1
  Co  Co9  1  0.41391050  0.24465350  0.78628500  1
  Co  Co10  1  0.41391050  0.75534650  0.78628500  1
  Co  Co11  1  0.32805800  0.50000000  0.28238300  1
  Sb  Sb12  1  0.83511200  0.50000000  0.51084900  1
  Sb  Sb13  1  0.66876300  0.00000000  0.00829800  1
  Sb  Sb14  1  0.33511200  0.00000000  0.51084900  1
  Sb  Sb15  1  0.16876300  0.50000000  0.00829800  1
  O  O16  1  0.91595250  0.75175750  0.40073200  1
  O  O17  1  0.98258500  0.50000000  0.67485200  1
  O  O18  1  0.84375500  0.50000000  0.88927100  1
  O  O19  1  0.98845400  0.00000000  0.69344800  1
  O  O20  1  0.98793800  0.00000000  0.19415700  1
  O  O21  1  0.91595250  0.24824250  0.40073200  1
  O  O22  1  0.76764500  0.73033200  0.66018200  1
  O  O23  1  0.76764500  0.26966800  0.66018200  1
  O  O24  1  0.83905400  0.00000000  0.89326400  1
  O  O25  1  0.66604000  0.50000000  0.40177300  1
  O  O26  1  0.74960950  0.21787950  0.16074400  1
  O  O27  1  0.74960950  0.78212050  0.16074400  1
  O  O28  1  0.67877400  0.00000000  0.39197200  1
  O  O29  1  0.58180200  0.25515400  0.90032700  1
  O  O30  1  0.52124700  0.00000000  0.15463700  1
  O  O31  1  0.58180200  0.74484600  0.90032700  1
  O  O32  1  0.41595250  0.25175750  0.40073200  1
  O  O33  1  0.48258500  0.00000000  0.67485200  1
  O  O34  1  0.34375500  0.00000000  0.88927100  1
  O  O35  1  0.48845400  0.50000000  0.69344800  1
  O  O36  1  0.48793800  0.50000000  0.19415700  1
  O  O37  1  0.41595250  0.74824250  0.40073200  1
  O  O38  1  0.26764500  0.23033200  0.66018200  1
  O  O39  1  0.26764500  0.76966800  0.66018200  1
  O  O40  1  0.33905400  0.50000000  0.89326400  1
  O  O41  1  0.16604000  0.00000000  0.40177300  1
  O  O42  1  0.24960950  0.71787950  0.16074400  1
  O  O43  1  0.24960950  0.28212050  0.16074400  1
  O  O44  1  0.17877400  0.50000000  0.39197200  1
  O  O45  1  0.08180200  0.75515400  0.90032700  1
  O  O46  1  0.02124700  0.50000000  0.15463700  1
  O  O47  1  0.08180200  0.24484600  0.90032700  1
