# generated using pymatgen
data_Cr3Fe(PO4)6
_symmetry_space_group_name_H-M   'P 1'
_cell_length_a   8.60362982
_cell_length_b   8.60362982
_cell_length_c   21.86537556
_cell_angle_alpha   90.00000000
_cell_angle_beta   90.00000000
_cell_angle_gamma   120.00000000
_symmetry_Int_Tables_number   1
_chemical_formula_structural   Cr3Fe(PO4)6
_chemical_formula_sum   'Cr9 Fe3 P18 O72'
_cell_volume   1401.68686843
_cell_formula_units_Z   3
loop_
 _symmetry_equiv_pos_site_id
 _symmetry_equiv_pos_as_xyz
  1  'x, y, z'
loop_
 _atom_site_type_symbol
 _atom_site_label
 _atom_site_symmetry_multiplicity
 _atom_site_fract_x
 _atom_site_fract_y
 _atom_site_fract_z
 _atom_site_occupancy
  Cr  Cr0  1  0.00000000  0.00000000  0.14288800  1
  Cr  Cr1  1  0.33333333  0.66666667  0.02392467  1
  Cr  Cr2  1  0.33333333  0.66666667  0.30937367  1
  Cr  Cr3  1  0.66666667  0.33333333  0.47622133  1
  Cr  Cr4  1  0.00000000  0.00000000  0.35725800  1
  Cr  Cr5  1  0.00000000  0.00000000  0.64270700  1
  Cr  Cr6  1  0.33333333  0.66666667  0.80955467  1
  Cr  Cr7  1  0.66666667  0.33333333  0.69059133  1
  Cr  Cr8  1  0.66666667  0.33333333  0.97604033  1
  Fe  Fe9  1  0.66666667  0.33333333  0.19027133  1
  Fe  Fe10  1  0.33333333  0.66666667  0.52360467  1
  Fe  Fe11  1  0.00000000  0.00000000  0.85693800  1
  P  P12  1  0.66756867  0.04873533  0.08301533  1
  P  P13  1  0.95126467  0.61883333  0.08301533  1
  P  P14  1  0.38116667  0.33243133  0.08301533  1
  P  P15  1  0.28194567  0.99826833  0.25042033  1
  P  P16  1  0.71632267  0.71805433  0.25042033  1
  P  P17  1  0.00173167  0.28367733  0.25042033  1
  P  P18  1  0.33423533  0.38206867  0.41634867  1
  P  P19  1  0.61793133  0.95216667  0.41634867  1
  P  P20  1  0.04783333  0.66576467  0.41634867  1
  P  P21  1  0.94861233  0.33160167  0.58375367  1
  P  P22  1  0.38298933  0.05138767  0.58375367  1
  P  P23  1  0.66839833  0.61701067  0.58375367  1
  P  P24  1  0.00090200  0.71540200  0.74968200  1
  P  P25  1  0.28459800  0.28550000  0.74968200  1
  P  P26  1  0.71450000  0.99909800  0.74968200  1
  P  P27  1  0.61527900  0.66493500  0.91708700  1
  P  P28  1  0.04965600  0.38472100  0.91708700  1
  P  P29  1  0.33506500  0.95034400  0.91708700  1
  O  O30  1  0.97866200  0.17224900  0.30834000  1
  O  O31  1  0.19358700  0.02133800  0.30834000  1
  O  O32  1  0.83404500  0.02583600  0.08879900  1
  O  O33  1  0.82775100  0.80641300  0.30834000  1
  O  O34  1  0.50301567  0.85713733  0.07574433  1
  O  O35  1  0.63178567  0.12561833  0.14069533  1
  O  O36  1  0.97416400  0.80820900  0.08879900  1
  O  O37  1  0.14286267  0.64587833  0.07574433  1
  O  O38  1  0.35412167  0.49698433  0.07574433  1
  O  O39  1  0.16965967  0.96950533  0.19226733  1
  O  O40  1  0.46843067  0.16489733  0.24589233  1
  O  O41  1  0.79984567  0.83034033  0.19226733  1
  O  O42  1  0.87438167  0.50616733  0.14069533  1
  O  O43  1  0.19179100  0.16595500  0.08879900  1
  O  O44  1  0.49383267  0.36821433  0.14069533  1
  O  O45  1  0.30285367  0.83028833  0.25646033  1
  O  O46  1  0.52743467  0.69714633  0.25646033  1
  O  O47  1  0.69646667  0.53156933  0.24589233  1
  O  O48  1  0.03049467  0.20015433  0.19226733  1
  O  O49  1  0.16971167  0.47256533  0.25646033  1
  O  O50  1  0.83786200  0.53402700  0.02510200  1
  O  O51  1  0.83510267  0.30353333  0.24589233  1
  O  O52  1  0.46597300  0.30383500  0.02510200  1
  O  O53  1  0.69616500  0.16213800  0.02510200  1
  O  O54  1  0.64532867  0.50558233  0.64167333  1
  O  O55  1  0.86025367  0.35467133  0.64167333  1
  O  O56  1  0.50071167  0.35916933  0.42213233  1
  O  O57  1  0.49441767  0.13974633  0.64167333  1
  O  O58  1  0.16968233  0.19047067  0.40907767  1
  O  O59  1  0.29845233  0.45895167  0.47402867  1
  O  O60  1  0.64083067  0.14154233  0.42213233  1
  O  O61  1  0.80952933  0.97921167  0.40907767  1
  O  O62  1  0.02078833  0.83031767  0.40907767  1
  O  O63  1  0.83632633  0.30283867  0.52560067  1
  O  O64  1  0.13509733  0.49823067  0.57922567  1
  O  O65  1  0.46651233  0.16367367  0.52560067  1
  O  O66  1  0.54104833  0.83950067  0.47402867  1
  O  O67  1  0.85845767  0.49928833  0.42213233  1
  O  O68  1  0.16049933  0.70154767  0.47402867  1
  O  O69  1  0.96952033  0.16362167  0.58979367  1
  O  O70  1  0.19410133  0.03047967  0.58979367  1
  O  O71  1  0.36313333  0.86490267  0.57922567  1
  O  O72  1  0.69716133  0.53348767  0.52560067  1
  O  O73  1  0.83637833  0.80589867  0.58979367  1
  O  O74  1  0.50452867  0.86736033  0.35843533  1
  O  O75  1  0.50176933  0.63686667  0.57922567  1
  O  O76  1  0.13263967  0.63716833  0.35843533  1
  O  O77  1  0.36283167  0.49547133  0.35843533  1
  O  O78  1  0.31199533  0.83891567  0.97500667  1
  O  O79  1  0.52692033  0.68800467  0.97500667  1
  O  O80  1  0.16737833  0.69250267  0.75546567  1
  O  O81  1  0.16108433  0.47307967  0.97500667  1
  O  O82  1  0.83634900  0.52380400  0.74241100  1
  O  O83  1  0.96511900  0.79228500  0.80736200  1
  O  O84  1  0.30749733  0.47487567  0.75546567  1
  O  O85  1  0.47619600  0.31254500  0.74241100  1
  O  O86  1  0.68745500  0.16365100  0.74241100  1
  O  O87  1  0.50299300  0.63617200  0.85893400  1
  O  O88  1  0.80176400  0.83156400  0.91255900  1
  O  O89  1  0.13317900  0.49700700  0.85893400  1
  O  O90  1  0.20771500  0.17283400  0.80736200  1
  O  O91  1  0.52512433  0.83262167  0.75546567  1
  O  O92  1  0.82716600  0.03488100  0.80736200  1
  O  O93  1  0.63618700  0.49695500  0.92312700  1
  O  O94  1  0.86076800  0.36381300  0.92312700  1
  O  O95  1  0.02980000  0.19823600  0.91255900  1
  O  O96  1  0.36382800  0.86682100  0.85893400  1
  O  O97  1  0.50304500  0.13923200  0.92312700  1
  O  O98  1  0.17119533  0.20069367  0.69176867  1
  O  O99  1  0.16843600  0.97020000  0.91255900  1
  O  O100  1  0.79930633  0.97050167  0.69176867  1
  O  O101  1  0.02949833  0.82880467  0.69176867  1
