# generated using pymatgen
data_Li2Cr(SiO3)2
_symmetry_space_group_name_H-M   'P 1'
_cell_length_a   7.13529000
_cell_length_b   7.31613800
_cell_length_c   20.36331400
_cell_angle_alpha   90.00000000
_cell_angle_beta   90.00000000
_cell_angle_gamma   90.00000000
_symmetry_Int_Tables_number   1
_chemical_formula_structural   Li2Cr(SiO3)2
_chemical_formula_sum   'Li16 Cr8 Si16 O48'
_cell_volume   1063.02132204
_cell_formula_units_Z   8
loop_
 _symmetry_equiv_pos_site_id
 _symmetry_equiv_pos_as_xyz
  1  'x, y, z'
loop_
 _atom_site_type_symbol
 _atom_site_label
 _atom_site_symmetry_multiplicity
 _atom_site_fract_x
 _atom_site_fract_y
 _atom_site_fract_z
 _atom_site_occupancy
  Li  Li0  1  0.74276650  0.76968050  0.91656300  1
  Li  Li1  1  0.49276650  0.01968050  0.83343700  1
  Li  Li2  1  0.50723350  0.01968050  0.16656300  1
  Li  Li3  1  0.25723350  0.76968050  0.08343700  1
  Li  Li4  1  0.74276650  0.26968050  0.41656300  1
  Li  Li5  1  0.49276650  0.51968050  0.33343700  1
  Li  Li6  1  0.50723350  0.51968050  0.66656300  1
  Li  Li7  1  0.25723350  0.26968050  0.58343700  1
  Li  Li8  1  0.24276650  0.26968050  0.91656300  1
  Li  Li9  1  0.99276650  0.51968050  0.83343700  1
  Li  Li10  1  0.00723350  0.51968050  0.16656300  1
  Li  Li11  1  0.75723350  0.26968050  0.08343700  1
  Li  Li12  1  0.24276650  0.76968050  0.41656300  1
  Li  Li13  1  0.99276650  0.01968050  0.33343700  1
  Li  Li14  1  0.00723350  0.01968050  0.66656300  1
  Li  Li15  1  0.75723350  0.76968050  0.58343700  1
  Cr  Cr16  1  0.75000000  0.74493600  0.75000000  1
  Cr  Cr17  1  0.50000000  0.99493600  0.00000000  1
  Cr  Cr18  1  0.75000000  0.24493600  0.25000000  1
  Cr  Cr19  1  0.50000000  0.49493600  0.50000000  1
  Cr  Cr20  1  0.25000000  0.24493600  0.75000000  1
  Cr  Cr21  1  0.00000000  0.49493600  0.00000000  1
  Cr  Cr22  1  0.25000000  0.74493600  0.25000000  1
  Cr  Cr23  1  0.00000000  0.99493600  0.50000000  1
  Si  Si24  1  0.79598800  0.21958600  0.91528000  1
  Si  Si25  1  0.04598800  0.96958600  0.83472000  1
  Si  Si26  1  0.95401200  0.96958600  0.16528000  1
  Si  Si27  1  0.20401200  0.21958600  0.08472000  1
  Si  Si28  1  0.79598800  0.71958600  0.41528000  1
  Si  Si29  1  0.04598800  0.46958600  0.33472000  1
  Si  Si30  1  0.95401200  0.46958600  0.66528000  1
  Si  Si31  1  0.20401200  0.71958600  0.58472000  1
  Si  Si32  1  0.29598800  0.71958600  0.91528000  1
  Si  Si33  1  0.54598800  0.46958600  0.83472000  1
  Si  Si34  1  0.45401200  0.46958600  0.16528000  1
  Si  Si35  1  0.70401200  0.71958600  0.08472000  1
  Si  Si36  1  0.29598800  0.21958600  0.41528000  1
  Si  Si37  1  0.54598800  0.96958600  0.33472000  1
  Si  Si38  1  0.45401200  0.96958600  0.66528000  1
  Si  Si39  1  0.70401200  0.21958600  0.58472000  1
  O  O40  1  0.74163200  0.16692100  0.98953700  1
  O  O41  1  0.46386350  0.87107200  0.90956050  1
  O  O42  1  0.60348550  0.28216600  0.87380250  1
  O  O43  1  0.85348550  0.03216600  0.87619750  1
  O  O44  1  0.71386350  0.62107200  0.84043950  1
  O  O45  1  0.99163200  0.91692100  0.76046300  1
  O  O46  1  0.00836800  0.91692100  0.23953700  1
  O  O47  1  0.28613650  0.62107200  0.15956050  1
  O  O48  1  0.14651450  0.03216600  0.12380250  1
  O  O49  1  0.39651450  0.28216600  0.12619750  1
  O  O50  1  0.53613650  0.87107200  0.09043950  1
  O  O51  1  0.25836800  0.16692100  0.01046300  1
  O  O52  1  0.74163200  0.66692100  0.48953700  1
  O  O53  1  0.46386350  0.37107200  0.40956050  1
  O  O54  1  0.60348550  0.78216600  0.37380250  1
  O  O55  1  0.85348550  0.53216600  0.37619750  1
  O  O56  1  0.71386350  0.12107200  0.34043950  1
  O  O57  1  0.99163200  0.41692100  0.26046300  1
  O  O58  1  0.00836800  0.41692100  0.73953700  1
  O  O59  1  0.28613650  0.12107200  0.65956050  1
  O  O60  1  0.14651450  0.53216600  0.62380250  1
  O  O61  1  0.39651450  0.78216600  0.62619750  1
  O  O62  1  0.53613650  0.37107200  0.59043950  1
  O  O63  1  0.25836800  0.66692100  0.51046300  1
  O  O64  1  0.24163200  0.66692100  0.98953700  1
  O  O65  1  0.96386350  0.37107200  0.90956050  1
  O  O66  1  0.10348550  0.78216600  0.87380250  1
  O  O67  1  0.35348550  0.53216600  0.87619750  1
  O  O68  1  0.21386350  0.12107200  0.84043950  1
  O  O69  1  0.49163200  0.41692100  0.76046300  1
  O  O70  1  0.50836800  0.41692100  0.23953700  1
  O  O71  1  0.78613650  0.12107200  0.15956050  1
  O  O72  1  0.64651450  0.53216600  0.12380250  1
  O  O73  1  0.89651450  0.78216600  0.12619750  1
  O  O74  1  0.03613650  0.37107200  0.09043950  1
  O  O75  1  0.75836800  0.66692100  0.01046300  1
  O  O76  1  0.24163200  0.16692100  0.48953700  1
  O  O77  1  0.96386350  0.87107200  0.40956050  1
  O  O78  1  0.10348550  0.28216600  0.37380250  1
  O  O79  1  0.35348550  0.03216600  0.37619750  1
  O  O80  1  0.21386350  0.62107200  0.34043950  1
  O  O81  1  0.49163200  0.91692100  0.26046300  1
  O  O82  1  0.50836800  0.91692100  0.73953700  1
  O  O83  1  0.78613650  0.62107200  0.65956050  1
  O  O84  1  0.64651450  0.03216600  0.62380250  1
  O  O85  1  0.89651450  0.28216600  0.62619750  1
  O  O86  1  0.03613650  0.87107200  0.59043950  1
  O  O87  1  0.75836800  0.16692100  0.51046300  1
