# generated using pymatgen
data_Li6MnCrP2(CO7)2
_symmetry_space_group_name_H-M   'P 1'
_cell_length_a   5.00837861
_cell_length_b   6.51432900
_cell_length_c   8.68167339
_cell_angle_alpha   90.00000000
_cell_angle_beta   95.63514686
_cell_angle_gamma   90.00000000
_symmetry_Int_Tables_number   1
_chemical_formula_structural   Li6MnCrP2(CO7)2
_chemical_formula_sum   'Li6 Mn1 Cr1 P2 C2 O14'
_cell_volume   281.88138970
_cell_formula_units_Z   1
loop_
 _symmetry_equiv_pos_site_id
 _symmetry_equiv_pos_as_xyz
  1  'x, y, z'
loop_
 _atom_site_type_symbol
 _atom_site_label
 _atom_site_symmetry_multiplicity
 _atom_site_fract_x
 _atom_site_fract_y
 _atom_site_fract_z
 _atom_site_occupancy
  Li  Li0  1  0.78672100  0.50000000  0.88824600  1
  Li  Li1  1  0.21343800  0.00000000  0.10335200  1
  Li  Li2  1  0.26869600  0.27486300  0.73139200  1
  Li  Li3  1  0.26869600  0.72513700  0.73139200  1
  Li  Li4  1  0.72904200  0.77258500  0.26903400  1
  Li  Li5  1  0.72904200  0.22741500  0.26903400  1
  Mn  Mn6  1  0.78131000  0.00000000  0.65878100  1
  Cr  Cr7  1  0.19977600  0.50000000  0.33485600  1
  P  P8  1  0.73607800  0.50000000  0.59121300  1
  P  P9  1  0.27163900  0.00000000  0.41091500  1
  C  C10  1  0.68479600  0.00000000  0.96362300  1
  C  C11  1  0.30831500  0.50000000  0.03666700  1
  O  O12  1  0.93364100  0.00000000  0.93767800  1
  O  O13  1  0.39758700  0.50000000  0.90093200  1
  O  O14  1  0.50113600  0.00000000  0.84526300  1
  O  O15  1  0.18780900  0.00000000  0.57688100  1
  O  O16  1  0.42519800  0.50000000  0.58364200  1
  O  O17  1  0.58524400  0.00000000  0.42131300  1
  O  O18  1  0.82185300  0.50000000  0.42450900  1
  O  O19  1  0.47847100  0.50000000  0.16266400  1
  O  O20  1  0.61279600  0.00000000  0.10421500  1
  O  O21  1  0.05610000  0.50000000  0.05265000  1
  O  O22  1  0.85252700  0.31470600  0.68948300  1
  O  O23  1  0.85252700  0.68529400  0.68948300  1
  O  O24  1  0.15876100  0.18616500  0.31136700  1
  O  O25  1  0.15876100  0.81383500  0.31136700  1
