# generated using pymatgen
data_V(CO3)2
_symmetry_space_group_name_H-M   'P 1'
_cell_length_a   4.85358690
_cell_length_b   4.85358690
_cell_length_c   16.85402615
_cell_angle_alpha   90.00000000
_cell_angle_beta   90.00000000
_cell_angle_gamma   120.00000000
_symmetry_Int_Tables_number   1
_chemical_formula_structural   V(CO3)2
_chemical_formula_sum   'V3 C6 O18'
_cell_volume   343.84278379
_cell_formula_units_Z   3
loop_
 _symmetry_equiv_pos_site_id
 _symmetry_equiv_pos_as_xyz
  1  'x, y, z'
loop_
 _atom_site_type_symbol
 _atom_site_label
 _atom_site_symmetry_multiplicity
 _atom_site_fract_x
 _atom_site_fract_y
 _atom_site_fract_z
 _atom_site_occupancy
  V  V0  1  0.00000000  0.00000000  0.50000000  1
  V  V1  1  0.66666667  0.33333333  0.83333333  1
  V  V2  1  0.33333333  0.66666667  0.16666667  1
  C  C3  1  0.33333333  0.66666667  0.43613650  1
  C  C4  1  0.66666667  0.33333333  0.56386350  1
  C  C5  1  0.00000000  0.00000000  0.76946983  1
  C  C6  1  0.33333333  0.66666667  0.89719683  1
  C  C7  1  0.66666667  0.33333333  0.10280317  1
  C  C8  1  0.00000000  0.00000000  0.23053017  1
  O  O9  1  0.88853658  0.62823792  0.56562767  1
  O  O10  1  0.26029867  0.88853658  0.43437233  1
  O  O11  1  0.62823792  0.73970133  0.43437233  1
  O  O12  1  0.37176208  0.26029867  0.56562767  1
  O  O13  1  0.73970133  0.11146342  0.56562767  1
  O  O14  1  0.11146342  0.37176208  0.43437233  1
  O  O15  1  0.55520325  0.96157125  0.89896100  1
  O  O16  1  0.92696533  0.22186992  0.76770567  1
  O  O17  1  0.29490458  0.07303467  0.76770567  1
  O  O18  1  0.03842875  0.59363200  0.89896100  1
  O  O19  1  0.40636800  0.44479675  0.89896100  1
  O  O20  1  0.77813008  0.70509542  0.76770567  1
  O  O21  1  0.22186992  0.29490458  0.23229433  1
  O  O22  1  0.59363200  0.55520325  0.10103900  1
  O  O23  1  0.96157125  0.40636800  0.10103900  1
  O  O24  1  0.70509542  0.92696533  0.23229433  1
  O  O25  1  0.07303467  0.77813008  0.23229433  1
  O  O26  1  0.44479675  0.03842875  0.10103900  1
