# generated using pymatgen
data_Li12VCr3P4(CO7)4
_symmetry_space_group_name_H-M   'P 1'
_cell_length_a   8.60011900
_cell_length_b   6.48831300
_cell_length_c   10.01045261
_cell_angle_alpha   90.00000000
_cell_angle_beta   94.54397356
_cell_angle_gamma   90.00000000
_symmetry_Int_Tables_number   1
_chemical_formula_structural   Li12VCr3P4(CO7)4
_chemical_formula_sum   'Li12 V1 Cr3 P4 C4 O28'
_cell_volume   556.83016395
_cell_formula_units_Z   1
loop_
 _symmetry_equiv_pos_site_id
 _symmetry_equiv_pos_as_xyz
  1  'x, y, z'
loop_
 _atom_site_type_symbol
 _atom_site_label
 _atom_site_symmetry_multiplicity
 _atom_site_fract_x
 _atom_site_fract_y
 _atom_site_fract_z
 _atom_site_occupancy
  Li  Li0  1  0.08978500  0.00000000  0.62063600  1
  Li  Li1  1  0.09166100  0.00000000  0.11983400  1
  Li  Li2  1  0.27385600  0.77544600  0.87648000  1
  Li  Li3  1  0.27385600  0.22455400  0.87648000  1
  Li  Li4  1  0.27485500  0.77484300  0.37620300  1
  Li  Li5  1  0.27485500  0.22515700  0.37620300  1
  Li  Li6  1  0.72600000  0.27827900  0.62302300  1
  Li  Li7  1  0.72600000  0.72172100  0.62302300  1
  Li  Li8  1  0.72531000  0.27678700  0.12426600  1
  Li  Li9  1  0.72531000  0.72321300  0.12426600  1
  Li  Li10  1  0.90761000  0.50000000  0.87917200  1
  Li  Li11  1  0.90582000  0.50000000  0.37933700  1
  V  V12  1  0.67021300  0.00000000  0.39626700  1
  Cr  Cr13  1  0.33515900  0.50000000  0.60725600  1
  Cr  Cr14  1  0.33588900  0.50000000  0.10885400  1
  Cr  Cr15  1  0.66526700  0.00000000  0.89207100  1
  P  P16  1  0.41123700  0.00000000  0.64085700  1
  P  P17  1  0.41320100  0.00000000  0.14279100  1
  P  P18  1  0.58892400  0.50000000  0.85831600  1
  P  P19  1  0.58996800  0.50000000  0.35928500  1
  C  C20  1  0.03129300  0.50000000  0.64709600  1
  C  C21  1  0.03114600  0.50000000  0.14748500  1
  C  C22  1  0.96838000  0.00000000  0.85168000  1
  C  C23  1  0.96478800  0.00000000  0.35046700  1
  O  O24  1  0.06416600  0.50000000  0.52373100  1
  O  O25  1  0.11355000  0.00000000  0.82206900  1
  O  O26  1  0.06503200  0.50000000  0.02384600  1
  O  O27  1  0.14541000  0.50000000  0.74197100  1
  O  O28  1  0.11007700  0.00000000  0.32281500  1
  O  O29  1  0.14452700  0.50000000  0.24263300  1
  O  O30  1  0.31093100  0.81295400  0.58642600  1
  O  O31  1  0.31093100  0.18704600  0.58642600  1
  O  O32  1  0.31207300  0.81361900  0.08844700  1
  O  O33  1  0.31207300  0.18638100  0.08844700  1
  O  O34  1  0.42178900  0.50000000  0.90545900  1
  O  O35  1  0.42318700  0.00000000  0.79635200  1
  O  O36  1  0.42211200  0.50000000  0.40595300  1
  O  O37  1  0.42758900  0.00000000  0.29939200  1
  O  O38  1  0.57934300  0.50000000  0.70270600  1
  O  O39  1  0.57696300  0.00000000  0.59135800  1
  O  O40  1  0.57865000  0.50000000  0.20339500  1
  O  O41  1  0.57861400  0.00000000  0.09420000  1
  O  O42  1  0.68818500  0.68704100  0.91372100  1
  O  O43  1  0.68818500  0.31295900  0.91372100  1
  O  O44  1  0.69025700  0.31567800  0.41503100  1
  O  O45  1  0.69025700  0.68432200  0.41503100  1
  O  O46  1  0.85764900  0.00000000  0.75504600  1
  O  O47  1  0.88827600  0.50000000  0.67976100  1
  O  O48  1  0.85373300  0.00000000  0.25435400  1
  O  O49  1  0.93302200  0.00000000  0.97451900  1
  O  O50  1  0.88783700  0.50000000  0.17911800  1
  O  O51  1  0.92519900  0.00000000  0.47272400  1
