# generated using pymatgen
data_SrLaTaMnO6
_symmetry_space_group_name_H-M   'P 1'
_cell_length_a   5.70961384
_cell_length_b   5.86595800
_cell_length_c   9.92389140
_cell_angle_alpha   90.00000000
_cell_angle_beta   125.01757602
_cell_angle_gamma   90.00000000
_symmetry_Int_Tables_number   1
_chemical_formula_structural   SrLaTaMnO6
_chemical_formula_sum   'Sr2 La2 Ta2 Mn2 O12'
_cell_volume   272.20675167
_cell_formula_units_Z   2
loop_
 _symmetry_equiv_pos_site_id
 _symmetry_equiv_pos_as_xyz
  1  'x, y, z'
loop_
 _atom_site_type_symbol
 _atom_site_label
 _atom_site_symmetry_multiplicity
 _atom_site_fract_x
 _atom_site_fract_y
 _atom_site_fract_z
 _atom_site_occupancy
  Sr  Sr0  1  0.74425300  0.21151400  0.75140400  1
  Sr  Sr1  1  0.74425300  0.78848600  0.25140400  1
  La  La2  1  0.26586050  0.69577750  0.75462300  1
  La  La3  1  0.26586050  0.30422250  0.25462300  1
  Ta  Ta4  1  0.00128800  0.75452500  0.00045400  1
  Ta  Ta5  1  0.00128800  0.24547500  0.50045400  1
  Mn  Mn6  1  0.50253600  0.75659800  0.50124800  1
  Mn  Mn7  1  0.50253600  0.24340200  0.00124800  1
  O  O8  1  0.16364300  0.71840500  0.23852300  1
  O  O9  1  0.16364300  0.28159500  0.73852300  1
  O  O10  1  0.75277450  0.47922450  0.95262100  1
  O  O11  1  0.75277450  0.52077550  0.45262100  1
  O  O12  1  0.31596750  0.44661950  0.53727800  1
  O  O13  1  0.31596750  0.55338050  0.03727800  1
  O  O14  1  0.66251400  0.93787100  0.95170050  1
  O  O15  1  0.66251400  0.06212900  0.45170050  1
  O  O16  1  0.22968650  0.95773650  0.55044450  1
  O  O17  1  0.22968650  0.04226350  0.05044450  1
  O  O18  1  0.86147700  0.22139500  0.26171000  1
  O  O19  1  0.86147700  0.77860500  0.76171000  1
