# generated using pymatgen
data_Li3Co4WO8
_symmetry_space_group_name_H-M   'P 1'
_cell_length_a   10.33542600
_cell_length_b   6.15679800
_cell_length_c   6.17494389
_cell_angle_alpha   90.00000000
_cell_angle_beta   126.48561521
_cell_angle_gamma   90.00000000
_symmetry_Int_Tables_number   1
_chemical_formula_structural   Li3Co4WO8
_chemical_formula_sum   'Li6 Co8 W2 O16'
_cell_volume   315.91895570
_cell_formula_units_Z   2
loop_
 _symmetry_equiv_pos_site_id
 _symmetry_equiv_pos_as_xyz
  1  'x, y, z'
loop_
 _atom_site_type_symbol
 _atom_site_label
 _atom_site_symmetry_multiplicity
 _atom_site_fract_x
 _atom_site_fract_y
 _atom_site_fract_z
 _atom_site_occupancy
  Li  Li0  1  0.75000000  0.75000000  0.00000000  1
  Li  Li1  1  0.25000000  0.75000000  0.00000000  1
  Li  Li2  1  0.00000000  0.00000000  0.50000000  1
  Li  Li3  1  0.25000000  0.25000000  0.00000000  1
  Li  Li4  1  0.75000000  0.25000000  0.00000000  1
  Li  Li5  1  0.50000000  0.50000000  0.50000000  1
  Co  Co6  1  0.00000000  0.00000000  0.00000000  1
  Co  Co7  1  0.25000000  0.75000000  0.50000000  1
  Co  Co8  1  0.25000000  0.25000000  0.50000000  1
  Co  Co9  1  0.50000000  0.00000000  0.50000000  1
  Co  Co10  1  0.50000000  0.50000000  0.00000000  1
  Co  Co11  1  0.75000000  0.25000000  0.50000000  1
  Co  Co12  1  0.75000000  0.75000000  0.50000000  1
  Co  Co13  1  0.00000000  0.50000000  0.50000000  1
  W  W14  1  0.00000000  0.50000000  0.00000000  1
  W  W15  1  0.50000000  0.00000000  0.00000000  1
  O  O16  1  0.23528200  0.50000000  0.23114900  1
  O  O17  1  0.50325300  0.23773700  0.76545100  1
  O  O18  1  0.50325300  0.76226300  0.76545100  1
  O  O19  1  0.26471800  0.00000000  0.76885100  1
  O  O20  1  0.24961800  0.00000000  0.27243000  1
  O  O21  1  0.99674700  0.26226300  0.23454900  1
  O  O22  1  0.99674700  0.73773700  0.23454900  1
  O  O23  1  0.25038200  0.50000000  0.72757000  1
  O  O24  1  0.73528200  0.00000000  0.23114900  1
  O  O25  1  0.00325300  0.73773700  0.76545100  1
  O  O26  1  0.00325300  0.26226300  0.76545100  1
  O  O27  1  0.76471800  0.50000000  0.76885100  1
  O  O28  1  0.74961800  0.50000000  0.27243000  1
  O  O29  1  0.49674700  0.76226300  0.23454900  1
  O  O30  1  0.49674700  0.23773700  0.23454900  1
  O  O31  1  0.75038200  0.00000000  0.72757000  1
