# generated using pymatgen
data_AsRhO4
_symmetry_space_group_name_H-M   'P 1'
_cell_length_a   6.45290600
_cell_length_b   6.45290600
_cell_length_c   6.05542200
_cell_angle_alpha   90.00000000
_cell_angle_beta   90.00000000
_cell_angle_gamma   90.00000000
_symmetry_Int_Tables_number   1
_chemical_formula_structural   AsRhO4
_chemical_formula_sum   'As4 Rh4 O16'
_cell_volume   252.14774692
_cell_formula_units_Z   4
loop_
 _symmetry_equiv_pos_site_id
 _symmetry_equiv_pos_as_xyz
  1  'x, y, z'
loop_
 _atom_site_type_symbol
 _atom_site_label
 _atom_site_symmetry_multiplicity
 _atom_site_fract_x
 _atom_site_fract_y
 _atom_site_fract_z
 _atom_site_occupancy
  As  As0  1  0.00000000  0.00000000  0.25434700  1
  As  As1  1  0.50000000  0.00000000  0.50434700  1
  As  As2  1  0.50000000  0.50000000  0.75434700  1
  As  As3  1  0.00000000  0.50000000  0.00434700  1
  Rh  Rh4  1  0.50000000  0.50000000  0.24425600  1
  Rh  Rh5  1  0.50000000  0.00000000  0.99425600  1
  Rh  Rh6  1  0.00000000  0.00000000  0.74425600  1
  Rh  Rh7  1  0.00000000  0.50000000  0.49425600  1
  O  O8  1  0.69149200  0.00000000  0.26553200  1
  O  O9  1  0.68880000  0.00000000  0.73516700  1
  O  O10  1  0.50000000  0.30850800  0.51553200  1
  O  O11  1  0.00000000  0.81120000  0.48516700  1
  O  O12  1  0.00000000  0.18880000  0.48516700  1
  O  O13  1  0.00000000  0.19149200  0.01553200  1
  O  O14  1  0.81120000  0.50000000  0.23516700  1
  O  O15  1  0.80850800  0.50000000  0.76553200  1
  O  O16  1  0.19149200  0.50000000  0.76553200  1
  O  O17  1  0.18880000  0.50000000  0.23516700  1
  O  O18  1  0.00000000  0.80850800  0.01553200  1
  O  O19  1  0.50000000  0.31120000  0.98516700  1
  O  O20  1  0.50000000  0.68880000  0.98516700  1
  O  O21  1  0.50000000  0.69149200  0.51553200  1
  O  O22  1  0.31120000  0.00000000  0.73516700  1
  O  O23  1  0.30850800  0.00000000  0.26553200  1
