# generated using pymatgen
data_Ta2MnO6
_symmetry_space_group_name_H-M   'P 1'
_cell_length_a   9.64636000
_cell_length_b   11.67024800
_cell_length_c   15.55375318
_cell_angle_alpha   90.00000000
_cell_angle_beta   91.00005739
_cell_angle_gamma   90.00000000
_symmetry_Int_Tables_number   1
_chemical_formula_structural   Ta2MnO6
_chemical_formula_sum   'Ta32 Mn16 O96'
_cell_volume   1750.70348425
_cell_formula_units_Z   16
loop_
 _symmetry_equiv_pos_site_id
 _symmetry_equiv_pos_as_xyz
  1  'x, y, z'
loop_
 _atom_site_type_symbol
 _atom_site_label
 _atom_site_symmetry_multiplicity
 _atom_site_fract_x
 _atom_site_fract_y
 _atom_site_fract_z
 _atom_site_occupancy
  Ta  Ta0  1  0.74855550  0.08951950  0.58308000  1
  Ta  Ta1  1  0.74744450  0.91668350  0.75163300  1
  Ta  Ta2  1  0.74865300  0.08635000  0.91303300  1
  Ta  Ta3  1  0.74855550  0.91048050  0.08308000  1
  Ta  Ta4  1  0.74744450  0.08331650  0.25163300  1
  Ta  Ta5  1  0.74865300  0.91365000  0.41303300  1
  Ta  Ta6  1  0.49978350  0.33357850  0.58409200  1
  Ta  Ta7  1  0.50021650  0.33357850  0.91590800  1
  Ta  Ta8  1  0.49978350  0.66642150  0.08409200  1
  Ta  Ta9  1  0.50021650  0.66642150  0.41590800  1
  Ta  Ta10  1  0.25134700  0.08635000  0.58696700  1
  Ta  Ta11  1  0.25255550  0.91668350  0.74836700  1
  Ta  Ta12  1  0.25144450  0.08951950  0.91692000  1
  Ta  Ta13  1  0.25134700  0.91365000  0.08696700  1
  Ta  Ta14  1  0.25255550  0.08331650  0.24836700  1
  Ta  Ta15  1  0.25144450  0.91048050  0.41692000  1
  Ta  Ta16  1  0.24855550  0.58951950  0.58308000  1
  Ta  Ta17  1  0.24744450  0.41668350  0.75163300  1
  Ta  Ta18  1  0.24865300  0.58635000  0.91303300  1
  Ta  Ta19  1  0.24855550  0.41048050  0.08308000  1
  Ta  Ta20  1  0.24744450  0.58331650  0.25163300  1
  Ta  Ta21  1  0.24865300  0.41365000  0.41303300  1
  Ta  Ta22  1  0.99978350  0.83357850  0.58409200  1
  Ta  Ta23  1  0.00021650  0.83357850  0.91590800  1
  Ta  Ta24  1  0.99978350  0.16642150  0.08409200  1
  Ta  Ta25  1  0.00021650  0.16642150  0.41590800  1
  Ta  Ta26  1  0.75134700  0.58635000  0.58696700  1
  Ta  Ta27  1  0.75255550  0.41668350  0.74836700  1
  Ta  Ta28  1  0.75144450  0.58951950  0.91692000  1
  Ta  Ta29  1  0.75134700  0.41365000  0.08696700  1
  Ta  Ta30  1  0.75255550  0.58331650  0.24836700  1
  Ta  Ta31  1  0.75144450  0.41048050  0.41692000  1
  Mn  Mn32  1  0.50478250  0.83826750  0.58502500  1
  Mn  Mn33  1  0.50000000  0.66939900  0.75000000  1
  Mn  Mn34  1  0.50000000  0.15828300  0.75000000  1
  Mn  Mn35  1  0.49521750  0.83826750  0.91497500  1
  Mn  Mn36  1  0.50478250  0.16173250  0.08502500  1
  Mn  Mn37  1  0.50000000  0.33060100  0.25000000  1
  Mn  Mn38  1  0.50000000  0.84171700  0.25000000  1
  Mn  Mn39  1  0.49521750  0.16173250  0.41497500  1
  Mn  Mn40  1  0.00478250  0.33826750  0.58502500  1
  Mn  Mn41  1  0.00000000  0.16939900  0.75000000  1
  Mn  Mn42  1  0.00000000  0.65828300  0.75000000  1
  Mn  Mn43  1  0.99521750  0.33826750  0.91497500  1
  Mn  Mn44  1  0.00478250  0.66173250  0.08502500  1
  Mn  Mn45  1  0.00000000  0.83060100  0.25000000  1
  Mn  Mn46  1  0.00000000  0.34171700  0.25000000  1
  Mn  Mn47  1  0.99521750  0.66173250  0.41497500  1
  O  O48  1  0.87032550  0.93834150  0.63868400  1
  O  O49  1  0.85754500  0.05599200  0.81160500  1
  O  O50  1  0.86849250  0.93586750  0.97143600  1
  O  O51  1  0.87032550  0.06165850  0.13868400  1
  O  O52  1  0.85754500  0.94400800  0.31160500  1
  O  O53  1  0.86849250  0.06413250  0.47143600  1
  O  O54  1  0.65057650  0.95203450  0.51904700  1
  O  O55  1  0.65024800  0.05094000  0.68772500  1
  O  O56  1  0.64251650  0.94924950  0.85505700  1
  O  O57  1  0.65057650  0.04796550  0.01904700  1
  O  O58  1  0.65024800  0.94906000  0.18772500  1
  O  O59  1  0.61501550  0.19578250  0.53774400  1
  O  O60  1  0.64251650  0.05075050  0.35505700  1
  O  O61  1  0.61576650  0.68084150  0.52299600  1
  O  O62  1  0.62821700  0.81228000  0.69979000  1
  O  O63  1  0.61204450  0.31627550  0.69205700  1
  O  O64  1  0.61807300  0.19623800  0.86937400  1
  O  O65  1  0.61962650  0.68746650  0.86971000  1
  O  O66  1  0.61501550  0.80421750  0.03774400  1
  O  O67  1  0.61576650  0.31915850  0.02299600  1
  O  O68  1  0.62821700  0.18772000  0.19979000  1
  O  O69  1  0.61204450  0.68372450  0.19205700  1
  O  O70  1  0.61807300  0.80376200  0.36937400  1
  O  O71  1  0.61962650  0.31253350  0.36971000  1
  O  O72  1  0.38037350  0.68746650  0.63029000  1
  O  O73  1  0.38192700  0.19623800  0.63062600  1
  O  O74  1  0.38795550  0.31627550  0.80794300  1
  O  O75  1  0.37178300  0.81228000  0.80021000  1
  O  O76  1  0.38423350  0.68084150  0.97700400  1
  O  O77  1  0.38498450  0.19578250  0.96225600  1
  O  O78  1  0.38037350  0.31253350  0.13029000  1
  O  O79  1  0.38192700  0.80376200  0.13062600  1
  O  O80  1  0.38795550  0.68372450  0.30794300  1
  O  O81  1  0.37178300  0.18772000  0.30021000  1
  O  O82  1  0.38423350  0.31915850  0.47700400  1
  O  O83  1  0.35748350  0.94924950  0.64494300  1
  O  O84  1  0.38498450  0.80421750  0.46225600  1
  O  O85  1  0.34975200  0.05094000  0.81227500  1
  O  O86  1  0.34942350  0.95203450  0.98095300  1
  O  O87  1  0.35748350  0.05075050  0.14494300  1
  O  O88  1  0.34975200  0.94906000  0.31227500  1
  O  O89  1  0.34942350  0.04796550  0.48095300  1
  O  O90  1  0.13150750  0.93586750  0.52856400  1
  O  O91  1  0.14245500  0.05599200  0.68839500  1
  O  O92  1  0.12967450  0.93834150  0.86131600  1
  O  O93  1  0.13150750  0.06413250  0.02856400  1
  O  O94  1  0.14245500  0.94400800  0.18839500  1
  O  O95  1  0.12967450  0.06165850  0.36131600  1
  O  O96  1  0.37032550  0.43834150  0.63868400  1
  O  O97  1  0.35754500  0.55599200  0.81160500  1
  O  O98  1  0.36849250  0.43586750  0.97143600  1
  O  O99  1  0.37032550  0.56165850  0.13868400  1
  O  O100  1  0.35754500  0.44400800  0.31160500  1
  O  O101  1  0.36849250  0.56413250  0.47143600  1
  O  O102  1  0.15057650  0.45203450  0.51904700  1
  O  O103  1  0.15024800  0.55094000  0.68772500  1
  O  O104  1  0.14251650  0.44924950  0.85505700  1
  O  O105  1  0.15057650  0.54796550  0.01904700  1
  O  O106  1  0.15024800  0.44906000  0.18772500  1
  O  O107  1  0.11501550  0.69578250  0.53774400  1
  O  O108  1  0.14251650  0.55075050  0.35505700  1
  O  O109  1  0.11576650  0.18084150  0.52299600  1
  O  O110  1  0.12821700  0.31228000  0.69979000  1
  O  O111  1  0.11204450  0.81627550  0.69205700  1
  O  O112  1  0.11807300  0.69623800  0.86937400  1
  O  O113  1  0.11962650  0.18746650  0.86971000  1
  O  O114  1  0.11501550  0.30421750  0.03774400  1
  O  O115  1  0.11576650  0.81915850  0.02299600  1
  O  O116  1  0.12821700  0.68772000  0.19979000  1
  O  O117  1  0.11204450  0.18372450  0.19205700  1
  O  O118  1  0.11807300  0.30376200  0.36937400  1
  O  O119  1  0.11962650  0.81253350  0.36971000  1
  O  O120  1  0.88037350  0.18746650  0.63029000  1
  O  O121  1  0.88192700  0.69623800  0.63062600  1
  O  O122  1  0.88795550  0.81627550  0.80794300  1
  O  O123  1  0.87178300  0.31228000  0.80021000  1
  O  O124  1  0.88423350  0.18084150  0.97700400  1
  O  O125  1  0.88498450  0.69578250  0.96225600  1
  O  O126  1  0.88037350  0.81253350  0.13029000  1
  O  O127  1  0.88192700  0.30376200  0.13062600  1
  O  O128  1  0.88795550  0.18372450  0.30794300  1
  O  O129  1  0.87178300  0.68772000  0.30021000  1
  O  O130  1  0.88423350  0.81915850  0.47700400  1
  O  O131  1  0.85748350  0.44924950  0.64494300  1
  O  O132  1  0.88498450  0.30421750  0.46225600  1
  O  O133  1  0.84975200  0.55094000  0.81227500  1
  O  O134  1  0.84942350  0.45203450  0.98095300  1
  O  O135  1  0.85748350  0.55075050  0.14494300  1
  O  O136  1  0.84975200  0.44906000  0.31227500  1
  O  O137  1  0.84942350  0.54796550  0.48095300  1
  O  O138  1  0.63150750  0.43586750  0.52856400  1
  O  O139  1  0.64245500  0.55599200  0.68839500  1
  O  O140  1  0.62967450  0.43834150  0.86131600  1
  O  O141  1  0.63150750  0.56413250  0.02856400  1
  O  O142  1  0.64245500  0.44400800  0.18839500  1
  O  O143  1  0.62967450  0.56165850  0.36131600  1
