# generated using pymatgen
data_LiMnVP2(HO5)2
_symmetry_space_group_name_H-M   'P 1'
_cell_length_a   6.79434597
_cell_length_b   7.44397993
_cell_length_c   11.32063412
_cell_angle_alpha   98.64842131
_cell_angle_beta   106.95260001
_cell_angle_gamma   88.85579793
_symmetry_Int_Tables_number   1
_chemical_formula_structural   LiMnVP2(HO5)2
_chemical_formula_sum   'Li3 Mn3 V3 P6 H6 O30'
_cell_volume   541.28347289
_cell_formula_units_Z   3
loop_
 _symmetry_equiv_pos_site_id
 _symmetry_equiv_pos_as_xyz
  1  'x, y, z'
loop_
 _atom_site_type_symbol
 _atom_site_label
 _atom_site_symmetry_multiplicity
 _atom_site_fract_x
 _atom_site_fract_y
 _atom_site_fract_z
 _atom_site_occupancy
  Li  Li0  1  0.25353100  0.30376900  0.15820600  1
  Li  Li1  1  0.08001500  0.35937300  0.50700300  1
  Li  Li2  1  0.74677100  0.69596900  0.84035400  1
  Mn  Mn3  1  0.66649000  0.33175800  0.33317500  1
  Mn  Mn4  1  0.32989500  0.67017300  0.66443500  1
  Mn  Mn5  1  0.00031900  0.99849300  0.99948800  1
  V  V6  1  0.16934500  0.33361200  0.83490200  1
  V  V7  1  0.82885500  0.66407000  0.16619500  1
  V  V8  1  0.50283600  0.99966000  0.50129800  1
  P  P9  1  0.05075900  0.07116900  0.30172500  1
  P  P10  1  0.61726700  0.25765500  0.03032000  1
  P  P11  1  0.28218900  0.59399300  0.36265000  1
  P  P12  1  0.71753500  0.40533100  0.63706600  1
  P  P13  1  0.38350900  0.74014600  0.96792400  1
  P  P14  1  0.95027600  0.92606200  0.69902100  1
  H  H15  1  0.04275700  0.66918300  0.01682800  1
  H  H16  1  0.68379700  0.00085200  0.33530800  1
  H  H17  1  0.37360400  0.33795600  0.68186500  1
  H  H18  1  0.65074900  0.66526200  0.33234600  1
  H  H19  1  0.31129900  0.99995900  0.66300900  1
  H  H20  1  0.95739300  0.32999900  0.98386000  1
  O  O21  1  0.13944100  0.07978000  0.19384200  1
  O  O22  1  0.11024200  0.59054800  0.23476900  1
  O  O23  1  0.22333800  0.07765400  0.42922100  1
  O  O24  1  0.09635000  0.09651200  0.72097900  1
  O  O25  1  0.52129900  0.26269300  0.13595700  1
  O  O26  1  0.73978900  0.08453600  0.01532300  1
  O  O27  1  0.19264000  0.58174700  0.46948500  1
  O  O28  1  0.40080100  0.41764600  0.33829600  1
  O  O29  1  0.59475800  0.08868700  0.36894600  1
  O  O30  1  0.76620800  0.42562800  0.05093700  1
  O  O31  1  0.55906400  0.73923800  0.09316500  1
  O  O32  1  0.07588100  0.25466100  0.97268300  1
  O  O33  1  0.07265800  0.75278600  0.68176900  1
  O  O34  1  0.25577200  0.41419300  0.69311400  1
  O  O35  1  0.43102600  0.76141600  0.38722800  1
  O  O36  1  0.56561100  0.24063800  0.61547300  1
  O  O37  1  0.73900500  0.57754200  0.29764400  1
  O  O38  1  0.93148600  0.24762600  0.32513800  1
  O  O39  1  0.92361100  0.74315800  0.02710700  1
  O  O40  1  0.44131200  0.26243400  0.90412000  1
  O  O41  1  0.23407600  0.57199000  0.94907000  1
  O  O42  1  0.40152900  0.91302300  0.62990100  1
  O  O43  1  0.59896900  0.58206400  0.65785500  1
  O  O44  1  0.81208700  0.40215900  0.53113800  1
  O  O45  1  0.25974700  0.91336200  0.98197500  1
  O  O46  1  0.47729200  0.73120600  0.86094500  1
  O  O47  1  0.90288800  0.90343000  0.27827100  1
  O  O48  1  0.77501600  0.93013300  0.57405500  1
  O  O49  1  0.89038500  0.41083600  0.76578800  1
  O  O50  1  0.85915900  0.92029200  0.80635700  1
