# generated using pymatgen
data_Li7Fe5O12
_symmetry_space_group_name_H-M   'P 1'
_cell_length_a   5.24466000
_cell_length_b   8.76497000
_cell_length_c   9.66784897
_cell_angle_alpha   90.00000000
_cell_angle_beta   98.71043956
_cell_angle_gamma   90.00000000
_symmetry_Int_Tables_number   1
_chemical_formula_structural   Li7Fe5O12
_chemical_formula_sum   'Li14 Fe10 O24'
_cell_volume   439.29827939
_cell_formula_units_Z   2
loop_
 _symmetry_equiv_pos_site_id
 _symmetry_equiv_pos_as_xyz
  1  'x, y, z'
loop_
 _atom_site_type_symbol
 _atom_site_label
 _atom_site_symmetry_multiplicity
 _atom_site_fract_x
 _atom_site_fract_y
 _atom_site_fract_z
 _atom_site_occupancy
  Li  Li0  1  0.50000000  0.75148000  0.00000000  1
  Li  Li1  1  0.25786000  0.91391000  0.75799100  1
  Li  Li2  1  0.24612200  0.08681900  0.24420400  1
  Li  Li3  1  0.74214000  0.91391000  0.24200900  1
  Li  Li4  1  0.75387800  0.08681900  0.75579600  1
  Li  Li5  1  0.50000000  0.24608100  0.50000000  1
  Li  Li6  1  0.50000000  0.42296200  0.00000000  1
  Li  Li7  1  0.00000000  0.25148000  0.00000000  1
  Li  Li8  1  0.75786000  0.41391000  0.75799100  1
  Li  Li9  1  0.74612200  0.58681900  0.24420400  1
  Li  Li10  1  0.24214000  0.41391000  0.24200900  1
  Li  Li11  1  0.25387800  0.58681900  0.75579600  1
  Li  Li12  1  0.00000000  0.74608100  0.50000000  1
  Li  Li13  1  0.00000000  0.92296200  0.00000000  1
  Fe  Fe14  1  0.50000000  0.57803800  0.50000000  1
  Fe  Fe15  1  0.24413050  0.75589550  0.24187000  1
  Fe  Fe16  1  0.75586950  0.75589550  0.75813000  1
  Fe  Fe17  1  0.50000000  0.92067300  0.50000000  1
  Fe  Fe18  1  0.50000000  0.07887400  0.00000000  1
  Fe  Fe19  1  0.00000000  0.07803800  0.50000000  1
  Fe  Fe20  1  0.74413050  0.25589550  0.24187000  1
  Fe  Fe21  1  0.25586950  0.25589550  0.75813000  1
  Fe  Fe22  1  0.00000000  0.42067300  0.50000000  1
  Fe  Fe23  1  0.00000000  0.57887400  0.00000000  1
  O  O24  1  0.83554250  0.08950150  0.11624300  1
  O  O25  1  0.16445750  0.08950150  0.88375700  1
  O  O26  1  0.40857150  0.74856250  0.62949700  1
  O  O27  1  0.59142850  0.74856250  0.37050300  1
  O  O28  1  0.37180900  0.91877000  0.12244800  1
  O  O29  1  0.62819100  0.91877000  0.87755200  1
  O  O30  1  0.35299100  0.08243200  0.61691400  1
  O  O31  1  0.64700900  0.08243200  0.38308600  1
  O  O32  1  0.40038800  0.23946500  0.12698400  1
  O  O33  1  0.59961200  0.23946500  0.87301600  1
  O  O34  1  0.85714400  0.91559100  0.62072100  1
  O  O35  1  0.14285600  0.91559100  0.37927900  1
  O  O36  1  0.33554250  0.58950150  0.11624300  1
  O  O37  1  0.66445750  0.58950150  0.88375700  1
  O  O38  1  0.90857150  0.24856250  0.62949700  1
  O  O39  1  0.09142850  0.24856250  0.37050300  1
  O  O40  1  0.87180900  0.41877000  0.12244800  1
  O  O41  1  0.12819100  0.41877000  0.87755200  1
  O  O42  1  0.85299100  0.58243200  0.61691400  1
  O  O43  1  0.14700900  0.58243200  0.38308600  1
  O  O44  1  0.90038800  0.73946500  0.12698400  1
  O  O45  1  0.09961200  0.73946500  0.87301600  1
  O  O46  1  0.35714400  0.41559100  0.62072100  1
  O  O47  1  0.64285600  0.41559100  0.37927900  1
