# generated using pymatgen
data_Li2CrCo3O8
_symmetry_space_group_name_H-M   'P 1'
_cell_length_a   11.50690400
_cell_length_b   11.47884800
_cell_length_c   8.14302690
_cell_angle_alpha   90.00000000
_cell_angle_beta   90.10960963
_cell_angle_gamma   90.00000000
_symmetry_Int_Tables_number   1
_chemical_formula_structural   Li2CrCo3O8
_chemical_formula_sum   'Li16 Cr8 Co24 O64'
_cell_volume   1075.57789905
_cell_formula_units_Z   8
loop_
 _symmetry_equiv_pos_site_id
 _symmetry_equiv_pos_as_xyz
  1  'x, y, z'
loop_
 _atom_site_type_symbol
 _atom_site_label
 _atom_site_symmetry_multiplicity
 _atom_site_fract_x
 _atom_site_fract_y
 _atom_site_fract_z
 _atom_site_occupancy
  Li  Li0  1  0.37422750  0.62584750  0.87496500  1
  Li  Li1  1  0.62577250  0.62584750  0.12503500  1
  Li  Li2  1  0.37452450  0.37371250  0.62459700  1
  Li  Li3  1  0.62547550  0.37371250  0.37540300  1
  Li  Li4  1  0.37531000  0.12401300  0.87761200  1
  Li  Li5  1  0.37696050  0.87252350  0.62435000  1
  Li  Li6  1  0.62469000  0.12401300  0.12238800  1
  Li  Li7  1  0.62303950  0.87252350  0.37565000  1
  Li  Li8  1  0.87422750  0.12584750  0.87496500  1
  Li  Li9  1  0.12577250  0.12584750  0.12503500  1
  Li  Li10  1  0.87452450  0.87371250  0.62459700  1
  Li  Li11  1  0.12547550  0.87371250  0.37540300  1
  Li  Li12  1  0.87531000  0.62401300  0.87761200  1
  Li  Li13  1  0.87696050  0.37252350  0.62435000  1
  Li  Li14  1  0.12469000  0.62401300  0.12238800  1
  Li  Li15  1  0.12303950  0.37252350  0.37565000  1
  Cr  Cr16  1  0.87480950  0.99929750  0.25296400  1
  Cr  Cr17  1  0.12519050  0.99929750  0.74703600  1
  Cr  Cr18  1  0.50000000  0.12092800  0.50000000  1
  Cr  Cr19  1  0.50000000  0.87540900  0.00000000  1
  Cr  Cr20  1  0.37480950  0.49929750  0.25296400  1
  Cr  Cr21  1  0.62519050  0.49929750  0.74703600  1
  Cr  Cr22  1  0.00000000  0.62092800  0.50000000  1
  Cr  Cr23  1  0.00000000  0.37540900  0.00000000  1
  Co  Co24  1  0.50000000  0.62571500  0.50000000  1
  Co  Co25  1  0.62691350  0.75087550  0.74739500  1
  Co  Co26  1  0.75119900  0.87418000  0.99722800  1
  Co  Co27  1  0.25140300  0.12506100  0.49895000  1
  Co  Co28  1  0.37501150  0.24806350  0.24942500  1
  Co  Co29  1  0.50000000  0.37248600  0.00000000  1
  Co  Co30  1  0.37317150  0.99924250  0.24945100  1
  Co  Co31  1  0.24880100  0.87418000  0.00277200  1
  Co  Co32  1  0.62498850  0.24806350  0.75057500  1
  Co  Co33  1  0.37308650  0.75087550  0.25260500  1
  Co  Co34  1  0.74859700  0.12506100  0.50105000  1
  Co  Co35  1  0.62682850  0.99924250  0.75054900  1
  Co  Co36  1  0.00000000  0.12571500  0.50000000  1
  Co  Co37  1  0.12691350  0.25087550  0.74739500  1
  Co  Co38  1  0.25119900  0.37418000  0.99722800  1
  Co  Co39  1  0.75140300  0.62506100  0.49895000  1
  Co  Co40  1  0.87501150  0.74806350  0.24942500  1
  Co  Co41  1  0.00000000  0.87248600  0.00000000  1
  Co  Co42  1  0.87317150  0.49924250  0.24945100  1
  Co  Co43  1  0.74880100  0.37418000  0.00277200  1
  Co  Co44  1  0.12498850  0.74806350  0.75057500  1
  Co  Co45  1  0.87308650  0.25087550  0.25260500  1
  Co  Co46  1  0.24859700  0.62506100  0.50105000  1
  Co  Co47  1  0.12682850  0.49924250  0.75054900  1
  O  O48  1  0.48616900  0.62561900  0.26563500  1
  O  O49  1  0.87593150  0.01344150  0.49106400  1
  O  O50  1  0.73807800  0.87410100  0.76406400  1
  O  O51  1  0.51383100  0.62561900  0.73436500  1
  O  O52  1  0.63458800  0.75982500  0.97980800  1
  O  O53  1  0.62552800  0.73562600  0.51688500  1
  O  O54  1  0.76278500  0.87569100  0.23212300  1
  O  O55  1  0.87613650  0.98232150  0.00764000  1
  O  O56  1  0.12406850  0.01344150  0.50893600  1
  O  O57  1  0.23665800  0.12718100  0.73911100  1
  O  O58  1  0.37520850  0.26442950  0.01176600  1
  O  O59  1  0.37740450  0.23691750  0.48357400  1
  O  O60  1  0.48987900  0.37547900  0.23111800  1
  O  O61  1  0.26469400  0.12501200  0.26582200  1
  O  O62  1  0.12386350  0.98232150  0.99236000  1
  O  O63  1  0.51012100  0.37547900  0.76888200  1
  O  O64  1  0.37658450  0.01218450  0.48689800  1
  O  O65  1  0.48539900  0.12384500  0.25871900  1
  O  O66  1  0.62479150  0.26442950  0.98823400  1
  O  O67  1  0.37024200  0.98736100  0.01479900  1
  O  O68  1  0.23721500  0.87569100  0.76787700  1
  O  O69  1  0.26192200  0.87410100  0.23593600  1
  O  O70  1  0.62259550  0.23691750  0.51642600  1
  O  O71  1  0.51460100  0.12384500  0.74128100  1
  O  O72  1  0.48394550  0.87154150  0.24437400  1
  O  O73  1  0.36541200  0.75982500  0.02019200  1
  O  O74  1  0.73530600  0.12501200  0.73417800  1
  O  O75  1  0.76334200  0.12718100  0.26088900  1
  O  O76  1  0.62341550  0.01218450  0.51310200  1
  O  O77  1  0.37447200  0.73562600  0.48311500  1
  O  O78  1  0.51605450  0.87154150  0.75562600  1
  O  O79  1  0.62975800  0.98736100  0.98520100  1
  O  O80  1  0.98616900  0.12561900  0.26563500  1
  O  O81  1  0.37593150  0.51344150  0.49106400  1
  O  O82  1  0.23807800  0.37410100  0.76406400  1
  O  O83  1  0.01383100  0.12561900  0.73436500  1
  O  O84  1  0.13458800  0.25982500  0.97980800  1
  O  O85  1  0.12552800  0.23562600  0.51688500  1
  O  O86  1  0.26278500  0.37569100  0.23212300  1
  O  O87  1  0.37613650  0.48232150  0.00764000  1
  O  O88  1  0.62406850  0.51344150  0.50893600  1
  O  O89  1  0.73665800  0.62718100  0.73911100  1
  O  O90  1  0.87520850  0.76442950  0.01176600  1
  O  O91  1  0.87740450  0.73691750  0.48357400  1
  O  O92  1  0.98987900  0.87547900  0.23111800  1
  O  O93  1  0.76469400  0.62501200  0.26582200  1
  O  O94  1  0.62386350  0.48232150  0.99236000  1
  O  O95  1  0.01012100  0.87547900  0.76888200  1
  O  O96  1  0.87658450  0.51218450  0.48689800  1
  O  O97  1  0.98539900  0.62384500  0.25871900  1
  O  O98  1  0.12479150  0.76442950  0.98823400  1
  O  O99  1  0.87024200  0.48736100  0.01479900  1
  O  O100  1  0.73721500  0.37569100  0.76787700  1
  O  O101  1  0.76192200  0.37410100  0.23593600  1
  O  O102  1  0.12259550  0.73691750  0.51642600  1
  O  O103  1  0.01460100  0.62384500  0.74128100  1
  O  O104  1  0.98394550  0.37154150  0.24437400  1
  O  O105  1  0.86541200  0.25982500  0.02019200  1
  O  O106  1  0.23530600  0.62501200  0.73417800  1
  O  O107  1  0.26334200  0.62718100  0.26088900  1
  O  O108  1  0.12341550  0.51218450  0.51310200  1
  O  O109  1  0.87447200  0.23562600  0.48311500  1
  O  O110  1  0.01605450  0.37154150  0.75562600  1
  O  O111  1  0.12975800  0.48736100  0.98520100  1
