# generated using pymatgen
data_Zr5N5O2
_symmetry_space_group_name_H-M   'P 1'
_cell_length_a   10.57501600
_cell_length_b   3.11939800
_cell_length_c   18.53610024
_cell_angle_alpha   90.00000000
_cell_angle_beta   105.84463507
_cell_angle_gamma   90.00000000
_symmetry_Int_Tables_number   1
_chemical_formula_structural   Zr5N5O2
_chemical_formula_sum   'Zr20 N20 O8'
_cell_volume   588.23083488
_cell_formula_units_Z   4
loop_
 _symmetry_equiv_pos_site_id
 _symmetry_equiv_pos_as_xyz
  1  'x, y, z'
loop_
 _atom_site_type_symbol
 _atom_site_label
 _atom_site_symmetry_multiplicity
 _atom_site_fract_x
 _atom_site_fract_y
 _atom_site_fract_z
 _atom_site_occupancy
  Zr  Zr0  1  0.20030900  0.50000000  0.15416000  1
  Zr  Zr1  1  0.38951300  0.50000000  0.54096800  1
  Zr  Zr2  1  0.29593000  0.00000000  0.34566600  1
  Zr  Zr3  1  0.48929600  0.50000000  0.75359300  1
  Zr  Zr4  1  0.60906100  0.50000000  0.96082600  1
  Zr  Zr5  1  0.38607400  0.50000000  0.04012600  1
  Zr  Zr6  1  0.49884600  0.50000000  0.25128200  1
  Zr  Zr7  1  0.69844100  0.00000000  0.65084800  1
  Zr  Zr8  1  0.61418500  0.50000000  0.46282000  1
  Zr  Zr9  1  0.80742200  0.50000000  0.85199300  1
  Zr  Zr10  1  0.70030900  0.00000000  0.15416000  1
  Zr  Zr11  1  0.88951300  0.00000000  0.54096800  1
  Zr  Zr12  1  0.79593000  0.50000000  0.34566600  1
  Zr  Zr13  1  0.98929600  0.00000000  0.75359300  1
  Zr  Zr14  1  0.10906100  0.00000000  0.96082600  1
  Zr  Zr15  1  0.88607400  0.00000000  0.04012600  1
  Zr  Zr16  1  0.99884600  0.00000000  0.25128200  1
  Zr  Zr17  1  0.19844100  0.50000000  0.65084800  1
  Zr  Zr18  1  0.11418500  0.00000000  0.46282000  1
  Zr  Zr19  1  0.30742200  0.00000000  0.85199300  1
  N  N20  1  0.00393900  0.50000000  0.00514000  1
  N  N21  1  0.15482900  0.50000000  0.27862700  1
  N  N22  1  0.23816900  0.50000000  0.42820800  1
  N  N23  1  0.45354600  0.50000000  0.85804900  1
  N  N24  1  0.26654600  0.00000000  0.07711100  1
  N  N25  1  0.34126700  0.00000000  0.22514600  1
  N  N26  1  0.50696000  0.00000000  0.50544700  1
  N  N27  1  0.73774700  0.00000000  0.92748900  1
  N  N28  1  0.76553700  0.50000000  0.57504400  1
  N  N29  1  0.83881500  0.50000000  0.72309100  1
  N  N30  1  0.50393900  0.00000000  0.00514000  1
  N  N31  1  0.65482900  0.00000000  0.27862700  1
  N  N32  1  0.73816900  0.00000000  0.42820800  1
  N  N33  1  0.95354600  0.00000000  0.85804900  1
  N  N34  1  0.76654600  0.50000000  0.07711100  1
  N  N35  1  0.84126700  0.50000000  0.22514600  1
  N  N36  1  0.00696000  0.50000000  0.50544700  1
  N  N37  1  0.23774700  0.50000000  0.92748900  1
  N  N38  1  0.26553700  0.00000000  0.57504400  1
  N  N39  1  0.33881500  0.00000000  0.72309100  1
  O  O40  1  0.54612500  0.50000000  0.64677400  1
  O  O41  1  0.45479100  0.50000000  0.35857000  1
  O  O42  1  0.65460900  0.00000000  0.77514200  1
  O  O43  1  0.54549100  0.50000000  0.14580900  1
  O  O44  1  0.04612500  0.00000000  0.64677400  1
  O  O45  1  0.95479100  0.00000000  0.35857000  1
  O  O46  1  0.15460900  0.50000000  0.77514200  1
  O  O47  1  0.04549100  0.00000000  0.14580900  1
