# generated using pymatgen
data_Li2MnV(P2O7)2
_symmetry_space_group_name_H-M   'P 1'
_cell_length_a   7.15811405
_cell_length_b   9.61145197
_cell_length_c   9.61491824
_cell_angle_alpha   119.31362999
_cell_angle_beta   100.48998300
_cell_angle_gamma   100.45772551
_symmetry_Int_Tables_number   1
_chemical_formula_structural   Li2MnV(P2O7)2
_chemical_formula_sum   'Li4 Mn2 V2 P8 O28'
_cell_volume   538.16210509
_cell_formula_units_Z   2
loop_
 _symmetry_equiv_pos_site_id
 _symmetry_equiv_pos_as_xyz
  1  'x, y, z'
loop_
 _atom_site_type_symbol
 _atom_site_label
 _atom_site_symmetry_multiplicity
 _atom_site_fract_x
 _atom_site_fract_y
 _atom_site_fract_z
 _atom_site_occupancy
  Li  Li0  1  0.32504059  0.36129691  0.56818045  1
  Li  Li1  1  0.67427043  0.86141865  0.81931009  1
  Li  Li2  1  0.32572845  0.36130998  0.07155972  1
  Li  Li3  1  0.67592421  0.86068136  0.31914433  1
  Mn  Mn4  1  0.26994490  0.99949906  0.74278366  1
  Mn  Mn5  1  0.73071195  0.49815328  0.50993479  1
  V  V6  1  0.27178601  0.99928592  0.24304172  1
  V  V7  1  0.72752034  0.50026778  0.00575286  1
  P  P8  1  0.51845072  0.17908073  0.47033472  1
  P  P9  1  0.52176006  0.17920727  0.96982077  1
  P  P10  1  0.08709730  0.78795631  0.54507058  1
  P  P11  1  0.08844653  0.78300595  0.04456941  1
  P  P12  1  0.91091987  0.28621675  0.41974945  1
  P  P13  1  0.91365045  0.28422779  0.92049602  1
  P  P14  1  0.48336729  0.67857744  0.10231822  1
  P  P15  1  0.47699131  0.67995723  0.59850012  1
  O  O16  1  0.08462832  0.93359813  0.87532670  1
  O  O17  1  0.39185869  0.17650666  0.80639102  1
  O  O18  1  0.50521357  0.84141027  0.95667924  1
  O  O19  1  0.11237867  0.20264223  0.51843108  1
  O  O20  1  0.15013112  0.82716384  0.69008571  1
  O  O21  1  0.48091641  0.03415197  0.62889728  1
  O  O22  1  0.49491944  0.34049189  0.45438393  1
  O  O23  1  0.50667188  0.34304489  0.95678172  1
  O  O24  1  0.60443237  0.67724858  0.76526838  1
  O  O25  1  0.60929701  0.67309169  0.27137131  1
  O  O26  1  0.91611959  0.43276112  0.93972636  1
  O  O27  1  0.91123233  0.43650968  0.43829132  1
  O  O28  1  0.75092119  0.15495224  0.50076795  1
  O  O29  1  0.24623122  0.65462059  0.59525955  1
  O  O30  1  0.25056583  0.65389006  0.09561033  1
  O  O31  1  0.08757135  0.93708529  0.37642959  1
  O  O32  1  0.39571029  0.17385997  0.30627685  1
  O  O33  1  0.49229922  0.84280544  0.44868562  1
  O  O34  1  0.51797633  0.53706858  0.58416374  1
  O  O35  1  0.51782905  0.53649267  0.08452382  1
  O  O36  1  0.85569990  0.32436351  0.73674702  1
  O  O37  1  0.84625743  0.32663074  0.23538812  1
  O  O38  1  0.88825203  0.69390237  0.02930027  1
  O  O39  1  0.88581742  0.70477047  0.52883522  1
  O  O40  1  0.11353134  0.19582255  0.02541651  1
  O  O41  1  0.14705439  0.82548082  0.18541691  1
  O  O42  1  0.48254237  0.03806806  0.12853573  1
  O  O43  1  0.75233282  0.15258528  0.00085880  1
