# generated using pymatgen
data_Tm2FeC4
_symmetry_space_group_name_H-M   'P 1'
_cell_length_a   4.97168600
_cell_length_b   7.44946200
_cell_length_c   9.42072600
_cell_angle_alpha   90.00000000
_cell_angle_beta   90.00000000
_cell_angle_gamma   90.00000000
_symmetry_Int_Tables_number   1
_chemical_formula_structural   Tm2FeC4
_chemical_formula_sum   'Tm8 Fe4 C16'
_cell_volume   348.90964390
_cell_formula_units_Z   4
loop_
 _symmetry_equiv_pos_site_id
 _symmetry_equiv_pos_as_xyz
  1  'x, y, z'
loop_
 _atom_site_type_symbol
 _atom_site_label
 _atom_site_symmetry_multiplicity
 _atom_site_fract_x
 _atom_site_fract_y
 _atom_site_fract_z
 _atom_site_occupancy
  Tm  Tm0  1  0.00000000  0.34506800  0.85529400  1
  Tm  Tm1  1  0.00000000  0.65493200  0.14470600  1
  Tm  Tm2  1  0.50000000  0.34506800  0.14470600  1
  Tm  Tm3  1  0.50000000  0.65493200  0.85529400  1
  Tm  Tm4  1  0.50000000  0.84506800  0.35529400  1
  Tm  Tm5  1  0.50000000  0.15493200  0.64470600  1
  Tm  Tm6  1  0.00000000  0.84506800  0.64470600  1
  Tm  Tm7  1  0.00000000  0.15493200  0.35529400  1
  Fe  Fe8  1  0.75000000  0.00000000  0.00000000  1
  Fe  Fe9  1  0.25000000  0.00000000  0.00000000  1
  Fe  Fe10  1  0.25000000  0.50000000  0.50000000  1
  Fe  Fe11  1  0.75000000  0.50000000  0.50000000  1
  C  C12  1  0.50000000  0.83316000  0.07820400  1
  C  C13  1  0.50000000  0.16684000  0.92179600  1
  C  C14  1  0.00000000  0.83316000  0.92179600  1
  C  C15  1  0.00000000  0.16684000  0.07820400  1
  C  C16  1  0.50000000  0.66029200  0.12990000  1
  C  C17  1  0.50000000  0.33970800  0.87010000  1
  C  C18  1  0.00000000  0.33970800  0.12990000  1
  C  C19  1  0.00000000  0.66029200  0.87010000  1
  C  C20  1  0.00000000  0.33316000  0.57820400  1
  C  C21  1  0.00000000  0.66684000  0.42179600  1
  C  C22  1  0.50000000  0.33316000  0.42179600  1
  C  C23  1  0.50000000  0.66684000  0.57820400  1
  C  C24  1  0.00000000  0.16029200  0.62990000  1
  C  C25  1  0.00000000  0.83970800  0.37010000  1
  C  C26  1  0.50000000  0.83970800  0.62990000  1
  C  C27  1  0.50000000  0.16029200  0.37010000  1
