# generated using pymatgen
data_LiNiPO4
_symmetry_space_group_name_H-M   'P 1'
_cell_length_a   7.77813737
_cell_length_b   5.15564761
_cell_length_c   8.65805199
_cell_angle_alpha   90.00000000
_cell_angle_beta   101.33683523
_cell_angle_gamma   90.00000000
_symmetry_Int_Tables_number   1
_chemical_formula_structural   LiNiPO4
_chemical_formula_sum   'Li4 Ni4 P4 O16'
_cell_volume   340.42505874
_cell_formula_units_Z   4
loop_
 _symmetry_equiv_pos_site_id
 _symmetry_equiv_pos_as_xyz
  1  'x, y, z'
loop_
 _atom_site_type_symbol
 _atom_site_label
 _atom_site_symmetry_multiplicity
 _atom_site_fract_x
 _atom_site_fract_y
 _atom_site_fract_z
 _atom_site_occupancy
  Li  Li0  1  0.99241700  0.93813500  0.58895100  1
  Li  Li1  1  0.00758300  0.43813500  0.41104900  1
  Li  Li2  1  0.46476100  0.02523100  0.82018200  1
  Li  Li3  1  0.53523900  0.52523100  0.17981800  1
  Ni  Ni4  1  0.20030200  0.03491700  0.09271500  1
  Ni  Ni5  1  0.37606600  0.48177100  0.58885300  1
  Ni  Ni6  1  0.79969800  0.53491700  0.90728500  1
  Ni  Ni7  1  0.62393400  0.98177100  0.41114700  1
  P  P8  1  0.76702200  0.02829400  0.08973800  1
  P  P9  1  0.23297800  0.52829400  0.91026200  1
  P  P10  1  0.71306500  0.44479600  0.54346700  1
  P  P11  1  0.28693500  0.94479600  0.45653300  1
  O  O12  1  0.96767900  0.00251800  0.14539500  1
  O  O13  1  0.03232100  0.50251800  0.85460500  1
  O  O14  1  0.70466300  0.89164000  0.92709100  1
  O  O15  1  0.29533700  0.39164000  0.07290900  1
  O  O16  1  0.79848800  0.70639600  0.52046900  1
  O  O17  1  0.20151200  0.20639600  0.47953100  1
  O  O18  1  0.83645800  0.22375500  0.51191000  1
  O  O19  1  0.16354200  0.72375500  0.48809000  1
  O  O20  1  0.71466100  0.32251800  0.07392000  1
  O  O21  1  0.28533900  0.82251800  0.92608000  1
  O  O22  1  0.65376400  0.41905700  0.70385000  1
  O  O23  1  0.34623600  0.91905700  0.29615000  1
  O  O24  1  0.67027600  0.89166700  0.20702800  1
  O  O25  1  0.32972400  0.39166700  0.79297200  1
  O  O26  1  0.53956500  0.40821000  0.41651400  1
  O  O27  1  0.46043500  0.90821000  0.58348600  1
