# generated using pymatgen
data_Mn3Fe2Sb3O16
_symmetry_space_group_name_H-M   'P 1'
_cell_length_a   10.58587800
_cell_length_b   6.02947800
_cell_length_c   9.13789516
_cell_angle_alpha   90.00000000
_cell_angle_beta   90.61368805
_cell_angle_gamma   90.00000000
_symmetry_Int_Tables_number   1
_chemical_formula_structural   Mn3Fe2Sb3O16
_chemical_formula_sum   'Mn6 Fe4 Sb6 O32'
_cell_volume   583.21388918
_cell_formula_units_Z   2
loop_
 _symmetry_equiv_pos_site_id
 _symmetry_equiv_pos_as_xyz
  1  'x, y, z'
loop_
 _atom_site_type_symbol
 _atom_site_label
 _atom_site_symmetry_multiplicity
 _atom_site_fract_x
 _atom_site_fract_y
 _atom_site_fract_z
 _atom_site_occupancy
  Mn  Mn0  1  0.83022500  0.00000000  0.78599700  1
  Mn  Mn1  1  0.91398700  0.25220400  0.28971000  1
  Mn  Mn2  1  0.91398700  0.74779600  0.28971000  1
  Mn  Mn3  1  0.33022500  0.50000000  0.78599700  1
  Mn  Mn4  1  0.41398700  0.75220400  0.28971000  1
  Mn  Mn5  1  0.41398700  0.24779600  0.28971000  1
  Fe  Fe6  1  0.67391900  0.00000000  0.50147200  1
  Fe  Fe7  1  0.84374800  0.50000000  0.00940200  1
  Fe  Fe8  1  0.17391900  0.50000000  0.50147200  1
  Fe  Fe9  1  0.34374800  0.00000000  0.00940200  1
  Sb  Sb10  1  0.58214550  0.75257350  0.78846900  1
  Sb  Sb11  1  0.58214550  0.24742650  0.78846900  1
  Sb  Sb12  1  0.66542700  0.50000000  0.28824700  1
  Sb  Sb13  1  0.08214550  0.25257350  0.78846900  1
  Sb  Sb14  1  0.08214550  0.74742650  0.78846900  1
  Sb  Sb15  1  0.16542700  0.00000000  0.28824700  1
  O  O16  1  0.58224350  0.74886950  0.39573500  1
  O  O17  1  0.51892800  0.00000000  0.65582100  1
  O  O18  1  0.65296500  0.00000000  0.91241500  1
  O  O19  1  0.50999100  0.50000000  0.67402800  1
  O  O20  1  0.99324700  0.00000000  0.18587100  1
  O  O21  1  0.58224350  0.25113050  0.39573500  1
  O  O22  1  0.73731500  0.78362300  0.66501100  1
  O  O23  1  0.73731500  0.21637700  0.66501100  1
  O  O24  1  0.66550700  0.50000000  0.90502500  1
  O  O25  1  0.83642900  0.00000000  0.39466900  1
  O  O26  1  0.76470850  0.28058250  0.16498800  1
  O  O27  1  0.76470850  0.71941750  0.16498800  1
  O  O28  1  0.83697600  0.50000000  0.39940500  1
  O  O29  1  0.91839900  0.24748100  0.89552800  1
  O  O30  1  0.97552700  0.50000000  0.17305900  1
  O  O31  1  0.91839900  0.75251900  0.89552800  1
  O  O32  1  0.08224350  0.24886950  0.39573500  1
  O  O33  1  0.01892800  0.50000000  0.65582100  1
  O  O34  1  0.15296500  0.50000000  0.91241500  1
  O  O35  1  0.00999100  0.00000000  0.67402800  1
  O  O36  1  0.49324700  0.50000000  0.18587100  1
  O  O37  1  0.08224350  0.75113050  0.39573500  1
  O  O38  1  0.23731500  0.28362300  0.66501100  1
  O  O39  1  0.23731500  0.71637700  0.66501100  1
  O  O40  1  0.16550700  0.00000000  0.90502500  1
  O  O41  1  0.33642900  0.50000000  0.39466900  1
  O  O42  1  0.26470850  0.78058250  0.16498800  1
  O  O43  1  0.26470850  0.21941750  0.16498800  1
  O  O44  1  0.33697600  0.00000000  0.39940500  1
  O  O45  1  0.41839900  0.74748100  0.89552800  1
  O  O46  1  0.47552700  0.00000000  0.17305900  1
  O  O47  1  0.41839900  0.25251900  0.89552800  1
