# generated using pymatgen
data_LiFePO4
_symmetry_space_group_name_H-M   'P 1'
_cell_length_a   5.05822604
_cell_length_b   8.24699336
_cell_length_c   9.06029745
_cell_angle_alpha   90.00000000
_cell_angle_beta   90.00000000
_cell_angle_gamma   90.00000000
_symmetry_Int_Tables_number   1
_chemical_formula_structural   LiFePO4
_chemical_formula_sum   'Li4 Fe4 P4 O16'
_cell_volume   377.95172656
_cell_formula_units_Z   4
loop_
 _symmetry_equiv_pos_site_id
 _symmetry_equiv_pos_as_xyz
  1  'x, y, z'
loop_
 _atom_site_type_symbol
 _atom_site_label
 _atom_site_symmetry_multiplicity
 _atom_site_fract_x
 _atom_site_fract_y
 _atom_site_fract_z
 _atom_site_occupancy
  Li  Li0  1  0.90985500  0.05747150  0.60191100  1
  Li  Li1  1  0.40985500  0.44252850  0.10191100  1
  Li  Li2  1  0.90985500  0.55747150  0.89808900  1
  Li  Li3  1  0.40985500  0.94252850  0.39808900  1
  Fe  Fe4  1  0.51345600  0.34122850  0.53059700  1
  Fe  Fe5  1  0.01345600  0.65877150  0.46940300  1
  Fe  Fe6  1  0.01345600  0.15877150  0.03059700  1
  Fe  Fe7  1  0.51345600  0.84122850  0.96940300  1
  P  P8  1  0.56597600  0.23072550  0.86251900  1
  P  P9  1  0.06597600  0.26927450  0.36251900  1
  P  P10  1  0.56597600  0.73072550  0.63748100  1
  P  P11  1  0.06597600  0.76927450  0.13748100  1
  O  O12  1  0.67148500  0.07173850  0.93967300  1
  O  O13  1  0.17148500  0.42826150  0.43967300  1
  O  O14  1  0.67148500  0.57173850  0.56032700  1
  O  O15  1  0.17148500  0.92826150  0.06032700  1
  O  O16  1  0.19564900  0.12967350  0.45301600  1
  O  O17  1  0.69564900  0.37032650  0.95301600  1
  O  O18  1  0.19564900  0.62967350  0.04698400  1
  O  O19  1  0.69564900  0.87032650  0.54698400  1
  O  O20  1  0.26342400  0.24313750  0.86637300  1
  O  O21  1  0.76342400  0.25686250  0.36637300  1
  O  O22  1  0.26342400  0.74313750  0.63362700  1
  O  O23  1  0.76342400  0.75686250  0.13362700  1
  O  O24  1  0.67108700  0.22428550  0.70110600  1
  O  O25  1  0.17108700  0.27571450  0.20110600  1
  O  O26  1  0.67108700  0.72428550  0.79889400  1
  O  O27  1  0.17108700  0.77571450  0.29889400  1
