# generated using pymatgen
data_NaCrCSO7
_symmetry_space_group_name_H-M   'P 1'
_cell_length_a   5.29649800
_cell_length_b   6.43428200
_cell_length_c   9.06159994
_cell_angle_alpha   90.00000000
_cell_angle_beta   92.34630762
_cell_angle_gamma   90.00000000
_symmetry_Int_Tables_number   1
_chemical_formula_structural   NaCrCSO7
_chemical_formula_sum   'Na2 Cr2 C2 S2 O14'
_cell_volume   308.55283267
_cell_formula_units_Z   2
loop_
 _symmetry_equiv_pos_site_id
 _symmetry_equiv_pos_as_xyz
  1  'x, y, z'
loop_
 _atom_site_type_symbol
 _atom_site_label
 _atom_site_symmetry_multiplicity
 _atom_site_fract_x
 _atom_site_fract_y
 _atom_site_fract_z
 _atom_site_occupancy
  Na  Na0  1  0.76164000  0.48511200  0.22105100  1
  Na  Na1  1  0.23836000  0.98511200  0.77894900  1
  Cr  Cr2  1  0.22054700  0.75940300  0.34017100  1
  Cr  Cr3  1  0.77945300  0.25940300  0.65982900  1
  C  C4  1  0.27580100  0.74228700  0.07824300  1
  C  C5  1  0.72419900  0.24228700  0.92175700  1
  S  S6  1  0.27672900  0.25471300  0.42817000  1
  S  S7  1  0.72327100  0.75471300  0.57183000  1
  O  O8  1  0.69323600  0.24316100  0.05534200  1
  O  O9  1  0.05337800  0.74492200  0.14214300  1
  O  O10  1  0.46303200  0.74122300  0.18276500  1
  O  O11  1  0.21723900  0.07423600  0.33280700  1
  O  O12  1  0.19729400  0.43974500  0.33937400  1
  O  O13  1  0.86119100  0.74546400  0.43264400  1
  O  O14  1  0.55453300  0.26758400  0.46441800  1
  O  O15  1  0.44546700  0.76758400  0.53558200  1
  O  O16  1  0.13880900  0.24546400  0.56735600  1
  O  O17  1  0.80270600  0.93974500  0.66062600  1
  O  O18  1  0.78276100  0.57423600  0.66719300  1
  O  O19  1  0.53696800  0.24122300  0.81723500  1
  O  O20  1  0.94662200  0.24492200  0.85785700  1
  O  O21  1  0.30676400  0.74316100  0.94465800  1
