# generated using pymatgen
data_LiV2O3F
_symmetry_space_group_name_H-M   'P 1'
_cell_length_a   10.39510400
_cell_length_b   6.01712200
_cell_length_c   6.02222867
_cell_angle_alpha   90.00000000
_cell_angle_beta   124.42828375
_cell_angle_gamma   90.00000000
_symmetry_Int_Tables_number   1
_chemical_formula_structural   LiV2O3F
_chemical_formula_sum   'Li4 V8 O12 F4'
_cell_volume   310.70033238
_cell_formula_units_Z   4
loop_
 _symmetry_equiv_pos_site_id
 _symmetry_equiv_pos_as_xyz
  1  'x, y, z'
loop_
 _atom_site_type_symbol
 _atom_site_label
 _atom_site_symmetry_multiplicity
 _atom_site_fract_x
 _atom_site_fract_y
 _atom_site_fract_z
 _atom_site_occupancy
  Li  Li0  1  0.49368400  0.00000000  0.98430500  1
  Li  Li1  1  0.13617800  0.00000000  0.39675400  1
  Li  Li2  1  0.99368400  0.50000000  0.98430500  1
  Li  Li3  1  0.63617800  0.50000000  0.39675400  1
  V  V4  1  0.86973300  0.00000000  0.61172600  1
  V  V5  1  0.24047550  0.23766350  0.99079200  1
  V  V6  1  0.49403300  0.00000000  0.50977800  1
  V  V7  1  0.24047550  0.76233650  0.99079200  1
  V  V8  1  0.36973300  0.50000000  0.61172600  1
  V  V9  1  0.74047550  0.73766350  0.99079200  1
  V  V10  1  0.99403300  0.50000000  0.50977800  1
  V  V11  1  0.74047550  0.26233650  0.99079200  1
  O  O12  1  0.50530200  0.23979600  0.74961100  1
  O  O13  1  0.25730100  0.00000000  0.79178900  1
  O  O14  1  0.26553200  0.00000000  0.25204200  1
  O  O15  1  0.50530200  0.76020400  0.74961100  1
  O  O16  1  0.73447100  0.00000000  0.74520900  1
  O  O17  1  0.75145500  0.00000000  0.22137400  1
  O  O18  1  0.00530200  0.73979600  0.74961100  1
  O  O19  1  0.75730100  0.50000000  0.79178900  1
  O  O20  1  0.76553200  0.50000000  0.25204200  1
  O  O21  1  0.00530200  0.26020400  0.74961100  1
  O  O22  1  0.23447100  0.50000000  0.74520900  1
  O  O23  1  0.25145500  0.50000000  0.22137400  1
  F  F24  1  0.49091300  0.23706500  0.24709500  1
  F  F25  1  0.49091300  0.76293500  0.24709500  1
  F  F26  1  0.99091300  0.73706500  0.24709500  1
  F  F27  1  0.99091300  0.26293500  0.24709500  1
