# generated using pymatgen
data_Li2Mn(CO3)2
_symmetry_space_group_name_H-M   'P 1'
_cell_length_a   5.16871128
_cell_length_b   6.80829013
_cell_length_c   7.95884851
_cell_angle_alpha   90.57541982
_cell_angle_beta   91.36343489
_cell_angle_gamma   111.03315948
_symmetry_Int_Tables_number   1
_chemical_formula_structural   Li2Mn(CO3)2
_chemical_formula_sum   'Li4 Mn2 C4 O12'
_cell_volume   261.28629140
_cell_formula_units_Z   2
loop_
 _symmetry_equiv_pos_site_id
 _symmetry_equiv_pos_as_xyz
  1  'x, y, z'
loop_
 _atom_site_type_symbol
 _atom_site_label
 _atom_site_symmetry_multiplicity
 _atom_site_fract_x
 _atom_site_fract_y
 _atom_site_fract_z
 _atom_site_occupancy
  Li  Li0  1  0.73872400  0.07433700  0.58049100  1
  Li  Li1  1  0.64806900  0.27693200  0.06940100  1
  Li  Li2  1  0.35773600  0.72478900  0.92693200  1
  Li  Li3  1  0.13744900  0.74074400  0.41550300  1
  Mn  Mn4  1  0.00591600  0.99292500  0.00924900  1
  Mn  Mn5  1  0.49854900  0.49211900  0.50110200  1
  C  C6  1  0.29795900  0.13638400  0.74117500  1
  C  C7  1  0.19176400  0.36968300  0.22865200  1
  C  C8  1  0.82080200  0.65187700  0.76030400  1
  C  C9  1  0.68921000  0.86338600  0.27019000  1
  O  O10  1  0.03629600  0.10740800  0.74105700  1
  O  O11  1  0.41316400  0.10413600  0.88129300  1
  O  O12  1  0.44310200  0.18978800  0.60736900  1
  O  O13  1  0.44673300  0.37517600  0.23372100  1
  O  O14  1  0.03280000  0.29936100  0.09654100  1
  O  O15  1  0.92070200  0.62389100  0.61837800  1
  O  O16  1  0.10249200  0.43591100  0.36098800  1
  O  O17  1  0.55953000  0.63224400  0.76171500  1
  O  O18  1  0.97053900  0.69374100  0.89837400  1
  O  O19  1  0.55519100  0.83136400  0.41035400  1
  O  O20  1  0.57189400  0.88356400  0.12853700  1
  O  O21  1  0.94827900  0.88148200  0.27031500  1
