# generated using pymatgen
data_Li2CrS3
_symmetry_space_group_name_H-M   'P 1'
_cell_length_a   6.11409600
_cell_length_b   10.56978600
_cell_length_c   12.06056057
_cell_angle_alpha   90.00000000
_cell_angle_beta   99.95196962
_cell_angle_gamma   90.00000000
_symmetry_Int_Tables_number   1
_chemical_formula_structural   Li2CrS3
_chemical_formula_sum   'Li16 Cr8 S24'
_cell_volume   767.68214170
_cell_formula_units_Z   8
loop_
 _symmetry_equiv_pos_site_id
 _symmetry_equiv_pos_as_xyz
  1  'x, y, z'
loop_
 _atom_site_type_symbol
 _atom_site_label
 _atom_site_symmetry_multiplicity
 _atom_site_fract_x
 _atom_site_fract_y
 _atom_site_fract_z
 _atom_site_occupancy
  Li  Li0  1  0.24428100  0.92027700  0.49882800  1
  Li  Li1  1  0.75000000  0.25000000  0.00000000  1
  Li  Li2  1  0.50000000  0.58513300  0.25000000  1
  Li  Li3  1  0.75000000  0.75000000  0.50000000  1
  Li  Li4  1  0.75571900  0.92027700  0.00117200  1
  Li  Li5  1  0.24428100  0.07972300  0.99882800  1
  Li  Li6  1  0.50000000  0.41486700  0.75000000  1
  Li  Li7  1  0.75571900  0.07972300  0.50117200  1
  Li  Li8  1  0.74428100  0.42027700  0.49882800  1
  Li  Li9  1  0.25000000  0.75000000  0.00000000  1
  Li  Li10  1  0.00000000  0.08513300  0.25000000  1
  Li  Li11  1  0.25000000  0.25000000  0.50000000  1
  Li  Li12  1  0.25571900  0.42027700  0.00117200  1
  Li  Li13  1  0.74428100  0.57972300  0.99882800  1
  Li  Li14  1  0.00000000  0.91486700  0.75000000  1
  Li  Li15  1  0.25571900  0.57972300  0.50117200  1
  Cr  Cr16  1  0.50000000  0.74396300  0.75000000  1
  Cr  Cr17  1  0.50000000  0.92242300  0.25000000  1
  Cr  Cr18  1  0.50000000  0.07757700  0.75000000  1
  Cr  Cr19  1  0.50000000  0.25603700  0.25000000  1
  Cr  Cr20  1  0.00000000  0.24396300  0.75000000  1
  Cr  Cr21  1  0.00000000  0.42242300  0.25000000  1
  Cr  Cr22  1  0.00000000  0.57757700  0.75000000  1
  Cr  Cr23  1  0.00000000  0.75603700  0.25000000  1
  S  S24  1  0.14221650  0.90789050  0.13480200  1
  S  S25  1  0.39953700  0.91090400  0.86285100  1
  S  S26  1  0.35776100  0.76885900  0.36222600  1
  S  S27  1  0.60046300  0.91090400  0.63714900  1
  S  S28  1  0.14221650  0.09210950  0.63480200  1
  S  S29  1  0.35776100  0.23114100  0.86222600  1
  S  S30  1  0.64223900  0.76885900  0.13777400  1
  S  S31  1  0.85778350  0.90789050  0.36519800  1
  S  S32  1  0.39953700  0.08909600  0.36285100  1
  S  S33  1  0.64223900  0.23114100  0.63777400  1
  S  S34  1  0.60046300  0.08909600  0.13714900  1
  S  S35  1  0.85778350  0.09210950  0.86519800  1
  S  S36  1  0.64221650  0.40789050  0.13480200  1
  S  S37  1  0.89953700  0.41090400  0.86285100  1
  S  S38  1  0.85776100  0.26885900  0.36222600  1
  S  S39  1  0.10046300  0.41090400  0.63714900  1
  S  S40  1  0.64221650  0.59210950  0.63480200  1
  S  S41  1  0.85776100  0.73114100  0.86222600  1
  S  S42  1  0.14223900  0.26885900  0.13777400  1
  S  S43  1  0.35778350  0.40789050  0.36519800  1
  S  S44  1  0.89953700  0.58909600  0.36285100  1
  S  S45  1  0.14223900  0.73114100  0.63777400  1
  S  S46  1  0.10046300  0.58909600  0.13714900  1
  S  S47  1  0.35778350  0.59210950  0.86519800  1
