# generated using pymatgen
data_LiFeSi3O8
_symmetry_space_group_name_H-M   'P 1'
_cell_length_a   7.97993200
_cell_length_b   13.37252600
_cell_length_c   12.94013376
_cell_angle_alpha   90.00000000
_cell_angle_beta   94.96639039
_cell_angle_gamma   90.00000000
_symmetry_Int_Tables_number   1
_chemical_formula_structural   LiFeSi3O8
_chemical_formula_sum   'Li8 Fe8 Si24 O64'
_cell_volume   1375.68133942
_cell_formula_units_Z   8
loop_
 _symmetry_equiv_pos_site_id
 _symmetry_equiv_pos_as_xyz
  1  'x, y, z'
loop_
 _atom_site_type_symbol
 _atom_site_label
 _atom_site_symmetry_multiplicity
 _atom_site_fract_x
 _atom_site_fract_y
 _atom_site_fract_z
 _atom_site_occupancy
  Li  Li0  1  0.55597500  0.74873700  0.57234000  1
  Li  Li1  1  0.44402500  0.74873700  0.92766000  1
  Li  Li2  1  0.55597500  0.25126300  0.07234000  1
  Li  Li3  1  0.44402500  0.25126300  0.42766000  1
  Li  Li4  1  0.05597500  0.24873700  0.57234000  1
  Li  Li5  1  0.94402500  0.24873700  0.92766000  1
  Li  Li6  1  0.05597500  0.75126300  0.07234000  1
  Li  Li7  1  0.94402500  0.75126300  0.42766000  1
  Fe  Fe8  1  0.75049550  0.85983350  0.83375200  1
  Fe  Fe9  1  0.75049550  0.14016650  0.33375200  1
  Fe  Fe10  1  0.24950450  0.85983350  0.66624800  1
  Fe  Fe11  1  0.24950450  0.14016650  0.16624800  1
  Fe  Fe12  1  0.25049550  0.35983350  0.83375200  1
  Fe  Fe13  1  0.25049550  0.64016650  0.33375200  1
  Fe  Fe14  1  0.74950450  0.35983350  0.66624800  1
  Fe  Fe15  1  0.74950450  0.64016650  0.16624800  1
  Si  Si16  1  0.25843450  0.12965050  0.83687300  1
  Si  Si17  1  0.15798750  0.91174150  0.89671200  1
  Si  Si18  1  0.63780900  0.08087700  0.88584100  1
  Si  Si19  1  0.36219100  0.08087700  0.61415900  1
  Si  Si20  1  0.84201250  0.91174150  0.60328800  1
  Si  Si21  1  0.25843450  0.87034950  0.33687300  1
  Si  Si22  1  0.74156550  0.12965050  0.66312700  1
  Si  Si23  1  0.63780900  0.91912300  0.38584100  1
  Si  Si24  1  0.15798750  0.08825850  0.39671200  1
  Si  Si25  1  0.84201250  0.08825850  0.10328800  1
  Si  Si26  1  0.36219100  0.91912300  0.11415900  1
  Si  Si27  1  0.74156550  0.87034950  0.16312700  1
  Si  Si28  1  0.75843450  0.62965050  0.83687300  1
  Si  Si29  1  0.65798750  0.41174150  0.89671200  1
  Si  Si30  1  0.13780900  0.58087700  0.88584100  1
  Si  Si31  1  0.86219100  0.58087700  0.61415900  1
  Si  Si32  1  0.34201250  0.41174150  0.60328800  1
  Si  Si33  1  0.75843450  0.37034950  0.33687300  1
  Si  Si34  1  0.24156550  0.62965050  0.66312700  1
  Si  Si35  1  0.13780900  0.41912300  0.38584100  1
  Si  Si36  1  0.65798750  0.58825850  0.39671200  1
  Si  Si37  1  0.34201250  0.58825850  0.10328800  1
  Si  Si38  1  0.86219100  0.41912300  0.11415900  1
  Si  Si39  1  0.24156550  0.37034950  0.16312700  1
  O  O40  1  0.46672200  0.37304400  0.89801200  1
  O  O41  1  0.45447150  0.13612950  0.88637400  1
  O  O42  1  0.73642850  0.85513350  0.68790700  1
  O  O43  1  0.25805450  0.12160350  0.71018500  1
  O  O44  1  0.66054900  0.73119500  0.86828900  1
  O  O45  1  0.61630500  0.96095800  0.88309200  1
  O  O46  1  0.16228300  0.03361000  0.88219600  1
  O  O47  1  0.45447150  0.86387050  0.38637400  1
  O  O48  1  0.46672200  0.62695600  0.39801200  1
  O  O49  1  0.83771700  0.03361000  0.61780400  1
  O  O50  1  0.38369500  0.96095800  0.61690800  1
  O  O51  1  0.73642850  0.14486650  0.18790700  1
  O  O52  1  0.25805450  0.87839650  0.21018500  1
  O  O53  1  0.33945100  0.73119500  0.63171100  1
  O  O54  1  0.25283700  0.12537100  0.51020500  1
  O  O55  1  0.74716300  0.87462900  0.48979500  1
  O  O56  1  0.66054900  0.26880500  0.36828900  1
  O  O57  1  0.26357150  0.85513350  0.81209300  1
  O  O58  1  0.74194550  0.12160350  0.78981500  1
  O  O59  1  0.16228300  0.96639000  0.38219600  1
  O  O60  1  0.61630500  0.03904200  0.38309200  1
  O  O61  1  0.53327800  0.37304400  0.60198800  1
  O  O62  1  0.54552850  0.13612950  0.61362600  1
  O  O63  1  0.38369500  0.03904200  0.11690800  1
  O  O64  1  0.83771700  0.96639000  0.11780400  1
  O  O65  1  0.33945100  0.26880500  0.13171100  1
  O  O66  1  0.74716300  0.12537100  0.98979500  1
  O  O67  1  0.25283700  0.87462900  0.01020500  1
  O  O68  1  0.26357150  0.14486650  0.31209300  1
  O  O69  1  0.74194550  0.87839650  0.28981500  1
  O  O70  1  0.54552850  0.86387050  0.11362600  1
  O  O71  1  0.53327800  0.62695600  0.10198800  1
  O  O72  1  0.96672200  0.87304400  0.89801200  1
  O  O73  1  0.95447150  0.63612950  0.88637400  1
  O  O74  1  0.23642850  0.35513350  0.68790700  1
  O  O75  1  0.75805450  0.62160350  0.71018500  1
  O  O76  1  0.16054900  0.23119500  0.86828900  1
  O  O77  1  0.11630500  0.46095800  0.88309200  1
  O  O78  1  0.66228300  0.53361000  0.88219600  1
  O  O79  1  0.95447150  0.36387050  0.38637400  1
  O  O80  1  0.96672200  0.12695600  0.39801200  1
  O  O81  1  0.33771700  0.53361000  0.61780400  1
  O  O82  1  0.88369500  0.46095800  0.61690800  1
  O  O83  1  0.23642850  0.64486650  0.18790700  1
  O  O84  1  0.75805450  0.37839650  0.21018500  1
  O  O85  1  0.83945100  0.23119500  0.63171100  1
  O  O86  1  0.75283700  0.62537100  0.51020500  1
  O  O87  1  0.24716300  0.37462900  0.48979500  1
  O  O88  1  0.16054900  0.76880500  0.36828900  1
  O  O89  1  0.76357150  0.35513350  0.81209300  1
  O  O90  1  0.24194550  0.62160350  0.78981500  1
  O  O91  1  0.66228300  0.46639000  0.38219600  1
  O  O92  1  0.11630500  0.53904200  0.38309200  1
  O  O93  1  0.03327800  0.87304400  0.60198800  1
  O  O94  1  0.04552850  0.63612950  0.61362600  1
  O  O95  1  0.88369500  0.53904200  0.11690800  1
  O  O96  1  0.33771700  0.46639000  0.11780400  1
  O  O97  1  0.83945100  0.76880500  0.13171100  1
  O  O98  1  0.24716300  0.62537100  0.98979500  1
  O  O99  1  0.75283700  0.37462900  0.01020500  1
  O  O100  1  0.76357150  0.64486650  0.31209300  1
  O  O101  1  0.24194550  0.37839650  0.28981500  1
  O  O102  1  0.04552850  0.36387050  0.11362600  1
  O  O103  1  0.03327800  0.12695600  0.10198800  1
