# generated using pymatgen
data_Li7Cr3(WO8)2
_symmetry_space_group_name_H-M   'P 1'
_cell_length_a   10.25394800
_cell_length_b   5.88656400
_cell_length_c   9.68773513
_cell_angle_alpha   90.00000000
_cell_angle_beta   90.29696813
_cell_angle_gamma   90.00000000
_symmetry_Int_Tables_number   1
_chemical_formula_structural   Li7Cr3(WO8)2
_chemical_formula_sum   'Li14 Cr6 W4 O32'
_cell_volume   584.74888654
_cell_formula_units_Z   2
loop_
 _symmetry_equiv_pos_site_id
 _symmetry_equiv_pos_as_xyz
  1  'x, y, z'
loop_
 _atom_site_type_symbol
 _atom_site_label
 _atom_site_symmetry_multiplicity
 _atom_site_fract_x
 _atom_site_fract_y
 _atom_site_fract_z
 _atom_site_occupancy
  Li  Li0  1  0.58419300  0.24598500  0.21027600  1
  Li  Li1  1  0.66785900  0.00000000  0.90207300  1
  Li  Li2  1  0.99995700  0.00000000  0.99566400  1
  Li  Li3  1  0.99450600  0.00000000  0.48762200  1
  Li  Li4  1  0.58419300  0.75401500  0.21027600  1
  Li  Li5  1  0.66521600  0.50000000  0.70880900  1
  Li  Li6  1  0.83554700  0.50000000  0.40279100  1
  Li  Li7  1  0.08419300  0.74598500  0.21027600  1
  Li  Li8  1  0.16785900  0.50000000  0.90207300  1
  Li  Li9  1  0.49995700  0.50000000  0.99566400  1
  Li  Li10  1  0.49450600  0.50000000  0.48762200  1
  Li  Li11  1  0.08419300  0.25401500  0.21027600  1
  Li  Li12  1  0.16521600  0.00000000  0.70880900  1
  Li  Li13  1  0.33554700  0.00000000  0.40279100  1
  Cr  Cr14  1  0.82044300  0.00000000  0.23646700  1
  Cr  Cr15  1  0.90509600  0.74799000  0.71968700  1
  Cr  Cr16  1  0.90509600  0.25201000  0.71968700  1
  Cr  Cr17  1  0.32044300  0.50000000  0.23646700  1
  Cr  Cr18  1  0.40509600  0.24799000  0.71968700  1
  Cr  Cr19  1  0.40509600  0.75201000  0.71968700  1
  W  W20  1  0.64746700  0.00000000  0.48802000  1
  W  W21  1  0.83471500  0.50000000  0.99562700  1
  W  W22  1  0.14746700  0.50000000  0.48802000  1
  W  W23  1  0.33471500  0.00000000  0.99562700  1
  O  O24  1  0.58098550  0.24473950  0.58967000  1
  O  O25  1  0.51844200  0.00000000  0.35545500  1
  O  O26  1  0.70025300  0.00000000  0.11310000  1
  O  O27  1  0.98001300  0.00000000  0.29364000  1
  O  O28  1  0.99207900  0.00000000  0.79887100  1
  O  O29  1  0.58098550  0.75526050  0.58967000  1
  O  O30  1  0.74912450  0.21200350  0.35537700  1
  O  O31  1  0.74912450  0.78799650  0.35537700  1
  O  O32  1  0.67419100  0.50000000  0.07498300  1
  O  O33  1  0.82646600  0.00000000  0.60146800  1
  O  O34  1  0.76978150  0.72807350  0.84052800  1
  O  O35  1  0.76978150  0.27192650  0.84052800  1
  O  O36  1  0.85274400  0.50000000  0.60961400  1
  O  O37  1  0.91524550  0.73976750  0.08594900  1
  O  O38  1  0.98031300  0.50000000  0.84068900  1
  O  O39  1  0.91524550  0.26023250  0.08594900  1
  O  O40  1  0.08098550  0.74473950  0.58967000  1
  O  O41  1  0.01844200  0.50000000  0.35545500  1
  O  O42  1  0.20025300  0.50000000  0.11310000  1
  O  O43  1  0.48001300  0.50000000  0.29364000  1
  O  O44  1  0.49207900  0.50000000  0.79887100  1
  O  O45  1  0.08098550  0.25526050  0.58967000  1
  O  O46  1  0.24912450  0.71200350  0.35537700  1
  O  O47  1  0.24912450  0.28799650  0.35537700  1
  O  O48  1  0.17419100  0.00000000  0.07498300  1
  O  O49  1  0.32646600  0.50000000  0.60146800  1
  O  O50  1  0.26978150  0.22807350  0.84052800  1
  O  O51  1  0.26978150  0.77192650  0.84052800  1
  O  O52  1  0.35274400  0.00000000  0.60961400  1
  O  O53  1  0.41524550  0.23976750  0.08594900  1
  O  O54  1  0.48031300  0.00000000  0.84068900  1
  O  O55  1  0.41524550  0.76023250  0.08594900  1
