# generated using pymatgen
data_LiNiSnO4
_symmetry_space_group_name_H-M   'P 1'
_cell_length_a   5.82318400
_cell_length_b   6.20868200
_cell_length_c   8.81602000
_cell_angle_alpha   90.00000000
_cell_angle_beta   90.00000000
_cell_angle_gamma   90.00000000
_symmetry_Int_Tables_number   1
_chemical_formula_structural   LiNiSnO4
_chemical_formula_sum   'Li4 Ni4 Sn4 O16'
_cell_volume   318.73701146
_cell_formula_units_Z   4
loop_
 _symmetry_equiv_pos_site_id
 _symmetry_equiv_pos_as_xyz
  1  'x, y, z'
loop_
 _atom_site_type_symbol
 _atom_site_label
 _atom_site_symmetry_multiplicity
 _atom_site_fract_x
 _atom_site_fract_y
 _atom_site_fract_z
 _atom_site_occupancy
  Li  Li0  1  0.00000000  0.25000000  0.87406700  1
  Li  Li1  1  0.00000000  0.75000000  0.12593300  1
  Li  Li2  1  0.50000000  0.75000000  0.37406700  1
  Li  Li3  1  0.50000000  0.25000000  0.62593300  1
  Ni  Ni4  1  0.25000000  0.25000000  0.25000000  1
  Ni  Ni5  1  0.75000000  0.25000000  0.25000000  1
  Ni  Ni6  1  0.75000000  0.75000000  0.75000000  1
  Ni  Ni7  1  0.25000000  0.75000000  0.75000000  1
  Sn  Sn8  1  0.50000000  0.00000000  0.00000000  1
  Sn  Sn9  1  0.50000000  0.50000000  0.00000000  1
  Sn  Sn10  1  0.00000000  0.50000000  0.50000000  1
  Sn  Sn11  1  0.00000000  0.00000000  0.50000000  1
  O  O12  1  0.26437600  0.25000000  0.00554200  1
  O  O13  1  0.50000000  0.04139400  0.24009000  1
  O  O14  1  0.00000000  0.95860600  0.74009000  1
  O  O15  1  0.73562400  0.25000000  0.00554200  1
  O  O16  1  0.26437600  0.75000000  0.99445800  1
  O  O17  1  0.50000000  0.95860600  0.75991000  1
  O  O18  1  0.00000000  0.04139400  0.25991000  1
  O  O19  1  0.73562400  0.75000000  0.99445800  1
  O  O20  1  0.76437600  0.75000000  0.50554200  1
  O  O21  1  0.00000000  0.54139400  0.74009000  1
  O  O22  1  0.50000000  0.45860600  0.24009000  1
  O  O23  1  0.23562400  0.75000000  0.50554200  1
  O  O24  1  0.76437600  0.25000000  0.49445800  1
  O  O25  1  0.00000000  0.45860600  0.25991000  1
  O  O26  1  0.50000000  0.54139400  0.75991000  1
  O  O27  1  0.23562400  0.25000000  0.49445800  1
