# generated using pymatgen
data_Li4CoO4
_symmetry_space_group_name_H-M   'P 1'
_cell_length_a   6.23339458
_cell_length_b   6.23339458
_cell_length_c   4.80287200
_cell_angle_alpha   90.00000000
_cell_angle_beta   90.00000000
_cell_angle_gamma   90.00000000
_symmetry_Int_Tables_number   1
_chemical_formula_structural   Li4CoO4
_chemical_formula_sum   'Li8 Co2 O8'
_cell_volume   186.61659052
_cell_formula_units_Z   2
loop_
 _symmetry_equiv_pos_site_id
 _symmetry_equiv_pos_as_xyz
  1  'x, y, z'
loop_
 _atom_site_type_symbol
 _atom_site_label
 _atom_site_symmetry_multiplicity
 _atom_site_fract_x
 _atom_site_fract_y
 _atom_site_fract_z
 _atom_site_occupancy
  Li  Li0  1  0.69803975  0.30196025  0.00000000  1
  Li  Li1  1  0.30196025  0.69803975  0.00000000  1
  Li  Li2  1  0.80196025  0.80196025  0.50000000  1
  Li  Li3  1  0.19803975  0.19803975  0.50000000  1
  Li  Li4  1  0.00000000  0.50000000  0.43457475  1
  Li  Li5  1  0.00000000  0.50000000  0.93457475  1
  Li  Li6  1  0.50000000  0.00000000  0.56542525  1
  Li  Li7  1  0.50000000  0.00000000  0.06542525  1
  Co  Co8  1  0.50000000  0.50000000  0.50000000  1
  Co  Co9  1  0.00000000  0.00000000  0.00000000  1
  O  O10  1  0.98745275  0.24953325  0.19526475  1
  O  O11  1  0.25046675  0.48745275  0.69526475  1
  O  O12  1  0.74953325  0.51254725  0.69526475  1
  O  O13  1  0.01254725  0.75046675  0.19526475  1
  O  O14  1  0.51254725  0.74953325  0.30473525  1
  O  O15  1  0.75046675  0.01254725  0.80473525  1
  O  O16  1  0.24953325  0.98745275  0.80473525  1
  O  O17  1  0.48745275  0.25046675  0.30473525  1
