# generated using pymatgen
data_LiNiPO4
_symmetry_space_group_name_H-M   'P 1'
_cell_length_a   9.77506589
_cell_length_b   4.76194353
_cell_length_c   6.50332459
_cell_angle_alpha   90.00000000
_cell_angle_beta   102.60955676
_cell_angle_gamma   90.00000000
_symmetry_Int_Tables_number   1
_chemical_formula_structural   LiNiPO4
_chemical_formula_sum   'Li4 Ni4 P4 O16'
_cell_volume   295.41731331
_cell_formula_units_Z   4
loop_
 _symmetry_equiv_pos_site_id
 _symmetry_equiv_pos_as_xyz
  1  'x, y, z'
loop_
 _atom_site_type_symbol
 _atom_site_label
 _atom_site_symmetry_multiplicity
 _atom_site_fract_x
 _atom_site_fract_y
 _atom_site_fract_z
 _atom_site_occupancy
  Li  Li0  1  0.50000000  0.52140000  0.50000000  1
  Li  Li1  1  0.00000000  0.03356300  0.00000000  1
  Li  Li2  1  0.00000000  0.02140000  0.50000000  1
  Li  Li3  1  0.50000000  0.53356300  0.00000000  1
  Ni  Ni4  1  0.86610375  0.47157375  0.29151650  1
  Ni  Ni5  1  0.63389625  0.97157375  0.70848350  1
  Ni  Ni6  1  0.36610375  0.97157375  0.29151650  1
  Ni  Ni7  1  0.13389625  0.47157375  0.70848350  1
  P  P8  1  0.82017075  0.49692725  0.77566400  1
  P  P9  1  0.67982925  0.99692725  0.22433600  1
  P  P10  1  0.32017075  0.99692725  0.77566400  1
  P  P11  1  0.17982925  0.49692725  0.22433600  1
  O  O12  1  0.83544975  0.89933875  0.30997350  1
  O  O13  1  0.66455025  0.39933875  0.69002650  1
  O  O14  1  0.91554875  0.38812425  0.62367500  1
  O  O15  1  0.58445125  0.88812425  0.37632500  1
  O  O16  1  0.86977800  0.36950750  0.99490550  1
  O  O17  1  0.63022200  0.86950750  0.00509450  1
  O  O18  1  0.83244600  0.82104450  0.77452250  1
  O  O19  1  0.66755400  0.32104450  0.22547750  1
  O  O20  1  0.33544975  0.39933875  0.30997350  1
  O  O21  1  0.16455025  0.89933875  0.69002650  1
  O  O22  1  0.41554875  0.88812425  0.62367500  1
  O  O23  1  0.08445125  0.38812425  0.37632500  1
  O  O24  1  0.36977800  0.86950750  0.99490550  1
  O  O25  1  0.13022200  0.36950750  0.00509450  1
  O  O26  1  0.33244600  0.32104450  0.77452250  1
  O  O27  1  0.16755400  0.82104450  0.22547750  1
