# generated using pymatgen
data_Na5Cr2P(CO4)4
_symmetry_space_group_name_H-M   'P 1'
_cell_length_a   13.85364200
_cell_length_b   13.87661400
_cell_length_c   14.08771200
_cell_angle_alpha   90.00000000
_cell_angle_beta   90.00000000
_cell_angle_gamma   90.00000000
_symmetry_Int_Tables_number   1
_chemical_formula_structural   Na5Cr2P(CO4)4
_chemical_formula_sum   'Na40 Cr16 P8 C32 O128'
_cell_volume   2708.24489434
_cell_formula_units_Z   8
loop_
 _symmetry_equiv_pos_site_id
 _symmetry_equiv_pos_as_xyz
  1  'x, y, z'
loop_
 _atom_site_type_symbol
 _atom_site_label
 _atom_site_symmetry_multiplicity
 _atom_site_fract_x
 _atom_site_fract_y
 _atom_site_fract_z
 _atom_site_occupancy
  Na  Na0  1  0.50831950  0.70299500  0.37794350  1
  Na  Na1  1  0.95284850  0.24154700  0.12712650  1
  Na  Na2  1  0.04715150  0.75845300  0.12712650  1
  Na  Na3  1  0.74168050  0.45299500  0.12794350  1
  Na  Na4  1  0.70284850  0.50845300  0.37712650  1
  Na  Na5  1  0.49168050  0.29700500  0.37794350  1
  Na  Na6  1  0.29715150  0.49154700  0.37712650  1
  Na  Na7  1  0.25000000  0.75000000  0.32824600  1
  Na  Na8  1  0.25831950  0.54700500  0.12794350  1
  Na  Na9  1  0.00000000  0.50000000  0.07824600  1
  Na  Na10  1  0.50831950  0.20299500  0.87794350  1
  Na  Na11  1  0.95284850  0.74154700  0.62712650  1
  Na  Na12  1  0.04715150  0.25845300  0.62712650  1
  Na  Na13  1  0.74168050  0.95299500  0.62794350  1
  Na  Na14  1  0.70284850  0.00845300  0.87712650  1
  Na  Na15  1  0.49168050  0.79700500  0.87794350  1
  Na  Na16  1  0.29715150  0.99154700  0.87712650  1
  Na  Na17  1  0.25000000  0.25000000  0.82824600  1
  Na  Na18  1  0.25831950  0.04700500  0.62794350  1
  Na  Na19  1  0.00000000  0.00000000  0.57824600  1
  Na  Na20  1  0.00831950  0.70299500  0.87794350  1
  Na  Na21  1  0.45284850  0.24154700  0.62712650  1
  Na  Na22  1  0.54715150  0.75845300  0.62712650  1
  Na  Na23  1  0.24168050  0.45299500  0.62794350  1
  Na  Na24  1  0.20284850  0.50845300  0.87712650  1
  Na  Na25  1  0.99168050  0.29700500  0.87794350  1
  Na  Na26  1  0.79715150  0.49154700  0.87712650  1
  Na  Na27  1  0.75000000  0.75000000  0.82824600  1
  Na  Na28  1  0.75831950  0.54700500  0.62794350  1
  Na  Na29  1  0.50000000  0.50000000  0.57824600  1
  Na  Na30  1  0.00831950  0.20299500  0.37794350  1
  Na  Na31  1  0.45284850  0.74154700  0.12712650  1
  Na  Na32  1  0.54715150  0.25845300  0.12712650  1
  Na  Na33  1  0.24168050  0.95299500  0.12794350  1
  Na  Na34  1  0.20284850  0.00845300  0.37712650  1
  Na  Na35  1  0.99168050  0.79700500  0.37794350  1
  Na  Na36  1  0.79715150  0.99154700  0.37712650  1
  Na  Na37  1  0.75000000  0.25000000  0.32824600  1
  Na  Na38  1  0.75831950  0.04700500  0.12794350  1
  Na  Na39  1  0.50000000  0.00000000  0.07824600  1
  Cr  Cr40  1  0.37602350  0.37659200  0.00011450  1
  Cr  Cr41  1  0.12602350  0.37340800  0.25011450  1
  Cr  Cr42  1  0.62397650  0.62340800  0.00011450  1
  Cr  Cr43  1  0.37397650  0.12659200  0.25011450  1
  Cr  Cr44  1  0.37602350  0.87659200  0.50011450  1
  Cr  Cr45  1  0.12602350  0.87340800  0.75011450  1
  Cr  Cr46  1  0.62397650  0.12340800  0.50011450  1
  Cr  Cr47  1  0.37397650  0.62659200  0.75011450  1
  Cr  Cr48  1  0.87602350  0.37659200  0.50011450  1
  Cr  Cr49  1  0.62602350  0.37340800  0.75011450  1
  Cr  Cr50  1  0.12397650  0.62340800  0.50011450  1
  Cr  Cr51  1  0.87397650  0.12659200  0.75011450  1
  Cr  Cr52  1  0.87602350  0.87659200  0.00011450  1
  Cr  Cr53  1  0.62602350  0.87340800  0.25011450  1
  Cr  Cr54  1  0.12397650  0.12340800  0.00011450  1
  Cr  Cr55  1  0.87397650  0.62659200  0.25011450  1
  P  P56  1  0.25000000  0.75000000  0.12655900  1
  P  P57  1  0.50000000  0.50000000  0.37655900  1
  P  P58  1  0.25000000  0.25000000  0.62655900  1
  P  P59  1  0.50000000  0.00000000  0.87655900  1
  P  P60  1  0.75000000  0.75000000  0.62655900  1
  P  P61  1  0.00000000  0.50000000  0.87655900  1
  P  P62  1  0.75000000  0.25000000  0.12655900  1
  P  P63  1  0.00000000  0.00000000  0.37655900  1
  C  C64  1  0.33884250  0.33782350  0.21056100  1
  C  C65  1  0.16115750  0.16217650  0.21056100  1
  C  C66  1  0.16153500  0.33851450  0.03702350  1
  C  C67  1  0.83846500  0.66148550  0.03702350  1
  C  C68  1  0.08884250  0.41217650  0.46056100  1
  C  C69  1  0.41115750  0.08782350  0.46056100  1
  C  C70  1  0.08846500  0.58851450  0.28702350  1
  C  C71  1  0.91153500  0.41148550  0.28702350  1
  C  C72  1  0.33884250  0.83782350  0.71056100  1
  C  C73  1  0.16115750  0.66217650  0.71056100  1
  C  C74  1  0.16153500  0.83851450  0.53702350  1
  C  C75  1  0.83846500  0.16148550  0.53702350  1
  C  C76  1  0.08884250  0.91217650  0.96056100  1
  C  C77  1  0.41115750  0.58782350  0.96056100  1
  C  C78  1  0.08846500  0.08851450  0.78702350  1
  C  C79  1  0.91153500  0.91148550  0.78702350  1
  C  C80  1  0.83884250  0.33782350  0.71056100  1
  C  C81  1  0.66115750  0.16217650  0.71056100  1
  C  C82  1  0.66153500  0.33851450  0.53702350  1
  C  C83  1  0.33846500  0.66148550  0.53702350  1
  C  C84  1  0.58884250  0.41217650  0.96056100  1
  C  C85  1  0.91115750  0.08782350  0.96056100  1
  C  C86  1  0.58846500  0.58851450  0.78702350  1
  C  C87  1  0.41153500  0.41148550  0.78702350  1
  C  C88  1  0.83884250  0.83782350  0.21056100  1
  C  C89  1  0.66115750  0.66217650  0.21056100  1
  C  C90  1  0.66153500  0.83851450  0.03702350  1
  C  C91  1  0.33846500  0.16148550  0.03702350  1
  C  C92  1  0.58884250  0.91217650  0.46056100  1
  C  C93  1  0.91115750  0.58782350  0.46056100  1
  C  C94  1  0.58846500  0.08851450  0.28702350  1
  C  C95  1  0.41153500  0.91148550  0.28702350  1
  O  O96  1  0.51822650  0.85165550  0.47501100  1
  O  O97  1  0.14616800  0.23120550  0.27064150  1
  O  O98  1  0.35383200  0.26879450  0.27064150  1
  O  O99  1  0.98189400  0.35129050  0.27294250  1
  O  O100  1  0.23177350  0.10165550  0.22501100  1
  O  O101  1  0.31468050  0.68544500  0.19275650  1
  O  O102  1  0.18531950  0.81455500  0.19275650  1
  O  O103  1  0.10448150  0.15138050  0.13878100  1
  O  O104  1  0.39551850  0.34861950  0.13878100  1
  O  O105  1  0.10261250  0.35187650  0.10755300  1
  O  O106  1  0.89738750  0.64812350  0.10755300  1
  O  O107  1  0.18357550  0.68338400  0.06724950  1
  O  O108  1  0.81642450  0.31661600  0.06724950  1
  O  O109  1  0.60383200  0.48120550  0.02064150  1
  O  O110  1  0.39616800  0.51879450  0.02064150  1
  O  O111  1  0.76810600  0.60129050  0.02294250  1
  O  O112  1  0.48177350  0.14834450  0.47501100  1
  O  O113  1  0.35215150  0.73219200  0.47827950  1
  O  O114  1  0.64784850  0.26780800  0.47827950  1
  O  O115  1  0.56468050  0.56455500  0.44275650  1
  O  O116  1  0.43531950  0.43544500  0.44275650  1
  O  O117  1  0.35448150  0.09861950  0.38878100  1
  O  O118  1  0.14551850  0.40138050  0.38878100  1
  O  O119  1  0.35261250  0.89812350  0.35755300  1
  O  O120  1  0.14738750  0.60187650  0.35755300  1
  O  O121  1  0.56642450  0.43338400  0.31724950  1
  O  O122  1  0.43357550  0.56661600  0.31724950  1
  O  O123  1  0.01810600  0.64870950  0.27294250  1
  O  O124  1  0.26822650  0.39834450  0.22501100  1
  O  O125  1  0.10215150  0.51780800  0.22827950  1
  O  O126  1  0.89784850  0.48219200  0.22827950  1
  O  O127  1  0.23189400  0.39870950  0.02294250  1
  O  O128  1  0.51822650  0.35165550  0.97501100  1
  O  O129  1  0.14616800  0.73120550  0.77064150  1
  O  O130  1  0.35383200  0.76879450  0.77064150  1
  O  O131  1  0.98189400  0.85129050  0.77294250  1
  O  O132  1  0.23177350  0.60165550  0.72501100  1
  O  O133  1  0.31468050  0.18544500  0.69275650  1
  O  O134  1  0.18531950  0.31455500  0.69275650  1
  O  O135  1  0.10448150  0.65138050  0.63878100  1
  O  O136  1  0.39551850  0.84861950  0.63878100  1
  O  O137  1  0.10261250  0.85187650  0.60755300  1
  O  O138  1  0.89738750  0.14812350  0.60755300  1
  O  O139  1  0.18357550  0.18338400  0.56724950  1
  O  O140  1  0.81642450  0.81661600  0.56724950  1
  O  O141  1  0.60383200  0.98120550  0.52064150  1
  O  O142  1  0.39616800  0.01879450  0.52064150  1
  O  O143  1  0.76810600  0.10129050  0.52294250  1
  O  O144  1  0.48177350  0.64834450  0.97501100  1
  O  O145  1  0.35215150  0.23219200  0.97827950  1
  O  O146  1  0.64784850  0.76780800  0.97827950  1
  O  O147  1  0.56468050  0.06455500  0.94275650  1
  O  O148  1  0.43531950  0.93544500  0.94275650  1
  O  O149  1  0.35448150  0.59861950  0.88878100  1
  O  O150  1  0.14551850  0.90138050  0.88878100  1
  O  O151  1  0.35261250  0.39812350  0.85755300  1
  O  O152  1  0.14738750  0.10187650  0.85755300  1
  O  O153  1  0.56642450  0.93338400  0.81724950  1
  O  O154  1  0.43357550  0.06661600  0.81724950  1
  O  O155  1  0.01810600  0.14870950  0.77294250  1
  O  O156  1  0.26822650  0.89834450  0.72501100  1
  O  O157  1  0.10215150  0.01780800  0.72827950  1
  O  O158  1  0.89784850  0.98219200  0.72827950  1
  O  O159  1  0.23189400  0.89870950  0.52294250  1
  O  O160  1  0.01822650  0.85165550  0.97501100  1
  O  O161  1  0.64616800  0.23120550  0.77064150  1
  O  O162  1  0.85383200  0.26879450  0.77064150  1
  O  O163  1  0.48189400  0.35129050  0.77294250  1
  O  O164  1  0.73177350  0.10165550  0.72501100  1
  O  O165  1  0.81468050  0.68544500  0.69275650  1
  O  O166  1  0.68531950  0.81455500  0.69275650  1
  O  O167  1  0.60448150  0.15138050  0.63878100  1
  O  O168  1  0.89551850  0.34861950  0.63878100  1
  O  O169  1  0.60261250  0.35187650  0.60755300  1
  O  O170  1  0.39738750  0.64812350  0.60755300  1
  O  O171  1  0.68357550  0.68338400  0.56724950  1
  O  O172  1  0.31642450  0.31661600  0.56724950  1
  O  O173  1  0.10383200  0.48120550  0.52064150  1
  O  O174  1  0.89616800  0.51879450  0.52064150  1
  O  O175  1  0.26810600  0.60129050  0.52294250  1
  O  O176  1  0.98177350  0.14834450  0.97501100  1
  O  O177  1  0.85215150  0.73219200  0.97827950  1
  O  O178  1  0.14784850  0.26780800  0.97827950  1
  O  O179  1  0.06468050  0.56455500  0.94275650  1
  O  O180  1  0.93531950  0.43544500  0.94275650  1
  O  O181  1  0.85448150  0.09861950  0.88878100  1
  O  O182  1  0.64551850  0.40138050  0.88878100  1
  O  O183  1  0.85261250  0.89812350  0.85755300  1
  O  O184  1  0.64738750  0.60187650  0.85755300  1
  O  O185  1  0.06642450  0.43338400  0.81724950  1
  O  O186  1  0.93357550  0.56661600  0.81724950  1
  O  O187  1  0.51810600  0.64870950  0.77294250  1
  O  O188  1  0.76822650  0.39834450  0.72501100  1
  O  O189  1  0.60215150  0.51780800  0.72827950  1
  O  O190  1  0.39784850  0.48219200  0.72827950  1
  O  O191  1  0.73189400  0.39870950  0.52294250  1
  O  O192  1  0.01822650  0.35165550  0.47501100  1
  O  O193  1  0.64616800  0.73120550  0.27064150  1
  O  O194  1  0.85383200  0.76879450  0.27064150  1
  O  O195  1  0.48189400  0.85129050  0.27294250  1
  O  O196  1  0.73177350  0.60165550  0.22501100  1
  O  O197  1  0.81468050  0.18544500  0.19275650  1
  O  O198  1  0.68531950  0.31455500  0.19275650  1
  O  O199  1  0.60448150  0.65138050  0.13878100  1
  O  O200  1  0.89551850  0.84861950  0.13878100  1
  O  O201  1  0.60261250  0.85187650  0.10755300  1
  O  O202  1  0.39738750  0.14812350  0.10755300  1
  O  O203  1  0.68357550  0.18338400  0.06724950  1
  O  O204  1  0.31642450  0.81661600  0.06724950  1
  O  O205  1  0.10383200  0.98120550  0.02064150  1
  O  O206  1  0.89616800  0.01879450  0.02064150  1
  O  O207  1  0.26810600  0.10129050  0.02294250  1
  O  O208  1  0.98177350  0.64834450  0.47501100  1
  O  O209  1  0.85215150  0.23219200  0.47827950  1
  O  O210  1  0.14784850  0.76780800  0.47827950  1
  O  O211  1  0.06468050  0.06455500  0.44275650  1
  O  O212  1  0.93531950  0.93544500  0.44275650  1
  O  O213  1  0.85448150  0.59861950  0.38878100  1
  O  O214  1  0.64551850  0.90138050  0.38878100  1
  O  O215  1  0.85261250  0.39812350  0.35755300  1
  O  O216  1  0.64738750  0.10187650  0.35755300  1
  O  O217  1  0.06642450  0.93338400  0.31724950  1
  O  O218  1  0.93357550  0.06661600  0.31724950  1
  O  O219  1  0.51810600  0.14870950  0.27294250  1
  O  O220  1  0.76822650  0.89834450  0.22501100  1
  O  O221  1  0.60215150  0.01780800  0.22827950  1
  O  O222  1  0.39784850  0.98219200  0.22827950  1
  O  O223  1  0.73189400  0.89870950  0.02294250  1
