# generated using pymatgen
data_Tl6WO12
_symmetry_space_group_name_H-M   'P 1'
_cell_length_a   9.90861706
_cell_length_b   9.90861706
_cell_length_c   9.52942450
_cell_angle_alpha   90.00000000
_cell_angle_beta   90.00000000
_cell_angle_gamma   120.00000000
_symmetry_Int_Tables_number   1
_chemical_formula_structural   Tl6WO12
_chemical_formula_sum   'Tl18 W3 O36'
_cell_volume   810.25812354
_cell_formula_units_Z   3
loop_
 _symmetry_equiv_pos_site_id
 _symmetry_equiv_pos_as_xyz
  1  'x, y, z'
loop_
 _atom_site_type_symbol
 _atom_site_label
 _atom_site_symmetry_multiplicity
 _atom_site_fract_x
 _atom_site_fract_y
 _atom_site_fract_z
 _atom_site_occupancy
  Tl  Tl0  1  0.25703500  0.04350700  0.34831700  1
  Tl  Tl1  1  0.04350700  0.78647200  0.65168300  1
  Tl  Tl2  1  0.21352800  0.25703500  0.65168300  1
  Tl  Tl3  1  0.78647200  0.74296500  0.34831700  1
  Tl  Tl4  1  0.95649300  0.21352800  0.34831700  1
  Tl  Tl5  1  0.74296500  0.95649300  0.65168300  1
  Tl  Tl6  1  0.92370167  0.37684033  0.68165033  1
  Tl  Tl7  1  0.71017367  0.11980533  0.98501633  1
  Tl  Tl8  1  0.88019467  0.59036833  0.98501633  1
  Tl  Tl9  1  0.45313867  0.07629833  0.68165033  1
  Tl  Tl10  1  0.62315967  0.54686133  0.68165033  1
  Tl  Tl11  1  0.40963167  0.28982633  0.98501633  1
  Tl  Tl12  1  0.59036833  0.71017367  0.01498367  1
  Tl  Tl13  1  0.37684033  0.45313867  0.31834967  1
  Tl  Tl14  1  0.54686133  0.92370167  0.31834967  1
  Tl  Tl15  1  0.11980533  0.40963167  0.01498367  1
  Tl  Tl16  1  0.28982633  0.88019467  0.01498367  1
  Tl  Tl17  1  0.07629833  0.62315967  0.31834967  1
  W  W18  1  0.00000000  0.00000000  0.00000000  1
  W  W19  1  0.66666667  0.33333333  0.33333333  1
  W  W20  1  0.33333333  0.66666667  0.66666667  1
  O  O21  1  0.52062033  0.15489067  0.44722067  1
  O  O22  1  0.15489067  0.63427033  0.55277933  1
  O  O23  1  0.22441000  0.02079500  0.60128000  1
  O  O24  1  0.02079500  0.79638500  0.39872000  1
  O  O25  1  0.36572967  0.52062033  0.55277933  1
  O  O26  1  0.20361500  0.22441000  0.39872000  1
  O  O27  1  0.79638500  0.77559000  0.60128000  1
  O  O28  1  0.63427033  0.47937967  0.44722067  1
  O  O29  1  0.97920500  0.20361500  0.60128000  1
  O  O30  1  0.77559000  0.97920500  0.39872000  1
  O  O31  1  0.84510933  0.36572967  0.44722067  1
  O  O32  1  0.47937967  0.84510933  0.55277933  1
  O  O33  1  0.18728700  0.48822400  0.78055400  1
  O  O34  1  0.82155733  0.96760367  0.88611267  1
  O  O35  1  0.89107667  0.35412833  0.93461333  1
  O  O36  1  0.68746167  0.12971833  0.73205333  1
  O  O37  1  0.03239633  0.85395367  0.88611267  1
  O  O38  1  0.87028167  0.55774333  0.73205333  1
  O  O39  1  0.46305167  0.10892333  0.93461333  1
  O  O40  1  0.30093700  0.81271300  0.78055400  1
  O  O41  1  0.64587167  0.53694833  0.93461333  1
  O  O42  1  0.44225667  0.31253833  0.73205333  1
  O  O43  1  0.51177600  0.69906300  0.78055400  1
  O  O44  1  0.14604633  0.17844267  0.88611267  1
  O  O45  1  0.85395367  0.82155733  0.11388733  1
  O  O46  1  0.48822400  0.30093700  0.21944600  1
  O  O47  1  0.55774333  0.68746167  0.26794667  1
  O  O48  1  0.35412833  0.46305167  0.06538667  1
  O  O49  1  0.69906300  0.18728700  0.21944600  1
  O  O50  1  0.53694833  0.89107667  0.06538667  1
  O  O51  1  0.12971833  0.44225667  0.26794667  1
  O  O52  1  0.96760367  0.14604633  0.11388733  1
  O  O53  1  0.31253833  0.87028167  0.26794667  1
  O  O54  1  0.10892333  0.64587167  0.06538667  1
  O  O55  1  0.17844267  0.03239633  0.11388733  1
  O  O56  1  0.81271300  0.51177600  0.21944600  1
