# generated using pymatgen
data_Li2V3CuO8
_symmetry_space_group_name_H-M   'P 1'
_cell_length_a   5.88540177
_cell_length_b   5.88540177
_cell_length_c   14.54223289
_cell_angle_alpha   90.00000000
_cell_angle_beta   90.00000000
_cell_angle_gamma   120.00000000
_symmetry_Int_Tables_number   1
_chemical_formula_structural   Li2V3CuO8
_chemical_formula_sum   'Li6 V9 Cu3 O24'
_cell_volume   436.22842173
_cell_formula_units_Z   3
loop_
 _symmetry_equiv_pos_site_id
 _symmetry_equiv_pos_as_xyz
  1  'x, y, z'
loop_
 _atom_site_type_symbol
 _atom_site_label
 _atom_site_symmetry_multiplicity
 _atom_site_fract_x
 _atom_site_fract_y
 _atom_site_fract_z
 _atom_site_occupancy
  Li  Li0  1  0.66666667  0.33333333  0.21158633  1
  Li  Li1  1  0.33333333  0.66666667  0.16676367  1
  Li  Li2  1  0.33333333  0.66666667  0.54491967  1
  Li  Li3  1  0.00000000  0.00000000  0.50009700  1
  Li  Li4  1  0.00000000  0.00000000  0.87825300  1
  Li  Li5  1  0.66666667  0.33333333  0.83343033  1
  V  V6  1  0.16874867  0.33749733  0.33241733  1
  V  V7  1  0.66250267  0.83125133  0.33241733  1
  V  V8  1  0.16874867  0.83125133  0.33241733  1
  V  V9  1  0.83541533  0.67083067  0.66575067  1
  V  V10  1  0.32916933  0.16458467  0.66575067  1
  V  V11  1  0.83541533  0.16458467  0.66575067  1
  V  V12  1  0.50208200  0.00416400  0.99908400  1
  V  V13  1  0.99583600  0.49791800  0.99908400  1
  V  V14  1  0.50208200  0.49791800  0.99908400  1
  Cu  Cu15  1  0.00000000  0.00000000  0.12288200  1
  Cu  Cu16  1  0.66666667  0.33333333  0.45621533  1
  Cu  Cu17  1  0.33333333  0.66666667  0.78954867  1
  O  O18  1  0.66666667  0.33333333  0.07368633  1
  O  O19  1  0.48722200  0.51277800  0.26401200  1
  O  O20  1  0.02555600  0.51277800  0.26401200  1
  O  O21  1  0.48722200  0.97444400  0.26401200  1
  O  O22  1  0.17983833  0.35967667  0.07023267  1
  O  O23  1  0.64032333  0.82016167  0.07023267  1
  O  O24  1  0.17983833  0.82016167  0.07023267  1
  O  O25  1  0.00000000  0.00000000  0.25842600  1
  O  O26  1  0.33333333  0.66666667  0.40701967  1
  O  O27  1  0.15388867  0.84611133  0.59734533  1
  O  O28  1  0.69222267  0.84611133  0.59734533  1
  O  O29  1  0.15388867  0.30777733  0.59734533  1
  O  O30  1  0.84650500  0.69301000  0.40356600  1
  O  O31  1  0.30699000  0.15349500  0.40356600  1
  O  O32  1  0.84650500  0.15349500  0.40356600  1
  O  O33  1  0.66666667  0.33333333  0.59175933  1
  O  O34  1  0.00000000  0.00000000  0.74035300  1
  O  O35  1  0.82055533  0.17944467  0.93067867  1
  O  O36  1  0.35888933  0.17944467  0.93067867  1
  O  O37  1  0.82055533  0.64111067  0.93067867  1
  O  O38  1  0.51317167  0.02634333  0.73689933  1
  O  O39  1  0.97365667  0.48682833  0.73689933  1
  O  O40  1  0.51317167  0.48682833  0.73689933  1
  O  O41  1  0.33333333  0.66666667  0.92509267  1
