# generated using pymatgen
data_Li2MnCr3O8
_symmetry_space_group_name_H-M   'P 1'
_cell_length_a   5.93114618
_cell_length_b   5.93114618
_cell_length_c   14.37023063
_cell_angle_alpha   90.00000000
_cell_angle_beta   90.00000000
_cell_angle_gamma   120.00000000
_symmetry_Int_Tables_number   1
_chemical_formula_structural   Li2MnCr3O8
_chemical_formula_sum   'Li6 Mn3 Cr9 O24'
_cell_volume   437.79583452
_cell_formula_units_Z   3
loop_
 _symmetry_equiv_pos_site_id
 _symmetry_equiv_pos_as_xyz
  1  'x, y, z'
loop_
 _atom_site_type_symbol
 _atom_site_label
 _atom_site_symmetry_multiplicity
 _atom_site_fract_x
 _atom_site_fract_y
 _atom_site_fract_z
 _atom_site_occupancy
  Li  Li0  1  0.33333333  0.66666667  0.54045067  1
  Li  Li1  1  0.33333333  0.66666667  0.79288267  1
  Li  Li2  1  0.00000000  0.00000000  0.87378400  1
  Li  Li3  1  0.00000000  0.00000000  0.12621600  1
  Li  Li4  1  0.66666667  0.33333333  0.20711733  1
  Li  Li5  1  0.66666667  0.33333333  0.45954933  1
  Mn  Mn6  1  0.33333333  0.66666667  0.16666667  1
  Mn  Mn7  1  1.00000000  1.00000000  0.50000000  1
  Mn  Mn8  1  0.66666667  0.33333333  0.83333333  1
  Cr  Cr9  1  0.00000000  0.50000000  0.00000000  1
  Cr  Cr10  1  0.50000000  0.50000000  0.00000000  1
  Cr  Cr11  1  0.16666667  0.33333333  0.33333333  1
  Cr  Cr12  1  0.66666667  0.83333333  0.33333333  1
  Cr  Cr13  1  0.16666667  0.83333333  0.33333333  1
  Cr  Cr14  1  0.83333333  0.66666667  0.66666667  1
  Cr  Cr15  1  0.33333333  0.16666667  0.66666667  1
  Cr  Cr16  1  0.83333333  0.16666667  0.66666667  1
  Cr  Cr17  1  0.50000000  0.00000000  0.00000000  1
  O  O18  1  0.33333333  0.66666667  0.40151967  1
  O  O19  1  0.48164467  0.96328933  0.25166933  1
  O  O20  1  0.48164467  0.51835533  0.25166933  1
  O  O21  1  0.03671067  0.51835533  0.25166933  1
  O  O22  1  0.62995600  0.81497800  0.08166400  1
  O  O23  1  0.18502200  0.81497800  0.08166400  1
  O  O24  1  0.18502200  0.37004400  0.08166400  1
  O  O25  1  0.33333333  0.66666667  0.93181367  1
  O  O26  1  0.00000000  0.00000000  0.73485300  1
  O  O27  1  0.14831133  0.29662267  0.58500267  1
  O  O28  1  0.14831133  0.85168867  0.58500267  1
  O  O29  1  0.70337733  0.85168867  0.58500267  1
  O  O30  1  0.29662267  0.14831133  0.41499733  1
  O  O31  1  0.85168867  0.14831133  0.41499733  1
  O  O32  1  0.85168867  0.70337733  0.41499733  1
  O  O33  1  0.00000000  0.00000000  0.26514700  1
  O  O34  1  0.66666667  0.33333333  0.06818633  1
  O  O35  1  0.81497800  0.62995600  0.91833600  1
  O  O36  1  0.81497800  0.18502200  0.91833600  1
  O  O37  1  0.37004400  0.18502200  0.91833600  1
  O  O38  1  0.96328933  0.48164467  0.74833067  1
  O  O39  1  0.51835533  0.48164467  0.74833067  1
  O  O40  1  0.51835533  0.03671067  0.74833067  1
  O  O41  1  0.66666667  0.33333333  0.59848033  1
