# generated using pymatgen
data_ThC2
_symmetry_space_group_name_H-M   'P 1'
_cell_length_a   6.72235600
_cell_length_b   4.29087200
_cell_length_c   6.71096069
_cell_angle_alpha   90.00000000
_cell_angle_beta   104.02279646
_cell_angle_gamma   90.00000000
_symmetry_Int_Tables_number   1
_chemical_formula_structural   ThC2
_chemical_formula_sum   'Th4 C8'
_cell_volume   187.80742649
_cell_formula_units_Z   4
loop_
 _symmetry_equiv_pos_site_id
 _symmetry_equiv_pos_as_xyz
  1  'x, y, z'
loop_
 _atom_site_type_symbol
 _atom_site_label
 _atom_site_symmetry_multiplicity
 _atom_site_fract_x
 _atom_site_fract_y
 _atom_site_fract_z
 _atom_site_occupancy
  Th  Th0  1  0.50000000  0.29107100  0.25000000  1
  Th  Th1  1  0.50000000  0.70892900  0.75000000  1
  Th  Th2  1  0.00000000  0.79107100  0.25000000  1
  Th  Th3  1  0.00000000  0.20892900  0.75000000  1
  C  C4  1  0.69908150  0.86852650  0.44743500  1
  C  C5  1  0.30091850  0.86852650  0.05256500  1
  C  C6  1  0.69908150  0.13147350  0.94743500  1
  C  C7  1  0.30091850  0.13147350  0.55256500  1
  C  C8  1  0.19908150  0.36852650  0.44743500  1
  C  C9  1  0.80091850  0.36852650  0.05256500  1
  C  C10  1  0.19908150  0.63147350  0.94743500  1
  C  C11  1  0.80091850  0.63147350  0.55256500  1
