# generated using pymatgen
data_Li4Ni3Sn2Sb3O16
_symmetry_space_group_name_H-M   'P 1'
_cell_length_a   10.66446922
_cell_length_b   6.20155630
_cell_length_c   9.91134705
_cell_angle_alpha   90.00000000
_cell_angle_beta   90.33693645
_cell_angle_gamma   90.00000000
_symmetry_Int_Tables_number   1
_chemical_formula_structural   Li4Ni3Sn2Sb3O16
_chemical_formula_sum   'Li8 Ni6 Sn4 Sb6 O32'
_cell_volume   655.48854971
_cell_formula_units_Z   2
loop_
 _symmetry_equiv_pos_site_id
 _symmetry_equiv_pos_as_xyz
  1  'x, y, z'
loop_
 _atom_site_type_symbol
 _atom_site_label
 _atom_site_symmetry_multiplicity
 _atom_site_fract_x
 _atom_site_fract_y
 _atom_site_fract_z
 _atom_site_occupancy
  Li  Li0  1  0.33739750  0.00000000  0.11652900  1
  Li  Li1  1  0.01419675  0.00000000  0.01673500  1
  Li  Li2  1  0.00866250  0.00000000  0.49741000  1
  Li  Li3  1  0.67453250  0.00000000  0.59099100  1
  Li  Li4  1  0.83739750  0.50000000  0.11652900  1
  Li  Li5  1  0.51419675  0.50000000  0.01673500  1
  Li  Li6  1  0.50866250  0.50000000  0.49741000  1
  Li  Li7  1  0.17453250  0.50000000  0.59099100  1
  Ni  Ni8  1  0.16933575  0.00000000  0.78451500  1
  Ni  Ni9  1  0.58257175  0.75540875  0.28755700  1
  Ni  Ni10  1  0.58257175  0.24459125  0.28755700  1
  Ni  Ni11  1  0.66933575  0.50000000  0.78451500  1
  Ni  Ni12  1  0.08257175  0.25540875  0.28755700  1
  Ni  Ni13  1  0.08257175  0.74459125  0.28755700  1
  Sn  Sn14  1  0.32254600  0.00000000  0.49650700  1
  Sn  Sn15  1  0.65366925  0.00000000  0.02336400  1
  Sn  Sn16  1  0.82254600  0.50000000  0.49650700  1
  Sn  Sn17  1  0.15366925  0.50000000  0.02336400  1
  Sb  Sb18  1  0.82844275  0.00000000  0.28556200  1
  Sb  Sb19  1  0.41495050  0.75306250  0.78436000  1
  Sb  Sb20  1  0.41495050  0.24693750  0.78436000  1
  Sb  Sb21  1  0.32844275  0.50000000  0.28556200  1
  Sb  Sb22  1  0.91495050  0.25306250  0.78436000  1
  Sb  Sb23  1  0.91495050  0.74693750  0.78436000  1
  O  O24  1  0.48531400  0.00000000  0.66143500  1
  O  O25  1  0.33675475  0.00000000  0.89474500  1
  O  O26  1  0.99824950  0.00000000  0.68479500  1
  O  O27  1  0.99252825  0.00000000  0.19673300  1
  O  O28  1  0.83661200  0.00000000  0.89699100  1
  O  O29  1  0.15901675  0.00000000  0.40183700  1
  O  O30  1  0.67374375  0.00000000  0.39403900  1
  O  O31  1  0.51421200  0.00000000  0.16068800  1
  O  O32  1  0.41275275  0.73755125  0.40544900  1
  O  O33  1  0.41275275  0.26244875  0.40544900  1
  O  O34  1  0.26387875  0.77635025  0.65992300  1
  O  O35  1  0.26387875  0.22364975  0.65992300  1
  O  O36  1  0.74712725  0.78011475  0.15759300  1
  O  O37  1  0.74712725  0.21988525  0.15759300  1
  O  O38  1  0.57614250  0.74317000  0.89973100  1
  O  O39  1  0.57614250  0.25683000  0.89973100  1
  O  O40  1  0.98531400  0.50000000  0.66143500  1
  O  O41  1  0.83675475  0.50000000  0.89474500  1
  O  O42  1  0.49824950  0.50000000  0.68479500  1
  O  O43  1  0.49252825  0.50000000  0.19673300  1
  O  O44  1  0.33661200  0.50000000  0.89699100  1
  O  O45  1  0.65901675  0.50000000  0.40183700  1
  O  O46  1  0.17374375  0.50000000  0.39403900  1
  O  O47  1  0.01421200  0.50000000  0.16068800  1
  O  O48  1  0.91275275  0.23755125  0.40544900  1
  O  O49  1  0.91275275  0.76244875  0.40544900  1
  O  O50  1  0.76387875  0.27635025  0.65992300  1
  O  O51  1  0.76387875  0.72364975  0.65992300  1
  O  O52  1  0.24712725  0.28011475  0.15759300  1
  O  O53  1  0.24712725  0.71988525  0.15759300  1
  O  O54  1  0.07614250  0.24317000  0.89973100  1
  O  O55  1  0.07614250  0.75683000  0.89973100  1
