# generated using pymatgen
data_NaNi5O6
_symmetry_space_group_name_H-M   'P 1'
_cell_length_a   5.22461506
_cell_length_b   9.01815143
_cell_length_c   5.21111723
_cell_angle_alpha   90.00000000
_cell_angle_beta   109.72338651
_cell_angle_gamma   90.00000000
_symmetry_Int_Tables_number   1
_chemical_formula_structural   NaNi5O6
_chemical_formula_sum   'Na2 Ni10 O12'
_cell_volume   231.12444993
_cell_formula_units_Z   2
loop_
 _symmetry_equiv_pos_site_id
 _symmetry_equiv_pos_as_xyz
  1  'x, y, z'
loop_
 _atom_site_type_symbol
 _atom_site_label
 _atom_site_symmetry_multiplicity
 _atom_site_fract_x
 _atom_site_fract_y
 _atom_site_fract_z
 _atom_site_occupancy
  Na  Na0  1  0.00000000  0.50000000  0.00000000  1
  Na  Na1  1  0.50000000  0.00000000  0.00000000  1
  Ni  Ni2  1  0.00000000  0.83243550  0.00000000  1
  Ni  Ni3  1  0.00000000  0.00000000  0.50000000  1
  Ni  Ni4  1  0.00000000  0.66436300  0.50000000  1
  Ni  Ni5  1  0.00000000  0.33563700  0.50000000  1
  Ni  Ni6  1  0.00000000  0.16756450  0.00000000  1
  Ni  Ni7  1  0.50000000  0.33243550  0.00000000  1
  Ni  Ni8  1  0.50000000  0.50000000  0.50000000  1
  Ni  Ni9  1  0.50000000  0.16436300  0.50000000  1
  Ni  Ni10  1  0.50000000  0.83563700  0.50000000  1
  Ni  Ni11  1  0.50000000  0.66756450  0.00000000  1
  O  O12  1  0.23544200  0.00000000  0.26621900  1
  O  O13  1  0.76455800  0.00000000  0.73378100  1
  O  O14  1  0.23107950  0.17795750  0.74041000  1
  O  O15  1  0.26892050  0.32204250  0.25959000  1
  O  O16  1  0.73107950  0.32204250  0.74041000  1
  O  O17  1  0.76892050  0.17795750  0.25959000  1
  O  O18  1  0.73544200  0.50000000  0.26621900  1
  O  O19  1  0.26455800  0.50000000  0.73378100  1
  O  O20  1  0.73107950  0.67795750  0.74041000  1
  O  O21  1  0.76892050  0.82204250  0.25959000  1
  O  O22  1  0.23107950  0.82204250  0.74041000  1
  O  O23  1  0.26892050  0.67795750  0.25959000  1
