# generated using pymatgen
data_Li5Mn5V2O12
_symmetry_space_group_name_H-M   'P 1'
_cell_length_a   5.23784400
_cell_length_b   9.09364200
_cell_length_c   9.95928939
_cell_angle_alpha   90.00000000
_cell_angle_beta   98.97967752
_cell_angle_gamma   90.00000000
_symmetry_Int_Tables_number   1
_chemical_formula_structural   Li5Mn5V2O12
_chemical_formula_sum   'Li10 Mn10 V4 O24'
_cell_volume   468.55768076
_cell_formula_units_Z   2
loop_
 _symmetry_equiv_pos_site_id
 _symmetry_equiv_pos_as_xyz
  1  'x, y, z'
loop_
 _atom_site_type_symbol
 _atom_site_label
 _atom_site_symmetry_multiplicity
 _atom_site_fract_x
 _atom_site_fract_y
 _atom_site_fract_z
 _atom_site_occupancy
  Li  Li0  1  0.74809850  0.91365450  0.74568900  1
  Li  Li1  1  0.26143000  0.58535300  0.25412500  1
  Li  Li2  1  0.25190150  0.91365450  0.25431100  1
  Li  Li3  1  0.73857000  0.58535300  0.74587500  1
  Li  Li4  1  0.00000000  0.91461300  0.50000000  1
  Li  Li5  1  0.24809850  0.41365450  0.74568900  1
  Li  Li6  1  0.76143000  0.08535300  0.25412500  1
  Li  Li7  1  0.75190150  0.41365450  0.25431100  1
  Li  Li8  1  0.23857000  0.08535300  0.74587500  1
  Li  Li9  1  0.50000000  0.41461300  0.50000000  1
  Mn  Mn10  1  0.50000000  0.57894600  0.00000000  1
  Mn  Mn11  1  0.75366350  0.75239450  0.25291000  1
  Mn  Mn12  1  0.24633650  0.75239450  0.74709000  1
  Mn  Mn13  1  0.50000000  0.92391300  0.00000000  1
  Mn  Mn14  1  0.00000000  0.57579100  0.50000000  1
  Mn  Mn15  1  0.00000000  0.07894600  0.00000000  1
  Mn  Mn16  1  0.25366350  0.25239450  0.25291000  1
  Mn  Mn17  1  0.74633650  0.25239450  0.74709000  1
  Mn  Mn18  1  0.00000000  0.42391300  0.00000000  1
  Mn  Mn19  1  0.50000000  0.07579100  0.50000000  1
  V  V20  1  0.50000000  0.74832600  0.50000000  1
  V  V21  1  0.00000000  0.75139100  0.00000000  1
  V  V22  1  0.00000000  0.24832600  0.50000000  1
  V  V23  1  0.50000000  0.25139100  0.00000000  1
  O  O24  1  0.63287250  0.59875750  0.37464700  1
  O  O25  1  0.36712750  0.59875750  0.62535300  1
  O  O26  1  0.64518650  0.75180050  0.88315500  1
  O  O27  1  0.35481350  0.75180050  0.11684500  1
  O  O28  1  0.62632950  0.90152650  0.37719500  1
  O  O29  1  0.37367050  0.90152650  0.62280500  1
  O  O30  1  0.12574200  0.59674500  0.87125400  1
  O  O31  1  0.87425800  0.59674500  0.12874600  1
  O  O32  1  0.16690250  0.74590950  0.38888800  1
  O  O33  1  0.83309750  0.74590950  0.61111200  1
  O  O34  1  0.12492500  0.90736800  0.86991800  1
  O  O35  1  0.87507500  0.90736800  0.13008200  1
  O  O36  1  0.13287250  0.09875750  0.37464700  1
  O  O37  1  0.86712750  0.09875750  0.62535300  1
  O  O38  1  0.14518650  0.25180050  0.88315500  1
  O  O39  1  0.85481350  0.25180050  0.11684500  1
  O  O40  1  0.12632950  0.40152650  0.37719500  1
  O  O41  1  0.87367050  0.40152650  0.62280500  1
  O  O42  1  0.62574200  0.09674500  0.87125400  1
  O  O43  1  0.37425800  0.09674500  0.12874600  1
  O  O44  1  0.66690250  0.24590950  0.38888800  1
  O  O45  1  0.33309750  0.24590950  0.61111200  1
  O  O46  1  0.62492500  0.40736800  0.86991800  1
  O  O47  1  0.37507500  0.40736800  0.13008200  1
