# generated using pymatgen
data_Ce2U3O10
_symmetry_space_group_name_H-M   'P 1'
_cell_length_a   12.17000354
_cell_length_b   5.44595600
_cell_length_c   8.58521434
_cell_angle_alpha   90.00000000
_cell_angle_beta   134.83586275
_cell_angle_gamma   90.00000000
_symmetry_Int_Tables_number   1
_chemical_formula_structural   Ce2U3O10
_chemical_formula_sum   'Ce4 U6 O20'
_cell_volume   403.49816001
_cell_formula_units_Z   2
loop_
 _symmetry_equiv_pos_site_id
 _symmetry_equiv_pos_as_xyz
  1  'x, y, z'
loop_
 _atom_site_type_symbol
 _atom_site_label
 _atom_site_symmetry_multiplicity
 _atom_site_fract_x
 _atom_site_fract_y
 _atom_site_fract_z
 _atom_site_occupancy
  Ce  Ce0  1  0.80075300  0.50000000  0.70064700  1
  Ce  Ce1  1  0.19924700  0.50000000  0.29935300  1
  Ce  Ce2  1  0.30075300  0.00000000  0.70064700  1
  Ce  Ce3  1  0.69924700  0.00000000  0.29935300  1
  U  U4  1  0.59982900  0.50000000  0.89958900  1
  U  U5  1  0.50000000  0.00000000  0.50000000  1
  U  U6  1  0.40017100  0.50000000  0.10041100  1
  U  U7  1  0.09982900  0.00000000  0.89958900  1
  U  U8  1  0.00000000  0.50000000  0.50000000  1
  U  U9  1  0.90017100  0.00000000  0.10041100  1
  O  O10  1  0.40819700  0.25148200  0.60355800  1
  O  O11  1  0.40819700  0.74851800  0.60355800  1
  O  O12  1  0.69941700  0.75385400  0.80436800  1
  O  O13  1  0.69941700  0.24614600  0.80436800  1
  O  O14  1  0.59180300  0.25148200  0.39644200  1
  O  O15  1  0.00000000  0.24118000  0.00000000  1
  O  O16  1  0.59180300  0.74851800  0.39644200  1
  O  O17  1  0.00000000  0.75882000  0.00000000  1
  O  O18  1  0.30058300  0.75385400  0.19563200  1
  O  O19  1  0.30058300  0.24614600  0.19563200  1
  O  O20  1  0.90819700  0.75148200  0.60355800  1
  O  O21  1  0.90819700  0.24851800  0.60355800  1
  O  O22  1  0.19941700  0.25385400  0.80436800  1
  O  O23  1  0.19941700  0.74614600  0.80436800  1
  O  O24  1  0.09180300  0.75148200  0.39644200  1
  O  O25  1  0.50000000  0.74118000  0.00000000  1
  O  O26  1  0.09180300  0.24851800  0.39644200  1
  O  O27  1  0.50000000  0.25882000  0.00000000  1
  O  O28  1  0.80058300  0.25385400  0.19563200  1
  O  O29  1  0.80058300  0.74614600  0.19563200  1
