# generated using pymatgen
data_LiFe2(CO3)4
_symmetry_space_group_name_H-M   'P 1'
_cell_length_a   5.16065573
_cell_length_b   6.87142779
_cell_length_c   7.68829532
_cell_angle_alpha   89.54718437
_cell_angle_beta   92.14807040
_cell_angle_gamma   111.33793172
_symmetry_Int_Tables_number   1
_chemical_formula_structural   LiFe2(CO3)4
_chemical_formula_sum   'Li1 Fe2 C4 O12'
_cell_volume   253.76294075
_cell_formula_units_Z   1
loop_
 _symmetry_equiv_pos_site_id
 _symmetry_equiv_pos_as_xyz
  1  'x, y, z'
loop_
 _atom_site_type_symbol
 _atom_site_label
 _atom_site_symmetry_multiplicity
 _atom_site_fract_x
 _atom_site_fract_y
 _atom_site_fract_z
 _atom_site_occupancy
  Li  Li0  1  0.80101400  0.18938800  0.43661500  1
  Fe  Fe1  1  0.49181100  0.51569200  0.49854500  1
  Fe  Fe2  1  0.00279000  0.99558100  0.00132600  1
  C  C3  1  0.74135100  0.86663700  0.73312300  1
  C  C4  1  0.74934400  0.63483700  0.23758600  1
  C  C5  1  0.23839100  0.35575500  0.75552200  1
  C  C6  1  0.27460200  0.13654300  0.27114200  1
  O  O7  1  0.63031600  0.92000500  0.86322800  1
  O  O8  1  0.60821000  0.80980500  0.58463200  1
  O  O9  1  0.48822000  0.61207600  0.25364600  1
  O  O10  1  0.99870300  0.88184600  0.75732100  1
  O  O11  1  0.88237600  0.70625000  0.10185900  1
  O  O12  1  0.86008900  0.57686300  0.37394900  1
  O  O13  1  0.10766600  0.37999800  0.61166800  1
  O  O14  1  0.11667400  0.28398300  0.89453800  1
  O  O15  1  0.01397700  0.12051300  0.25467700  1
  O  O16  1  0.50782000  0.41825700  0.74284600  1
  O  O17  1  0.42722300  0.21243400  0.40924200  1
  O  O18  1  0.37161300  0.07202000  0.14063400  1
