# generated using pymatgen
data_Li3Cr2NiO6
_symmetry_space_group_name_H-M   'P 1'
_cell_length_a   12.89026800
_cell_length_b   2.94485600
_cell_length_c   5.89687377
_cell_angle_alpha   90.00000000
_cell_angle_beta   103.24073912
_cell_angle_gamma   90.00000000
_symmetry_Int_Tables_number   1
_chemical_formula_structural   Li3Cr2NiO6
_chemical_formula_sum   'Li6 Cr4 Ni2 O12'
_cell_volume   217.89459225
_cell_formula_units_Z   2
loop_
 _symmetry_equiv_pos_site_id
 _symmetry_equiv_pos_as_xyz
  1  'x, y, z'
loop_
 _atom_site_type_symbol
 _atom_site_label
 _atom_site_symmetry_multiplicity
 _atom_site_fract_x
 _atom_site_fract_y
 _atom_site_fract_z
 _atom_site_occupancy
  Li  Li0  1  0.00000000  0.00000000  0.00000000  1
  Li  Li1  1  0.16402300  0.50000000  0.33542600  1
  Li  Li2  1  0.33597700  0.00000000  0.66457400  1
  Li  Li3  1  0.50000000  0.50000000  0.00000000  1
  Li  Li4  1  0.66402300  0.00000000  0.33542600  1
  Li  Li5  1  0.83597700  0.50000000  0.66457400  1
  Cr  Cr6  1  0.16574300  0.50000000  0.82720200  1
  Cr  Cr7  1  0.33425700  0.00000000  0.17279800  1
  Cr  Cr8  1  0.66574300  0.00000000  0.82720200  1
  Cr  Cr9  1  0.83425700  0.50000000  0.17279800  1
  Ni  Ni10  1  0.00000000  0.00000000  0.50000000  1
  Ni  Ni11  1  0.50000000  0.50000000  0.50000000  1
  O  O12  1  0.16689200  0.00000000  0.59993400  1
  O  O13  1  0.32690000  0.50000000  0.93478900  1
  O  O14  1  0.33310800  0.50000000  0.40006600  1
  O  O15  1  0.49174500  0.00000000  0.25585900  1
  O  O16  1  0.00825500  0.50000000  0.74414100  1
  O  O17  1  0.17310000  0.00000000  0.06521100  1
  O  O18  1  0.66689200  0.50000000  0.59993400  1
  O  O19  1  0.82690000  0.00000000  0.93478900  1
  O  O20  1  0.83310800  0.00000000  0.40006600  1
  O  O21  1  0.99174500  0.50000000  0.25585900  1
  O  O22  1  0.50825500  0.00000000  0.74414100  1
  O  O23  1  0.67310000  0.50000000  0.06521100  1
