# generated using pymatgen
data_Li2AlVO4
_symmetry_space_group_name_H-M   'P 1'
_cell_length_a   5.10981611
_cell_length_b   5.88249673
_cell_length_c   7.66754947
_cell_angle_alpha   100.62835014
_cell_angle_beta   108.41723221
_cell_angle_gamma   89.75395354
_symmetry_Int_Tables_number   1
_chemical_formula_structural   Li2AlVO4
_chemical_formula_sum   'Li6 Al3 V3 O12'
_cell_volume   214.55837715
_cell_formula_units_Z   3
loop_
 _symmetry_equiv_pos_site_id
 _symmetry_equiv_pos_as_xyz
  1  'x, y, z'
loop_
 _atom_site_type_symbol
 _atom_site_label
 _atom_site_symmetry_multiplicity
 _atom_site_fract_x
 _atom_site_fract_y
 _atom_site_fract_z
 _atom_site_occupancy
  Li  Li0  1  0.00047400  0.57931650  0.83290550  1
  Li  Li1  1  0.99952600  0.42068350  0.16709450  1
  Li  Li2  1  0.99725150  0.73869750  0.49435250  1
  Li  Li3  1  0.00274850  0.26130250  0.50564750  1
  Li  Li4  1  0.99852000  0.09822000  0.83294300  1
  Li  Li5  1  0.00148000  0.90178000  0.16705700  1
  Al  Al6  1  0.50000000  0.50000000  0.50000000  1
  Al  Al7  1  0.50260350  0.34049900  0.83273200  1
  Al  Al8  1  0.49739650  0.65950100  0.16726800  1
  V  V9  1  0.50000000  0.00000000  0.50000000  1
  V  V10  1  0.49916450  0.83528150  0.83495850  1
  V  V11  1  0.50083550  0.16471850  0.16504150  1
  O  O12  1  0.72776100  0.13632500  0.98703400  1
  O  O13  1  0.27223900  0.86367500  0.01296600  1
  O  O14  1  0.71495150  0.61516850  0.99798850  1
  O  O15  1  0.28504850  0.38483150  0.00201150  1
  O  O16  1  0.72358550  0.93965350  0.32047150  1
  O  O17  1  0.27641450  0.06034650  0.67952850  1
  O  O18  1  0.71678150  0.46383050  0.33098250  1
  O  O19  1  0.28321850  0.53616950  0.66901750  1
  O  O20  1  0.72206500  0.77913850  0.65500750  1
  O  O21  1  0.27793500  0.22086150  0.34499250  1
  O  O22  1  0.71895550  0.30660450  0.66429850  1
  O  O23  1  0.28104450  0.69339550  0.33570150  1
