# generated using pymatgen
data_Fe3Co2Cu(PO4)6
_symmetry_space_group_name_H-M   'P 1'
_cell_length_a   8.63731623
_cell_length_b   8.63731623
_cell_length_c   20.23755945
_cell_angle_alpha   90.00000000
_cell_angle_beta   90.00000000
_cell_angle_gamma   120.00000000
_symmetry_Int_Tables_number   1
_chemical_formula_structural   Fe3Co2Cu(PO4)6
_chemical_formula_sum   'Fe9 Co6 Cu3 P18 O72'
_cell_volume   1307.51418706
_cell_formula_units_Z   3
loop_
 _symmetry_equiv_pos_site_id
 _symmetry_equiv_pos_as_xyz
  1  'x, y, z'
loop_
 _atom_site_type_symbol
 _atom_site_label
 _atom_site_symmetry_multiplicity
 _atom_site_fract_x
 _atom_site_fract_y
 _atom_site_fract_z
 _atom_site_occupancy
  Fe  Fe0  1  0.33333333  0.66666667  0.02133267  1
  Fe  Fe1  1  0.33333333  0.66666667  0.81054567  1
  Fe  Fe2  1  0.33333333  0.66666667  0.31109167  1
  Fe  Fe3  1  0.00000000  0.00000000  0.35466600  1
  Fe  Fe4  1  0.00000000  0.00000000  0.14387900  1
  Fe  Fe5  1  0.00000000  0.00000000  0.64442500  1
  Fe  Fe6  1  0.66666667  0.33333333  0.68799933  1
  Fe  Fe7  1  0.66666667  0.33333333  0.47721233  1
  Fe  Fe8  1  0.66666667  0.33333333  0.97775833  1
  Co  Co9  1  0.33333333  0.66666667  0.66545367  1
  Co  Co10  1  0.33333333  0.66666667  0.16599567  1
  Co  Co11  1  0.00000000  0.00000000  0.99878700  1
  Co  Co12  1  0.00000000  0.00000000  0.49932900  1
  Co  Co13  1  0.66666667  0.33333333  0.33212033  1
  Co  Co14  1  0.66666667  0.33333333  0.83266233  1
  Cu  Cu15  1  0.33333333  0.66666667  0.52146567  1
  Cu  Cu16  1  0.00000000  0.00000000  0.85479900  1
  Cu  Cu17  1  0.66666667  0.33333333  0.18813233  1
  P  P18  1  0.66620367  0.62902833  0.08385933  1
  P  P19  1  0.96282467  0.33379633  0.08385933  1
  P  P20  1  0.37097167  0.03717533  0.08385933  1
  P  P21  1  0.29812100  0.29745900  0.24916400  1
  P  P22  1  0.70254100  0.00066200  0.24916400  1
  P  P23  1  0.99933800  0.70187900  0.24916400  1
  P  P24  1  0.33287033  0.96236167  0.41719267  1
  P  P25  1  0.62949133  0.66712967  0.41719267  1
  P  P26  1  0.03763833  0.37050867  0.41719267  1
  P  P27  1  0.96478767  0.63079233  0.58249733  1
  P  P28  1  0.36920767  0.33399533  0.58249733  1
  P  P29  1  0.66600467  0.03521233  0.58249733  1
  P  P30  1  0.99953700  0.29569500  0.75052600  1
  P  P31  1  0.29615800  0.00046300  0.75052600  1
  P  P32  1  0.70430500  0.70384200  0.75052600  1
  P  P33  1  0.63145433  0.96412567  0.91583067  1
  P  P34  1  0.03587433  0.66732867  0.91583067  1
  P  P35  1  0.33267133  0.36854567  0.91583067  1
  O  O36  1  0.53514133  0.67763967  0.35561267  1
  O  O37  1  0.14249833  0.46485867  0.35561267  1
  O  O38  1  0.32236033  0.85750167  0.35561267  1
  O  O39  1  0.83300333  0.82008467  0.07224467  1
  O  O40  1  0.66979067  0.53816433  0.14804933  1
  O  O41  1  0.50136733  0.65808167  0.09368167  1
  O  O42  1  0.98708133  0.16699667  0.07224467  1
  O  O43  1  0.15671433  0.49863267  0.09368167  1
  O  O44  1  0.20418600  0.19343500  0.18742500  1
  O  O45  1  0.34191833  0.84328567  0.09368167  1
  O  O46  1  0.48845967  0.31989933  0.26128233  1
  O  O47  1  0.80656500  0.01075100  0.18742500  1
  O  O48  1  0.86837367  0.33020933  0.14804933  1
  O  O49  1  0.17991533  0.01291867  0.07224467  1
  O  O50  1  0.32437267  0.48920933  0.23856533  1
  O  O51  1  0.46183567  0.13162633  0.14804933  1
  O  O52  1  0.51079067  0.83516333  0.23856533  1
  O  O53  1  0.68010067  0.16856033  0.26128233  1
  O  O54  1  0.16483667  0.67562733  0.23856533  1
  O  O55  1  0.98924900  0.79581400  0.18742500  1
  O  O56  1  0.83143967  0.51154033  0.26128233  1
  O  O57  1  0.34263933  0.47199067  0.97816167  1
  O  O58  1  0.52800933  0.87064867  0.97816167  1
  O  O59  1  0.12935133  0.65736067  0.97816167  1
  O  O60  1  0.20180800  0.01097300  0.68894600  1
  O  O61  1  0.80916500  0.79819200  0.68894600  1
  O  O62  1  0.98902700  0.19083500  0.68894600  1
  O  O63  1  0.49967000  0.15341800  0.40557800  1
  O  O64  1  0.33645733  0.87149767  0.48138267  1
  O  O65  1  0.16803400  0.99141500  0.42701500  1
  O  O66  1  0.65374800  0.50033000  0.40557800  1
  O  O67  1  0.82338100  0.83196600  0.42701500  1
  O  O68  1  0.87085267  0.52676833  0.52075833  1
  O  O69  1  0.00858500  0.17661900  0.42701500  1
  O  O70  1  0.15512633  0.65323267  0.59461567  1
  O  O71  1  0.47323167  0.34408433  0.52075833  1
  O  O72  1  0.53504033  0.66354267  0.48138267  1
  O  O73  1  0.84658200  0.34625200  0.40557800  1
  O  O74  1  0.99103933  0.82254267  0.57189867  1
  O  O75  1  0.12850233  0.46495967  0.48138267  1
  O  O76  1  0.17745733  0.16849667  0.57189867  1
  O  O77  1  0.34676733  0.50189367  0.59461567  1
  O  O78  1  0.83150333  0.00896067  0.57189867  1
  O  O79  1  0.65591567  0.12914733  0.52075833  1
  O  O80  1  0.49810633  0.84487367  0.59461567  1
  O  O81  1  0.00930600  0.80532400  0.31149500  1
  O  O82  1  0.19467600  0.20398200  0.31149500  1
  O  O83  1  0.79601800  0.99069400  0.31149500  1
  O  O84  1  0.86847467  0.34430633  0.02227933  1
  O  O85  1  0.47583167  0.13152533  0.02227933  1
  O  O86  1  0.65569367  0.52416833  0.02227933  1
  O  O87  1  0.16633667  0.48675133  0.73891133  1
  O  O88  1  0.00312400  0.20483100  0.81471600  1
  O  O89  1  0.83470067  0.32474833  0.76034833  1
  O  O90  1  0.32041467  0.83366333  0.73891133  1
  O  O91  1  0.49004767  0.16529933  0.76034833  1
  O  O92  1  0.53751933  0.86010167  0.85409167  1
  O  O93  1  0.67525167  0.50995233  0.76034833  1
  O  O94  1  0.82179300  0.98656600  0.92794900  1
  O  O95  1  0.13989833  0.67741767  0.85409167  1
  O  O96  1  0.20170700  0.99687600  0.81471600  1
  O  O97  1  0.51324867  0.67958533  0.73891133  1
  O  O98  1  0.65770600  0.15587600  0.90523200  1
  O  O99  1  0.79516900  0.79829300  0.81471600  1
  O  O100  1  0.84412400  0.50183000  0.90523200  1
  O  O101  1  0.01343400  0.83522700  0.92794900  1
  O  O102  1  0.49817000  0.34229400  0.90523200  1
  O  O103  1  0.32258233  0.46248067  0.85409167  1
  O  O104  1  0.16477300  0.17820700  0.92794900  1
  O  O105  1  0.67597267  0.13865733  0.64482833  1
  O  O106  1  0.86134267  0.53731533  0.64482833  1
  O  O107  1  0.46268467  0.32402733  0.64482833  1
