# generated using pymatgen
data_Li4Nb3V3(CoO8)2
_symmetry_space_group_name_H-M   'P 1'
_cell_length_a   10.52630600
_cell_length_b   6.02957000
_cell_length_c   9.78738717
_cell_angle_alpha   90.00000000
_cell_angle_beta   90.01076558
_cell_angle_gamma   90.00000000
_symmetry_Int_Tables_number   1
_chemical_formula_structural   Li4Nb3V3(CoO8)2
_chemical_formula_sum   'Li8 Nb6 V6 Co4 O32'
_cell_volume   621.19663317
_cell_formula_units_Z   2
loop_
 _symmetry_equiv_pos_site_id
 _symmetry_equiv_pos_as_xyz
  1  'x, y, z'
loop_
 _atom_site_type_symbol
 _atom_site_label
 _atom_site_symmetry_multiplicity
 _atom_site_fract_x
 _atom_site_fract_y
 _atom_site_fract_z
 _atom_site_occupancy
  Li  Li0  1  0.66437500  0.00000000  0.89971600  1
  Li  Li1  1  0.50751900  0.50000000  0.00042200  1
  Li  Li2  1  0.51231400  0.50000000  0.49226700  1
  Li  Li3  1  0.83287900  0.50000000  0.38458000  1
  Li  Li4  1  0.16437500  0.50000000  0.89971600  1
  Li  Li5  1  0.00751900  0.00000000  0.00042200  1
  Li  Li6  1  0.01231400  0.00000000  0.49226700  1
  Li  Li7  1  0.33287900  0.00000000  0.38458000  1
  Nb  Nb8  1  0.82885700  0.00000000  0.21818700  1
  Nb  Nb9  1  0.91188450  0.74719050  0.71566600  1
  Nb  Nb10  1  0.91188450  0.25280950  0.71566600  1
  Nb  Nb11  1  0.32885700  0.50000000  0.21818700  1
  Nb  Nb12  1  0.41188450  0.24719050  0.71566600  1
  Nb  Nb13  1  0.41188450  0.75280950  0.71566600  1
  V  V14  1  0.58342650  0.24086550  0.21442300  1
  V  V15  1  0.58342650  0.75913450  0.21442300  1
  V  V16  1  0.66912900  0.50000000  0.71171700  1
  V  V17  1  0.08342650  0.74086550  0.21442300  1
  V  V18  1  0.08342650  0.25913450  0.21442300  1
  V  V19  1  0.16912900  0.00000000  0.71171700  1
  Co  Co20  1  0.65723300  0.00000000  0.48112100  1
  Co  Co21  1  0.83010600  0.50000000  0.01887700  1
  Co  Co22  1  0.15723300  0.50000000  0.48112100  1
  Co  Co23  1  0.33010600  0.00000000  0.01887700  1
  O  O24  1  0.57851050  0.26201750  0.60656200  1
  O  O25  1  0.51628800  0.00000000  0.33086100  1
  O  O26  1  0.67596200  0.00000000  0.09714600  1
  O  O27  1  0.99552500  0.00000000  0.31291000  1
  O  O28  1  0.99857900  0.00000000  0.82068800  1
  O  O29  1  0.57851050  0.73798250  0.60656200  1
  O  O30  1  0.74242150  0.22374450  0.33617300  1
  O  O31  1  0.74242150  0.77625550  0.33617300  1
  O  O32  1  0.65901800  0.50000000  0.10967700  1
  O  O33  1  0.84240900  0.00000000  0.59847100  1
  O  O34  1  0.75898250  0.72924950  0.82698000  1
  O  O35  1  0.75898250  0.27075050  0.82698000  1
  O  O36  1  0.83881700  0.50000000  0.59615100  1
  O  O37  1  0.91991500  0.76142000  0.10213400  1
  O  O38  1  0.98565900  0.50000000  0.83254300  1
  O  O39  1  0.91991500  0.23858000  0.10213400  1
  O  O40  1  0.07851050  0.76201750  0.60656200  1
  O  O41  1  0.01628800  0.50000000  0.33086100  1
  O  O42  1  0.17596200  0.50000000  0.09714600  1
  O  O43  1  0.49552500  0.50000000  0.31291000  1
  O  O44  1  0.49857900  0.50000000  0.82068800  1
  O  O45  1  0.07851050  0.23798250  0.60656200  1
  O  O46  1  0.24242150  0.72374450  0.33617300  1
  O  O47  1  0.24242150  0.27625550  0.33617300  1
  O  O48  1  0.15901800  0.00000000  0.10967700  1
  O  O49  1  0.34240900  0.50000000  0.59847100  1
  O  O50  1  0.25898250  0.22924950  0.82698000  1
  O  O51  1  0.25898250  0.77075050  0.82698000  1
  O  O52  1  0.33881700  0.00000000  0.59615100  1
  O  O53  1  0.41991500  0.26142000  0.10213400  1
  O  O54  1  0.48565900  0.00000000  0.83254300  1
  O  O55  1  0.41991500  0.73858000  0.10213400  1
