# generated using pymatgen
data_NiSb3(PO4)6
_symmetry_space_group_name_H-M   'P 1'
_cell_length_a   8.64824010
_cell_length_b   8.64824010
_cell_length_c   22.17828369
_cell_angle_alpha   90.00000000
_cell_angle_beta   90.00000000
_cell_angle_gamma   120.00000000
_symmetry_Int_Tables_number   1
_chemical_formula_structural   NiSb3(PO4)6
_chemical_formula_sum   'Ni3 Sb9 P18 O72'
_cell_volume   1436.52782615
_cell_formula_units_Z   3
loop_
 _symmetry_equiv_pos_site_id
 _symmetry_equiv_pos_as_xyz
  1  'x, y, z'
loop_
 _atom_site_type_symbol
 _atom_site_label
 _atom_site_symmetry_multiplicity
 _atom_site_fract_x
 _atom_site_fract_y
 _atom_site_fract_z
 _atom_site_occupancy
  Ni  Ni0  1  0.66666667  0.33333333  0.18976833  1
  Ni  Ni1  1  0.33333333  0.66666667  0.52310167  1
  Ni  Ni2  1  0.00000000  0.00000000  0.85643500  1
  Sb  Sb3  1  0.00000000  0.00000000  0.14307900  1
  Sb  Sb4  1  0.33333333  0.66666667  0.02324667  1
  Sb  Sb5  1  0.33333333  0.66666667  0.31087867  1
  Sb  Sb6  1  0.66666667  0.33333333  0.47641233  1
  Sb  Sb7  1  0.00000000  0.00000000  0.35658000  1
  Sb  Sb8  1  0.00000000  0.00000000  0.64421200  1
  Sb  Sb9  1  0.33333333  0.66666667  0.80974567  1
  Sb  Sb10  1  0.66666667  0.33333333  0.68991333  1
  Sb  Sb11  1  0.66666667  0.33333333  0.97754533  1
  P  P12  1  0.38206467  0.04813433  0.08512333  1
  P  P13  1  0.66606967  0.61793533  0.08512333  1
  P  P14  1  0.95186567  0.33393033  0.08512333  1
  P  P15  1  0.71193800  0.00404400  0.24983600  1
  P  P16  1  0.99595600  0.70789400  0.24983600  1
  P  P17  1  0.29210600  0.28806200  0.24983600  1
  P  P18  1  0.04873133  0.38146767  0.41845667  1
  P  P19  1  0.33273633  0.95126867  0.41845667  1
  P  P20  1  0.61853233  0.66726367  0.41845667  1
  P  P21  1  0.37860467  0.33737733  0.58316933  1
  P  P22  1  0.66262267  0.04122733  0.58316933  1
  P  P23  1  0.95877267  0.62139533  0.58316933  1
  P  P24  1  0.71539800  0.71480100  0.75179000  1
  P  P25  1  0.99940300  0.28460200  0.75179000  1
  P  P26  1  0.28519900  0.00059700  0.75179000  1
  P  P27  1  0.04527133  0.67071067  0.91650267  1
  P  P28  1  0.32928933  0.37456067  0.91650267  1
  P  P29  1  0.62543933  0.95472867  0.91650267  1
  O  O30  1  0.20422800  0.17431100  0.30744900  1
  O  O31  1  0.82568900  0.02991700  0.30744900  1
  O  O32  1  0.19188100  0.02808800  0.08766600  1
  O  O33  1  0.97008300  0.79577200  0.30744900  1
  O  O34  1  0.36094567  0.85890733  0.07769433  1
  O  O35  1  0.49197633  0.12778067  0.14044667  1
  O  O36  1  0.83620700  0.80811900  0.08766600  1
  O  O37  1  0.49796167  0.63905433  0.07769433  1
  O  O38  1  0.14109267  0.50203833  0.07769433  1
  O  O39  1  0.79344133  0.96447267  0.19300667  1
  O  O40  1  0.69466867  0.16774433  0.24502733  1
  O  O41  1  0.03552733  0.82896867  0.19300667  1
  O  O42  1  0.63580433  0.50802367  0.14044667  1
  O  O43  1  0.97191200  0.16379300  0.08766600  1
  O  O44  1  0.87221933  0.36419567  0.14044667  1
  O  O45  1  0.52691167  0.82835533  0.25509333  1
  O  O46  1  0.17164467  0.69855633  0.25509333  1
  O  O47  1  0.83225567  0.52692433  0.24502733  1
  O  O48  1  0.17103133  0.20655867  0.19300667  1
  O  O49  1  0.30144367  0.47308833  0.25509333  1
  O  O50  1  0.69937167  0.54188533  0.02522133  1
  O  O51  1  0.47307567  0.30533133  0.24502733  1
  O  O52  1  0.84251367  0.30062833  0.02522133  1
  O  O53  1  0.45811467  0.15748633  0.02522133  1
  O  O54  1  0.87089467  0.50764433  0.64078233  1
  O  O55  1  0.49235567  0.36325033  0.64078233  1
  O  O56  1  0.85854767  0.36142133  0.42099933  1
  O  O57  1  0.63674967  0.12910533  0.64078233  1
  O  O58  1  0.02761233  0.19224067  0.41102767  1
  O  O59  1  0.15864300  0.46111400  0.47378000  1
  O  O60  1  0.50287367  0.14145233  0.42099933  1
  O  O61  1  0.16462833  0.97238767  0.41102767  1
  O  O62  1  0.80775933  0.83537167  0.41102767  1
  O  O63  1  0.46010800  0.29780600  0.52634000  1
  O  O64  1  0.36133533  0.50107767  0.57836067  1
  O  O65  1  0.70219400  0.16230200  0.52634000  1
  O  O66  1  0.30247100  0.84135700  0.47378000  1
  O  O67  1  0.63857867  0.49712633  0.42099933  1
  O  O68  1  0.53888600  0.69752900  0.47378000  1
  O  O69  1  0.19357833  0.16168867  0.58842667  1
  O  O70  1  0.83831133  0.03188967  0.58842667  1
  O  O71  1  0.49892233  0.86025767  0.57836067  1
  O  O72  1  0.83769800  0.53989200  0.52634000  1
  O  O73  1  0.96811033  0.80642167  0.58842667  1
  O  O74  1  0.36603833  0.87521867  0.35855467  1
  O  O75  1  0.13974233  0.63866467  0.57836067  1
  O  O76  1  0.50918033  0.63396167  0.35855467  1
  O  O77  1  0.12478133  0.49081967  0.35855467  1
  O  O78  1  0.53756133  0.84097767  0.97411567  1
  O  O79  1  0.15902233  0.69658367  0.97411567  1
  O  O80  1  0.52521433  0.69475467  0.75433267  1
  O  O81  1  0.30341633  0.46243867  0.97411567  1
  O  O82  1  0.69427900  0.52557400  0.74436100  1
  O  O83  1  0.82530967  0.79444733  0.80711333  1
  O  O84  1  0.16954033  0.47478567  0.75433267  1
  O  O85  1  0.83129500  0.30572100  0.74436100  1
  O  O86  1  0.47442600  0.16870500  0.74436100  1
  O  O87  1  0.12677467  0.63113933  0.85967333  1
  O  O88  1  0.02800200  0.83441100  0.91169400  1
  O  O89  1  0.36886067  0.49563533  0.85967333  1
  O  O90  1  0.96913767  0.17469033  0.80711333  1
  O  O91  1  0.30524533  0.83045967  0.75433267  1
  O  O92  1  0.20555267  0.03086233  0.80711333  1
  O  O93  1  0.86024500  0.49502200  0.92176000  1
  O  O94  1  0.50497800  0.36522300  0.92176000  1
  O  O95  1  0.16558900  0.19359100  0.91169400  1
  O  O96  1  0.50436467  0.87322533  0.85967333  1
  O  O97  1  0.63477700  0.13975500  0.92176000  1
  O  O98  1  0.03270500  0.20855200  0.69188800  1
  O  O99  1  0.80640900  0.97199800  0.91169400  1
  O  O100  1  0.17584700  0.96729500  0.69188800  1
  O  O101  1  0.79144800  0.82415300  0.69188800  1
