# generated using pymatgen
data_LiTi8O13
_symmetry_space_group_name_H-M   'P 1'
_cell_length_a   7.79028401
_cell_length_b   7.79028401
_cell_length_c   14.02490909
_cell_angle_alpha   90.00000000
_cell_angle_beta   90.00000000
_cell_angle_gamma   120.00000000
_symmetry_Int_Tables_number   1
_chemical_formula_structural   LiTi8O13
_chemical_formula_sum   'Li3 Ti24 O39'
_cell_volume   737.11842736
_cell_formula_units_Z   3
loop_
 _symmetry_equiv_pos_site_id
 _symmetry_equiv_pos_as_xyz
  1  'x, y, z'
loop_
 _atom_site_type_symbol
 _atom_site_label
 _atom_site_symmetry_multiplicity
 _atom_site_fract_x
 _atom_site_fract_y
 _atom_site_fract_z
 _atom_site_occupancy
  Li  Li0  1  0.33333333  0.66666667  0.16666667  1
  Li  Li1  1  1.00000000  0.00000000  0.50000000  1
  Li  Li2  1  0.66666667  0.33333333  0.83333333  1
  Ti  Ti3  1  0.79446833  0.76370467  0.08097867  1
  Ti  Ti4  1  0.43037133  0.30256967  0.25235467  1
  Ti  Ti5  1  0.69743033  0.12780167  0.25235467  1
  Ti  Ti6  1  0.33333333  0.66666667  0.39454867  1
  Ti  Ti7  1  0.33333333  0.66666667  0.93878467  1
  Ti  Ti8  1  0.96923633  0.20553167  0.08097867  1
  Ti  Ti9  1  0.23629533  0.03076367  0.08097867  1
  Ti  Ti10  1  0.87219833  0.56962867  0.25235467  1
  Ti  Ti11  1  0.46113500  0.09703800  0.41431200  1
  Ti  Ti12  1  0.09703800  0.63590300  0.58568800  1
  Ti  Ti13  1  0.36409700  0.46113500  0.58568800  1
  Ti  Ti14  1  0.00000000  0.00000000  0.72788200  1
  Ti  Ti15  1  0.00000000  0.00000000  0.27211800  1
  Ti  Ti16  1  0.63590300  0.53886500  0.41431200  1
  Ti  Ti17  1  0.90296200  0.36409700  0.41431200  1
  Ti  Ti18  1  0.53886500  0.90296200  0.58568800  1
  Ti  Ti19  1  0.12780167  0.43037133  0.74764533  1
  Ti  Ti20  1  0.76370467  0.96923633  0.91902133  1
  Ti  Ti21  1  0.03076367  0.79446833  0.91902133  1
  Ti  Ti22  1  0.66666667  0.33333333  0.06121533  1
  Ti  Ti23  1  0.66666667  0.33333333  0.60545133  1
  Ti  Ti24  1  0.30256967  0.87219833  0.74764533  1
  Ti  Ti25  1  0.56962867  0.69743033  0.74764533  1
  Ti  Ti26  1  0.20553167  0.23629533  0.91902133  1
  O  O27  1  0.63242367  0.51800433  0.16142633  1
  O  O28  1  0.78108600  0.96575700  0.17190700  1
  O  O29  1  0.57135667  0.74336033  0.00826433  1
  O  O30  1  0.41002700  0.50533700  0.32506900  1
  O  O31  1  0.18467100  0.21891400  0.17190700  1
  O  O32  1  0.49466300  0.90469000  0.32506900  1
  O  O33  1  0.00000000  0.00000000  0.00000000  1
  O  O34  1  0.17200367  0.42864333  0.00826433  1
  O  O35  1  0.48199567  0.11441933  0.16142633  1
  O  O36  1  0.25663967  0.82799633  0.00826433  1
  O  O37  1  0.09531000  0.58997300  0.32506900  1
  O  O38  1  0.88558067  0.36757633  0.16142633  1
  O  O39  1  0.03424300  0.81532900  0.17190700  1
  O  O40  1  0.29909033  0.85133767  0.49475967  1
  O  O41  1  0.44775267  0.29909033  0.50524033  1
  O  O42  1  0.23802333  0.07669367  0.34159767  1
  O  O43  1  0.07669367  0.83867033  0.65840233  1
  O  O44  1  0.85133767  0.55224733  0.50524033  1
  O  O45  1  0.16132967  0.23802333  0.65840233  1
  O  O46  1  0.66666667  0.33333333  0.33333333  1
  O  O47  1  0.83867033  0.76197667  0.34159767  1
  O  O48  1  0.14866233  0.44775267  0.49475967  1
  O  O49  1  0.92330633  0.16132967  0.34159767  1
  O  O50  1  0.76197667  0.92330633  0.65840233  1
  O  O51  1  0.55224733  0.70090967  0.49475967  1
  O  O52  1  0.70090967  0.14866233  0.50524033  1
  O  O53  1  0.96575700  0.18467100  0.82809300  1
  O  O54  1  0.11441933  0.63242367  0.83857367  1
  O  O55  1  0.90469000  0.41002700  0.67493100  1
  O  O56  1  0.74336033  0.17200367  0.99173567  1
  O  O57  1  0.51800433  0.88558067  0.83857367  1
  O  O58  1  0.82799633  0.57135667  0.99173567  1
  O  O59  1  0.33333333  0.66666667  0.66666667  1
  O  O60  1  0.50533700  0.09531000  0.67493100  1
  O  O61  1  0.81532900  0.78108600  0.82809300  1
  O  O62  1  0.58997300  0.49466300  0.67493100  1
  O  O63  1  0.42864333  0.25663967  0.99173567  1
  O  O64  1  0.21891400  0.03424300  0.82809300  1
  O  O65  1  0.36757633  0.48199567  0.83857367  1
