# generated using pymatgen
data_Fe3(O2F)2
_symmetry_space_group_name_H-M   'P 1'
_cell_length_a   5.59450900
_cell_length_b   4.65097400
_cell_length_c   7.71425823
_cell_angle_alpha   90.00000000
_cell_angle_beta   93.21273165
_cell_angle_gamma   90.00000000
_symmetry_Int_Tables_number   1
_chemical_formula_structural   Fe3(O2F)2
_chemical_formula_sum   'Fe6 O8 F4'
_cell_volume   200.40887894
_cell_formula_units_Z   2
loop_
 _symmetry_equiv_pos_site_id
 _symmetry_equiv_pos_as_xyz
  1  'x, y, z'
loop_
 _atom_site_type_symbol
 _atom_site_label
 _atom_site_symmetry_multiplicity
 _atom_site_fract_x
 _atom_site_fract_y
 _atom_site_fract_z
 _atom_site_occupancy
  Fe  Fe0  1  0.23203600  0.01079500  0.99816900  1
  Fe  Fe1  1  0.56774600  0.96933900  0.34316100  1
  Fe  Fe2  1  0.90604600  0.00849500  0.68133200  1
  Fe  Fe3  1  0.76796400  0.51079500  0.00183100  1
  Fe  Fe4  1  0.43225400  0.46933900  0.65683900  1
  Fe  Fe5  1  0.09395400  0.50849500  0.31866800  1
  O  O6  1  0.71432500  0.31295500  0.77642700  1
  O  O7  1  0.04455800  0.30399500  0.10167900  1
  O  O8  1  0.38031600  0.30424100  0.42805800  1
  O  O9  1  0.21669400  0.19209300  0.76667600  1
  O  O10  1  0.95544200  0.80399500  0.89832100  1
  O  O11  1  0.61968400  0.80424100  0.57194200  1
  O  O12  1  0.28567500  0.81295500  0.22357300  1
  O  O13  1  0.78330600  0.69209300  0.23332400  1
  F  F14  1  0.87924700  0.19969500  0.43781300  1
  F  F15  1  0.54856800  0.19839300  0.09934800  1
  F  F16  1  0.12075300  0.69969500  0.56218700  1
  F  F17  1  0.45143200  0.69839300  0.90065200  1
