# generated using pymatgen
data_Li4V3Ni3(WO8)2
_symmetry_space_group_name_H-M   'P 1'
_cell_length_a   10.28114000
_cell_length_b   5.99799000
_cell_length_c   9.72156881
_cell_angle_alpha   90.00000000
_cell_angle_beta   90.17589704
_cell_angle_gamma   90.00000000
_symmetry_Int_Tables_number   1
_chemical_formula_structural   Li4V3Ni3(WO8)2
_chemical_formula_sum   'Li8 V6 Ni6 W4 O32'
_cell_volume   599.48913770
_cell_formula_units_Z   2
loop_
 _symmetry_equiv_pos_site_id
 _symmetry_equiv_pos_as_xyz
  1  'x, y, z'
loop_
 _atom_site_type_symbol
 _atom_site_label
 _atom_site_symmetry_multiplicity
 _atom_site_fract_x
 _atom_site_fract_y
 _atom_site_fract_z
 _atom_site_occupancy
  Li  Li0  1  0.33655500  0.00000000  0.09672000  1
  Li  Li1  1  0.99801800  0.00000000  0.01310100  1
  Li  Li2  1  0.00064800  0.00000000  0.51056400  1
  Li  Li3  1  0.66791900  0.00000000  0.59515300  1
  Li  Li4  1  0.83655500  0.50000000  0.09672000  1
  Li  Li5  1  0.49801800  0.50000000  0.01310100  1
  Li  Li6  1  0.50064800  0.50000000  0.51056400  1
  Li  Li7  1  0.16791900  0.50000000  0.59515300  1
  V  V8  1  0.40926650  0.24596550  0.78278200  1
  V  V9  1  0.40926650  0.75403450  0.78278200  1
  V  V10  1  0.82496200  0.00000000  0.27620400  1
  V  V11  1  0.90926650  0.74596550  0.78278200  1
  V  V12  1  0.90926650  0.25403450  0.78278200  1
  V  V13  1  0.32496200  0.50000000  0.27620400  1
  Ni  Ni14  1  0.17084900  0.00000000  0.78865200  1
  Ni  Ni15  1  0.58630050  0.24558450  0.28875800  1
  Ni  Ni16  1  0.58630050  0.75441550  0.28875800  1
  Ni  Ni17  1  0.67084900  0.50000000  0.78865200  1
  Ni  Ni18  1  0.08630050  0.74558450  0.28875800  1
  Ni  Ni19  1  0.08630050  0.25441550  0.28875800  1
  W  W20  1  0.33370900  0.00000000  0.51020500  1
  W  W21  1  0.65959900  0.00000000  0.01053400  1
  W  W22  1  0.83370900  0.50000000  0.51020500  1
  W  W23  1  0.15959900  0.50000000  0.01053400  1
  O  O24  1  0.41158450  0.24208950  0.40973700  1
  O  O25  1  0.48024900  0.00000000  0.64719900  1
  O  O26  1  0.34135000  0.00000000  0.89480300  1
  O  O27  1  0.99831700  0.00000000  0.69893800  1
  O  O28  1  0.99061300  0.00000000  0.20263600  1
  O  O29  1  0.41158450  0.75791050  0.40973700  1
  O  O30  1  0.26229850  0.22201750  0.64970000  1
  O  O31  1  0.26229850  0.77798250  0.64970000  1
  O  O32  1  0.82229200  0.00000000  0.90812500  1
  O  O33  1  0.17161900  0.00000000  0.41408300  1
  O  O34  1  0.74673000  0.21524700  0.14849500  1
  O  O35  1  0.74673000  0.78475300  0.14849500  1
  O  O36  1  0.68333500  0.00000000  0.39078300  1
  O  O37  1  0.58244800  0.24214400  0.91285600  1
  O  O38  1  0.52287900  0.00000000  0.14975100  1
  O  O39  1  0.58244800  0.75785600  0.91285600  1
  O  O40  1  0.91158450  0.74208950  0.40973700  1
  O  O41  1  0.98024900  0.50000000  0.64719900  1
  O  O42  1  0.84135000  0.50000000  0.89480300  1
  O  O43  1  0.49831700  0.50000000  0.69893800  1
  O  O44  1  0.49061300  0.50000000  0.20263600  1
  O  O45  1  0.91158450  0.25791050  0.40973700  1
  O  O46  1  0.76229850  0.72201750  0.64970000  1
  O  O47  1  0.76229850  0.27798250  0.64970000  1
  O  O48  1  0.32229200  0.50000000  0.90812500  1
  O  O49  1  0.67161900  0.50000000  0.41408300  1
  O  O50  1  0.24673000  0.71524700  0.14849500  1
  O  O51  1  0.24673000  0.28475300  0.14849500  1
  O  O52  1  0.18333500  0.50000000  0.39078300  1
  O  O53  1  0.08244800  0.74214400  0.91285600  1
  O  O54  1  0.02287900  0.50000000  0.14975100  1
  O  O55  1  0.08244800  0.25785600  0.91285600  1
