# generated using pymatgen
data_Sr2RhO4
_symmetry_space_group_name_H-M   'P 1'
_cell_length_a   5.49458200
_cell_length_b   5.49458200
_cell_length_c   26.31038200
_cell_angle_alpha   90.00000000
_cell_angle_beta   90.00000000
_cell_angle_gamma   90.00000000
_symmetry_Int_Tables_number   1
_chemical_formula_structural   Sr2RhO4
_chemical_formula_sum   'Sr16 Rh8 O32'
_cell_volume   794.32178169
_cell_formula_units_Z   8
loop_
 _symmetry_equiv_pos_site_id
 _symmetry_equiv_pos_as_xyz
  1  'x, y, z'
loop_
 _atom_site_type_symbol
 _atom_site_label
 _atom_site_symmetry_multiplicity
 _atom_site_fract_x
 _atom_site_fract_y
 _atom_site_fract_z
 _atom_site_occupancy
  Sr  Sr0  1  0.50000000  0.50000000  0.32479100  1
  Sr  Sr1  1  0.50000000  0.50000000  0.17520900  1
  Sr  Sr2  1  0.50000000  0.00000000  0.42520900  1
  Sr  Sr3  1  0.00000000  0.50000000  0.07479100  1
  Sr  Sr4  1  0.00000000  0.00000000  0.17520900  1
  Sr  Sr5  1  0.00000000  0.00000000  0.32479100  1
  Sr  Sr6  1  0.00000000  0.50000000  0.42520900  1
  Sr  Sr7  1  0.50000000  0.00000000  0.07479100  1
  Sr  Sr8  1  0.00000000  0.00000000  0.82479100  1
  Sr  Sr9  1  0.00000000  0.00000000  0.67520900  1
  Sr  Sr10  1  0.00000000  0.50000000  0.92520900  1
  Sr  Sr11  1  0.50000000  0.00000000  0.57479100  1
  Sr  Sr12  1  0.50000000  0.50000000  0.67520900  1
  Sr  Sr13  1  0.50000000  0.50000000  0.82479100  1
  Sr  Sr14  1  0.50000000  0.00000000  0.92520900  1
  Sr  Sr15  1  0.00000000  0.50000000  0.57479100  1
  Rh  Rh16  1  0.00000000  0.00000000  0.00000000  1
  Rh  Rh17  1  0.50000000  0.00000000  0.25000000  1
  Rh  Rh18  1  0.00000000  0.50000000  0.25000000  1
  Rh  Rh19  1  0.50000000  0.50000000  0.00000000  1
  Rh  Rh20  1  0.50000000  0.50000000  0.50000000  1
  Rh  Rh21  1  0.00000000  0.50000000  0.75000000  1
  Rh  Rh22  1  0.50000000  0.00000000  0.75000000  1
  Rh  Rh23  1  0.00000000  0.00000000  0.50000000  1
  O  O24  1  0.19345500  0.19345500  0.25000000  1
  O  O25  1  0.30654500  0.69345500  0.25000000  1
  O  O26  1  0.50000000  0.50000000  0.41995800  1
  O  O27  1  0.00000000  0.00000000  0.08004200  1
  O  O28  1  0.50000000  0.00000000  0.16995800  1
  O  O29  1  0.50000000  0.00000000  0.33004200  1
  O  O30  1  0.69345500  0.30654500  0.25000000  1
  O  O31  1  0.19345500  0.69345500  0.00000000  1
  O  O32  1  0.30654500  0.19345500  0.00000000  1
  O  O33  1  0.80654500  0.80654500  0.25000000  1
  O  O34  1  0.00000000  0.50000000  0.33004200  1
  O  O35  1  0.00000000  0.00000000  0.41995800  1
  O  O36  1  0.50000000  0.50000000  0.08004200  1
  O  O37  1  0.00000000  0.50000000  0.16995800  1
  O  O38  1  0.69345500  0.80654500  0.00000000  1
  O  O39  1  0.80654500  0.30654500  0.00000000  1
  O  O40  1  0.69345500  0.69345500  0.75000000  1
  O  O41  1  0.80654500  0.19345500  0.75000000  1
  O  O42  1  0.00000000  0.00000000  0.91995800  1
  O  O43  1  0.50000000  0.50000000  0.58004200  1
  O  O44  1  0.00000000  0.50000000  0.66995800  1
  O  O45  1  0.00000000  0.50000000  0.83004200  1
  O  O46  1  0.19345500  0.80654500  0.75000000  1
  O  O47  1  0.69345500  0.19345500  0.50000000  1
  O  O48  1  0.80654500  0.69345500  0.50000000  1
  O  O49  1  0.30654500  0.30654500  0.75000000  1
  O  O50  1  0.50000000  0.00000000  0.83004200  1
  O  O51  1  0.50000000  0.50000000  0.91995800  1
  O  O52  1  0.00000000  0.00000000  0.58004200  1
  O  O53  1  0.50000000  0.00000000  0.66995800  1
  O  O54  1  0.19345500  0.30654500  0.50000000  1
  O  O55  1  0.30654500  0.80654500  0.50000000  1
