# generated using pymatgen
data_LiV(CO3)2
_symmetry_space_group_name_H-M   'P 1'
_cell_length_a   10.34627400
_cell_length_b   10.34627400
_cell_length_c   9.50121800
_cell_angle_alpha   90.00000000
_cell_angle_beta   90.00000000
_cell_angle_gamma   90.00000000
_symmetry_Int_Tables_number   1
_chemical_formula_structural   LiV(CO3)2
_chemical_formula_sum   'Li8 V8 C16 O48'
_cell_volume   1017.06154527
_cell_formula_units_Z   8
loop_
 _symmetry_equiv_pos_site_id
 _symmetry_equiv_pos_as_xyz
  1  'x, y, z'
loop_
 _atom_site_type_symbol
 _atom_site_label
 _atom_site_symmetry_multiplicity
 _atom_site_fract_x
 _atom_site_fract_y
 _atom_site_fract_z
 _atom_site_occupancy
  Li  Li0  1  0.43488800  0.25000000  0.87500000  1
  Li  Li1  1  0.75000000  0.06511200  0.62500000  1
  Li  Li2  1  0.75000000  0.43488800  0.12500000  1
  Li  Li3  1  0.06511200  0.25000000  0.37500000  1
  Li  Li4  1  0.93488800  0.75000000  0.37500000  1
  Li  Li5  1  0.25000000  0.56511200  0.12500000  1
  Li  Li6  1  0.25000000  0.93488800  0.62500000  1
  Li  Li7  1  0.56511200  0.75000000  0.87500000  1
  V  V8  1  0.72925300  0.25000000  0.87500000  1
  V  V9  1  0.75000000  0.72925300  0.12500000  1
  V  V10  1  0.75000000  0.77074700  0.62500000  1
  V  V11  1  0.77074700  0.25000000  0.37500000  1
  V  V12  1  0.22925300  0.75000000  0.37500000  1
  V  V13  1  0.25000000  0.22925300  0.62500000  1
  V  V14  1  0.25000000  0.27074700  0.12500000  1
  V  V15  1  0.27074700  0.75000000  0.87500000  1
  C  C16  1  0.54873950  0.21529250  0.60430650  1
  C  C17  1  0.78470750  0.54873950  0.39569350  1
  C  C18  1  0.78470750  0.95126050  0.35430650  1
  C  C19  1  0.71529250  0.95126050  0.89569350  1
  C  C20  1  0.95126050  0.21529250  0.64569350  1
  C  C21  1  0.95126050  0.28470750  0.10430650  1
  C  C22  1  0.04873950  0.78470750  0.64569350  1
  C  C23  1  0.21529250  0.04873950  0.35430650  1
  C  C24  1  0.04873950  0.71529250  0.10430650  1
  C  C25  1  0.28470750  0.04873950  0.89569350  1
  C  C26  1  0.28470750  0.45126050  0.85430650  1
  C  C27  1  0.21529250  0.45126050  0.39569350  1
  C  C28  1  0.45126050  0.71529250  0.14569350  1
  C  C29  1  0.45126050  0.78470750  0.60430650  1
  C  C30  1  0.54873950  0.28470750  0.14569350  1
  C  C31  1  0.71529250  0.54873950  0.85430650  1
  O  O32  1  0.30559550  0.35232550  0.77210550  1
  O  O33  1  0.43658150  0.22714650  0.55250650  1
  O  O34  1  0.56982750  0.21351350  0.74000350  1
  O  O35  1  0.56341850  0.72714650  0.19749350  1
  O  O36  1  0.64767450  0.30559550  0.22789450  1
  O  O37  1  0.64767450  0.19440450  0.52210550  1
  O  O38  1  0.69440450  0.85232550  0.97789450  1
  O  O39  1  0.71351350  0.93017250  0.75999650  1
  O  O40  1  0.72714650  0.06341850  0.94749350  1
  O  O41  1  0.72714650  0.43658150  0.80250650  1
  O  O42  1  0.77285350  0.06341850  0.30250650  1
  O  O43  1  0.77285350  0.43658150  0.44749350  1
  O  O44  1  0.78648650  0.56982750  0.25999650  1
  O  O45  1  0.78648650  0.93017250  0.49000350  1
  O  O46  1  0.80559550  0.64767450  0.47789450  1
  O  O47  1  0.85232550  0.19440450  0.72789450  1
  O  O48  1  0.85232550  0.30559550  0.02210550  1
  O  O49  1  0.93658150  0.77285350  0.69749350  1
  O  O50  1  0.93017250  0.21351350  0.50999650  1
  O  O51  1  0.93017250  0.28648650  0.24000350  1
  O  O52  1  0.06982750  0.78648650  0.50999650  1
  O  O53  1  0.06341850  0.27285350  0.05250650  1
  O  O54  1  0.19440450  0.14767450  0.27210550  1
  O  O55  1  0.21351350  0.06982750  0.49000350  1
  O  O56  1  0.80559550  0.85232550  0.27210550  1
  O  O57  1  0.93658150  0.72714650  0.05250650  1
  O  O58  1  0.06982750  0.71351350  0.24000350  1
  O  O59  1  0.06341850  0.22714650  0.69749350  1
  O  O60  1  0.14767450  0.80559550  0.72789450  1
  O  O61  1  0.14767450  0.69440450  0.02210550  1
  O  O62  1  0.19440450  0.35232550  0.47789450  1
  O  O63  1  0.21351350  0.43017250  0.25999650  1
  O  O64  1  0.22714650  0.56341850  0.44749350  1
  O  O65  1  0.22714650  0.93658150  0.30250650  1
  O  O66  1  0.27285350  0.56341850  0.80250650  1
  O  O67  1  0.27285350  0.93658150  0.94749350  1
  O  O68  1  0.28648650  0.06982750  0.75999650  1
  O  O69  1  0.28648650  0.43017250  0.99000350  1
  O  O70  1  0.30559550  0.14767450  0.97789450  1
  O  O71  1  0.35232550  0.69440450  0.22789450  1
  O  O72  1  0.35232550  0.80559550  0.52210550  1
  O  O73  1  0.43658150  0.27285350  0.19749350  1
  O  O74  1  0.43017250  0.71351350  0.00999650  1
  O  O75  1  0.43017250  0.78648650  0.74000350  1
  O  O76  1  0.56982750  0.28648650  0.00999650  1
  O  O77  1  0.56341850  0.77285350  0.55250650  1
  O  O78  1  0.69440450  0.64767450  0.77210550  1
  O  O79  1  0.71351350  0.56982750  0.99000350  1
