# generated using pymatgen
data_V2O3F
_symmetry_space_group_name_H-M   'P 1'
_cell_length_a   8.82642200
_cell_length_b   6.84335200
_cell_length_c   8.82273138
_cell_angle_alpha   90.00000000
_cell_angle_beta   93.30830063
_cell_angle_gamma   90.00000000
_symmetry_Int_Tables_number   1
_chemical_formula_structural   V2O3F
_chemical_formula_sum   'V16 O24 F8'
_cell_volume   532.02526106
_cell_formula_units_Z   8
loop_
 _symmetry_equiv_pos_site_id
 _symmetry_equiv_pos_as_xyz
  1  'x, y, z'
loop_
 _atom_site_type_symbol
 _atom_site_label
 _atom_site_symmetry_multiplicity
 _atom_site_fract_x
 _atom_site_fract_y
 _atom_site_fract_z
 _atom_site_occupancy
  V  V0  1  0.37492350  0.99591150  0.87475500  1
  V  V1  1  0.12479700  0.99147100  0.62489500  1
  V  V2  1  0.75038600  0.03758500  0.75077400  1
  V  V3  1  0.50000000  0.03453500  0.50000000  1
  V  V4  1  0.24961400  0.03758500  0.24922600  1
  V  V5  1  0.87520300  0.99147100  0.37510500  1
  V  V6  1  0.62507650  0.99591150  0.12524500  1
  V  V7  1  0.50000000  0.45374900  0.00000000  1
  V  V8  1  0.87492350  0.49591150  0.87475500  1
  V  V9  1  0.62479700  0.49147100  0.62489500  1
  V  V10  1  0.25038600  0.53758500  0.75077400  1
  V  V11  1  0.00000000  0.53453500  0.50000000  1
  V  V12  1  0.74961400  0.53758500  0.24922600  1
  V  V13  1  0.37520300  0.49147100  0.37510500  1
  V  V14  1  0.12507650  0.49591150  0.12524500  1
  V  V15  1  0.00000000  0.95374900  0.00000000  1
  O  O16  1  0.24893050  0.80093150  0.75081700  1
  O  O17  1  0.02837800  0.99975500  0.22079100  1
  O  O18  1  0.77936450  0.99641650  0.97169200  1
  O  O19  1  0.27765350  0.99982050  0.47120100  1
  O  O20  1  0.52903200  0.99591300  0.72139900  1
  O  O21  1  0.97162200  0.99975500  0.77920900  1
  O  O22  1  0.22063550  0.99641650  0.02830800  1
  O  O23  1  0.72234650  0.99982050  0.52879900  1
  O  O24  1  0.47096800  0.99591300  0.27860100  1
  O  O25  1  0.50000000  0.29687000  0.50000000  1
  O  O26  1  0.75106950  0.80093150  0.24918300  1
  O  O27  1  0.50000000  0.19124200  0.00000000  1
  O  O28  1  0.74893050  0.30093150  0.75081700  1
  O  O29  1  0.52837800  0.49975500  0.22079100  1
  O  O30  1  0.27936450  0.49641650  0.97169200  1
  O  O31  1  0.77765350  0.49982050  0.47120100  1
  O  O32  1  0.02903200  0.49591300  0.72139900  1
  O  O33  1  0.47162200  0.49975500  0.77920900  1
  O  O34  1  0.72063550  0.49641650  0.02830800  1
  O  O35  1  0.22234650  0.49982050  0.52879900  1
  O  O36  1  0.97096800  0.49591300  0.27860100  1
  O  O37  1  0.00000000  0.79687000  0.50000000  1
  O  O38  1  0.25106950  0.30093150  0.24918300  1
  O  O39  1  0.00000000  0.69124200  0.00000000  1
  F  F40  1  0.50000000  0.69673100  0.50000000  1
  F  F41  1  0.25028250  0.19808450  0.74882100  1
  F  F42  1  0.50000000  0.79509700  0.00000000  1
  F  F43  1  0.74971750  0.19808450  0.25117900  1
  F  F44  1  0.00000000  0.19673100  0.50000000  1
  F  F45  1  0.75028250  0.69808450  0.74882100  1
  F  F46  1  0.00000000  0.29509700  0.00000000  1
  F  F47  1  0.24971750  0.69808450  0.25117900  1
