# generated using pymatgen
data_Li3Mn3WO8
_symmetry_space_group_name_H-M   'P 1'
_cell_length_a   6.29214223
_cell_length_b   6.29214223
_cell_length_c   14.72496072
_cell_angle_alpha   90.00000000
_cell_angle_beta   90.00000000
_cell_angle_gamma   120.00000000
_symmetry_Int_Tables_number   1
_chemical_formula_structural   Li3Mn3WO8
_chemical_formula_sum   'Li9 Mn9 W3 O24'
_cell_volume   504.87264252
_cell_formula_units_Z   3
loop_
 _symmetry_equiv_pos_site_id
 _symmetry_equiv_pos_as_xyz
  1  'x, y, z'
loop_
 _atom_site_type_symbol
 _atom_site_label
 _atom_site_symmetry_multiplicity
 _atom_site_fract_x
 _atom_site_fract_y
 _atom_site_fract_z
 _atom_site_occupancy
  Li  Li0  1  0.16666667  0.33333333  0.83333333  1
  Li  Li1  1  0.83333333  0.16666667  0.16666667  1
  Li  Li2  1  0.33333333  0.16666667  0.16666667  1
  Li  Li3  1  0.83333333  0.66666667  0.16666667  1
  Li  Li4  1  0.50000000  0.50000000  0.50000000  1
  Li  Li5  1  0.00000000  0.50000000  0.50000000  1
  Li  Li6  1  0.50000000  0.00000000  0.50000000  1
  Li  Li7  1  0.16666667  0.83333333  0.83333333  1
  Li  Li8  1  0.66666667  0.83333333  0.83333333  1
  Mn  Mn9  1  0.16666667  0.33333333  0.33333333  1
  Mn  Mn10  1  0.50000000  0.50000000  0.00000000  1
  Mn  Mn11  1  0.00000000  0.50000000  0.00000000  1
  Mn  Mn12  1  0.83333333  0.66666667  0.66666667  1
  Mn  Mn13  1  0.16666667  0.83333333  0.33333333  1
  Mn  Mn14  1  0.66666667  0.83333333  0.33333333  1
  Mn  Mn15  1  0.50000000  0.00000000  0.00000000  1
  Mn  Mn16  1  0.83333333  0.16666667  0.66666667  1
  Mn  Mn17  1  0.33333333  0.16666667  0.66666667  1
  W  W18  1  0.00000000  0.00000000  0.00000000  1
  W  W19  1  0.66666667  0.33333333  0.33333333  1
  W  W20  1  0.33333333  0.66666667  0.66666667  1
  O  O21  1  0.33333333  0.66666667  0.40069467  1
  O  O22  1  0.14712767  0.29425533  0.07655333  1
  O  O23  1  0.14712767  0.85287233  0.07655333  1
  O  O24  1  0.33333333  0.66666667  0.93263867  1
  O  O25  1  0.70574467  0.85287233  0.07655333  1
  O  O26  1  0.51953900  0.03907800  0.25678000  1
  O  O27  1  0.51953900  0.48046100  0.25678000  1
  O  O28  1  0.96092200  0.48046100  0.25678000  1
  O  O29  1  0.00000000  0.00000000  0.73402800  1
  O  O30  1  0.81379433  0.62758867  0.40988667  1
  O  O31  1  0.81379433  0.18620567  0.40988667  1
  O  O32  1  0.00000000  0.00000000  0.26597200  1
  O  O33  1  0.37241133  0.18620567  0.40988667  1
  O  O34  1  0.18620567  0.37241133  0.59011333  1
  O  O35  1  0.18620567  0.81379433  0.59011333  1
  O  O36  1  0.62758867  0.81379433  0.59011333  1
  O  O37  1  0.66666667  0.33333333  0.06736133  1
  O  O38  1  0.48046100  0.96092200  0.74322000  1
  O  O39  1  0.48046100  0.51953900  0.74322000  1
  O  O40  1  0.66666667  0.33333333  0.59930533  1
  O  O41  1  0.03907800  0.51953900  0.74322000  1
  O  O42  1  0.85287233  0.70574467  0.92344667  1
  O  O43  1  0.85287233  0.14712767  0.92344667  1
  O  O44  1  0.29425533  0.14712767  0.92344667  1
