# generated using pymatgen
data_Li2Fe3CoO8
_symmetry_space_group_name_H-M   'P 1'
_cell_length_a   8.40411992
_cell_length_b   8.40411992
_cell_length_c   8.31411187
_cell_angle_alpha   90.00000000
_cell_angle_beta   90.00000000
_cell_angle_gamma   90.00000000
_symmetry_Int_Tables_number   1
_chemical_formula_structural   Li2Fe3CoO8
_chemical_formula_sum   'Li8 Fe12 Co4 O32'
_cell_volume   587.21933230
_cell_formula_units_Z   4
loop_
 _symmetry_equiv_pos_site_id
 _symmetry_equiv_pos_as_xyz
  1  'x, y, z'
loop_
 _atom_site_type_symbol
 _atom_site_label
 _atom_site_symmetry_multiplicity
 _atom_site_fract_x
 _atom_site_fract_y
 _atom_site_fract_z
 _atom_site_occupancy
  Li  Li0  1  0.74669350  0.49746250  0.87327000  1
  Li  Li1  1  0.50253750  0.25330650  0.62673000  1
  Li  Li2  1  0.00253750  0.24669350  0.12327000  1
  Li  Li3  1  0.24669350  0.00253750  0.87673000  1
  Li  Li4  1  0.75330650  0.99746250  0.37673000  1
  Li  Li5  1  0.99746250  0.75330650  0.62327000  1
  Li  Li6  1  0.49746250  0.74669350  0.12673000  1
  Li  Li7  1  0.25330650  0.50253750  0.37327000  1
  Fe  Fe8  1  0.12467550  0.37274650  0.75299400  1
  Fe  Fe9  1  0.87274650  0.37532450  0.50299400  1
  Fe  Fe10  1  0.62269100  0.37730900  0.25000000  1
  Fe  Fe11  1  0.12269100  0.12269100  0.50000000  1
  Fe  Fe12  1  0.37274650  0.12467550  0.24700600  1
  Fe  Fe13  1  0.62467550  0.12725350  0.99700600  1
  Fe  Fe14  1  0.37532450  0.87274650  0.49700600  1
  Fe  Fe15  1  0.62725350  0.87532450  0.74700600  1
  Fe  Fe16  1  0.87730900  0.87730900  0.00000000  1
  Fe  Fe17  1  0.37730900  0.62269100  0.75000000  1
  Fe  Fe18  1  0.12725350  0.62467550  0.00299400  1
  Fe  Fe19  1  0.87532450  0.62725350  0.25299400  1
  Co  Co20  1  0.37458550  0.37458550  0.00000000  1
  Co  Co21  1  0.87458550  0.12541450  0.75000000  1
  Co  Co22  1  0.12541450  0.87458550  0.25000000  1
  Co  Co23  1  0.62541450  0.62541450  0.50000000  1
  O  O24  1  0.36612350  0.38047250  0.77231700  1
  O  O25  1  0.14740550  0.38418850  0.99107600  1
  O  O26  1  0.86472250  0.38750850  0.26317100  1
  O  O27  1  0.88418850  0.35259450  0.74107600  1
  O  O28  1  0.63179350  0.39616050  0.49119300  1
  O  O29  1  0.11249150  0.36472250  0.51317100  1
  O  O30  1  0.38047250  0.36612350  0.22768300  1
  O  O31  1  0.60383950  0.36820650  0.00880700  1
  O  O32  1  0.10383950  0.13179350  0.74119300  1
  O  O33  1  0.88047250  0.13387650  0.52231700  1
  O  O34  1  0.61249150  0.13527750  0.23682900  1
  O  O35  1  0.13179350  0.10383950  0.25880700  1
  O  O36  1  0.38418850  0.14740550  0.00892400  1
  O  O37  1  0.36472250  0.11249150  0.48682900  1
  O  O38  1  0.64740550  0.11581150  0.75892400  1
  O  O39  1  0.86612350  0.11952750  0.97768300  1
  O  O40  1  0.13387650  0.88047250  0.47768300  1
  O  O41  1  0.35259450  0.88418850  0.25892400  1
  O  O42  1  0.63527750  0.88750850  0.98682900  1
  O  O43  1  0.61581150  0.85259450  0.50892400  1
  O  O44  1  0.86820650  0.89616050  0.75880700  1
  O  O45  1  0.38750850  0.86472250  0.73682900  1
  O  O46  1  0.11952750  0.86612350  0.02231700  1
  O  O47  1  0.89616050  0.86820650  0.24119300  1
  O  O48  1  0.39616050  0.63179350  0.50880700  1
  O  O49  1  0.61952750  0.63387650  0.72768300  1
  O  O50  1  0.88750850  0.63527750  0.01317100  1
  O  O51  1  0.36820650  0.60383950  0.99119300  1
  O  O52  1  0.11581150  0.64740550  0.24107600  1
  O  O53  1  0.13527750  0.61249150  0.76317100  1
  O  O54  1  0.85259450  0.61581150  0.49107600  1
  O  O55  1  0.63387650  0.61952750  0.27231700  1
