# generated using pymatgen
data_Li2MnPO5
_symmetry_space_group_name_H-M   'P 1'
_cell_length_a   7.80970536
_cell_length_b   7.74813200
_cell_length_c   7.11396326
_cell_angle_alpha   90.00000000
_cell_angle_beta   116.76831279
_cell_angle_gamma   90.00000000
_symmetry_Int_Tables_number   1
_chemical_formula_structural   Li2MnPO5
_chemical_formula_sum   'Li8 Mn4 P4 O20'
_cell_volume   384.33904244
_cell_formula_units_Z   4
loop_
 _symmetry_equiv_pos_site_id
 _symmetry_equiv_pos_as_xyz
  1  'x, y, z'
loop_
 _atom_site_type_symbol
 _atom_site_label
 _atom_site_symmetry_multiplicity
 _atom_site_fract_x
 _atom_site_fract_y
 _atom_site_fract_z
 _atom_site_occupancy
  Li  Li0  1  0.82657150  0.72485450  0.24618750  1
  Li  Li1  1  0.32657150  0.77514550  0.74618750  1
  Li  Li2  1  0.17342850  0.72485450  0.25381250  1
  Li  Li3  1  0.67342850  0.77514550  0.75381250  1
  Li  Li4  1  0.32657150  0.22485450  0.24618750  1
  Li  Li5  1  0.82657150  0.27514550  0.74618750  1
  Li  Li6  1  0.67342850  0.22485450  0.25381250  1
  Li  Li7  1  0.17342850  0.27514550  0.75381250  1
  Mn  Mn8  1  0.50000000  0.50000000  0.00000000  1
  Mn  Mn9  1  0.50000000  0.50000000  0.50000000  1
  Mn  Mn10  1  0.00000000  0.00000000  0.00000000  1
  Mn  Mn11  1  0.00000000  0.00000000  0.50000000  1
  P  P12  1  0.50000000  0.87303700  0.25000000  1
  P  P13  1  0.00000000  0.62696300  0.75000000  1
  P  P14  1  0.00000000  0.37303700  0.25000000  1
  P  P15  1  0.50000000  0.12696300  0.75000000  1
  O  O16  1  0.52033850  0.75387950  0.08249850  1
  O  O17  1  0.68048950  0.98617050  0.34969050  1
  O  O18  1  0.00000000  0.90895600  0.25000000  1
  O  O19  1  0.02033850  0.74612050  0.58249850  1
  O  O20  1  0.81951050  0.48617050  0.15030950  1
  O  O21  1  0.68048950  0.01382950  0.84969050  1
  O  O22  1  0.47966150  0.75387950  0.41750150  1
  O  O23  1  0.50000000  0.59104400  0.75000000  1
  O  O24  1  0.81951050  0.51382950  0.65030950  1
  O  O25  1  0.97966150  0.74612050  0.91750150  1
  O  O26  1  0.02033850  0.25387950  0.08249850  1
  O  O27  1  0.18048950  0.48617050  0.34969050  1
  O  O28  1  0.50000000  0.40895600  0.25000000  1
  O  O29  1  0.52033850  0.24612050  0.58249850  1
  O  O30  1  0.31951050  0.98617050  0.15030950  1
  O  O31  1  0.18048950  0.51382950  0.84969050  1
  O  O32  1  0.97966150  0.25387950  0.41750150  1
  O  O33  1  0.00000000  0.09104400  0.75000000  1
  O  O34  1  0.31951050  0.01382950  0.65030950  1
  O  O35  1  0.47966150  0.24612050  0.91750150  1
