# generated using pymatgen
data_FeOF
_symmetry_space_group_name_H-M   'P 1'
_cell_length_a   9.64299700
_cell_length_b   3.12805100
_cell_length_c   14.33449109
_cell_angle_alpha   90.00000000
_cell_angle_beta   90.43392866
_cell_angle_gamma   90.00000000
_symmetry_Int_Tables_number   1
_chemical_formula_structural   FeOF
_chemical_formula_sum   'Fe12 O12 F12'
_cell_volume   432.37012749
_cell_formula_units_Z   12
loop_
 _symmetry_equiv_pos_site_id
 _symmetry_equiv_pos_as_xyz
  1  'x, y, z'
loop_
 _atom_site_type_symbol
 _atom_site_label
 _atom_site_symmetry_multiplicity
 _atom_site_fract_x
 _atom_site_fract_y
 _atom_site_fract_z
 _atom_site_occupancy
  Fe  Fe0  1  0.99438400  0.00000000  0.00503900  1
  Fe  Fe1  1  0.50758900  0.00000000  0.00974100  1
  Fe  Fe2  1  0.75592700  0.50000000  0.15447600  1
  Fe  Fe3  1  0.24151100  0.50000000  0.18746100  1
  Fe  Fe4  1  0.00778800  0.00000000  0.34141400  1
  Fe  Fe5  1  0.48332600  0.00000000  0.33296000  1
  Fe  Fe6  1  0.25252300  0.50000000  0.48649500  1
  Fe  Fe7  1  0.77723700  0.50000000  0.49849100  1
  Fe  Fe8  1  0.99383900  0.00000000  0.66961100  1
  Fe  Fe9  1  0.50194300  0.00000000  0.67762600  1
  Fe  Fe10  1  0.75504000  0.50000000  0.81561200  1
  Fe  Fe11  1  0.24619600  0.50000000  0.81523400  1
  O  O12  1  0.59104600  0.50000000  0.06611400  1
  O  O13  1  0.84663700  0.00000000  0.10266000  1
  O  O14  1  0.14487400  0.00000000  0.23435600  1
  O  O15  1  0.40819300  0.50000000  0.26763400  1
  O  O16  1  0.09624600  0.50000000  0.39955600  1
  O  O17  1  0.85077800  0.00000000  0.43630200  1
  O  O18  1  0.34969500  0.00000000  0.43695800  1
  O  O19  1  0.90687900  0.50000000  0.60347700  1
  O  O20  1  0.59419500  0.50000000  0.72974300  1
  O  O21  1  0.09292000  0.50000000  0.72886600  1
  O  O22  1  0.84718100  0.00000000  0.76912000  1
  O  O23  1  0.34283500  0.00000000  0.76708600  1
  F  F24  1  0.10820700  0.50000000  0.06536900  1
  F  F25  1  0.34013500  0.00000000  0.10035700  1
  F  F26  1  0.65749800  0.00000000  0.23496100  1
  F  F27  1  0.89599600  0.50000000  0.26911600  1
  F  F28  1  0.60168300  0.50000000  0.39929000  1
  F  F29  1  0.65134200  0.00000000  0.56314500  1
  F  F30  1  0.15709900  0.00000000  0.56499600  1
  F  F31  1  0.40148300  0.50000000  0.60155700  1
  F  F32  1  0.65011800  0.00000000  0.89900700  1
  F  F33  1  0.14978700  0.00000000  0.89886500  1
  F  F34  1  0.89802800  0.50000000  0.93071300  1
  F  F35  1  0.39984200  0.50000000  0.93658800  1
