# generated using pymatgen
data_Li10Co(SiO5)2
_symmetry_space_group_name_H-M   'P 1'
_cell_length_a   30.06194936
_cell_length_b   6.17534200
_cell_length_c   5.18435300
_cell_angle_alpha   90.00000000
_cell_angle_beta   99.31732063
_cell_angle_gamma   90.00000000
_symmetry_Int_Tables_number   1
_chemical_formula_structural   Li10Co(SiO5)2
_chemical_formula_sum   'Li40 Co4 Si8 O40'
_cell_volume   949.74028518
_cell_formula_units_Z   4
loop_
 _symmetry_equiv_pos_site_id
 _symmetry_equiv_pos_as_xyz
  1  'x, y, z'
loop_
 _atom_site_type_symbol
 _atom_site_label
 _atom_site_symmetry_multiplicity
 _atom_site_fract_x
 _atom_site_fract_y
 _atom_site_fract_z
 _atom_site_occupancy
  Li  Li0  1  0.48904400  0.00000000  0.23021250  1
  Li  Li1  1  0.43091650  0.79542450  0.60484450  1
  Li  Li2  1  0.43091650  0.20457550  0.60484450  1
  Li  Li3  1  0.36648150  0.50000000  0.71882450  1
  Li  Li4  1  0.36723050  0.71606850  0.25201750  1
  Li  Li5  1  0.36723050  0.28393150  0.25201750  1
  Li  Li6  1  0.32405350  0.00000000  0.56391650  1
  Li  Li7  1  0.30341700  0.74585000  0.89064950  1
  Li  Li8  1  0.30341700  0.25415000  0.89064950  1
  Li  Li9  1  0.26807650  0.00000000  0.17090650  1
  Li  Li10  1  0.22835950  0.50000000  0.81884450  1
  Li  Li11  1  0.19292550  0.24445850  0.09735450  1
  Li  Li12  1  0.19292550  0.75554150  0.09735450  1
  Li  Li13  1  0.17252050  0.50000000  0.42364850  1
  Li  Li14  1  0.12900150  0.21974250  0.73534750  1
  Li  Li15  1  0.12900150  0.78025750  0.73534750  1
  Li  Li16  1  0.12998250  0.00000000  0.27232650  1
  Li  Li17  1  0.06527500  0.71197300  0.38874750  1
  Li  Li18  1  0.06527500  0.28802700  0.38874750  1
  Li  Li19  1  0.00775600  0.50000000  0.76083650  1
  Li  Li20  1  0.98904400  0.50000000  0.23021250  1
  Li  Li21  1  0.93091650  0.29542450  0.60484450  1
  Li  Li22  1  0.93091650  0.70457550  0.60484450  1
  Li  Li23  1  0.86648150  0.00000000  0.71882450  1
  Li  Li24  1  0.86723050  0.21606850  0.25201750  1
  Li  Li25  1  0.86723050  0.78393150  0.25201750  1
  Li  Li26  1  0.82405350  0.50000000  0.56391650  1
  Li  Li27  1  0.80341700  0.24585000  0.89064950  1
  Li  Li28  1  0.80341700  0.75415000  0.89064950  1
  Li  Li29  1  0.76807650  0.50000000  0.17090650  1
  Li  Li30  1  0.72835950  0.00000000  0.81884450  1
  Li  Li31  1  0.69292550  0.74445850  0.09735450  1
  Li  Li32  1  0.69292550  0.25554150  0.09735450  1
  Li  Li33  1  0.67252050  0.00000000  0.42364850  1
  Li  Li34  1  0.62900150  0.71974250  0.73534750  1
  Li  Li35  1  0.62900150  0.28025750  0.73534750  1
  Li  Li36  1  0.62998250  0.50000000  0.27232650  1
  Li  Li37  1  0.56527500  0.21197300  0.38874750  1
  Li  Li38  1  0.56527500  0.78802700  0.38874750  1
  Li  Li39  1  0.50775600  0.00000000  0.76083650  1
  Co  Co40  1  0.46347650  0.50000000  0.36938950  1
  Co  Co41  1  0.03652350  0.00000000  0.63061050  1
  Co  Co42  1  0.96347650  0.00000000  0.36938950  1
  Co  Co43  1  0.53652350  0.50000000  0.63061050  1
  Si  Si44  1  0.39829400  0.00000000  0.98640650  1
  Si  Si45  1  0.27957100  0.50000000  0.36516050  1
  Si  Si46  1  0.21676950  0.00000000  0.62457150  1
  Si  Si47  1  0.09833650  0.50000000  0.00481550  1
  Si  Si48  1  0.89829400  0.50000000  0.98640650  1
  Si  Si49  1  0.77957100  0.00000000  0.36516050  1
  Si  Si50  1  0.71676950  0.50000000  0.62457150  1
  Si  Si51  1  0.59833650  0.00000000  0.00481550  1
  O  O52  1  0.44813600  0.00000000  0.89107450  1
  O  O53  1  0.40583050  0.50000000  0.44328050  1
  O  O54  1  0.40289750  0.00000000  0.30996150  1
  O  O55  1  0.36976700  0.78433200  0.86916850  1
  O  O56  1  0.36976700  0.21566800  0.86916850  1
  O  O57  1  0.30488350  0.72544950  0.27580450  1
  O  O58  1  0.30488350  0.27455050  0.27580450  1
  O  O59  1  0.28509050  0.50000000  0.68617550  1
  O  O60  1  0.27024200  0.00000000  0.77416350  1
  O  O61  1  0.22656000  0.50000000  0.21597250  1
  O  O62  1  0.21144000  0.00000000  0.30425450  1
  O  O63  1  0.19176700  0.77806400  0.71437550  1
  O  O64  1  0.19176700  0.22193600  0.71437550  1
  O  O65  1  0.12717650  0.28689350  0.11927050  1
  O  O66  1  0.13023300  0.71566800  0.13083150  1
  O  O67  1  0.09340550  0.50000000  0.68064650  1
  O  O68  1  0.09416950  0.00000000  0.55671950  1
  O  O69  1  0.04841150  0.50000000  0.10093250  1
  O  O70  1  0.49794900  0.75285700  0.49558850  1
  O  O71  1  0.49794900  0.24714300  0.49558850  1
  O  O72  1  0.94813600  0.50000000  0.89107450  1
  O  O73  1  0.90583050  0.00000000  0.44328050  1
  O  O74  1  0.90289750  0.50000000  0.30996150  1
  O  O75  1  0.86976700  0.28433200  0.86916850  1
  O  O76  1  0.86976700  0.71566800  0.86916850  1
  O  O77  1  0.80488350  0.22544950  0.27580450  1
  O  O78  1  0.80488350  0.77455050  0.27580450  1
  O  O79  1  0.78509050  0.00000000  0.68617550  1
  O  O80  1  0.77024200  0.50000000  0.77416350  1
  O  O81  1  0.72656000  0.00000000  0.21597250  1
  O  O82  1  0.71144000  0.50000000  0.30425450  1
  O  O83  1  0.69176700  0.27806400  0.71437550  1
  O  O84  1  0.69176700  0.72193600  0.71437550  1
  O  O85  1  0.62717650  0.78689350  0.11927050  1
  O  O86  1  0.63023300  0.21566800  0.13083150  1
  O  O87  1  0.59340550  0.00000000  0.68064650  1
  O  O88  1  0.59416950  0.50000000  0.55671950  1
  O  O89  1  0.54841150  0.00000000  0.10093250  1
  O  O90  1  0.99794900  0.25285700  0.49558850  1
  O  O91  1  0.99794900  0.74714300  0.49558850  1
