# generated using pymatgen
data_Li2Mn4O7F
_symmetry_space_group_name_H-M   'P 1'
_cell_length_a   10.12132800
_cell_length_b   6.10508600
_cell_length_c   5.97419857
_cell_angle_alpha   90.00000000
_cell_angle_beta   125.43087024
_cell_angle_gamma   90.00000000
_symmetry_Int_Tables_number   1
_chemical_formula_structural   Li2Mn4O7F
_chemical_formula_sum   'Li4 Mn8 O14 F2'
_cell_volume   300.79336819
_cell_formula_units_Z   2
loop_
 _symmetry_equiv_pos_site_id
 _symmetry_equiv_pos_as_xyz
  1  'x, y, z'
loop_
 _atom_site_type_symbol
 _atom_site_label
 _atom_site_symmetry_multiplicity
 _atom_site_fract_x
 _atom_site_fract_y
 _atom_site_fract_z
 _atom_site_occupancy
  Li  Li0  1  0.38424100  0.50000000  0.63789400  1
  Li  Li1  1  0.49893000  0.00000000  0.50159200  1
  Li  Li2  1  0.88424100  0.00000000  0.63789400  1
  Li  Li3  1  0.99893000  0.50000000  0.50159200  1
  Mn  Mn4  1  0.11401800  0.00000000  0.36155300  1
  Mn  Mn5  1  0.74779950  0.74415650  0.00891900  1
  Mn  Mn6  1  0.24779950  0.75584350  0.00891900  1
  Mn  Mn7  1  0.50102200  0.00000000  0.99496600  1
  Mn  Mn8  1  0.61401800  0.50000000  0.36155300  1
  Mn  Mn9  1  0.24779950  0.24415650  0.00891900  1
  Mn  Mn10  1  0.74779950  0.25584350  0.00891900  1
  Mn  Mn11  1  0.00102200  0.50000000  0.99496600  1
  O  O12  1  0.51834450  0.22393950  0.78720500  1
  O  O13  1  0.51834450  0.77606050  0.78720500  1
  O  O14  1  0.24114000  0.50000000  0.21351000  1
  O  O15  1  0.75236100  0.50000000  0.22754300  1
  O  O16  1  0.25981100  0.00000000  0.77974000  1
  O  O17  1  0.98166850  0.27504050  0.21501400  1
  O  O18  1  0.98166850  0.72495950  0.21501400  1
  O  O19  1  0.01834450  0.72393950  0.78720500  1
  O  O20  1  0.01834450  0.27606050  0.78720500  1
  O  O21  1  0.74114000  0.00000000  0.21351000  1
  O  O22  1  0.25236100  0.00000000  0.22754300  1
  O  O23  1  0.75981100  0.50000000  0.77974000  1
  O  O24  1  0.48166850  0.77504050  0.21501400  1
  O  O25  1  0.48166850  0.22495950  0.21501400  1
  F  F26  1  0.74696300  0.00000000  0.76095400  1
  F  F27  1  0.24696300  0.50000000  0.76095400  1
