# generated using pymatgen
data_Li2Fe3NiO8
_symmetry_space_group_name_H-M   'P 1'
_cell_length_a   5.87490380
_cell_length_b   5.87490380
_cell_length_c   14.59589307
_cell_angle_alpha   90.00000000
_cell_angle_beta   90.00000000
_cell_angle_gamma   120.00000000
_symmetry_Int_Tables_number   1
_chemical_formula_structural   Li2Fe3NiO8
_chemical_formula_sum   'Li6 Fe9 Ni3 O24'
_cell_volume   436.27750757
_cell_formula_units_Z   3
loop_
 _symmetry_equiv_pos_site_id
 _symmetry_equiv_pos_as_xyz
  1  'x, y, z'
loop_
 _atom_site_type_symbol
 _atom_site_label
 _atom_site_symmetry_multiplicity
 _atom_site_fract_x
 _atom_site_fract_y
 _atom_site_fract_z
 _atom_site_occupancy
  Li  Li0  1  0.66666667  0.33333333  0.21313233  1
  Li  Li1  1  0.33333333  0.66666667  0.16660267  1
  Li  Li2  1  0.33333333  0.66666667  0.54646567  1
  Li  Li3  1  0.00000000  0.00000000  0.49993600  1
  Li  Li4  1  0.00000000  0.00000000  0.87979900  1
  Li  Li5  1  0.66666667  0.33333333  0.83326933  1
  Fe  Fe6  1  0.16958767  0.33917533  0.33281933  1
  Fe  Fe7  1  0.66082467  0.83041233  0.33281933  1
  Fe  Fe8  1  0.16958767  0.83041233  0.33281933  1
  Fe  Fe9  1  0.83625433  0.67250867  0.66615267  1
  Fe  Fe10  1  0.32749133  0.16374567  0.66615267  1
  Fe  Fe11  1  0.83625433  0.16374567  0.66615267  1
  Fe  Fe12  1  0.50292100  0.00584200  0.99948600  1
  Fe  Fe13  1  0.99415800  0.49707900  0.99948600  1
  Fe  Fe14  1  0.50292100  0.49707900  0.99948600  1
  Ni  Ni15  1  0.00000000  0.00000000  0.12039000  1
  Ni  Ni16  1  0.66666667  0.33333333  0.45372333  1
  Ni  Ni17  1  0.33333333  0.66666667  0.78705667  1
  O  O18  1  0.66666667  0.33333333  0.07837033  1
  O  O19  1  0.48471833  0.51528167  0.26244567  1
  O  O20  1  0.03056333  0.51528167  0.26244567  1
  O  O21  1  0.48471833  0.96943667  0.26244567  1
  O  O22  1  0.17939633  0.35879267  0.07109567  1
  O  O23  1  0.64120733  0.82060367  0.07109567  1
  O  O24  1  0.17939633  0.82060367  0.07109567  1
  O  O25  1  0.00000000  0.00000000  0.25575500  1
  O  O26  1  0.33333333  0.66666667  0.41170367  1
  O  O27  1  0.15138500  0.84861500  0.59577900  1
  O  O28  1  0.69723000  0.84861500  0.59577900  1
  O  O29  1  0.15138500  0.30277000  0.59577900  1
  O  O30  1  0.84606300  0.69212600  0.40442900  1
  O  O31  1  0.30787400  0.15393700  0.40442900  1
  O  O32  1  0.84606300  0.15393700  0.40442900  1
  O  O33  1  0.66666667  0.33333333  0.58908833  1
  O  O34  1  0.00000000  0.00000000  0.74503700  1
  O  O35  1  0.81805167  0.18194833  0.92911233  1
  O  O36  1  0.36389667  0.18194833  0.92911233  1
  O  O37  1  0.81805167  0.63610333  0.92911233  1
  O  O38  1  0.51272967  0.02545933  0.73776233  1
  O  O39  1  0.97454067  0.48727033  0.73776233  1
  O  O40  1  0.51272967  0.48727033  0.73776233  1
  O  O41  1  0.33333333  0.66666667  0.92242167  1
