# generated using pymatgen
data_Li7(NiO2)12
_symmetry_space_group_name_H-M   'P 1'
_cell_length_a   12.74796800
_cell_length_b   8.50492000
_cell_length_c   9.74603122
_cell_angle_alpha   90.00000000
_cell_angle_beta   129.96728360
_cell_angle_gamma   90.00000000
_symmetry_Int_Tables_number   1
_chemical_formula_structural   Li7(NiO2)12
_chemical_formula_sum   'Li14 Ni24 O48'
_cell_volume   809.84317532
_cell_formula_units_Z   2
loop_
 _symmetry_equiv_pos_site_id
 _symmetry_equiv_pos_as_xyz
  1  'x, y, z'
loop_
 _atom_site_type_symbol
 _atom_site_label
 _atom_site_symmetry_multiplicity
 _atom_site_fract_x
 _atom_site_fract_y
 _atom_site_fract_z
 _atom_site_occupancy
  Li  Li0  1  0.50000000  0.65918000  0.50000000  1
  Li  Li1  1  0.25387300  0.00059100  0.75527600  1
  Li  Li2  1  0.00000000  0.50148600  0.50000000  1
  Li  Li3  1  0.72957600  0.65553100  0.23521400  1
  Li  Li4  1  0.00000000  0.69688700  0.00000000  1
  Li  Li5  1  0.24612700  0.50059100  0.24472400  1
  Li  Li6  1  0.27042400  0.65553100  0.76478600  1
  Li  Li7  1  0.00000000  0.15918000  0.50000000  1
  Li  Li8  1  0.75387300  0.50059100  0.75527600  1
  Li  Li9  1  0.50000000  0.00148600  0.50000000  1
  Li  Li10  1  0.22957600  0.15553100  0.23521400  1
  Li  Li11  1  0.50000000  0.19688700  0.00000000  1
  Li  Li12  1  0.74612700  0.00059100  0.24472400  1
  Li  Li13  1  0.77042400  0.15553100  0.76478600  1
  Ni  Ni14  1  0.62798350  0.66979150  0.87662300  1
  Ni  Ni15  1  0.37201650  0.66979150  0.12337700  1
  Ni  Ni16  1  0.12619850  0.99565350  0.37944100  1
  Ni  Ni17  1  0.37526200  0.83092400  0.62116700  1
  Ni  Ni18  1  0.87809750  0.50201750  0.12853600  1
  Ni  Ni19  1  0.12473800  0.33092400  0.37883300  1
  Ni  Ni20  1  0.37733550  0.16382150  0.62416900  1
  Ni  Ni21  1  0.62190250  0.00201750  0.87146400  1
  Ni  Ni22  1  0.12266450  0.66382150  0.37583100  1
  Ni  Ni23  1  0.37380150  0.49565350  0.62055900  1
  Ni  Ni24  1  0.12464800  0.83737300  0.87278400  1
  Ni  Ni25  1  0.87535200  0.83737300  0.12721600  1
  Ni  Ni26  1  0.12798350  0.16979150  0.87662300  1
  Ni  Ni27  1  0.87201650  0.16979150  0.12337700  1
  Ni  Ni28  1  0.62619850  0.49565350  0.37944100  1
  Ni  Ni29  1  0.87526200  0.33092400  0.62116700  1
  Ni  Ni30  1  0.37809750  0.00201750  0.12853600  1
  Ni  Ni31  1  0.62473800  0.83092400  0.37883300  1
  Ni  Ni32  1  0.87733550  0.66382150  0.62416900  1
  Ni  Ni33  1  0.12190250  0.50201750  0.87146400  1
  Ni  Ni34  1  0.62266450  0.16382150  0.37583100  1
  Ni  Ni35  1  0.87380150  0.99565350  0.62055900  1
  Ni  Ni36  1  0.62464800  0.33737300  0.87278400  1
  Ni  Ni37  1  0.37535200  0.33737300  0.12721600  1
  O  O38  1  0.07415500  0.01000800  0.71166100  1
  O  O39  1  0.30596750  0.83805650  0.95423600  1
  O  O40  1  0.19597850  0.82603050  0.55042500  1
  O  O41  1  0.55717300  0.83460700  0.70163100  1
  O  O42  1  0.43479000  0.66436100  0.78302500  1
  O  O43  1  0.70286100  0.51519200  0.05663300  1
  O  O44  1  0.32184000  0.16209900  0.96529800  1
  O  O45  1  0.44282700  0.83460700  0.29836900  1
  O  O46  1  0.20139450  0.14980450  0.55976500  1
  O  O47  1  0.06521000  0.16436100  0.21697500  1
  O  O48  1  0.44497550  0.01286550  0.80112700  1
  O  O49  1  0.32171500  0.00201600  0.46196800  1
  O  O50  1  0.17828500  0.50201600  0.53803200  1
  O  O51  1  0.05502450  0.51286550  0.19887300  1
  O  O52  1  0.44519050  0.33133450  0.79100500  1
  O  O53  1  0.30402150  0.32603050  0.44957500  1
  O  O54  1  0.05455550  0.65416850  0.69571500  1
  O  O55  1  0.19403250  0.33805650  0.04576400  1
  O  O56  1  0.79713900  0.01519200  0.94336700  1
  O  O57  1  0.05480950  0.83133450  0.20899500  1
  O  O58  1  0.94544450  0.65416850  0.30428500  1
  O  O59  1  0.29860550  0.64980450  0.44023500  1
  O  O60  1  0.17816000  0.66209900  0.03470200  1
  O  O61  1  0.42584500  0.51000800  0.28833900  1
  O  O62  1  0.57415500  0.51000800  0.71166100  1
  O  O63  1  0.80596750  0.33805650  0.95423600  1
  O  O64  1  0.69597850  0.32603050  0.55042500  1
  O  O65  1  0.05717300  0.33460700  0.70163100  1
  O  O66  1  0.93479000  0.16436100  0.78302500  1
  O  O67  1  0.20286100  0.01519200  0.05663300  1
  O  O68  1  0.82184000  0.66209900  0.96529800  1
  O  O69  1  0.94282700  0.33460700  0.29836900  1
  O  O70  1  0.70139450  0.64980450  0.55976500  1
  O  O71  1  0.56521000  0.66436100  0.21697500  1
  O  O72  1  0.94497550  0.51286550  0.80112700  1
  O  O73  1  0.82171500  0.50201600  0.46196800  1
  O  O74  1  0.67828500  0.00201600  0.53803200  1
  O  O75  1  0.55502450  0.01286550  0.19887300  1
  O  O76  1  0.94519050  0.83133450  0.79100500  1
  O  O77  1  0.80402150  0.82603050  0.44957500  1
  O  O78  1  0.55455550  0.15416850  0.69571500  1
  O  O79  1  0.69403250  0.83805650  0.04576400  1
  O  O80  1  0.29713900  0.51519200  0.94336700  1
  O  O81  1  0.55480950  0.33133450  0.20899500  1
  O  O82  1  0.44544450  0.15416850  0.30428500  1
  O  O83  1  0.79860550  0.14980450  0.44023500  1
  O  O84  1  0.67816000  0.16209900  0.03470200  1
  O  O85  1  0.92584500  0.01000800  0.28833900  1
