# generated using pymatgen
data_Li2MnV(P2O7)2
_symmetry_space_group_name_H-M   'P 1'
_cell_length_a   7.05997600
_cell_length_b   8.30273600
_cell_length_c   9.71423845
_cell_angle_alpha   90.00000000
_cell_angle_beta   108.86721087
_cell_angle_gamma   90.00000000
_symmetry_Int_Tables_number   1
_chemical_formula_structural   Li2MnV(P2O7)2
_chemical_formula_sum   'Li4 Mn2 V2 P8 O28'
_cell_volume   538.82600639
_cell_formula_units_Z   2
loop_
 _symmetry_equiv_pos_site_id
 _symmetry_equiv_pos_as_xyz
  1  'x, y, z'
loop_
 _atom_site_type_symbol
 _atom_site_label
 _atom_site_symmetry_multiplicity
 _atom_site_fract_x
 _atom_site_fract_y
 _atom_site_fract_z
 _atom_site_occupancy
  Li  Li0  1  0.67260200  0.13921000  0.33635700  1
  Li  Li1  1  0.32739800  0.63921000  0.66364300  1
  Li  Li2  1  0.67555500  0.14037500  0.83963100  1
  Li  Li3  1  0.32444500  0.64037500  0.16036900  1
  Mn  Mn4  1  0.73041300  0.50209700  0.85644100  1
  Mn  Mn5  1  0.26958700  0.00209700  0.14355900  1
  V  V6  1  0.72698400  0.49974900  0.35704600  1
  V  V7  1  0.27301600  0.99974900  0.64295400  1
  P  P8  1  0.52158000  0.82041700  0.44982900  1
  P  P9  1  0.08670500  0.21528700  0.35612000  1
  P  P10  1  0.91329500  0.71528700  0.64388000  1
  P  P11  1  0.47842000  0.32041700  0.55017100  1
  P  P12  1  0.51755100  0.82174000  0.95035500  1
  P  P13  1  0.08933700  0.21299800  0.85719100  1
  P  P14  1  0.91066300  0.71299800  0.14280900  1
  P  P15  1  0.48244900  0.32174000  0.04964500  1
  O  O16  1  0.84644100  0.67188400  0.27447800  1
  O  O17  1  0.88703700  0.30432300  0.31830000  1
  O  O18  1  0.48094900  0.96296000  0.34348300  1
  O  O19  1  0.50701100  0.65672600  0.37431700  1
  O  O20  1  0.60486800  0.32319600  0.44809200  1
  O  O21  1  0.91442100  0.56622200  0.55182300  1
  O  O22  1  0.75200200  0.84696100  0.54846700  1
  O  O23  1  0.24799800  0.34696100  0.45153300  1
  O  O24  1  0.08557900  0.06622200  0.44817700  1
  O  O25  1  0.39513200  0.82319600  0.55190800  1
  O  O26  1  0.49298900  0.15672600  0.62568300  1
  O  O27  1  0.51905100  0.46296000  0.65651700  1
  O  O28  1  0.85596200  0.67569700  0.77876800  1
  O  O29  1  0.88678700  0.29524200  0.81232700  1
  O  O30  1  0.11296300  0.80432300  0.68170000  1
  O  O31  1  0.15355900  0.17188400  0.72552200  1
  O  O32  1  0.48318500  0.96415900  0.84426700  1
  O  O33  1  0.49356000  0.65965400  0.87385000  1
  O  O34  1  0.60790300  0.32799800  0.94604500  1
  O  O35  1  0.91002200  0.56297700  0.04895000  1
  O  O36  1  0.75068800  0.84454800  0.04824000  1
  O  O37  1  0.24931200  0.34454800  0.95176000  1
  O  O38  1  0.08997800  0.06297700  0.95105000  1
  O  O39  1  0.39209700  0.82799800  0.05395500  1
  O  O40  1  0.50644000  0.15965400  0.12615000  1
  O  O41  1  0.51681500  0.46415900  0.15573300  1
  O  O42  1  0.11321300  0.79524200  0.18767300  1
  O  O43  1  0.14403800  0.17569700  0.22123200  1
