# generated using pymatgen
data_LiVF3
_symmetry_space_group_name_H-M   'P 1'
_cell_length_a   5.30305222
_cell_length_b   5.30305222
_cell_length_c   14.40883743
_cell_angle_alpha   90.00000000
_cell_angle_beta   90.00000000
_cell_angle_gamma   120.00000000
_symmetry_Int_Tables_number   1
_chemical_formula_structural   LiVF3
_chemical_formula_sum   'Li6 V6 F18'
_cell_volume   350.92263364
_cell_formula_units_Z   6
loop_
 _symmetry_equiv_pos_site_id
 _symmetry_equiv_pos_as_xyz
  1  'x, y, z'
loop_
 _atom_site_type_symbol
 _atom_site_label
 _atom_site_symmetry_multiplicity
 _atom_site_fract_x
 _atom_site_fract_y
 _atom_site_fract_z
 _atom_site_occupancy
  Li  Li0  1  0.00000000  0.00000000  0.20428900  1
  Li  Li1  1  0.66666667  0.33333333  0.03762233  1
  Li  Li2  1  0.66666667  0.33333333  0.53762233  1
  Li  Li3  1  0.33333333  0.66666667  0.37095567  1
  Li  Li4  1  0.33333333  0.66666667  0.87095567  1
  Li  Li5  1  0.00000000  0.00000000  0.70428900  1
  V  V6  1  0.33333333  0.66666667  0.16024867  1
  V  V7  1  0.66666667  0.33333333  0.32691533  1
  V  V8  1  0.00000000  0.00000000  0.49358200  1
  V  V9  1  0.33333333  0.66666667  0.66024867  1
  V  V10  1  0.66666667  0.33333333  0.82691533  1
  V  V11  1  0.00000000  0.00000000  0.99358200  1
  F  F12  1  0.31435167  0.31196633  0.08567733  1
  F  F13  1  0.02136700  0.35231500  0.25234400  1
  F  F14  1  0.64768500  0.66905200  0.25234400  1
  F  F15  1  0.68803367  0.00238533  0.08567733  1
  F  F16  1  0.99761467  0.68564833  0.08567733  1
  F  F17  1  0.33094800  0.97863300  0.25234400  1
  F  F18  1  0.98101833  0.64529967  0.41901067  1
  F  F19  1  0.68803367  0.68564833  0.58567733  1
  F  F20  1  0.31435167  0.00238533  0.58567733  1
  F  F21  1  0.35470033  0.33571867  0.41901067  1
  F  F22  1  0.66428133  0.01898167  0.41901067  1
  F  F23  1  0.99761467  0.31196633  0.58567733  1
  F  F24  1  0.64768500  0.97863300  0.75234400  1
  F  F25  1  0.35470033  0.01898167  0.91901067  1
  F  F26  1  0.98101833  0.33571867  0.91901067  1
  F  F27  1  0.02136700  0.66905200  0.75234400  1
  F  F28  1  0.33094800  0.35231500  0.75234400  1
  F  F29  1  0.66428133  0.64529967  0.91901067  1
