# generated using pymatgen
data_LiMn2OF3
_symmetry_space_group_name_H-M   'P 1'
_cell_length_a   10.61341676
_cell_length_b   6.36844551
_cell_length_c   6.37543697
_cell_angle_alpha   90.00000000
_cell_angle_beta   124.77767593
_cell_angle_gamma   90.00000000
_symmetry_Int_Tables_number   1
_chemical_formula_structural   LiMn2OF3
_chemical_formula_sum   'Li4 Mn8 O4 F12'
_cell_volume   353.94701049
_cell_formula_units_Z   4
loop_
 _symmetry_equiv_pos_site_id
 _symmetry_equiv_pos_as_xyz
  1  'x, y, z'
loop_
 _atom_site_type_symbol
 _atom_site_label
 _atom_site_symmetry_multiplicity
 _atom_site_fract_x
 _atom_site_fract_y
 _atom_site_fract_z
 _atom_site_occupancy
  Li  Li0  1  0.50000000  0.00000000  0.50000000  1
  Li  Li1  1  0.00000000  0.50000000  0.00000000  1
  Li  Li2  1  0.00000000  0.50000000  0.50000000  1
  Li  Li3  1  0.50000000  0.00000000  0.00000000  1
  Mn  Mn4  1  0.75000000  0.25000000  0.00000000  1
  Mn  Mn5  1  0.25000000  0.25000000  0.00000000  1
  Mn  Mn6  1  0.64468650  0.50000000  0.44265900  1
  Mn  Mn7  1  0.85531350  0.00000000  0.55734100  1
  Mn  Mn8  1  0.25000000  0.75000000  0.00000000  1
  Mn  Mn9  1  0.75000000  0.75000000  0.00000000  1
  Mn  Mn10  1  0.14468650  0.00000000  0.44265900  1
  Mn  Mn11  1  0.35531350  0.50000000  0.55734100  1
  O  O12  1  0.76626900  0.50000000  0.81713600  1
  O  O13  1  0.23373100  0.50000000  0.18286400  1
  O  O14  1  0.26626900  0.00000000  0.81713600  1
  O  O15  1  0.73373100  0.00000000  0.18286400  1
  F  F16  1  0.73625950  0.00000000  0.73041200  1
  F  F17  1  0.76374050  0.50000000  0.26958800  1
  F  F18  1  0.49316650  0.23468250  0.73131700  1
  F  F19  1  0.00683350  0.26531750  0.26868300  1
  F  F20  1  0.00683350  0.73468250  0.26868300  1
  F  F21  1  0.99316650  0.26531750  0.73131700  1
  F  F22  1  0.23625950  0.50000000  0.73041200  1
  F  F23  1  0.26374050  0.00000000  0.26958800  1
  F  F24  1  0.99316650  0.73468250  0.73131700  1
  F  F25  1  0.50683350  0.76531750  0.26868300  1
  F  F26  1  0.50683350  0.23468250  0.26868300  1
  F  F27  1  0.49316650  0.76531750  0.73131700  1
