# generated using pymatgen
data_Fe2Sn(PO4)3
_symmetry_space_group_name_H-M   'P 1'
_cell_length_a   8.68242318
_cell_length_b   8.68242318
_cell_length_c   21.72179019
_cell_angle_alpha   90.00000000
_cell_angle_beta   90.00000000
_cell_angle_gamma   120.00000000
_symmetry_Int_Tables_number   1
_chemical_formula_structural   Fe2Sn(PO4)3
_chemical_formula_sum   'Fe12 Sn6 P18 O72'
_cell_volume   1418.10420476
_cell_formula_units_Z   6
loop_
 _symmetry_equiv_pos_site_id
 _symmetry_equiv_pos_as_xyz
  1  'x, y, z'
loop_
 _atom_site_type_symbol
 _atom_site_label
 _atom_site_symmetry_multiplicity
 _atom_site_fract_x
 _atom_site_fract_y
 _atom_site_fract_z
 _atom_site_occupancy
  Fe  Fe0  1  0.66666667  0.33333333  0.18526933  1
  Fe  Fe1  1  0.33333333  0.66666667  0.31473067  1
  Fe  Fe2  1  0.33333333  0.66666667  0.01860267  1
  Fe  Fe3  1  0.00000000  0.00000000  0.14806400  1
  Fe  Fe4  1  0.33333333  0.66666667  0.51860267  1
  Fe  Fe5  1  0.00000000  0.00000000  0.64806400  1
  Fe  Fe6  1  0.00000000  0.00000000  0.35193600  1
  Fe  Fe7  1  0.66666667  0.33333333  0.48139733  1
  Fe  Fe8  1  0.00000000  0.00000000  0.85193600  1
  Fe  Fe9  1  0.66666667  0.33333333  0.98139733  1
  Fe  Fe10  1  0.66666667  0.33333333  0.68526933  1
  Fe  Fe11  1  0.33333333  0.66666667  0.81473067  1
  Sn  Sn12  1  0.00000000  0.00000000  0.00000000  1
  Sn  Sn13  1  0.33333333  0.66666667  0.16666667  1
  Sn  Sn14  1  0.66666667  0.33333333  0.33333333  1
  Sn  Sn15  1  0.00000000  0.00000000  0.50000000  1
  Sn  Sn16  1  0.33333333  0.66666667  0.66666667  1
  Sn  Sn17  1  0.66666667  0.33333333  0.83333333  1
  P  P18  1  0.29064700  0.29064700  0.25000000  1
  P  P19  1  0.00000000  0.70935300  0.25000000  1
  P  P20  1  0.70935300  0.00000000  0.25000000  1
  P  P21  1  0.95731367  0.33333333  0.08333333  1
  P  P22  1  0.66666667  0.62398033  0.08333333  1
  P  P23  1  0.37601967  0.04268633  0.08333333  1
  P  P24  1  0.95731367  0.62398033  0.58333333  1
  P  P25  1  0.66666667  0.04268633  0.58333333  1
  P  P26  1  0.37601967  0.33333333  0.58333333  1
  P  P27  1  0.62398033  0.66666667  0.41666667  1
  P  P28  1  0.33333333  0.95731367  0.41666667  1
  P  P29  1  0.04268633  0.37601967  0.41666667  1
  P  P30  1  0.62398033  0.95731367  0.91666667  1
  P  P31  1  0.33333333  0.37601967  0.91666667  1
  P  P32  1  0.04268633  0.66666667  0.91666667  1
  P  P33  1  0.29064700  0.00000000  0.75000000  1
  P  P34  1  0.00000000  0.29064700  0.75000000  1
  P  P35  1  0.70935300  0.70935300  0.75000000  1
  O  O36  1  0.46868800  0.13908700  0.02428100  1
  O  O37  1  0.86091300  0.32960100  0.02428100  1
  O  O38  1  0.48196733  0.31280967  0.25255567  1
  O  O39  1  0.67039900  0.53131200  0.02428100  1
  O  O40  1  0.19424633  0.19797867  0.19094767  1
  O  O41  1  0.31280967  0.48196733  0.24744433  1
  O  O42  1  0.83084233  0.51803267  0.25255567  1
  O  O43  1  0.16915767  0.68719033  0.24744433  1
  O  O44  1  0.86464533  0.33706567  0.14238567  1
  O  O45  1  0.51803267  0.83084233  0.24744433  1
  O  O46  1  0.97947633  0.16417567  0.08077767  1
  O  O47  1  0.66293433  0.52757967  0.14238567  1
  O  O48  1  0.00373233  0.80575367  0.19094767  1
  O  O49  1  0.68719033  0.16915767  0.25255567  1
  O  O50  1  0.14863400  0.50249100  0.08588900  1
  O  O51  1  0.80202133  0.99626767  0.19094767  1
  O  O52  1  0.49750900  0.64614300  0.08588900  1
  O  O53  1  0.83582433  0.81530067  0.08077767  1
  O  O54  1  0.35385700  0.85136600  0.08588900  1
  O  O55  1  0.47242033  0.13535467  0.14238567  1
  O  O56  1  0.99626767  0.80202133  0.30905233  1
  O  O57  1  0.18469933  0.02052367  0.08077767  1
  O  O58  1  0.80575367  0.00373233  0.30905233  1
  O  O59  1  0.19797867  0.19424633  0.30905233  1
  O  O60  1  0.13535467  0.47242033  0.35761433  1
  O  O61  1  0.52757967  0.66293433  0.35761433  1
  O  O62  1  0.14863400  0.64614300  0.58588900  1
  O  O63  1  0.33706567  0.86464533  0.35761433  1
  O  O64  1  0.86091300  0.53131200  0.52428100  1
  O  O65  1  0.97947633  0.81530067  0.58077767  1
  O  O66  1  0.49750900  0.85136600  0.58588900  1
  O  O67  1  0.83582433  0.02052367  0.58077767  1
  O  O68  1  0.53131200  0.67039900  0.47571900  1
  O  O69  1  0.18469933  0.16417567  0.58077767  1
  O  O70  1  0.64614300  0.49750900  0.41411100  1
  O  O71  1  0.32960100  0.86091300  0.47571900  1
  O  O72  1  0.67039900  0.13908700  0.52428100  1
  O  O73  1  0.35385700  0.50249100  0.58588900  1
  O  O74  1  0.81530067  0.83582433  0.41922233  1
  O  O75  1  0.46868800  0.32960100  0.52428100  1
  O  O76  1  0.16417567  0.97947633  0.41922233  1
  O  O77  1  0.50249100  0.14863400  0.41411100  1
  O  O78  1  0.02052367  0.18469933  0.41922233  1
  O  O79  1  0.13908700  0.46868800  0.47571900  1
  O  O80  1  0.66293433  0.13535467  0.64238567  1
  O  O81  1  0.85136600  0.35385700  0.41411100  1
  O  O82  1  0.47242033  0.33706567  0.64238567  1
  O  O83  1  0.86464533  0.52757967  0.64238567  1
  O  O84  1  0.80202133  0.80575367  0.69094767  1
  O  O85  1  0.19424633  0.99626767  0.69094767  1
  O  O86  1  0.81530067  0.97947633  0.91922233  1
  O  O87  1  0.00373233  0.19797867  0.69094767  1
  O  O88  1  0.52757967  0.86464533  0.85761433  1
  O  O89  1  0.64614300  0.14863400  0.91411100  1
  O  O90  1  0.16417567  0.18469933  0.91922233  1
  O  O91  1  0.50249100  0.35385700  0.91411100  1
  O  O92  1  0.19797867  0.00373233  0.80905233  1
  O  O93  1  0.85136600  0.49750900  0.91411100  1
  O  O94  1  0.31280967  0.83084233  0.74744433  1
  O  O95  1  0.99626767  0.19424633  0.80905233  1
  O  O96  1  0.33706567  0.47242033  0.85761433  1
  O  O97  1  0.02052367  0.83582433  0.91922233  1
  O  O98  1  0.48196733  0.16915767  0.75255567  1
  O  O99  1  0.13535467  0.66293433  0.85761433  1
  O  O100  1  0.83084233  0.31280967  0.75255567  1
  O  O101  1  0.16915767  0.48196733  0.74744433  1
  O  O102  1  0.68719033  0.51803267  0.75255567  1
  O  O103  1  0.80575367  0.80202133  0.80905233  1
  O  O104  1  0.32960100  0.46868800  0.97571900  1
  O  O105  1  0.51803267  0.68719033  0.74744433  1
  O  O106  1  0.13908700  0.67039900  0.97571900  1
  O  O107  1  0.53131200  0.86091300  0.97571900  1
