# generated using pymatgen
data_CoTeO4
_symmetry_space_group_name_H-M   'P 1'
_cell_length_a   5.19016748
_cell_length_b   3.09147459
_cell_length_c   5.46965344
_cell_angle_alpha   90.00000000
_cell_angle_beta   111.00380475
_cell_angle_gamma   90.00000000
_symmetry_Int_Tables_number   1
_chemical_formula_structural   CoTeO4
_chemical_formula_sum   'Co1 Te1 O4'
_cell_volume   81.93086307
_cell_formula_units_Z   1
loop_
 _symmetry_equiv_pos_site_id
 _symmetry_equiv_pos_as_xyz
  1  'x, y, z'
loop_
 _atom_site_type_symbol
 _atom_site_label
 _atom_site_symmetry_multiplicity
 _atom_site_fract_x
 _atom_site_fract_y
 _atom_site_fract_z
 _atom_site_occupancy
  Co  Co0  1  0.50000000  0.50000000  0.00000000  1
  Te  Te1  1  0.50000000  0.00000000  0.50000000  1
  O  O2  1  0.31673200  0.00000000  0.74672000  1
  O  O3  1  0.68326800  0.00000000  0.25328000  1
  O  O4  1  0.27468250  0.50000000  0.28563550  1
  O  O5  1  0.72531750  0.50000000  0.71436450  1
