# generated using pymatgen
data_Li4Mn3O8
_symmetry_space_group_name_H-M   'P 1'
_cell_length_a   11.81677751
_cell_length_b   11.81677751
_cell_length_c   14.31090859
_cell_angle_alpha   90.00000000
_cell_angle_beta   90.00000000
_cell_angle_gamma   120.00000000
_symmetry_Int_Tables_number   1
_chemical_formula_structural   Li4Mn3O8
_chemical_formula_sum   'Li48 Mn36 O96'
_cell_volume   1730.59704108
_cell_formula_units_Z   12
loop_
 _symmetry_equiv_pos_site_id
 _symmetry_equiv_pos_as_xyz
  1  'x, y, z'
loop_
 _atom_site_type_symbol
 _atom_site_label
 _atom_site_symmetry_multiplicity
 _atom_site_fract_x
 _atom_site_fract_y
 _atom_site_fract_z
 _atom_site_occupancy
  Li  Li0  1  0.48304733  0.72403867  0.52838267  1
  Li  Li1  1  0.72403867  0.48304733  0.47161733  1
  Li  Li2  1  0.66666667  0.60940733  0.33333333  1
  Li  Li3  1  0.84354200  0.68806100  0.54425900  1
  Li  Li4  1  0.68806100  0.84354200  0.45574100  1
  Li  Li5  1  0.00000000  0.00000000  0.50000000  1
  Li  Li6  1  0.84451900  0.15645800  0.54425900  1
  Li  Li7  1  0.15645800  0.84451900  0.45574100  1
  Li  Li8  1  0.75900867  0.27596133  0.47161733  1
  Li  Li9  1  0.27596133  0.75900867  0.52838267  1
  Li  Li10  1  0.39059267  0.05725933  0.33333333  1
  Li  Li11  1  0.94274067  0.33333333  0.33333333  1
  Li  Li12  1  0.31193900  0.15548100  0.54425900  1
  Li  Li13  1  0.15548100  0.31193900  0.45574100  1
  Li  Li14  1  0.24099133  0.51695267  0.52838267  1
  Li  Li15  1  0.51695267  0.24099133  0.47161733  1
  Li  Li16  1  0.14971400  0.05737200  0.86171600  1
  Li  Li17  1  0.39070533  0.81638067  0.80495067  1
  Li  Li18  1  0.33333333  0.94274067  0.66666667  1
  Li  Li19  1  0.51020867  0.02139433  0.87759233  1
  Li  Li20  1  0.35472767  0.17687533  0.78907433  1
  Li  Li21  1  0.66666667  0.33333333  0.83333333  1
  Li  Li22  1  0.51118567  0.48979133  0.87759233  1
  Li  Li23  1  0.82312467  0.17785233  0.78907433  1
  Li  Li24  1  0.42567533  0.60929467  0.80495067  1
  Li  Li25  1  0.94262800  0.09234200  0.86171600  1
  Li  Li26  1  0.05725933  0.39059267  0.66666667  1
  Li  Li27  1  0.60940733  0.66666667  0.66666667  1
  Li  Li28  1  0.97860567  0.48881433  0.87759233  1
  Li  Li29  1  0.82214767  0.64527233  0.78907433  1
  Li  Li30  1  0.90765800  0.85028600  0.86171600  1
  Li  Li31  1  0.18361933  0.57432467  0.80495067  1
  Li  Li32  1  0.81638067  0.39070533  0.19504933  1
  Li  Li33  1  0.05737200  0.14971400  0.13828400  1
  Li  Li34  1  0.00000000  0.27607400  0.00000000  1
  Li  Li35  1  0.17687533  0.35472767  0.21092567  1
  Li  Li36  1  0.02139433  0.51020867  0.12240767  1
  Li  Li37  1  0.33333333  0.66666667  0.16666667  1
  Li  Li38  1  0.17785233  0.82312467  0.21092567  1
  Li  Li39  1  0.48979133  0.51118567  0.12240767  1
  Li  Li40  1  0.09234200  0.94262800  0.13828400  1
  Li  Li41  1  0.60929467  0.42567533  0.19504933  1
  Li  Li42  1  0.72392600  0.72392600  0.00000000  1
  Li  Li43  1  0.27607400  0.00000000  0.00000000  1
  Li  Li44  1  0.64527233  0.82214767  0.21092567  1
  Li  Li45  1  0.48881433  0.97860567  0.12240767  1
  Li  Li46  1  0.57432467  0.18361933  0.19504933  1
  Li  Li47  1  0.85028600  0.90765800  0.13828400  1
  Mn  Mn48  1  0.00000000  0.50638900  0.50000000  1
  Mn  Mn49  1  0.50638900  0.00000000  0.50000000  1
  Mn  Mn50  1  0.92458517  0.59125183  0.33333333  1
  Mn  Mn51  1  0.66666667  0.07541483  0.33333333  1
  Mn  Mn52  1  0.83603133  0.92038367  0.67036967  1
  Mn  Mn53  1  0.92038367  0.83603133  0.32963033  1
  Mn  Mn54  1  0.91564767  0.07961633  0.32963033  1
  Mn  Mn55  1  0.07961633  0.91564767  0.67036967  1
  Mn  Mn56  1  0.16396867  0.08435233  0.32963033  1
  Mn  Mn57  1  0.08435233  0.16396867  0.67036967  1
  Mn  Mn58  1  0.40874817  0.33333333  0.33333333  1
  Mn  Mn59  1  0.49361100  0.49361100  0.50000000  1
  Mn  Mn60  1  0.66666667  0.83972233  0.83333333  1
  Mn  Mn61  1  0.17305567  0.33333333  0.83333333  1
  Mn  Mn62  1  0.59125183  0.92458517  0.66666667  1
  Mn  Mn63  1  0.33333333  0.40874817  0.66666667  1
  Mn  Mn64  1  0.50269800  0.25371700  0.00370300  1
  Mn  Mn65  1  0.58705033  0.16936467  0.66296367  1
  Mn  Mn66  1  0.58231433  0.41294967  0.66296367  1
  Mn  Mn67  1  0.74628300  0.24898100  0.00370300  1
  Mn  Mn68  1  0.83063533  0.41768567  0.66296367  1
  Mn  Mn69  1  0.75101900  0.49730200  0.00370300  1
  Mn  Mn70  1  0.07541483  0.66666667  0.66666667  1
  Mn  Mn71  1  0.16027767  0.82694433  0.83333333  1
  Mn  Mn72  1  0.33333333  0.17305567  0.16666667  1
  Mn  Mn73  1  0.83972233  0.66666667  0.16666667  1
  Mn  Mn74  1  0.25791850  0.25791850  0.00000000  1
  Mn  Mn75  1  0.00000000  0.74208150  0.00000000  1
  Mn  Mn76  1  0.16936467  0.58705033  0.33703633  1
  Mn  Mn77  1  0.25371700  0.50269800  0.99629700  1
  Mn  Mn78  1  0.24898100  0.74628300  0.99629700  1
  Mn  Mn79  1  0.41294967  0.58231433  0.33703633  1
  Mn  Mn80  1  0.49730200  0.75101900  0.99629700  1
  Mn  Mn81  1  0.41768567  0.83063533  0.33703633  1
  Mn  Mn82  1  0.74208150  0.00000000  0.00000000  1
  Mn  Mn83  1  0.82694433  0.16027767  0.16666667  1
  O  O84  1  0.85416100  0.44582300  0.41603700  1
  O  O85  1  0.44582300  0.85416100  0.58396300  1
  O  O86  1  0.25394933  0.24456767  0.25210067  1
  O  O87  1  0.24456767  0.25394933  0.74789933  1
  O  O88  1  0.75756600  0.77621800  0.75977400  1
  O  O89  1  0.77621800  0.75756600  0.24022600  1
  O  O90  1  0.84834500  0.67841500  0.40278400  1
  O  O91  1  0.67841500  0.84834500  0.59721600  1
  O  O92  1  0.14583900  0.59166200  0.58396300  1
  O  O93  1  0.59166200  0.14583900  0.41603700  1
  O  O94  1  0.92072300  0.84964500  0.60182700  1
  O  O95  1  0.84964500  0.92072300  0.39817300  1
  O  O96  1  0.99061833  0.74605067  0.25210067  1
  O  O97  1  0.74605067  0.99061833  0.74789933  1
  O  O98  1  0.83007000  0.15165500  0.40278400  1
  O  O99  1  0.15165500  0.83007000  0.59721600  1
  O  O100  1  0.00000000  0.00000000  0.74727900  1
  O  O101  1  0.00000000  0.00000000  0.25272100  1
  O  O102  1  0.07927700  0.92892200  0.39817300  1
  O  O103  1  0.92892200  0.07927700  0.60182700  1
  O  O104  1  0.22378200  0.98134800  0.75977400  1
  O  O105  1  0.98134800  0.22378200  0.24022600  1
  O  O106  1  0.15035500  0.07107800  0.60182700  1
  O  O107  1  0.07107800  0.15035500  0.39817300  1
  O  O108  1  0.24243400  0.01865200  0.24022600  1
  O  O109  1  0.01865200  0.24243400  0.75977400  1
  O  O110  1  0.32158500  0.16993000  0.40278400  1
  O  O111  1  0.16993000  0.32158500  0.59721600  1
  O  O112  1  0.00938167  0.75543233  0.74789933  1
  O  O113  1  0.75543233  0.00938167  0.25210067  1
  O  O114  1  0.40833800  0.55417700  0.58396300  1
  O  O115  1  0.55417700  0.40833800  0.41603700  1
  O  O116  1  0.52082767  0.77915633  0.74937033  1
  O  O117  1  0.11248967  0.18749433  0.91729633  1
  O  O118  1  0.92061600  0.57790100  0.58543400  1
  O  O119  1  0.91123433  0.58728267  0.08123267  1
  O  O120  1  0.42423267  0.10955133  0.09310733  1
  O  O121  1  0.44288467  0.09089933  0.57355933  1
  O  O122  1  0.51501167  0.01174833  0.73611733  1
  O  O123  1  0.34508167  0.18167833  0.93054933  1
  O  O124  1  0.81250567  0.92499533  0.91729633  1
  O  O125  1  0.25832867  0.47917233  0.74937033  1
  O  O126  1  0.58738967  0.18297833  0.93516033  1
  O  O127  1  0.51631167  0.25405633  0.73150633  1
  O  O128  1  0.65728500  0.07938400  0.58543400  1
  O  O129  1  0.41271733  0.32395167  0.08123267  1
  O  O130  1  0.49673667  0.48498833  0.73611733  1
  O  O131  1  0.81832167  0.16340333  0.93054933  1
  O  O132  1  0.66666667  0.33333333  0.08061233  1
  O  O133  1  0.66666667  0.33333333  0.58605433  1
  O  O134  1  0.74594367  0.26225533  0.73150633  1
  O  O135  1  0.59558867  0.41261033  0.93516033  1
  O  O136  1  0.89044867  0.31468133  0.09310733  1
  O  O137  1  0.64801467  0.55711533  0.57355933  1
  O  O138  1  0.81702167  0.40441133  0.93516033  1
  O  O139  1  0.73774467  0.48368833  0.73150633  1
  O  O140  1  0.90910067  0.35198533  0.57355933  1
  O  O141  1  0.68531867  0.57576733  0.09310733  1
  O  O142  1  0.98825167  0.50326333  0.73611733  1
  O  O143  1  0.83659667  0.65491833  0.93054933  1
  O  O144  1  0.67604833  0.08876567  0.08123267  1
  O  O145  1  0.42209900  0.34271500  0.58543400  1
  O  O146  1  0.07500467  0.88751033  0.91729633  1
  O  O147  1  0.22084367  0.74167133  0.74937033  1
  O  O148  1  0.18749433  0.11248967  0.08270367  1
  O  O149  1  0.77915633  0.52082767  0.25062967  1
  O  O150  1  0.58728267  0.91123433  0.91876733  1
  O  O151  1  0.57790100  0.92061600  0.41456600  1
  O  O152  1  0.09089933  0.44288467  0.42644067  1
  O  O153  1  0.10955133  0.42423267  0.90689267  1
  O  O154  1  0.18167833  0.34508167  0.06945067  1
  O  O155  1  0.01174833  0.51501167  0.26388267  1
  O  O156  1  0.47917233  0.25832867  0.25062967  1
  O  O157  1  0.92499533  0.81250567  0.08270367  1
  O  O158  1  0.25405633  0.51631167  0.26849367  1
  O  O159  1  0.18297833  0.58738967  0.06483967  1
  O  O160  1  0.32395167  0.41271733  0.91876733  1
  O  O161  1  0.07938400  0.65728500  0.41456600  1
  O  O162  1  0.16340333  0.81832167  0.06945067  1
  O  O163  1  0.48498833  0.49673667  0.26388267  1
  O  O164  1  0.33333333  0.66666667  0.41394567  1
  O  O165  1  0.33333333  0.66666667  0.91938767  1
  O  O166  1  0.41261033  0.59558867  0.06483967  1
  O  O167  1  0.26225533  0.74594367  0.26849367  1
  O  O168  1  0.55711533  0.64801467  0.42644067  1
  O  O169  1  0.31468133  0.89044867  0.90689267  1
  O  O170  1  0.48368833  0.73774467  0.26849367  1
  O  O171  1  0.40441133  0.81702167  0.06483967  1
  O  O172  1  0.57576733  0.68531867  0.90689267  1
  O  O173  1  0.35198533  0.90910067  0.42644067  1
  O  O174  1  0.65491833  0.83659667  0.06945067  1
  O  O175  1  0.50326333  0.98825167  0.26388267  1
  O  O176  1  0.34271500  0.42209900  0.41456600  1
  O  O177  1  0.08876567  0.67604833  0.91876733  1
  O  O178  1  0.74167133  0.22084367  0.25062967  1
  O  O179  1  0.88751033  0.07500467  0.08270367  1
