# generated using pymatgen
data_Sr5(IrO3)6
_symmetry_space_group_name_H-M   'P 1'
_cell_length_a   9.40683400
_cell_length_b   9.40683400
_cell_length_c   9.40683400
_cell_angle_alpha   90.00000000
_cell_angle_beta   90.00000000
_cell_angle_gamma   90.00000000
_symmetry_Int_Tables_number   1
_chemical_formula_structural   Sr5(IrO3)6
_chemical_formula_sum   'Sr10 Ir12 O36'
_cell_volume   832.39687408
_cell_formula_units_Z   2
loop_
 _symmetry_equiv_pos_site_id
 _symmetry_equiv_pos_as_xyz
  1  'x, y, z'
loop_
 _atom_site_type_symbol
 _atom_site_label
 _atom_site_symmetry_multiplicity
 _atom_site_fract_x
 _atom_site_fract_y
 _atom_site_fract_z
 _atom_site_occupancy
  Sr  Sr0  1  0.25000000  0.25000000  0.25000000  1
  Sr  Sr1  1  0.00000000  0.00000000  0.00000000  1
  Sr  Sr2  1  0.25000000  0.25000000  0.75000000  1
  Sr  Sr3  1  0.25000000  0.75000000  0.25000000  1
  Sr  Sr4  1  0.75000000  0.25000000  0.25000000  1
  Sr  Sr5  1  0.75000000  0.75000000  0.75000000  1
  Sr  Sr6  1  0.50000000  0.50000000  0.50000000  1
  Sr  Sr7  1  0.75000000  0.75000000  0.25000000  1
  Sr  Sr8  1  0.75000000  0.25000000  0.75000000  1
  Sr  Sr9  1  0.25000000  0.75000000  0.75000000  1
  Ir  Ir10  1  0.34467200  0.00000000  0.50000000  1
  Ir  Ir11  1  0.50000000  0.00000000  0.15532800  1
  Ir  Ir12  1  0.50000000  0.34467200  0.00000000  1
  Ir  Ir13  1  0.00000000  0.15532800  0.50000000  1
  Ir  Ir14  1  0.15532800  0.50000000  0.00000000  1
  Ir  Ir15  1  0.00000000  0.50000000  0.34467200  1
  Ir  Ir16  1  0.84467200  0.50000000  0.00000000  1
  Ir  Ir17  1  0.00000000  0.50000000  0.65532800  1
  Ir  Ir18  1  0.00000000  0.84467200  0.50000000  1
  Ir  Ir19  1  0.50000000  0.65532800  0.00000000  1
  Ir  Ir20  1  0.65532800  0.00000000  0.50000000  1
  Ir  Ir21  1  0.50000000  0.00000000  0.84467200  1
  O  O22  1  0.21135500  0.16509900  0.50000000  1
  O  O23  1  0.33490100  0.00000000  0.28864500  1
  O  O24  1  0.34793600  0.00000000  0.00000000  1
  O  O25  1  0.65206400  0.00000000  0.00000000  1
  O  O26  1  0.66509900  0.00000000  0.28864500  1
  O  O27  1  0.00000000  0.00000000  0.34793600  1
  O  O28  1  0.00000000  0.00000000  0.65206400  1
  O  O29  1  0.21135500  0.83490100  0.50000000  1
  O  O30  1  0.00000000  0.28864500  0.66509900  1
  O  O31  1  0.00000000  0.28864500  0.33490100  1
  O  O32  1  0.50000000  0.21135500  0.83490100  1
  O  O33  1  0.50000000  0.21135500  0.16509900  1
  O  O34  1  0.28864500  0.66509900  0.00000000  1
  O  O35  1  0.00000000  0.65206400  0.00000000  1
  O  O36  1  0.83490100  0.50000000  0.21135500  1
  O  O37  1  0.16509900  0.50000000  0.21135500  1
  O  O38  1  0.00000000  0.34793600  0.00000000  1
  O  O39  1  0.28864500  0.33490100  0.00000000  1
  O  O40  1  0.71135500  0.66509900  0.00000000  1
  O  O41  1  0.83490100  0.50000000  0.78864500  1
  O  O42  1  0.84793600  0.50000000  0.50000000  1
  O  O43  1  0.15206400  0.50000000  0.50000000  1
  O  O44  1  0.16509900  0.50000000  0.78864500  1
  O  O45  1  0.50000000  0.50000000  0.84793600  1
  O  O46  1  0.50000000  0.50000000  0.15206400  1
  O  O47  1  0.71135500  0.33490100  0.00000000  1
  O  O48  1  0.50000000  0.78864500  0.16509900  1
  O  O49  1  0.50000000  0.78864500  0.83490100  1
  O  O50  1  0.00000000  0.71135500  0.33490100  1
  O  O51  1  0.00000000  0.71135500  0.66509900  1
  O  O52  1  0.78864500  0.16509900  0.50000000  1
  O  O53  1  0.50000000  0.15206400  0.50000000  1
  O  O54  1  0.33490100  0.00000000  0.71135500  1
  O  O55  1  0.66509900  0.00000000  0.71135500  1
  O  O56  1  0.50000000  0.84793600  0.50000000  1
  O  O57  1  0.78864500  0.83490100  0.50000000  1
