# generated using pymatgen
data_Li3Ti(FeO2)4
_symmetry_space_group_name_H-M   'P 1'
_cell_length_a   10.39361200
_cell_length_b   6.10107000
_cell_length_c   6.06227314
_cell_angle_alpha   90.00000000
_cell_angle_beta   125.75593882
_cell_angle_gamma   90.00000000
_symmetry_Int_Tables_number   1
_chemical_formula_structural   Li3Ti(FeO2)4
_chemical_formula_sum   'Li6 Ti2 Fe8 O16'
_cell_volume   311.96344921
_cell_formula_units_Z   2
loop_
 _symmetry_equiv_pos_site_id
 _symmetry_equiv_pos_as_xyz
  1  'x, y, z'
loop_
 _atom_site_type_symbol
 _atom_site_label
 _atom_site_symmetry_multiplicity
 _atom_site_fract_x
 _atom_site_fract_y
 _atom_site_fract_z
 _atom_site_occupancy
  Li  Li0  1  0.75000000  0.25000000  0.50000000  1
  Li  Li1  1  0.00000000  0.00000000  0.50000000  1
  Li  Li2  1  0.25000000  0.25000000  0.50000000  1
  Li  Li3  1  0.25000000  0.75000000  0.50000000  1
  Li  Li4  1  0.50000000  0.50000000  0.50000000  1
  Li  Li5  1  0.75000000  0.75000000  0.50000000  1
  Ti  Ti6  1  0.00000000  0.50000000  0.00000000  1
  Ti  Ti7  1  0.50000000  0.00000000  0.00000000  1
  Fe  Fe8  1  0.50000000  0.00000000  0.50000000  1
  Fe  Fe9  1  0.00000000  0.00000000  0.00000000  1
  Fe  Fe10  1  0.75000000  0.25000000  0.00000000  1
  Fe  Fe11  1  0.75000000  0.75000000  0.00000000  1
  Fe  Fe12  1  0.00000000  0.50000000  0.50000000  1
  Fe  Fe13  1  0.50000000  0.50000000  0.00000000  1
  Fe  Fe14  1  0.25000000  0.75000000  0.00000000  1
  Fe  Fe15  1  0.25000000  0.25000000  0.00000000  1
  O  O16  1  0.76673200  0.50000000  0.77776800  1
  O  O17  1  0.49511450  0.77211250  0.75122900  1
  O  O18  1  0.49511450  0.22788750  0.75122900  1
  O  O19  1  0.24531000  0.50000000  0.74487100  1
  O  O20  1  0.25469000  0.00000000  0.25512900  1
  O  O21  1  0.00488550  0.27211250  0.24877100  1
  O  O22  1  0.00488550  0.72788750  0.24877100  1
  O  O23  1  0.73326800  0.00000000  0.22223200  1
  O  O24  1  0.26673200  0.00000000  0.77776800  1
  O  O25  1  0.99511450  0.27211250  0.75122900  1
  O  O26  1  0.99511450  0.72788750  0.75122900  1
  O  O27  1  0.74531000  0.00000000  0.74487100  1
  O  O28  1  0.75469000  0.50000000  0.25512900  1
  O  O29  1  0.50488550  0.77211250  0.24877100  1
  O  O30  1  0.50488550  0.22788750  0.24877100  1
  O  O31  1  0.23326800  0.50000000  0.22223200  1
