# generated using pymatgen
data_Li3V3O5F3
_symmetry_space_group_name_H-M   'P 1'
_cell_length_a   5.88395185
_cell_length_b   5.98889059
_cell_length_c   6.01805511
_cell_angle_alpha   119.34925502
_cell_angle_beta   90.15325146
_cell_angle_gamma   118.94736103
_symmetry_Int_Tables_number   1
_chemical_formula_structural   Li3V3O5F3
_chemical_formula_sum   'Li3 V3 O5 F3'
_cell_volume   153.54431299
_cell_formula_units_Z   1
loop_
 _symmetry_equiv_pos_site_id
 _symmetry_equiv_pos_as_xyz
  1  'x, y, z'
loop_
 _atom_site_type_symbol
 _atom_site_label
 _atom_site_symmetry_multiplicity
 _atom_site_fract_x
 _atom_site_fract_y
 _atom_site_fract_z
 _atom_site_occupancy
  Li  Li0  1  0.01424500  0.00672300  0.02486300  1
  Li  Li1  1  0.74871050  0.24584150  0.23445250  1
  Li  Li2  1  0.36997700  0.12701800  0.62302400  1
  V  V3  1  0.35690900  0.60912650  0.60357000  1
  V  V4  1  0.36426000  0.61175350  0.12962400  1
  V  V5  1  0.87627400  0.62696650  0.62563600  1
  O  O6  1  0.15340500  0.39907150  0.37700200  1
  O  O7  1  0.60422550  0.83343850  0.36955450  1
  O  O8  1  0.60936850  0.41963600  0.83009050  1
  O  O9  1  0.15302800  0.84586200  0.42943800  1
  O  O10  1  0.14211300  0.41354250  0.86818800  1
  F  F11  1  0.62798600  0.38082050  0.38571900  1
  F  F12  1  0.12452850  0.86699300  0.87019550  1
  F  F13  1  0.60497000  0.86320950  0.87864300  1
