# generated using pymatgen
data_BaFeO3
_symmetry_space_group_name_H-M   'P 1'
_cell_length_a   6.18249182
_cell_length_b   6.18249182
_cell_length_c   37.65823083
_cell_angle_alpha   90.00000000
_cell_angle_beta   90.00000000
_cell_angle_gamma   120.00000000
_symmetry_Int_Tables_number   1
_chemical_formula_structural   BaFeO3
_chemical_formula_sum   'Ba12 Fe12 O36'
_cell_volume   1246.57279779
_cell_formula_units_Z   12
loop_
 _symmetry_equiv_pos_site_id
 _symmetry_equiv_pos_as_xyz
  1  'x, y, z'
loop_
 _atom_site_type_symbol
 _atom_site_label
 _atom_site_symmetry_multiplicity
 _atom_site_fract_x
 _atom_site_fract_y
 _atom_site_fract_z
 _atom_site_occupancy
  Ba  Ba0  1  0.66666667  0.33333333  0.30484933  1
  Ba  Ba1  1  0.33333333  0.66666667  0.23032867  1
  Ba  Ba2  1  0.33333333  0.66666667  0.05483467  1
  Ba  Ba3  1  0.00000000  0.00000000  0.20069800  1
  Ba  Ba4  1  0.33333333  0.66666667  0.63818267  1
  Ba  Ba5  1  0.00000000  0.00000000  0.56366200  1
  Ba  Ba6  1  0.00000000  0.00000000  0.38816800  1
  Ba  Ba7  1  0.66666667  0.33333333  0.53403133  1
  Ba  Ba8  1  0.00000000  0.00000000  0.97151600  1
  Ba  Ba9  1  0.66666667  0.33333333  0.89699533  1
  Ba  Ba10  1  0.66666667  0.33333333  0.72150133  1
  Ba  Ba11  1  0.33333333  0.66666667  0.86736467  1
  Fe  Fe12  1  0.66666667  0.33333333  0.17098433  1
  Fe  Fe13  1  0.66666667  0.33333333  0.09967333  1
  Fe  Fe14  1  0.66666667  0.33333333  0.00464333  1
  Fe  Fe15  1  0.00000000  0.00000000  0.29324900  1
  Fe  Fe16  1  0.33333333  0.66666667  0.50431767  1
  Fe  Fe17  1  0.33333333  0.66666667  0.43300667  1
  Fe  Fe18  1  0.33333333  0.66666667  0.33797667  1
  Fe  Fe19  1  0.66666667  0.33333333  0.62658233  1
  Fe  Fe20  1  0.00000000  0.00000000  0.83765100  1
  Fe  Fe21  1  0.00000000  0.00000000  0.76634000  1
  Fe  Fe22  1  0.00000000  0.00000000  0.67131000  1
  Fe  Fe23  1  0.33333333  0.66666667  0.95991567  1
  O  O24  1  0.16206867  0.83793133  0.33264733  1
  O  O25  1  0.67586267  0.83793133  0.33264733  1
  O  O26  1  0.13719467  0.86280533  0.26322133  1
  O  O27  1  0.72561067  0.86280533  0.26322133  1
  O  O28  1  0.13719467  0.27438933  0.26322133  1
  O  O29  1  0.51556833  0.03113667  0.18562967  1
  O  O30  1  0.96886333  0.48443167  0.18562967  1
  O  O31  1  0.51556833  0.48443167  0.18562967  1
  O  O32  1  0.97306733  0.48653367  0.09873667  1
  O  O33  1  0.51346633  0.02693267  0.09873667  1
  O  O34  1  0.51346633  0.48653367  0.09873667  1
  O  O35  1  0.16206867  0.32413733  0.33264733  1
  O  O36  1  0.82873533  0.17126467  0.66598067  1
  O  O37  1  0.34252933  0.17126467  0.66598067  1
  O  O38  1  0.80386133  0.19613867  0.59655467  1
  O  O39  1  0.39227733  0.19613867  0.59655467  1
  O  O40  1  0.80386133  0.60772267  0.59655467  1
  O  O41  1  0.18223500  0.36447000  0.51896300  1
  O  O42  1  0.63553000  0.81776500  0.51896300  1
  O  O43  1  0.18223500  0.81776500  0.51896300  1
  O  O44  1  0.63973400  0.81986700  0.43207000  1
  O  O45  1  0.18013300  0.36026600  0.43207000  1
  O  O46  1  0.18013300  0.81986700  0.43207000  1
  O  O47  1  0.82873533  0.65747067  0.66598067  1
  O  O48  1  0.49540200  0.50459800  0.99931400  1
  O  O49  1  0.00919600  0.50459800  0.99931400  1
  O  O50  1  0.47052800  0.52947200  0.92988800  1
  O  O51  1  0.05894400  0.52947200  0.92988800  1
  O  O52  1  0.47052800  0.94105600  0.92988800  1
  O  O53  1  0.84890167  0.69780333  0.85229633  1
  O  O54  1  0.30219667  0.15109833  0.85229633  1
  O  O55  1  0.84890167  0.15109833  0.85229633  1
  O  O56  1  0.30640067  0.15320033  0.76540333  1
  O  O57  1  0.84679967  0.69359933  0.76540333  1
  O  O58  1  0.84679967  0.15320033  0.76540333  1
  O  O59  1  0.49540200  0.99080400  0.99931400  1
