# generated using pymatgen
data_Li3Fe4SbO8
_symmetry_space_group_name_H-M   'P 1'
_cell_length_a   10.40058600
_cell_length_b   6.29796600
_cell_length_c   6.28245700
_cell_angle_alpha   90.00000000
_cell_angle_beta   125.90828549
_cell_angle_gamma   90.00000000
_symmetry_Int_Tables_number   1
_chemical_formula_structural   Li3Fe4SbO8
_chemical_formula_sum   'Li6 Fe8 Sb2 O16'
_cell_volume   333.31090411
_cell_formula_units_Z   2
loop_
 _symmetry_equiv_pos_site_id
 _symmetry_equiv_pos_as_xyz
  1  'x, y, z'
loop_
 _atom_site_type_symbol
 _atom_site_label
 _atom_site_symmetry_multiplicity
 _atom_site_fract_x
 _atom_site_fract_y
 _atom_site_fract_z
 _atom_site_occupancy
  Li  Li0  1  0.75000000  0.75000000  0.00000000  1
  Li  Li1  1  0.25000000  0.75000000  0.00000000  1
  Li  Li2  1  0.00000000  0.00000000  0.50000000  1
  Li  Li3  1  0.25000000  0.25000000  0.00000000  1
  Li  Li4  1  0.75000000  0.25000000  0.00000000  1
  Li  Li5  1  0.50000000  0.50000000  0.50000000  1
  Fe  Fe6  1  0.00000000  0.00000000  0.00000000  1
  Fe  Fe7  1  0.25000000  0.75000000  0.50000000  1
  Fe  Fe8  1  0.25000000  0.25000000  0.50000000  1
  Fe  Fe9  1  0.50000000  0.00000000  0.50000000  1
  Fe  Fe10  1  0.50000000  0.50000000  0.00000000  1
  Fe  Fe11  1  0.75000000  0.25000000  0.50000000  1
  Fe  Fe12  1  0.75000000  0.75000000  0.50000000  1
  Fe  Fe13  1  0.00000000  0.50000000  0.50000000  1
  Sb  Sb14  1  0.00000000  0.50000000  0.00000000  1
  Sb  Sb15  1  0.50000000  0.00000000  0.00000000  1
  O  O16  1  0.23917400  0.50000000  0.24587600  1
  O  O17  1  0.50641000  0.22890800  0.77624300  1
  O  O18  1  0.50641000  0.77109200  0.77624300  1
  O  O19  1  0.26082600  0.00000000  0.75412400  1
  O  O20  1  0.24921000  0.00000000  0.27127100  1
  O  O21  1  0.99359000  0.27109200  0.22375700  1
  O  O22  1  0.99359000  0.72890800  0.22375700  1
  O  O23  1  0.25079000  0.50000000  0.72872900  1
  O  O24  1  0.73917400  0.00000000  0.24587600  1
  O  O25  1  0.00641000  0.72890800  0.77624300  1
  O  O26  1  0.00641000  0.27109200  0.77624300  1
  O  O27  1  0.76082600  0.50000000  0.75412400  1
  O  O28  1  0.74921000  0.50000000  0.27127100  1
  O  O29  1  0.49359000  0.77109200  0.22375700  1
  O  O30  1  0.49359000  0.22890800  0.22375700  1
  O  O31  1  0.75079000  0.00000000  0.72872900  1
