# generated using pymatgen
data_Cr3O4
_symmetry_space_group_name_H-M   'P 1'
_cell_length_a   8.34225704
_cell_length_b   8.19958084
_cell_length_c   6.17735448
_cell_angle_alpha   90.00000000
_cell_angle_beta   132.29121344
_cell_angle_gamma   90.00000000
_symmetry_Int_Tables_number   1
_chemical_formula_structural   Cr3O4
_chemical_formula_sum   'Cr12 O16'
_cell_volume   312.57446532
_cell_formula_units_Z   4
loop_
 _symmetry_equiv_pos_site_id
 _symmetry_equiv_pos_as_xyz
  1  'x, y, z'
loop_
 _atom_site_type_symbol
 _atom_site_label
 _atom_site_symmetry_multiplicity
 _atom_site_fract_x
 _atom_site_fract_y
 _atom_site_fract_z
 _atom_site_occupancy
  Cr  Cr0  1  0.25000000  0.25000000  0.50000000  1
  Cr  Cr1  1  0.50000000  0.50000000  0.00000000  1
  Cr  Cr2  1  0.25000000  0.75000000  0.50000000  1
  Cr  Cr3  1  0.75000000  0.25000000  0.00000000  1
  Cr  Cr4  1  0.50000000  0.50000000  0.50000000  1
  Cr  Cr5  1  0.25000000  0.25000000  0.00000000  1
  Cr  Cr6  1  0.75000000  0.75000000  0.50000000  1
  Cr  Cr7  1  0.00000000  0.00000000  0.00000000  1
  Cr  Cr8  1  0.75000000  0.25000000  0.50000000  1
  Cr  Cr9  1  0.25000000  0.75000000  0.00000000  1
  Cr  Cr10  1  0.00000000  0.00000000  0.50000000  1
  Cr  Cr11  1  0.75000000  0.75000000  0.00000000  1
  O  O12  1  0.71282600  0.50087600  0.94652200  1
  O  O13  1  0.71282600  0.49912400  0.44652200  1
  O  O14  1  0.28717400  0.50087600  0.55347800  1
  O  O15  1  0.28717400  0.49912400  0.05347800  1
  O  O16  1  0.47856000  0.74272500  0.95204400  1
  O  O17  1  0.52144000  0.74272500  0.54795600  1
  O  O18  1  0.47856000  0.25727500  0.45204400  1
  O  O19  1  0.52144000  0.25727500  0.04795600  1
  O  O20  1  0.21282600  0.00087600  0.94652200  1
  O  O21  1  0.21282600  0.99912400  0.44652200  1
  O  O22  1  0.78717400  0.00087600  0.55347800  1
  O  O23  1  0.78717400  0.99912400  0.05347800  1
  O  O24  1  0.97856000  0.24272500  0.95204400  1
  O  O25  1  0.02144000  0.24272500  0.54795600  1
  O  O26  1  0.97856000  0.75727500  0.45204400  1
  O  O27  1  0.02144000  0.75727500  0.04795600  1
