# generated using pymatgen
data_Fe6O7F5
_symmetry_space_group_name_H-M   'P 1'
_cell_length_a   9.31033200
_cell_length_b   6.40386600
_cell_length_c   7.69359072
_cell_angle_alpha   90.00000000
_cell_angle_beta   116.19088426
_cell_angle_gamma   90.00000000
_symmetry_Int_Tables_number   1
_chemical_formula_structural   Fe6O7F5
_chemical_formula_sum   'Fe12 O14 F10'
_cell_volume   411.61196772
_cell_formula_units_Z   2
loop_
 _symmetry_equiv_pos_site_id
 _symmetry_equiv_pos_as_xyz
  1  'x, y, z'
loop_
 _atom_site_type_symbol
 _atom_site_label
 _atom_site_symmetry_multiplicity
 _atom_site_fract_x
 _atom_site_fract_y
 _atom_site_fract_z
 _atom_site_occupancy
  Fe  Fe0  1  0.16509500  0.50000000  0.16679700  1
  Fe  Fe1  1  0.83592500  0.50000000  0.34644000  1
  Fe  Fe2  1  0.15415900  0.50000000  0.66897600  1
  Fe  Fe3  1  0.84416700  0.50000000  0.81260500  1
  Fe  Fe4  1  0.49827800  0.50000000  0.50353500  1
  Fe  Fe5  1  0.50441400  0.50000000  0.99854800  1
  Fe  Fe6  1  0.66509500  0.00000000  0.16679700  1
  Fe  Fe7  1  0.33592500  0.00000000  0.34644000  1
  Fe  Fe8  1  0.65415900  0.00000000  0.66897600  1
  Fe  Fe9  1  0.34416700  0.00000000  0.81260500  1
  Fe  Fe10  1  0.99827800  0.00000000  0.50353500  1
  Fe  Fe11  1  0.00441400  0.00000000  0.99854800  1
  O  O12  1  0.83415150  0.19305050  0.33491300  1
  O  O13  1  0.16309700  0.19398800  0.66493100  1
  O  O14  1  0.93573900  0.50000000  0.62399200  1
  O  O15  1  0.16309700  0.80601200  0.66493100  1
  O  O16  1  0.83415150  0.80694950  0.33491300  1
  O  O17  1  0.00255150  0.30060050  0.99954000  1
  O  O18  1  0.00255150  0.69939950  0.99954000  1
  O  O19  1  0.33415150  0.69305050  0.33491300  1
  O  O20  1  0.66309700  0.69398800  0.66493100  1
  O  O21  1  0.43573900  0.00000000  0.62399200  1
  O  O22  1  0.66309700  0.30601200  0.66493100  1
  O  O23  1  0.33415150  0.30694950  0.33491300  1
  O  O24  1  0.50255150  0.80060050  0.99954000  1
  O  O25  1  0.50255150  0.19939950  0.99954000  1
  F  F26  1  0.39021200  0.50000000  0.70369900  1
  F  F27  1  0.73537800  0.50000000  0.04924000  1
  F  F28  1  0.06523100  0.50000000  0.36842800  1
  F  F29  1  0.27021300  0.50000000  0.96305600  1
  F  F30  1  0.60158900  0.50000000  0.29591400  1
  F  F31  1  0.89021200  0.00000000  0.70369900  1
  F  F32  1  0.23537800  0.00000000  0.04924000  1
  F  F33  1  0.56523100  0.00000000  0.36842800  1
  F  F34  1  0.77021300  0.00000000  0.96305600  1
  F  F35  1  0.10158900  0.00000000  0.29591400  1
