# generated using pymatgen
data_Na3CoO3
_symmetry_space_group_name_H-M   'P 1'
_cell_length_a   7.51690201
_cell_length_b   7.51690201
_cell_length_c   7.51690201
_cell_angle_alpha   90.00000000
_cell_angle_beta   90.00000000
_cell_angle_gamma   90.00000000
_symmetry_Int_Tables_number   1
_chemical_formula_structural   Na3CoO3
_chemical_formula_sum   'Na12 Co4 O12'
_cell_volume   424.73364601
_cell_formula_units_Z   4
loop_
 _symmetry_equiv_pos_site_id
 _symmetry_equiv_pos_as_xyz
  1  'x, y, z'
loop_
 _atom_site_type_symbol
 _atom_site_label
 _atom_site_symmetry_multiplicity
 _atom_site_fract_x
 _atom_site_fract_y
 _atom_site_fract_z
 _atom_site_occupancy
  Na  Na0  1  0.03269967  0.03269967  0.03269967  1
  Na  Na1  1  0.21238367  0.28761633  0.71238367  1
  Na  Na2  1  0.23302567  0.73302567  0.76697433  1
  Na  Na3  1  0.26697433  0.26697433  0.26697433  1
  Na  Na4  1  0.28761633  0.71238367  0.21238367  1
  Na  Na5  1  0.46730033  0.96730033  0.53269967  1
  Na  Na6  1  0.53269967  0.46730033  0.96730033  1
  Na  Na7  1  0.71238367  0.21238367  0.28761633  1
  Na  Na8  1  0.73302567  0.76697433  0.23302567  1
  Na  Na9  1  0.76697433  0.23302567  0.73302567  1
  Na  Na10  1  0.78761633  0.78761633  0.78761633  1
  Na  Na11  1  0.96730033  0.53269967  0.46730033  1
  Co  Co12  1  0.97841733  0.02158267  0.52158267  1
  Co  Co13  1  0.52158267  0.97841733  0.02158267  1
  Co  Co14  1  0.47841733  0.47841733  0.47841733  1
  Co  Co15  1  0.02158267  0.52158267  0.97841733  1
  O  O16  1  0.00147100  0.22353300  0.40122200  1
  O  O17  1  0.09877800  0.99852900  0.72353300  1
  O  O18  1  0.22353300  0.40122200  0.00147100  1
  O  O19  1  0.27646700  0.59877800  0.50147100  1
  O  O20  1  0.40122200  0.00147100  0.22353300  1
  O  O21  1  0.49852900  0.77646700  0.90122200  1
  O  O22  1  0.50147100  0.27646700  0.59877800  1
  O  O23  1  0.59877800  0.50147100  0.27646700  1
  O  O24  1  0.72353300  0.09877800  0.99852900  1
  O  O25  1  0.77646700  0.90122200  0.49852900  1
  O  O26  1  0.90122200  0.49852900  0.77646700  1
  O  O27  1  0.99852900  0.72353300  0.09877800  1
