# generated using pymatgen
data_Li3Ti(NiO2)4
_symmetry_space_group_name_H-M   'P 1'
_cell_length_a   10.22229381
_cell_length_b   5.88377329
_cell_length_c   5.89509072
_cell_angle_alpha   90.00000000
_cell_angle_beta   124.87077845
_cell_angle_gamma   90.00000000
_symmetry_Int_Tables_number   1
_chemical_formula_structural   Li3Ti(NiO2)4
_chemical_formula_sum   'Li6 Ti2 Ni8 O16'
_cell_volume   290.89985051
_cell_formula_units_Z   2
loop_
 _symmetry_equiv_pos_site_id
 _symmetry_equiv_pos_as_xyz
  1  'x, y, z'
loop_
 _atom_site_type_symbol
 _atom_site_label
 _atom_site_symmetry_multiplicity
 _atom_site_fract_x
 _atom_site_fract_y
 _atom_site_fract_z
 _atom_site_occupancy
  Li  Li0  1  0.75000000  0.25000000  0.50000000  1
  Li  Li1  1  0.00000000  0.00000000  0.50000000  1
  Li  Li2  1  0.75000000  0.75000000  0.50000000  1
  Li  Li3  1  0.25000000  0.75000000  0.50000000  1
  Li  Li4  1  0.50000000  0.50000000  0.50000000  1
  Li  Li5  1  0.25000000  0.25000000  0.50000000  1
  Ti  Ti6  1  0.00000000  0.50000000  0.00000000  1
  Ti  Ti7  1  0.50000000  0.00000000  0.00000000  1
  Ni  Ni8  1  0.00000000  0.50000000  0.50000000  1
  Ni  Ni9  1  0.00000000  0.00000000  0.00000000  1
  Ni  Ni10  1  0.75000000  0.25000000  0.00000000  1
  Ni  Ni11  1  0.75000000  0.75000000  0.00000000  1
  Ni  Ni12  1  0.50000000  0.00000000  0.50000000  1
  Ni  Ni13  1  0.50000000  0.50000000  0.00000000  1
  Ni  Ni14  1  0.25000000  0.75000000  0.00000000  1
  Ni  Ni15  1  0.25000000  0.25000000  0.00000000  1
  O  O16  1  0.73781150  0.00000000  0.22703200  1
  O  O17  1  0.50152350  0.23825450  0.23953500  1
  O  O18  1  0.50152350  0.76174550  0.23953500  1
  O  O19  1  0.75016350  0.50000000  0.23143100  1
  O  O20  1  0.74983650  0.00000000  0.76856900  1
  O  O21  1  0.99847650  0.73825450  0.76046500  1
  O  O22  1  0.99847650  0.26174550  0.76046500  1
  O  O23  1  0.76218850  0.50000000  0.77296800  1
  O  O24  1  0.23781150  0.50000000  0.22703200  1
  O  O25  1  0.00152350  0.73825450  0.23953500  1
  O  O26  1  0.00152350  0.26174550  0.23953500  1
  O  O27  1  0.25016350  0.00000000  0.23143100  1
  O  O28  1  0.24983650  0.50000000  0.76856900  1
  O  O29  1  0.49847650  0.23825450  0.76046500  1
  O  O30  1  0.49847650  0.76174550  0.76046500  1
  O  O31  1  0.26218850  0.00000000  0.77296800  1
