# generated using pymatgen
data_Bi2BO5
_symmetry_space_group_name_H-M   'P 1'
_cell_length_a   5.48567400
_cell_length_b   13.86052600
_cell_length_c   5.58983600
_cell_angle_alpha   90.00000000
_cell_angle_beta   90.00000000
_cell_angle_gamma   90.00000000
_symmetry_Int_Tables_number   1
_chemical_formula_structural   Bi2BO5
_chemical_formula_sum   'Bi8 B4 O20'
_cell_volume   425.01941888
_cell_formula_units_Z   4
loop_
 _symmetry_equiv_pos_site_id
 _symmetry_equiv_pos_as_xyz
  1  'x, y, z'
loop_
 _atom_site_type_symbol
 _atom_site_label
 _atom_site_symmetry_multiplicity
 _atom_site_fract_x
 _atom_site_fract_y
 _atom_site_fract_z
 _atom_site_occupancy
  Bi  Bi0  1  0.27050750  0.65796750  0.23453100  1
  Bi  Bi1  1  0.72949250  0.65796750  0.73453100  1
  Bi  Bi2  1  0.22949250  0.84203250  0.73453100  1
  Bi  Bi3  1  0.77050750  0.84203250  0.23453100  1
  Bi  Bi4  1  0.77050750  0.15796750  0.23453100  1
  Bi  Bi5  1  0.22949250  0.15796750  0.73453100  1
  Bi  Bi6  1  0.72949250  0.34203250  0.73453100  1
  Bi  Bi7  1  0.27050750  0.34203250  0.23453100  1
  B  B8  1  0.69520700  0.00000000  0.65955000  1
  B  B9  1  0.30479300  0.00000000  0.15955000  1
  B  B10  1  0.19520700  0.50000000  0.65955000  1
  B  B11  1  0.80479300  0.50000000  0.15955000  1
  O  O12  1  0.68394700  0.58741100  0.14394800  1
  O  O13  1  0.31605300  0.58741100  0.64394800  1
  O  O14  1  0.50116350  0.75880750  0.46500900  1
  O  O15  1  0.49883650  0.75880750  0.96500900  1
  O  O16  1  0.00116350  0.74119250  0.46500900  1
  O  O17  1  0.99883650  0.74119250  0.96500900  1
  O  O18  1  0.81605300  0.91258900  0.64394800  1
  O  O19  1  0.18394700  0.91258900  0.14394800  1
  O  O20  1  0.55783100  0.00000000  0.17873500  1
  O  O21  1  0.44216900  0.00000000  0.67873500  1
  O  O22  1  0.18394700  0.08741100  0.14394800  1
  O  O23  1  0.81605300  0.08741100  0.64394800  1
  O  O24  1  0.00116350  0.25880750  0.46500900  1
  O  O25  1  0.99883650  0.25880750  0.96500900  1
  O  O26  1  0.50116350  0.24119250  0.46500900  1
  O  O27  1  0.49883650  0.24119250  0.96500900  1
  O  O28  1  0.31605300  0.41258900  0.64394800  1
  O  O29  1  0.68394700  0.41258900  0.14394800  1
  O  O30  1  0.05783100  0.50000000  0.17873500  1
  O  O31  1  0.94216900  0.50000000  0.67873500  1
