# generated using pymatgen
data_Mn2OF3
_symmetry_space_group_name_H-M   'P 1'
_cell_length_a   19.54868800
_cell_length_b   6.32172600
_cell_length_c   4.87083405
_cell_angle_alpha   90.00000000
_cell_angle_beta   92.33146474
_cell_angle_gamma   90.00000000
_symmetry_Int_Tables_number   1
_chemical_formula_structural   Mn2OF3
_chemical_formula_sum   'Mn16 O8 F24'
_cell_volume   601.44644411
_cell_formula_units_Z   8
loop_
 _symmetry_equiv_pos_site_id
 _symmetry_equiv_pos_as_xyz
  1  'x, y, z'
loop_
 _atom_site_type_symbol
 _atom_site_label
 _atom_site_symmetry_multiplicity
 _atom_site_fract_x
 _atom_site_fract_y
 _atom_site_fract_z
 _atom_site_occupancy
  Mn  Mn0  1  0.62529650  0.75419850  0.49962400  1
  Mn  Mn1  1  0.62529650  0.24580150  0.49962400  1
  Mn  Mn2  1  0.87470350  0.74580150  0.50037600  1
  Mn  Mn3  1  0.87470350  0.25419850  0.50037600  1
  Mn  Mn4  1  0.00000000  0.50000000  0.00000000  1
  Mn  Mn5  1  0.74108900  0.50000000  0.96491800  1
  Mn  Mn6  1  0.00000000  0.00000000  0.00000000  1
  Mn  Mn7  1  0.75891100  0.00000000  0.03508200  1
  Mn  Mn8  1  0.12529650  0.25419850  0.49962400  1
  Mn  Mn9  1  0.12529650  0.74580150  0.49962400  1
  Mn  Mn10  1  0.37470350  0.24580150  0.50037600  1
  Mn  Mn11  1  0.37470350  0.75419850  0.50037600  1
  Mn  Mn12  1  0.50000000  0.00000000  0.00000000  1
  Mn  Mn13  1  0.24108900  0.00000000  0.96491800  1
  Mn  Mn14  1  0.50000000  0.50000000  0.00000000  1
  Mn  Mn15  1  0.25891100  0.50000000  0.03508200  1
  O  O16  1  0.58224100  0.00000000  0.32587100  1
  O  O17  1  0.83328500  0.00000000  0.33069900  1
  O  O18  1  0.66671500  0.50000000  0.66930100  1
  O  O19  1  0.91775900  0.50000000  0.67412900  1
  O  O20  1  0.08224100  0.50000000  0.32587100  1
  O  O21  1  0.33328500  0.50000000  0.33069900  1
  O  O22  1  0.16671500  0.00000000  0.66930100  1
  O  O23  1  0.41775900  0.00000000  0.67412900  1
  F  F24  1  0.69949250  0.75047050  0.20315400  1
  F  F25  1  0.69949250  0.24952950  0.20315400  1
  F  F26  1  0.94920650  0.25100250  0.20343400  1
  F  F27  1  0.94920650  0.74899750  0.20343400  1
  F  F28  1  0.57460400  0.50000000  0.30085700  1
  F  F29  1  0.82078400  0.50000000  0.28627600  1
  F  F30  1  0.92539600  0.00000000  0.69914300  1
  F  F31  1  0.67921600  0.00000000  0.71372400  1
  F  F32  1  0.80050750  0.25047050  0.79684600  1
  F  F33  1  0.55079350  0.24899750  0.79656600  1
  F  F34  1  0.80050750  0.74952950  0.79684600  1
  F  F35  1  0.55079350  0.75100250  0.79656600  1
  F  F36  1  0.19949250  0.25047050  0.20315400  1
  F  F37  1  0.19949250  0.74952950  0.20315400  1
  F  F38  1  0.44920650  0.75100250  0.20343400  1
  F  F39  1  0.44920650  0.24899750  0.20343400  1
  F  F40  1  0.07460400  0.00000000  0.30085700  1
  F  F41  1  0.32078400  0.00000000  0.28627600  1
  F  F42  1  0.42539600  0.50000000  0.69914300  1
  F  F43  1  0.17921600  0.50000000  0.71372400  1
  F  F44  1  0.30050750  0.75047050  0.79684600  1
  F  F45  1  0.05079350  0.74899750  0.79656600  1
  F  F46  1  0.30050750  0.24952950  0.79684600  1
  F  F47  1  0.05079350  0.25100250  0.79656600  1
