# generated using pymatgen
data_Mn2Cu(PO4)3
_symmetry_space_group_name_H-M   'P 1'
_cell_length_a   8.53342357
_cell_length_b   8.53342357
_cell_length_c   20.98958946
_cell_angle_alpha   90.00000000
_cell_angle_beta   90.00000000
_cell_angle_gamma   120.00000000
_symmetry_Int_Tables_number   1
_chemical_formula_structural   Mn2Cu(PO4)3
_chemical_formula_sum   'Mn12 Cu6 P18 O72'
_cell_volume   1323.67443658
_cell_formula_units_Z   6
loop_
 _symmetry_equiv_pos_site_id
 _symmetry_equiv_pos_as_xyz
  1  'x, y, z'
loop_
 _atom_site_type_symbol
 _atom_site_label
 _atom_site_symmetry_multiplicity
 _atom_site_fract_x
 _atom_site_fract_y
 _atom_site_fract_z
 _atom_site_occupancy
  Mn  Mn0  1  0.00000000  0.00000000  0.14243900  1
  Mn  Mn1  1  0.33333333  0.66666667  0.02422767  1
  Mn  Mn2  1  0.33333333  0.66666667  0.30910567  1
  Mn  Mn3  1  0.66666667  0.33333333  0.19089433  1
  Mn  Mn4  1  0.66666667  0.33333333  0.47577233  1
  Mn  Mn5  1  0.00000000  0.00000000  0.35756100  1
  Mn  Mn6  1  0.00000000  0.00000000  0.64243900  1
  Mn  Mn7  1  0.33333333  0.66666667  0.52422767  1
  Mn  Mn8  1  0.33333333  0.66666667  0.80910567  1
  Mn  Mn9  1  0.66666667  0.33333333  0.69089433  1
  Mn  Mn10  1  0.66666667  0.33333333  0.97577233  1
  Mn  Mn11  1  0.00000000  0.00000000  0.85756100  1
  Cu  Cu12  1  0.00000000  0.00000000  0.00000000  1
  Cu  Cu13  1  0.33333333  0.66666667  0.16666667  1
  Cu  Cu14  1  0.66666667  0.33333333  0.33333333  1
  Cu  Cu15  1  0.00000000  0.00000000  0.50000000  1
  Cu  Cu16  1  0.33333333  0.66666667  0.66666667  1
  Cu  Cu17  1  0.66666667  0.33333333  0.83333333  1
  P  P18  1  0.95573867  0.33333333  0.08333333  1
  P  P19  1  0.37759467  0.04426133  0.08333333  1
  P  P20  1  0.66666667  0.62240533  0.08333333  1
  P  P21  1  0.00000000  0.71092800  0.25000000  1
  P  P22  1  0.28907200  0.28907200  0.25000000  1
  P  P23  1  0.71092800  0.00000000  0.25000000  1
  P  P24  1  0.62240533  0.66666667  0.41666667  1
  P  P25  1  0.04426133  0.37759467  0.41666667  1
  P  P26  1  0.33333333  0.95573867  0.41666667  1
  P  P27  1  0.66666667  0.04426133  0.58333333  1
  P  P28  1  0.95573867  0.62240533  0.58333333  1
  P  P29  1  0.37759467  0.33333333  0.58333333  1
  P  P30  1  0.28907200  0.00000000  0.75000000  1
  P  P31  1  0.71092800  0.71092800  0.75000000  1
  P  P32  1  0.00000000  0.28907200  0.75000000  1
  P  P33  1  0.33333333  0.37759467  0.91666667  1
  P  P34  1  0.62240533  0.95573867  0.91666667  1
  P  P35  1  0.04426133  0.66666667  0.91666667  1
  O  O36  1  0.80990567  0.00902833  0.31135833  1
  O  O37  1  0.99097167  0.80087733  0.31135833  1
  O  O38  1  0.97595300  0.16069900  0.07870300  1
  O  O39  1  0.19912267  0.19009433  0.31135833  1
  O  O40  1  0.86578933  0.34236167  0.14469167  1
  O  O41  1  0.14858733  0.50596767  0.08796367  1
  O  O42  1  0.18474600  0.02404700  0.07870300  1
  O  O43  1  0.35738033  0.85141267  0.08796367  1
  O  O44  1  0.00902833  0.80990567  0.18864167  1
  O  O45  1  0.49403233  0.64261967  0.08796367  1
  O  O46  1  0.82736567  0.51807933  0.25463033  1
  O  O47  1  0.19009433  0.19912267  0.18864167  1
  O  O48  1  0.47657233  0.13421067  0.14469167  1
  O  O49  1  0.83930100  0.81525400  0.07870300  1
  O  O50  1  0.17263433  0.69071367  0.24536967  1
  O  O51  1  0.65763833  0.52342767  0.14469167  1
  O  O52  1  0.30928633  0.48192067  0.24536967  1
  O  O53  1  0.48192067  0.30928633  0.25463033  1
  O  O54  1  0.51807933  0.82736567  0.24536967  1
  O  O55  1  0.80087733  0.99097167  0.18864167  1
  O  O56  1  0.46754400  0.14323900  0.02197500  1
  O  O57  1  0.69071367  0.17263433  0.25463033  1
  O  O58  1  0.67569500  0.53245600  0.02197500  1
  O  O59  1  0.85676100  0.32430500  0.02197500  1
  O  O60  1  0.47657233  0.34236167  0.64469167  1
  O  O61  1  0.65763833  0.13421067  0.64469167  1
  O  O62  1  0.64261967  0.49403233  0.41203633  1
  O  O63  1  0.86578933  0.52342767  0.64469167  1
  O  O64  1  0.53245600  0.67569500  0.47802500  1
  O  O65  1  0.81525400  0.83930100  0.42129700  1
  O  O66  1  0.85141267  0.35738033  0.41203633  1
  O  O67  1  0.02404700  0.18474600  0.42129700  1
  O  O68  1  0.67569500  0.14323900  0.52197500  1
  O  O69  1  0.16069900  0.97595300  0.42129700  1
  O  O70  1  0.49403233  0.85141267  0.58796367  1
  O  O71  1  0.85676100  0.53245600  0.52197500  1
  O  O72  1  0.14323900  0.46754400  0.47802500  1
  O  O73  1  0.50596767  0.14858733  0.41203633  1
  O  O74  1  0.83930100  0.02404700  0.57870300  1
  O  O75  1  0.32430500  0.85676100  0.47802500  1
  O  O76  1  0.97595300  0.81525400  0.57870300  1
  O  O77  1  0.14858733  0.64261967  0.58796367  1
  O  O78  1  0.18474600  0.16069900  0.57870300  1
  O  O79  1  0.46754400  0.32430500  0.52197500  1
  O  O80  1  0.13421067  0.47657233  0.35530833  1
  O  O81  1  0.35738033  0.50596767  0.58796367  1
  O  O82  1  0.34236167  0.86578933  0.35530833  1
  O  O83  1  0.52342767  0.65763833  0.35530833  1
  O  O84  1  0.14323900  0.67569500  0.97802500  1
  O  O85  1  0.32430500  0.46754400  0.97802500  1
  O  O86  1  0.30928633  0.82736567  0.74536967  1
  O  O87  1  0.53245600  0.85676100  0.97802500  1
  O  O88  1  0.19912267  0.00902833  0.81135833  1
  O  O89  1  0.48192067  0.17263433  0.75463033  1
  O  O90  1  0.51807933  0.69071367  0.74536967  1
  O  O91  1  0.69071367  0.51807933  0.75463033  1
  O  O92  1  0.34236167  0.47657233  0.85530833  1
  O  O93  1  0.82736567  0.30928633  0.75463033  1
  O  O94  1  0.16069900  0.18474600  0.92129700  1
  O  O95  1  0.52342767  0.86578933  0.85530833  1
  O  O96  1  0.80990567  0.80087733  0.81135833  1
  O  O97  1  0.17263433  0.48192067  0.74536967  1
  O  O98  1  0.50596767  0.35738033  0.91203633  1
  O  O99  1  0.99097167  0.19009433  0.81135833  1
  O  O100  1  0.64261967  0.14858733  0.91203633  1
  O  O101  1  0.81525400  0.97595300  0.92129700  1
  O  O102  1  0.85141267  0.49403233  0.91203633  1
  O  O103  1  0.13421067  0.65763833  0.85530833  1
  O  O104  1  0.80087733  0.80990567  0.68864167  1
  O  O105  1  0.02404700  0.83930100  0.92129700  1
  O  O106  1  0.00902833  0.19912267  0.68864167  1
  O  O107  1  0.19009433  0.99097167  0.68864167  1
