# generated using pymatgen
data_Na4FeO5
_symmetry_space_group_name_H-M   'P 1'
_cell_length_a   7.45097546
_cell_length_b   7.45097546
_cell_length_c   4.57103400
_cell_angle_alpha   90.00000000
_cell_angle_beta   90.00000000
_cell_angle_gamma   90.00000000
_symmetry_Int_Tables_number   1
_chemical_formula_structural   Na4FeO5
_chemical_formula_sum   'Na8 Fe2 O10'
_cell_volume   253.77025586
_cell_formula_units_Z   2
loop_
 _symmetry_equiv_pos_site_id
 _symmetry_equiv_pos_as_xyz
  1  'x, y, z'
loop_
 _atom_site_type_symbol
 _atom_site_label
 _atom_site_symmetry_multiplicity
 _atom_site_fract_x
 _atom_site_fract_y
 _atom_site_fract_z
 _atom_site_occupancy
  Na  Na0  1  0.10497600  0.29115275  0.50000000  1
  Na  Na1  1  0.79115275  0.39502400  0.00000000  1
  Na  Na2  1  0.20884725  0.60497600  0.00000000  1
  Na  Na3  1  0.89502400  0.70884725  0.50000000  1
  Na  Na4  1  0.60497600  0.79115275  0.00000000  1
  Na  Na5  1  0.29115275  0.89502400  0.50000000  1
  Na  Na6  1  0.70884725  0.10497600  0.50000000  1
  Na  Na7  1  0.39502400  0.20884725  0.00000000  1
  Fe  Fe8  1  0.00000000  0.00000000  0.00000000  1
  Fe  Fe9  1  0.50000000  0.50000000  0.50000000  1
  O  O10  1  0.50000000  0.50000000  0.00000000  1
  O  O11  1  0.06658400  0.23818725  0.00000000  1
  O  O12  1  0.73818725  0.43341600  0.50000000  1
  O  O13  1  0.26181275  0.56658400  0.50000000  1
  O  O14  1  0.93341600  0.76181275  0.00000000  1
  O  O15  1  0.00000000  0.00000000  0.50000000  1
  O  O16  1  0.56658400  0.73818725  0.50000000  1
  O  O17  1  0.23818725  0.93341600  0.00000000  1
  O  O18  1  0.76181275  0.06658400  0.00000000  1
  O  O19  1  0.43341600  0.26181275  0.50000000  1
