# generated using pymatgen
data_LiTi4O8
_symmetry_space_group_name_H-M   'P 1'
_cell_length_a   5.99425001
_cell_length_b   5.99425001
_cell_length_c   14.46965640
_cell_angle_alpha   90.00000000
_cell_angle_beta   90.00000000
_cell_angle_gamma   120.00000000
_symmetry_Int_Tables_number   1
_chemical_formula_structural   LiTi4O8
_chemical_formula_sum   'Li3 Ti12 O24'
_cell_volume   450.25501070
_cell_formula_units_Z   3
loop_
 _symmetry_equiv_pos_site_id
 _symmetry_equiv_pos_as_xyz
  1  'x, y, z'
loop_
 _atom_site_type_symbol
 _atom_site_label
 _atom_site_symmetry_multiplicity
 _atom_site_fract_x
 _atom_site_fract_y
 _atom_site_fract_z
 _atom_site_occupancy
  Li  Li0  1  0.33333333  0.66666667  0.16666667  1
  Li  Li1  1  1.00000000  1.00000000  0.50000000  1
  Li  Li2  1  0.66666667  0.33333333  0.83333333  1
  Ti  Ti3  1  0.83333333  0.16666667  0.16666667  1
  Ti  Ti4  1  0.33333333  0.16666667  0.16666667  1
  Ti  Ti5  1  0.16666667  0.33333333  0.83333333  1
  Ti  Ti6  1  0.00000000  0.00000000  0.00000000  1
  Ti  Ti7  1  0.50000000  0.50000000  0.50000000  1
  Ti  Ti8  1  0.00000000  0.50000000  0.50000000  1
  Ti  Ti9  1  0.83333333  0.66666667  0.16666667  1
  Ti  Ti10  1  0.66666667  0.33333333  0.33333333  1
  Ti  Ti11  1  0.16666667  0.83333333  0.83333333  1
  Ti  Ti12  1  0.66666667  0.83333333  0.83333333  1
  Ti  Ti13  1  0.50000000  0.00000000  0.50000000  1
  Ti  Ti14  1  0.33333333  0.66666667  0.66666667  1
  O  O15  1  0.15017933  0.84982067  0.08984167  1
  O  O16  1  0.69964133  0.84982067  0.08984167  1
  O  O17  1  0.51648733  0.03297467  0.24349167  1
  O  O18  1  0.33333333  0.66666667  0.90160067  1
  O  O19  1  0.33333333  0.66666667  0.43173267  1
  O  O20  1  0.15017933  0.30035867  0.08984167  1
  O  O21  1  0.96702533  0.48351267  0.24349167  1
  O  O22  1  0.51648733  0.48351267  0.24349167  1
  O  O23  1  0.81684600  0.18315400  0.42317500  1
  O  O24  1  0.36630800  0.18315400  0.42317500  1
  O  O25  1  0.18315400  0.36630800  0.57682500  1
  O  O26  1  0.00000000  0.00000000  0.23493400  1
  O  O27  1  0.00000000  0.00000000  0.76506600  1
  O  O28  1  0.81684600  0.63369200  0.42317500  1
  O  O29  1  0.63369200  0.81684600  0.57682500  1
  O  O30  1  0.18315400  0.81684600  0.57682500  1
  O  O31  1  0.48351267  0.51648733  0.75650833  1
  O  O32  1  0.03297467  0.51648733  0.75650833  1
  O  O33  1  0.84982067  0.69964133  0.91015833  1
  O  O34  1  0.66666667  0.33333333  0.56826733  1
  O  O35  1  0.66666667  0.33333333  0.09839933  1
  O  O36  1  0.48351267  0.96702533  0.75650833  1
  O  O37  1  0.30035867  0.15017933  0.91015833  1
  O  O38  1  0.84982067  0.15017933  0.91015833  1
