# generated using pymatgen
data_Mn3O5F
_symmetry_space_group_name_H-M   'P 1'
_cell_length_a   6.31197800
_cell_length_b   6.54122400
_cell_length_c   9.02403500
_cell_angle_alpha   90.00000000
_cell_angle_beta   90.00000000
_cell_angle_gamma   90.00000000
_symmetry_Int_Tables_number   1
_chemical_formula_structural   Mn3O5F
_chemical_formula_sum   'Mn12 O20 F4'
_cell_volume   372.58491640
_cell_formula_units_Z   4
loop_
 _symmetry_equiv_pos_site_id
 _symmetry_equiv_pos_as_xyz
  1  'x, y, z'
loop_
 _atom_site_type_symbol
 _atom_site_label
 _atom_site_symmetry_multiplicity
 _atom_site_fract_x
 _atom_site_fract_y
 _atom_site_fract_z
 _atom_site_occupancy
  Mn  Mn0  1  0.50000000  0.49270100  0.34031900  1
  Mn  Mn1  1  0.50000000  0.49270100  0.65968100  1
  Mn  Mn2  1  0.50000000  0.48365300  0.00000000  1
  Mn  Mn3  1  0.50000000  0.01678200  0.16770800  1
  Mn  Mn4  1  0.50000000  0.99319500  0.50000000  1
  Mn  Mn5  1  0.50000000  0.01678200  0.83229200  1
  Mn  Mn6  1  0.00000000  0.99270100  0.34031900  1
  Mn  Mn7  1  0.00000000  0.99270100  0.65968100  1
  Mn  Mn8  1  0.00000000  0.98365300  0.00000000  1
  Mn  Mn9  1  0.00000000  0.51678200  0.16770800  1
  Mn  Mn10  1  0.00000000  0.49319500  0.50000000  1
  Mn  Mn11  1  0.00000000  0.51678200  0.83229200  1
  O  O12  1  0.50000000  0.30294500  0.50000000  1
  O  O13  1  0.50000000  0.30524300  0.82814700  1
  O  O14  1  0.50000000  0.30524300  0.17185300  1
  O  O15  1  0.30539700  0.99965400  0.33355500  1
  O  O16  1  0.30539700  0.99965400  0.66644500  1
  O  O17  1  0.30537850  0.00191050  0.00000000  1
  O  O18  1  0.69460300  0.99965400  0.33355500  1
  O  O19  1  0.69460300  0.99965400  0.66644500  1
  O  O20  1  0.69462150  0.00191050  0.00000000  1
  O  O21  1  0.50000000  0.69061000  0.50000000  1
  O  O22  1  0.00000000  0.80294500  0.50000000  1
  O  O23  1  0.00000000  0.80524300  0.82814700  1
  O  O24  1  0.00000000  0.80524300  0.17185300  1
  O  O25  1  0.80539700  0.49965400  0.33355500  1
  O  O26  1  0.80539700  0.49965400  0.66644500  1
  O  O27  1  0.80537850  0.50191050  0.00000000  1
  O  O28  1  0.19460300  0.49965400  0.33355500  1
  O  O29  1  0.19460300  0.49965400  0.66644500  1
  O  O30  1  0.19462150  0.50191050  0.00000000  1
  O  O31  1  0.00000000  0.19061000  0.50000000  1
  F  F32  1  0.50000000  0.69885500  0.83059000  1
  F  F33  1  0.50000000  0.69885500  0.16941000  1
  F  F34  1  0.00000000  0.19885500  0.83059000  1
  F  F35  1  0.00000000  0.19885500  0.16941000  1
