# generated using pymatgen
data_LiCoPO4
_symmetry_space_group_name_H-M   'P 1'
_cell_length_a   8.49248664
_cell_length_b   5.11309400
_cell_length_c   8.65815080
_cell_angle_alpha   90.00000000
_cell_angle_beta   107.84850075
_cell_angle_gamma   90.00000000
_symmetry_Int_Tables_number   1
_chemical_formula_structural   LiCoPO4
_chemical_formula_sum   'Li4 Co4 P4 O16'
_cell_volume   357.86692615
_cell_formula_units_Z   4
loop_
 _symmetry_equiv_pos_site_id
 _symmetry_equiv_pos_as_xyz
  1  'x, y, z'
loop_
 _atom_site_type_symbol
 _atom_site_label
 _atom_site_symmetry_multiplicity
 _atom_site_fract_x
 _atom_site_fract_y
 _atom_site_fract_z
 _atom_site_occupancy
  Li  Li0  1  0.11037800  0.32374350  0.98595100  1
  Li  Li1  1  0.61037800  0.67625650  0.98595100  1
  Li  Li2  1  0.24594000  0.81754150  0.49557100  1
  Li  Li3  1  0.74594000  0.18245850  0.49557100  1
  Co  Co4  1  0.48441300  0.82041450  0.24777700  1
  Co  Co5  1  0.85099600  0.68034950  0.74163700  1
  Co  Co6  1  0.98441300  0.17958550  0.24777700  1
  Co  Co7  1  0.35099600  0.31965050  0.74163700  1
  P  P8  1  0.23459400  0.81292350  0.86515000  1
  P  P9  1  0.73459400  0.18707650  0.86515000  1
  P  P10  1  0.35798600  0.31126550  0.36900200  1
  P  P11  1  0.85798600  0.68873450  0.36900200  1
  O  O12  1  0.07963600  0.68228150  0.89141500  1
  O  O13  1  0.57963600  0.31771850  0.89141500  1
  O  O14  1  0.01299600  0.82441150  0.34573700  1
  O  O15  1  0.51299600  0.17558850  0.34573700  1
  O  O16  1  0.20594800  0.11216850  0.83927800  1
  O  O17  1  0.70594800  0.88783150  0.83927800  1
  O  O18  1  0.27074600  0.69033050  0.71444500  1
  O  O19  1  0.77074600  0.30966950  0.71444500  1
  O  O20  1  0.20609500  0.25209950  0.21899000  1
  O  O21  1  0.70609500  0.74790050  0.21899000  1
  O  O22  1  0.31772800  0.19497850  0.51894600  1
  O  O23  1  0.81772800  0.80502150  0.51894600  1
  O  O24  1  0.38944000  0.61044150  0.39149400  1
  O  O25  1  0.88944000  0.38955850  0.39149400  1
  O  O26  1  0.38700100  0.75233050  0.01351900  1
  O  O27  1  0.88700100  0.24766950  0.01351900  1
