# generated using pymatgen
data_Mn3NbNi2(PO4)6
_symmetry_space_group_name_H-M   'P 1'
_cell_length_a   8.70393854
_cell_length_b   8.70393854
_cell_length_c   20.79870187
_cell_angle_alpha   90.00000000
_cell_angle_beta   90.00000000
_cell_angle_gamma   120.00000000
_symmetry_Int_Tables_number   1
_chemical_formula_structural   Mn3NbNi2(PO4)6
_chemical_formula_sum   'Mn9 Nb3 Ni6 P18 O72'
_cell_volume   1364.57840218
_cell_formula_units_Z   3
loop_
 _symmetry_equiv_pos_site_id
 _symmetry_equiv_pos_as_xyz
  1  'x, y, z'
loop_
 _atom_site_type_symbol
 _atom_site_label
 _atom_site_symmetry_multiplicity
 _atom_site_fract_x
 _atom_site_fract_y
 _atom_site_fract_z
 _atom_site_occupancy
  Mn  Mn0  1  0.33333333  0.66666667  0.81173567  1
  Mn  Mn1  1  0.33333333  0.66666667  0.02413967  1
  Mn  Mn2  1  0.33333333  0.66666667  0.30982667  1
  Mn  Mn3  1  0.00000000  0.00000000  0.14506900  1
  Mn  Mn4  1  0.00000000  0.00000000  0.35747300  1
  Mn  Mn5  1  0.00000000  0.00000000  0.64316000  1
  Mn  Mn6  1  0.66666667  0.33333333  0.47840233  1
  Mn  Mn7  1  0.66666667  0.33333333  0.69080633  1
  Mn  Mn8  1  0.66666667  0.33333333  0.97649333  1
  Nb  Nb9  1  0.33333333  0.66666667  0.52392367  1
  Nb  Nb10  1  0.00000000  0.00000000  0.85725700  1
  Nb  Nb11  1  0.66666667  0.33333333  0.19059033  1
  Ni  Ni12  1  0.33333333  0.66666667  0.67112267  1
  Ni  Ni13  1  0.33333333  0.66666667  0.16755367  1
  Ni  Ni14  1  0.00000000  0.00000000  0.00445600  1
  Ni  Ni15  1  0.00000000  0.00000000  0.50088700  1
  Ni  Ni16  1  0.66666667  0.33333333  0.33778933  1
  Ni  Ni17  1  0.66666667  0.33333333  0.83422033  1
  P  P18  1  0.96683900  0.33277100  0.08103800  1
  P  P19  1  0.36593200  0.03316100  0.08103800  1
  P  P20  1  0.66722900  0.63406800  0.08103800  1
  P  P21  1  0.00645233  0.71023467  0.25060167  1
  P  P22  1  0.28976533  0.29621767  0.25060167  1
  P  P23  1  0.70378233  0.99354767  0.25060167  1
  P  P24  1  0.63350567  0.66610433  0.41437133  1
  P  P25  1  0.03259867  0.36649433  0.41437133  1
  P  P26  1  0.33389567  0.96740133  0.41437133  1
  P  P27  1  0.67311900  0.04356800  0.58393500  1
  P  P28  1  0.95643200  0.62955100  0.58393500  1
  P  P29  1  0.37044900  0.32688100  0.58393500  1
  P  P30  1  0.30017233  0.99943767  0.74770467  1
  P  P31  1  0.69926533  0.69982767  0.74770467  1
  P  P32  1  0.00056233  0.30073467  0.74770467  1
  P  P33  1  0.33978567  0.37690133  0.91726833  1
  P  P34  1  0.62309867  0.96288433  0.91726833  1
  P  P35  1  0.03711567  0.66021433  0.91726833  1
  O  O36  1  0.12946400  0.66081700  0.97888400  1
  O  O37  1  0.33918300  0.46864700  0.97888400  1
  O  O38  1  0.98699400  0.16532600  0.07583100  1
  O  O39  1  0.53135300  0.87053600  0.97888400  1
  O  O40  1  0.51602067  0.65234233  0.47473233  1
  O  O41  1  0.14814233  0.49977067  0.09460667  1
  O  O42  1  0.17833200  0.01300600  0.07583100  1
  O  O43  1  0.35162833  0.85185767  0.09460667  1
  O  O44  1  0.99734333  0.79954867  0.18871667  1
  O  O45  1  0.50022933  0.64837167  0.09460667  1
  O  O46  1  0.83646467  0.51433133  0.25699333  1
  O  O47  1  0.20045133  0.19779467  0.18871667  1
  O  O48  1  0.13632167  0.48397933  0.47473233  1
  O  O49  1  0.83467400  0.82166800  0.07583100  1
  O  O50  1  0.16802367  0.68106833  0.24152233  1
  O  O51  1  0.34765767  0.86367833  0.47473233  1
  O  O52  1  0.31893167  0.48695533  0.24152233  1
  O  O53  1  0.48566867  0.32213333  0.25699333  1
  O  O54  1  0.51304467  0.83197633  0.24152233  1
  O  O55  1  0.80220533  0.00265667  0.18871667  1
  O  O56  1  0.13302600  0.46318900  0.35430700  1
  O  O57  1  0.67786667  0.16353533  0.25699333  1
  O  O58  1  0.33016300  0.86697400  0.35430700  1
  O  O59  1  0.53681100  0.66983700  0.35430700  1
  O  O60  1  0.79613067  0.99415033  0.31221733  1
  O  O61  1  0.00584967  0.80198033  0.31221733  1
  O  O62  1  0.65366067  0.49865933  0.40916433  1
  O  O63  1  0.19801967  0.20386933  0.31221733  1
  O  O64  1  0.18268733  0.98567567  0.80806567  1
  O  O65  1  0.81480900  0.83310400  0.42794000  1
  O  O66  1  0.84499867  0.34633933  0.40916433  1
  O  O67  1  0.01829500  0.18519100  0.42794000  1
  O  O68  1  0.66401000  0.13288200  0.52205000  1
  O  O69  1  0.16689600  0.98170500  0.42794000  1
  O  O70  1  0.50313133  0.84766467  0.59032667  1
  O  O71  1  0.86711800  0.53112800  0.52205000  1
  O  O72  1  0.80298833  0.81731267  0.80806567  1
  O  O73  1  0.50134067  0.15500133  0.40916433  1
  O  O74  1  0.83469033  0.01440167  0.57485567  1
  O  O75  1  0.01432433  0.19701167  0.80806567  1
  O  O76  1  0.98559833  0.82028867  0.57485567  1
  O  O77  1  0.15233533  0.65546667  0.59032667  1
  O  O78  1  0.17971133  0.16530967  0.57485567  1
  O  O79  1  0.46887200  0.33599000  0.52205000  1
  O  O80  1  0.79969267  0.79652233  0.68764033  1
  O  O81  1  0.34453333  0.49686867  0.59032667  1
  O  O82  1  0.99682967  0.20030733  0.68764033  1
  O  O83  1  0.20347767  0.00317033  0.68764033  1
  O  O84  1  0.46279733  0.32748367  0.64555067  1
  O  O85  1  0.67251633  0.13531367  0.64555067  1
  O  O86  1  0.32032733  0.83199267  0.74249767  1
  O  O87  1  0.86468633  0.53720267  0.64555067  1
  O  O88  1  0.84935400  0.31900900  0.14139900  1
  O  O89  1  0.48147567  0.16643733  0.76127333  1
  O  O90  1  0.51166533  0.67967267  0.74249767  1
  O  O91  1  0.68496167  0.51852433  0.76127333  1
  O  O92  1  0.33067667  0.46621533  0.85538333  1
  O  O93  1  0.83356267  0.31503833  0.76127333  1
  O  O94  1  0.16979800  0.18099800  0.92366000  1
  O  O95  1  0.53378467  0.86446133  0.85538333  1
  O  O96  1  0.46965500  0.15064600  0.14139900  1
  O  O97  1  0.16800733  0.48833467  0.74249767  1
  O  O98  1  0.50135700  0.34773500  0.90818900  1
  O  O99  1  0.68099100  0.53034500  0.14139900  1
  O  O100  1  0.65226500  0.15362200  0.90818900  1
  O  O101  1  0.81900200  0.98880000  0.92366000  1
  O  O102  1  0.84637800  0.49864300  0.90818900  1
  O  O103  1  0.13553867  0.66932333  0.85538333  1
  O  O104  1  0.46635933  0.12985567  0.02097367  1
  O  O105  1  0.01120000  0.83020200  0.92366000  1
  O  O106  1  0.66349633  0.53364067  0.02097367  1
  O  O107  1  0.87014433  0.33650367  0.02097367  1
