# generated using pymatgen
data_Li3Mn2OF5
_symmetry_space_group_name_H-M   'P 1'
_cell_length_a   6.18839000
_cell_length_b   8.59289000
_cell_length_c   18.40289800
_cell_angle_alpha   90.00000000
_cell_angle_beta   90.00000000
_cell_angle_gamma   90.00000000
_symmetry_Int_Tables_number   1
_chemical_formula_structural   Li3Mn2OF5
_chemical_formula_sum   'Li24 Mn16 O8 F40'
_cell_volume   978.59534816
_cell_formula_units_Z   8
loop_
 _symmetry_equiv_pos_site_id
 _symmetry_equiv_pos_as_xyz
  1  'x, y, z'
loop_
 _atom_site_type_symbol
 _atom_site_label
 _atom_site_symmetry_multiplicity
 _atom_site_fract_x
 _atom_site_fract_y
 _atom_site_fract_z
 _atom_site_occupancy
  Li  Li0  1  0.00000000  0.00000000  0.17487000  1
  Li  Li1  1  0.75000000  0.25000000  0.06934400  1
  Li  Li2  1  0.75000000  0.25000000  0.43065600  1
  Li  Li3  1  0.50000000  0.00000000  0.00000000  1
  Li  Li4  1  0.50000000  0.00000000  0.32513000  1
  Li  Li5  1  0.75000000  0.75000000  0.25000000  1
  Li  Li6  1  0.00000000  0.50000000  0.67487000  1
  Li  Li7  1  0.75000000  0.75000000  0.56934400  1
  Li  Li8  1  0.75000000  0.75000000  0.93065600  1
  Li  Li9  1  0.50000000  0.50000000  0.50000000  1
  Li  Li10  1  0.50000000  0.50000000  0.82513000  1
  Li  Li11  1  0.75000000  0.25000000  0.75000000  1
  Li  Li12  1  0.50000000  0.00000000  0.67487000  1
  Li  Li13  1  0.25000000  0.25000000  0.56934400  1
  Li  Li14  1  0.25000000  0.25000000  0.93065600  1
  Li  Li15  1  0.00000000  0.00000000  0.50000000  1
  Li  Li16  1  0.00000000  0.00000000  0.82513000  1
  Li  Li17  1  0.25000000  0.75000000  0.75000000  1
  Li  Li18  1  0.50000000  0.50000000  0.17487000  1
  Li  Li19  1  0.25000000  0.75000000  0.06934400  1
  Li  Li20  1  0.25000000  0.75000000  0.43065600  1
  Li  Li21  1  0.00000000  0.50000000  0.00000000  1
  Li  Li22  1  0.00000000  0.50000000  0.32513000  1
  Li  Li23  1  0.25000000  0.25000000  0.25000000  1
  Mn  Mn24  1  0.50000000  0.00000000  0.16995700  1
  Mn  Mn25  1  0.00000000  0.00000000  0.00000000  1
  Mn  Mn26  1  0.00000000  0.00000000  0.33004300  1
  Mn  Mn27  1  0.75000000  0.25000000  0.25000000  1
  Mn  Mn28  1  0.50000000  0.50000000  0.66995700  1
  Mn  Mn29  1  0.00000000  0.50000000  0.50000000  1
  Mn  Mn30  1  0.00000000  0.50000000  0.83004300  1
  Mn  Mn31  1  0.75000000  0.75000000  0.75000000  1
  Mn  Mn32  1  0.00000000  0.00000000  0.66995700  1
  Mn  Mn33  1  0.50000000  0.00000000  0.50000000  1
  Mn  Mn34  1  0.50000000  0.00000000  0.83004300  1
  Mn  Mn35  1  0.25000000  0.25000000  0.75000000  1
  Mn  Mn36  1  0.00000000  0.50000000  0.16995700  1
  Mn  Mn37  1  0.50000000  0.50000000  0.00000000  1
  Mn  Mn38  1  0.50000000  0.50000000  0.33004300  1
  Mn  Mn39  1  0.25000000  0.75000000  0.25000000  1
  O  O40  1  0.75000000  0.49706400  0.25000000  1
  O  O41  1  0.75000000  0.00293600  0.25000000  1
  O  O42  1  0.75000000  0.99706400  0.75000000  1
  O  O43  1  0.75000000  0.50293600  0.75000000  1
  O  O44  1  0.25000000  0.49706400  0.75000000  1
  O  O45  1  0.25000000  0.00293600  0.75000000  1
  O  O46  1  0.25000000  0.99706400  0.25000000  1
  O  O47  1  0.25000000  0.50293600  0.25000000  1
  F  F48  1  0.73838450  0.02326450  0.07877200  1
  F  F49  1  0.50073150  0.25664100  0.16716450  1
  F  F50  1  0.49926850  0.74335900  0.16716450  1
  F  F51  1  0.76161550  0.02326450  0.42122800  1
  F  F52  1  0.26161550  0.97673550  0.07877200  1
  F  F53  1  0.50000000  0.74396400  0.00000000  1
  F  F54  1  0.99926850  0.25664100  0.33283550  1
  F  F55  1  0.50000000  0.25603600  0.00000000  1
  F  F56  1  0.23838450  0.97673550  0.42122800  1
  F  F57  1  0.00073150  0.74335900  0.33283550  1
  F  F58  1  0.73838450  0.52326450  0.57877200  1
  F  F59  1  0.50073150  0.75664100  0.66716450  1
  F  F60  1  0.49926850  0.24335900  0.66716450  1
  F  F61  1  0.76161550  0.52326450  0.92122800  1
  F  F62  1  0.26161550  0.47673550  0.57877200  1
  F  F63  1  0.50000000  0.24396400  0.50000000  1
  F  F64  1  0.99926850  0.75664100  0.83283550  1
  F  F65  1  0.50000000  0.75603600  0.50000000  1
  F  F66  1  0.23838450  0.47673550  0.92122800  1
  F  F67  1  0.00073150  0.24335900  0.83283550  1
  F  F68  1  0.23838450  0.02326450  0.57877200  1
  F  F69  1  0.00073150  0.25664100  0.66716450  1
  F  F70  1  0.99926850  0.74335900  0.66716450  1
  F  F71  1  0.26161550  0.02326450  0.92122800  1
  F  F72  1  0.76161550  0.97673550  0.57877200  1
  F  F73  1  0.00000000  0.74396400  0.50000000  1
  F  F74  1  0.49926850  0.25664100  0.83283550  1
  F  F75  1  0.00000000  0.25603600  0.50000000  1
  F  F76  1  0.73838450  0.97673550  0.92122800  1
  F  F77  1  0.50073150  0.74335900  0.83283550  1
  F  F78  1  0.23838450  0.52326450  0.07877200  1
  F  F79  1  0.00073150  0.75664100  0.16716450  1
  F  F80  1  0.99926850  0.24335900  0.16716450  1
  F  F81  1  0.26161550  0.52326450  0.42122800  1
  F  F82  1  0.76161550  0.47673550  0.07877200  1
  F  F83  1  0.00000000  0.24396400  0.00000000  1
  F  F84  1  0.49926850  0.75664100  0.33283550  1
  F  F85  1  0.00000000  0.75603600  0.00000000  1
  F  F86  1  0.73838450  0.47673550  0.42122800  1
  F  F87  1  0.50073150  0.24335900  0.33283550  1
