# generated using pymatgen
data_Na5Cr2P(CO4)4
_symmetry_space_group_name_H-M   'P 1'
_cell_length_a   13.86367200
_cell_length_b   14.05906600
_cell_length_c   9.75869341
_cell_angle_alpha   90.00000000
_cell_angle_beta   134.60583527
_cell_angle_gamma   90.00000000
_symmetry_Int_Tables_number   1
_chemical_formula_structural   Na5Cr2P(CO4)4
_chemical_formula_sum   'Na20 Cr8 P4 C16 O64'
_cell_volume   1354.18711580
_cell_formula_units_Z   4
loop_
 _symmetry_equiv_pos_site_id
 _symmetry_equiv_pos_as_xyz
  1  'x, y, z'
loop_
 _atom_site_type_symbol
 _atom_site_label
 _atom_site_symmetry_multiplicity
 _atom_site_fract_x
 _atom_site_fract_y
 _atom_site_fract_z
 _atom_site_occupancy
  Na  Na0  1  0.78982600  0.12755500  0.34301000  1
  Na  Na1  1  0.28989400  0.37263600  0.23669900  1
  Na  Na2  1  0.28982600  0.37244500  0.84301000  1
  Na  Na3  1  0.50000000  0.42382100  0.75000000  1
  Na  Na4  1  0.78989400  0.12736400  0.73669900  1
  Na  Na5  1  0.00000000  0.07617900  0.25000000  1
  Na  Na6  1  0.71010600  0.37263600  0.26330100  1
  Na  Na7  1  0.21017400  0.12755500  0.15699000  1
  Na  Na8  1  0.21010600  0.12736400  0.76330100  1
  Na  Na9  1  0.71017400  0.37244500  0.65699000  1
  Na  Na10  1  0.28982600  0.62755500  0.34301000  1
  Na  Na11  1  0.78989400  0.87263600  0.23669900  1
  Na  Na12  1  0.78982600  0.87244500  0.84301000  1
  Na  Na13  1  0.00000000  0.92382100  0.75000000  1
  Na  Na14  1  0.28989400  0.62736400  0.73669900  1
  Na  Na15  1  0.50000000  0.57617900  0.25000000  1
  Na  Na16  1  0.21010600  0.87263600  0.26330100  1
  Na  Na17  1  0.71017400  0.62755500  0.15699000  1
  Na  Na18  1  0.71010600  0.62736400  0.76330100  1
  Na  Na19  1  0.21017400  0.87244500  0.65699000  1
  Cr  Cr20  1  0.25000000  0.25000000  0.50000000  1
  Cr  Cr21  1  0.50000000  0.00000000  0.00000000  1
  Cr  Cr22  1  0.50000000  0.00000000  0.50000000  1
  Cr  Cr23  1  0.75000000  0.25000000  0.00000000  1
  Cr  Cr24  1  0.75000000  0.75000000  0.50000000  1
  Cr  Cr25  1  0.00000000  0.50000000  0.00000000  1
  Cr  Cr26  1  0.00000000  0.50000000  0.50000000  1
  Cr  Cr27  1  0.25000000  0.75000000  0.00000000  1
  P  P28  1  0.00000000  0.12752900  0.75000000  1
  P  P29  1  0.50000000  0.37247100  0.25000000  1
  P  P30  1  0.50000000  0.62752900  0.75000000  1
  P  P31  1  0.00000000  0.87247100  0.25000000  1
  C  C32  1  0.49925650  0.21216950  0.92551800  1
  C  C33  1  0.67711700  0.03832900  0.92689200  1
  C  C34  1  0.32288300  0.03832900  0.57310800  1
  C  C35  1  0.50074350  0.21216950  0.57448200  1
  C  C36  1  0.17711700  0.46167100  0.42689200  1
  C  C37  1  0.99925650  0.28783050  0.42551800  1
  C  C38  1  0.82288300  0.46167100  0.07310800  1
  C  C39  1  0.00074350  0.28783050  0.07448200  1
  C  C40  1  0.99925650  0.71216950  0.92551800  1
  C  C41  1  0.17711700  0.53832900  0.92689200  1
  C  C42  1  0.82288300  0.53832900  0.57310800  1
  C  C43  1  0.00074350  0.71216950  0.57448200  1
  C  C44  1  0.67711700  0.96167100  0.42689200  1
  C  C45  1  0.49925650  0.78783050  0.42551800  1
  C  C46  1  0.32288300  0.96167100  0.07310800  1
  C  C47  1  0.50074350  0.78783050  0.07448200  1
  O  O48  1  0.25205450  0.39153150  0.45709300  1
  O  O49  1  0.66649500  0.02475600  0.04758600  1
  O  O50  1  0.62927500  0.22753300  0.04570200  1
  O  O51  1  0.04680450  0.35975750  0.05473600  1
  O  O52  1  0.75205450  0.10846850  0.95709300  1
  O  O53  1  0.13105500  0.18759300  0.88139600  1
  O  O54  1  0.99959550  0.06145850  0.88023100  1
  O  O55  1  0.12081350  0.48067650  0.78580700  1
  O  O56  1  0.41526600  0.27315400  0.78680600  1
  O  O57  1  0.87918650  0.48067650  0.71419300  1
  O  O58  1  0.58473400  0.27315400  0.71319400  1
  O  O59  1  0.00040450  0.06145850  0.61976900  1
  O  O60  1  0.86894500  0.18759300  0.61860400  1
  O  O61  1  0.16649500  0.47524400  0.54758600  1
  O  O62  1  0.12927500  0.27246700  0.54570200  1
  O  O63  1  0.54680450  0.14024250  0.55473600  1
  O  O64  1  0.95319550  0.35975750  0.44526400  1
  O  O65  1  0.37072500  0.22753300  0.45429800  1
  O  O66  1  0.33350500  0.02475600  0.45241400  1
  O  O67  1  0.49959550  0.43854150  0.38023100  1
  O  O68  1  0.63105500  0.31240700  0.38139600  1
  O  O69  1  0.91526600  0.22684600  0.28680600  1
  O  O70  1  0.62081350  0.01932350  0.28580700  1
  O  O71  1  0.08473400  0.22684600  0.21319400  1
  O  O72  1  0.37918650  0.01932350  0.21419300  1
  O  O73  1  0.50040450  0.43854150  0.11976900  1
  O  O74  1  0.36894500  0.31240700  0.11860400  1
  O  O75  1  0.74794550  0.39153150  0.04290700  1
  O  O76  1  0.45319550  0.14024250  0.94526400  1
  O  O77  1  0.83350500  0.47524400  0.95241400  1
  O  O78  1  0.87072500  0.27246700  0.95429800  1
  O  O79  1  0.24794550  0.10846850  0.54290700  1
  O  O80  1  0.75205450  0.89153150  0.45709300  1
  O  O81  1  0.16649500  0.52475600  0.04758600  1
  O  O82  1  0.12927500  0.72753300  0.04570200  1
  O  O83  1  0.54680450  0.85975750  0.05473600  1
  O  O84  1  0.25205450  0.60846850  0.95709300  1
  O  O85  1  0.63105500  0.68759300  0.88139600  1
  O  O86  1  0.49959550  0.56145850  0.88023100  1
  O  O87  1  0.62081350  0.98067650  0.78580700  1
  O  O88  1  0.91526600  0.77315400  0.78680600  1
  O  O89  1  0.37918650  0.98067650  0.71419300  1
  O  O90  1  0.08473400  0.77315400  0.71319400  1
  O  O91  1  0.50040450  0.56145850  0.61976900  1
  O  O92  1  0.36894500  0.68759300  0.61860400  1
  O  O93  1  0.66649500  0.97524400  0.54758600  1
  O  O94  1  0.62927500  0.77246700  0.54570200  1
  O  O95  1  0.04680450  0.64024250  0.55473600  1
  O  O96  1  0.45319550  0.85975750  0.44526400  1
  O  O97  1  0.87072500  0.72753300  0.45429800  1
  O  O98  1  0.83350500  0.52475600  0.45241400  1
  O  O99  1  0.99959550  0.93854150  0.38023100  1
  O  O100  1  0.13105500  0.81240700  0.38139600  1
  O  O101  1  0.41526600  0.72684600  0.28680600  1
  O  O102  1  0.12081350  0.51932350  0.28580700  1
  O  O103  1  0.58473400  0.72684600  0.21319400  1
  O  O104  1  0.87918650  0.51932350  0.21419300  1
  O  O105  1  0.00040450  0.93854150  0.11976900  1
  O  O106  1  0.86894500  0.81240700  0.11860400  1
  O  O107  1  0.24794550  0.89153150  0.04290700  1
  O  O108  1  0.95319550  0.64024250  0.94526400  1
  O  O109  1  0.33350500  0.97524400  0.95241400  1
  O  O110  1  0.37072500  0.77246700  0.95429800  1
  O  O111  1  0.74794550  0.60846850  0.54290700  1
