# generated using pymatgen
data_Co3(OF2)2
_symmetry_space_group_name_H-M   'P 1'
_cell_length_a   6.42857200
_cell_length_b   6.95088800
_cell_length_c   9.23124582
_cell_angle_alpha   90.00000000
_cell_angle_beta   91.20007682
_cell_angle_gamma   90.00000000
_symmetry_Int_Tables_number   1
_chemical_formula_structural   Co3(OF2)2
_chemical_formula_sum   'Co12 O8 F16'
_cell_volume   412.40113200
_cell_formula_units_Z   4
loop_
 _symmetry_equiv_pos_site_id
 _symmetry_equiv_pos_as_xyz
  1  'x, y, z'
loop_
 _atom_site_type_symbol
 _atom_site_label
 _atom_site_symmetry_multiplicity
 _atom_site_fract_x
 _atom_site_fract_y
 _atom_site_fract_z
 _atom_site_occupancy
  Co  Co0  1  0.00000000  0.00000000  0.00000000  1
  Co  Co1  1  0.96562200  0.00000000  0.33103800  1
  Co  Co2  1  0.03437800  0.00000000  0.66896200  1
  Co  Co3  1  0.49839800  0.00000000  0.15568400  1
  Co  Co4  1  0.50160200  0.00000000  0.84431600  1
  Co  Co5  1  0.50000000  0.00000000  0.50000000  1
  Co  Co6  1  0.50000000  0.50000000  0.00000000  1
  Co  Co7  1  0.46562200  0.50000000  0.33103800  1
  Co  Co8  1  0.53437800  0.50000000  0.66896200  1
  Co  Co9  1  0.99839800  0.50000000  0.15568400  1
  Co  Co10  1  0.00160200  0.50000000  0.84431600  1
  Co  Co11  1  0.00000000  0.50000000  0.50000000  1
  O  O12  1  0.30221400  0.00000000  0.00674000  1
  O  O13  1  0.31693800  0.00000000  0.67530500  1
  O  O14  1  0.69778600  0.00000000  0.99326000  1
  O  O15  1  0.68306200  0.00000000  0.32469500  1
  O  O16  1  0.80221400  0.50000000  0.00674000  1
  O  O17  1  0.81693800  0.50000000  0.67530500  1
  O  O18  1  0.19778600  0.50000000  0.99326000  1
  O  O19  1  0.18306200  0.50000000  0.32469500  1
  F  F20  1  0.49497950  0.30657450  0.16781200  1
  F  F21  1  0.50502050  0.30657450  0.83218800  1
  F  F22  1  0.50000000  0.30675100  0.50000000  1
  F  F23  1  0.28072300  0.00000000  0.33011400  1
  F  F24  1  0.71927700  0.00000000  0.66988600  1
  F  F25  1  0.49497950  0.69342550  0.16781200  1
  F  F26  1  0.50502050  0.69342550  0.83218800  1
  F  F27  1  0.50000000  0.69324900  0.50000000  1
  F  F28  1  0.99497950  0.80657450  0.16781200  1
  F  F29  1  0.00502050  0.80657450  0.83218800  1
  F  F30  1  0.00000000  0.80675100  0.50000000  1
  F  F31  1  0.78072300  0.50000000  0.33011400  1
  F  F32  1  0.21927700  0.50000000  0.66988600  1
  F  F33  1  0.99497950  0.19342550  0.16781200  1
  F  F34  1  0.00502050  0.19342550  0.83218800  1
  F  F35  1  0.00000000  0.19324900  0.50000000  1
