# generated using pymatgen
data_Li7Si2(NiO4)3
_symmetry_space_group_name_H-M   'P 1'
_cell_length_a   4.87504571
_cell_length_b   8.48221794
_cell_length_c   9.74087096
_cell_angle_alpha   90.00000000
_cell_angle_beta   100.00323047
_cell_angle_gamma   90.00000000
_symmetry_Int_Tables_number   1
_chemical_formula_structural   Li7Si2(NiO4)3
_chemical_formula_sum   'Li14 Si4 Ni6 O24'
_cell_volume   396.67337350
_cell_formula_units_Z   2
loop_
 _symmetry_equiv_pos_site_id
 _symmetry_equiv_pos_as_xyz
  1  'x, y, z'
loop_
 _atom_site_type_symbol
 _atom_site_label
 _atom_site_symmetry_multiplicity
 _atom_site_fract_x
 _atom_site_fract_y
 _atom_site_fract_z
 _atom_site_occupancy
  Li  Li0  1  0.25775750  0.50000000  0.24670900  1
  Li  Li1  1  0.50000000  0.50000000  0.00000000  1
  Li  Li2  1  0.25785900  0.66274300  0.75394100  1
  Li  Li3  1  0.74214100  0.66274300  0.24605900  1
  Li  Li4  1  0.74224250  0.50000000  0.75329100  1
  Li  Li5  1  0.25785900  0.33725700  0.75394100  1
  Li  Li6  1  0.74214100  0.33725700  0.24605900  1
  Li  Li7  1  0.75775750  0.00000000  0.24670900  1
  Li  Li8  1  0.00000000  0.00000000  0.00000000  1
  Li  Li9  1  0.75785900  0.16274300  0.75394100  1
  Li  Li10  1  0.24214100  0.16274300  0.24605900  1
  Li  Li11  1  0.24224250  0.00000000  0.75329100  1
  Li  Li12  1  0.75785900  0.83725700  0.75394100  1
  Li  Li13  1  0.24214100  0.83725700  0.24605900  1
  Si  Si14  1  0.00000000  0.66679900  0.00000000  1
  Si  Si15  1  0.50000000  0.83320100  0.00000000  1
  Si  Si16  1  0.50000000  0.16679900  0.00000000  1
  Si  Si17  1  0.00000000  0.33320100  0.00000000  1
  Ni  Ni18  1  0.00000000  0.50000000  0.50000000  1
  Ni  Ni19  1  0.00000000  0.83284700  0.50000000  1
  Ni  Ni20  1  0.50000000  0.66715300  0.50000000  1
  Ni  Ni21  1  0.50000000  0.00000000  0.50000000  1
  Ni  Ni22  1  0.50000000  0.33284700  0.50000000  1
  Ni  Ni23  1  0.00000000  0.16715300  0.50000000  1
  O  O24  1  0.38359800  0.50000000  0.61850700  1
  O  O25  1  0.14559100  0.67199300  0.38646800  1
  O  O26  1  0.34980950  0.68640250  0.10405500  1
  O  O27  1  0.09199900  0.50000000  0.89566300  1
  O  O28  1  0.15019050  0.81359750  0.89594500  1
  O  O29  1  0.85440900  0.67199300  0.61353200  1
  O  O30  1  0.90800100  0.50000000  0.10433700  1
  O  O31  1  0.61640200  0.50000000  0.38149300  1
  O  O32  1  0.84980950  0.81359750  0.10405500  1
  O  O33  1  0.64559100  0.82800700  0.38646800  1
  O  O34  1  0.65019050  0.68640250  0.89594500  1
  O  O35  1  0.35440900  0.82800700  0.61353200  1
  O  O36  1  0.88359800  0.00000000  0.61850700  1
  O  O37  1  0.64559100  0.17199300  0.38646800  1
  O  O38  1  0.84980950  0.18640250  0.10405500  1
  O  O39  1  0.59199900  0.00000000  0.89566300  1
  O  O40  1  0.65019050  0.31359750  0.89594500  1
  O  O41  1  0.35440900  0.17199300  0.61353200  1
  O  O42  1  0.40800100  0.00000000  0.10433700  1
  O  O43  1  0.11640200  0.00000000  0.38149300  1
  O  O44  1  0.34980950  0.31359750  0.10405500  1
  O  O45  1  0.14559100  0.32800700  0.38646800  1
  O  O46  1  0.15019050  0.18640250  0.89594500  1
  O  O47  1  0.85440900  0.32800700  0.61353200  1
