# generated using pymatgen
data_Li3Mn2(CO3)4
_symmetry_space_group_name_H-M   'P 1'
_cell_length_a   7.16825400
_cell_length_b   9.97812300
_cell_length_c   8.63687793
_cell_angle_alpha   90.00000000
_cell_angle_beta   111.35383497
_cell_angle_gamma   90.00000000
_symmetry_Int_Tables_number   1
_chemical_formula_structural   Li3Mn2(CO3)4
_chemical_formula_sum   'Li6 Mn4 C8 O24'
_cell_volume   575.34945931
_cell_formula_units_Z   2
loop_
 _symmetry_equiv_pos_site_id
 _symmetry_equiv_pos_as_xyz
  1  'x, y, z'
loop_
 _atom_site_type_symbol
 _atom_site_label
 _atom_site_symmetry_multiplicity
 _atom_site_fract_x
 _atom_site_fract_y
 _atom_site_fract_z
 _atom_site_occupancy
  Li  Li0  1  0.67919300  0.81780700  0.81364400  1
  Li  Li1  1  0.73420400  0.91805100  0.40295400  1
  Li  Li2  1  0.23855700  0.58593800  0.90399700  1
  Li  Li3  1  0.32080700  0.31780700  0.18635600  1
  Li  Li4  1  0.26579600  0.41805100  0.59704600  1
  Li  Li5  1  0.76144300  0.08593800  0.09600300  1
  Mn  Mn6  1  0.71263100  0.63376800  0.19161300  1
  Mn  Mn7  1  0.28736900  0.13376800  0.80838700  1
  Mn  Mn8  1  0.20473000  0.85111100  0.67186900  1
  Mn  Mn9  1  0.79527000  0.35111100  0.32813100  1
  C  C10  1  0.51416200  0.88970900  0.03133100  1
  C  C11  1  0.48583800  0.38970900  0.96866900  1
  C  C12  1  0.47674500  0.52359500  0.38998000  1
  C  C13  1  0.52325500  0.02359500  0.61002000  1
  C  C14  1  0.97752400  0.98227600  0.88395300  1
  C  C15  1  0.02247600  0.48227600  0.11604700  1
  C  C16  1  0.00857800  0.60718000  0.53284500  1
  C  C17  1  0.99142200  0.10718000  0.46715500  1
  O  O18  1  0.64194800  0.85046500  0.17256500  1
  O  O19  1  0.52678200  0.51744800  0.99000300  1
  O  O20  1  0.55937300  0.30249100  0.08608000  1
  O  O21  1  0.44062700  0.80249100  0.91392000  1
  O  O22  1  0.47321800  0.01744800  0.00999700  1
  O  O23  1  0.35805200  0.35046500  0.82743500  1
  O  O24  1  0.63112600  0.04482500  0.52646400  1
  O  O25  1  0.52367200  0.62343000  0.31204000  1
  O  O26  1  0.53852800  0.40102100  0.37679000  1
  O  O27  1  0.46147200  0.90102100  0.62321000  1
  O  O28  1  0.47632800  0.12343000  0.68796000  1
  O  O29  1  0.15259400  0.46837600  0.04689800  1
  O  O30  1  0.36887400  0.54482500  0.47353600  1
  O  O31  1  0.00410800  0.88369400  0.79690400  1
  O  O32  1  0.07547400  0.09584200  0.90245100  1
  O  O33  1  0.92452600  0.59584200  0.09754900  1
  O  O34  1  0.99589200  0.38369400  0.20309600  1
  O  O35  1  0.84740600  0.96837600  0.95310200  1
  O  O36  1  0.14004800  0.64905300  0.67133000  1
  O  O37  1  0.02545400  0.98089500  0.48500800  1
  O  O38  1  0.07999200  0.19483500  0.58206800  1
  O  O39  1  0.92000800  0.69483500  0.41793200  1
  O  O40  1  0.97454600  0.48089500  0.51499200  1
  O  O41  1  0.85995200  0.14905300  0.32867000  1
