# generated using pymatgen
data_MnCu(PO4)2
_symmetry_space_group_name_H-M   'P 1'
_cell_length_a   5.16024965
_cell_length_b   6.04858905
_cell_length_c   10.10387707
_cell_angle_alpha   90.00000000
_cell_angle_beta   94.20642319
_cell_angle_gamma   90.00000000
_symmetry_Int_Tables_number   1
_chemical_formula_structural   MnCu(PO4)2
_chemical_formula_sum   'Mn2 Cu2 P4 O16'
_cell_volume   314.51502053
_cell_formula_units_Z   2
loop_
 _symmetry_equiv_pos_site_id
 _symmetry_equiv_pos_as_xyz
  1  'x, y, z'
loop_
 _atom_site_type_symbol
 _atom_site_label
 _atom_site_symmetry_multiplicity
 _atom_site_fract_x
 _atom_site_fract_y
 _atom_site_fract_z
 _atom_site_occupancy
  Mn  Mn0  1  0.08940350  0.25000000  0.30270850  1
  Mn  Mn1  1  0.91059650  0.75000000  0.69729150  1
  Cu  Cu2  1  0.34982050  0.25000000  0.81329450  1
  Cu  Cu3  1  0.65017950  0.75000000  0.18670550  1
  P  P4  1  0.91380750  0.25000000  0.60345150  1
  P  P5  1  0.08619250  0.75000000  0.39654850  1
  P  P6  1  0.44444050  0.75000000  0.88715550  1
  P  P7  1  0.55555950  0.25000000  0.11284450  1
  O  O8  1  0.12036950  0.75000000  0.54960250  1
  O  O9  1  0.87963050  0.25000000  0.45039750  1
  O  O10  1  0.21275050  0.25000000  0.63926650  1
  O  O11  1  0.78724950  0.75000000  0.36073350  1
  O  O12  1  0.73189750  0.75000000  0.85923150  1
  O  O13  1  0.26810250  0.25000000  0.14076850  1
  O  O14  1  0.58116850  0.25000000  0.96106450  1
  O  O15  1  0.41883150  0.75000000  0.03893550  1
  O  O16  1  0.78040850  0.04665500  0.66181550  1
  O  O17  1  0.78040850  0.45334500  0.66181550  1
  O  O18  1  0.21959150  0.54665500  0.33818450  1
  O  O19  1  0.21959150  0.95334500  0.33818450  1
  O  O20  1  0.27949950  0.94412300  0.82086050  1
  O  O21  1  0.27949950  0.55587700  0.82086050  1
  O  O22  1  0.72050050  0.05587700  0.17913950  1
  O  O23  1  0.72050050  0.44412300  0.17913950  1
