# generated using pymatgen
data_Li2Mn3GaO8
_symmetry_space_group_name_H-M   'P 1'
_cell_length_a   5.94435680
_cell_length_b   5.94435680
_cell_length_c   14.42812875
_cell_angle_alpha   90.00000000
_cell_angle_beta   90.00000000
_cell_angle_gamma   120.00000000
_symmetry_Int_Tables_number   1
_chemical_formula_structural   Li2Mn3GaO8
_chemical_formula_sum   'Li6 Mn9 Ga3 O24'
_cell_volume   441.51999864
_cell_formula_units_Z   3
loop_
 _symmetry_equiv_pos_site_id
 _symmetry_equiv_pos_as_xyz
  1  'x, y, z'
loop_
 _atom_site_type_symbol
 _atom_site_label
 _atom_site_symmetry_multiplicity
 _atom_site_fract_x
 _atom_site_fract_y
 _atom_site_fract_z
 _atom_site_occupancy
  Li  Li0  1  0.33333333  0.66666667  0.78828100  1
  Li  Li1  1  0.33333333  0.66666667  0.54505233  1
  Li  Li2  1  0.00000000  0.00000000  0.12161433  1
  Li  Li3  1  0.00000000  0.00000000  0.87838567  1
  Li  Li4  1  0.66666667  0.33333333  0.45494767  1
  Li  Li5  1  0.66666667  0.33333333  0.21171900  1
  Mn  Mn6  1  0.16666667  0.33333333  0.33333333  1
  Mn  Mn7  1  0.66666667  0.83333333  0.33333333  1
  Mn  Mn8  1  0.50000000  0.50000000  0.00000000  1
  Mn  Mn9  1  0.83333333  0.66666667  0.66666667  1
  Mn  Mn10  1  0.33333333  0.16666667  0.66666667  1
  Mn  Mn11  1  0.16666667  0.83333333  0.33333333  1
  Mn  Mn12  1  0.50000000  0.00000000  0.00000000  1
  Mn  Mn13  1  0.00000000  0.50000000  0.00000000  1
  Mn  Mn14  1  0.83333333  0.16666667  0.66666667  1
  Ga  Ga15  1  0.33333333  0.66666667  0.16666667  1
  Ga  Ga16  1  1.00000000  1.00000000  0.50000000  1
  Ga  Ga17  1  0.66666667  0.33333333  0.83333333  1
  O  O18  1  0.33333333  0.66666667  0.92730833  1
  O  O19  1  0.18411200  0.81588800  0.07623200  1
  O  O20  1  0.18411200  0.36822400  0.07623200  1
  O  O21  1  0.63177600  0.81588800  0.07623200  1
  O  O22  1  0.48255467  0.96510933  0.25710133  1
  O  O23  1  0.03489067  0.51744533  0.25710133  1
  O  O24  1  0.48255467  0.51744533  0.25710133  1
  O  O25  1  0.33333333  0.66666667  0.40602500  1
  O  O26  1  0.00000000  0.00000000  0.26064167  1
  O  O27  1  0.85077867  0.14922133  0.40956533  1
  O  O28  1  0.85077867  0.70155733  0.40956533  1
  O  O29  1  0.29844267  0.14922133  0.40956533  1
  O  O30  1  0.14922133  0.29844267  0.59043467  1
  O  O31  1  0.70155733  0.85077867  0.59043467  1
  O  O32  1  0.14922133  0.85077867  0.59043467  1
  O  O33  1  0.00000000  0.00000000  0.73935833  1
  O  O34  1  0.66666667  0.33333333  0.59397500  1
  O  O35  1  0.51744533  0.48255467  0.74289867  1
  O  O36  1  0.51744533  0.03489067  0.74289867  1
  O  O37  1  0.96510933  0.48255467  0.74289867  1
  O  O38  1  0.81588800  0.63177600  0.92376800  1
  O  O39  1  0.36822400  0.18411200  0.92376800  1
  O  O40  1  0.81588800  0.18411200  0.92376800  1
  O  O41  1  0.66666667  0.33333333  0.07269167  1
