# generated using pymatgen
data_VFe3Ni2(PO4)6
_symmetry_space_group_name_H-M   'P 1'
_cell_length_a   8.59655145
_cell_length_b   8.59655145
_cell_length_c   20.47818056
_cell_angle_alpha   90.00000000
_cell_angle_beta   90.00000000
_cell_angle_gamma   120.00000000
_symmetry_Int_Tables_number   1
_chemical_formula_structural   VFe3Ni2(PO4)6
_chemical_formula_sum   'V3 Fe9 Ni6 P18 O72'
_cell_volume   1310.60111615
_cell_formula_units_Z   3
loop_
 _symmetry_equiv_pos_site_id
 _symmetry_equiv_pos_as_xyz
  1  'x, y, z'
loop_
 _atom_site_type_symbol
 _atom_site_label
 _atom_site_symmetry_multiplicity
 _atom_site_fract_x
 _atom_site_fract_y
 _atom_site_fract_z
 _atom_site_occupancy
  V  V0  1  0.33333333  0.66666667  0.52251567  1
  V  V1  1  0.00000000  0.00000000  0.85584900  1
  V  V2  1  0.66666667  0.33333333  0.18918233  1
  Fe  Fe3  1  0.33333333  0.66666667  0.02260433  1
  Fe  Fe4  1  0.33333333  0.66666667  0.81184000  1
  Fe  Fe5  1  0.33333333  0.66666667  0.30988000  1
  Fe  Fe6  1  0.00000000  0.00000000  0.35593767  1
  Fe  Fe7  1  0.00000000  0.00000000  0.14517333  1
  Fe  Fe8  1  0.00000000  0.00000000  0.64321333  1
  Fe  Fe9  1  0.66666667  0.33333333  0.68927100  1
  Fe  Fe10  1  0.66666667  0.33333333  0.47850667  1
  Fe  Fe11  1  0.66666667  0.33333333  0.97654667  1
  Ni  Ni12  1  0.33333333  0.66666667  0.66834867  1
  Ni  Ni13  1  0.33333333  0.66666667  0.16806700  1
  Ni  Ni14  1  0.00000000  0.00000000  0.00168200  1
  Ni  Ni15  1  0.00000000  0.00000000  0.50140033  1
  Ni  Ni16  1  0.66666667  0.33333333  0.33501533  1
  Ni  Ni17  1  0.66666667  0.33333333  0.83473367  1
  P  P18  1  0.96353567  0.62918533  0.08243633  1
  P  P19  1  0.37081467  0.33435033  0.08243633  1
  P  P20  1  0.66564967  0.03646433  0.08243633  1
  P  P21  1  0.99891333  0.29628667  0.24934667  1
  P  P22  1  0.29737333  0.00108667  0.24934667  1
  P  P23  1  0.70371333  0.70262667  0.24934667  1
  P  P24  1  0.63020233  0.96251867  0.41576967  1
  P  P25  1  0.03748133  0.66768367  0.41576967  1
  P  P26  1  0.33231633  0.36979767  0.41576967  1
  P  P27  1  0.66558000  0.62962000  0.58268000  1
  P  P28  1  0.96404000  0.33442000  0.58268000  1
  P  P29  1  0.37038000  0.03596000  0.58268000  1
  P  P30  1  0.29686900  0.29585200  0.74910300  1
  P  P31  1  0.70414800  0.00101700  0.74910300  1
  P  P32  1  0.99898300  0.70313100  0.74910300  1
  P  P33  1  0.33224667  0.96295333  0.91601333  1
  P  P34  1  0.63070667  0.66775333  0.91601333  1
  P  P35  1  0.03704667  0.36929333  0.91601333  1
  O  O36  1  0.14374900  0.67903400  0.35562700  1
  O  O37  1  0.32096600  0.46471500  0.35562700  1
  O  O38  1  0.53528500  0.85625100  0.35562700  1
  O  O39  1  0.98268133  0.81655867  0.07557767  1
  O  O40  1  0.50994100  0.85454700  0.47706100  1
  O  O41  1  0.14676100  0.64368500  0.09565500  1
  O  O42  1  0.18344133  0.16612267  0.07557767  1
  O  O43  1  0.35631500  0.50307600  0.09565500  1
  O  O44  1  0.98737767  0.19230533  0.18799533  1
  O  O45  1  0.49692400  0.85323900  0.09565500  1
  O  O46  1  0.82783700  0.32075400  0.25561100  1
  O  O47  1  0.20492767  0.01262233  0.18799533  1
  O  O48  1  0.14545300  0.65539400  0.47706100  1
  O  O49  1  0.83387733  0.01731867  0.07557767  1
  O  O50  1  0.16325300  0.48703500  0.24124100  1
  O  O51  1  0.34460600  0.49005900  0.47706100  1
  O  O52  1  0.32378200  0.83674700  0.24124100  1
  O  O53  1  0.49291700  0.17216300  0.25561100  1
  O  O54  1  0.51296500  0.67621800  0.24124100  1
  O  O55  1  0.80769467  0.79507233  0.18799533  1
  O  O56  1  0.67924600  0.50708300  0.25561100  1
  O  O57  1  0.13430267  0.46536933  0.97836433  1
  O  O58  1  0.33106667  0.86569733  0.97836433  1
  O  O59  1  0.53463067  0.66893333  0.97836433  1
  O  O60  1  0.81041567  0.01236733  0.68896033  1
  O  O61  1  0.98763267  0.79804833  0.68896033  1
  O  O62  1  0.20195167  0.18958433  0.68896033  1
  O  O63  1  0.64934800  0.14989200  0.40891100  1
  O  O64  1  0.17660767  0.18788033  0.81039433  1
  O  O65  1  0.81342767  0.97701833  0.42898833  1
  O  O66  1  0.85010800  0.49945600  0.40891100  1
  O  O67  1  0.02298167  0.83640933  0.42898833  1
  O  O68  1  0.65404433  0.52563867  0.52132867  1
  O  O69  1  0.16359067  0.18657233  0.42898833  1
  O  O70  1  0.49450367  0.65408733  0.58894433  1
  O  O71  1  0.87159433  0.34595567  0.52132867  1
  O  O72  1  0.81211967  0.98872733  0.81039433  1
  O  O73  1  0.50054400  0.35065200  0.40891100  1
  O  O74  1  0.82991967  0.82036833  0.57457433  1
  O  O75  1  0.01127267  0.82339233  0.81039433  1
  O  O76  1  0.99044867  0.17008033  0.57457433  1
  O  O77  1  0.15958367  0.50549633  0.58894433  1
  O  O78  1  0.17963167  0.00955133  0.57457433  1
  O  O79  1  0.47436133  0.12840567  0.52132867  1
  O  O80  1  0.34591267  0.84041633  0.58894433  1
  O  O81  1  0.80096933  0.79870267  0.31169767  1
  O  O82  1  0.99773333  0.19903067  0.31169767  1
  O  O83  1  0.20129733  0.00226667  0.31169767  1
  O  O84  1  0.47708233  0.34570067  0.02229367  1
  O  O85  1  0.65429933  0.13138167  0.02229367  1
  O  O86  1  0.86861833  0.52291767  0.02229367  1
  O  O87  1  0.31601467  0.48322533  0.74224433  1
  O  O88  1  0.84327433  0.52121367  0.14372767  1
  O  O89  1  0.48009433  0.31035167  0.76232167  1
  O  O90  1  0.51677467  0.83278933  0.74224433  1
  O  O91  1  0.68964833  0.16974267  0.76232167  1
  O  O92  1  0.32071100  0.85897200  0.85466200  1
  O  O93  1  0.83025733  0.51990567  0.76232167  1
  O  O94  1  0.16117033  0.98742067  0.92227767  1
  O  O95  1  0.53826100  0.67928900  0.85466200  1
  O  O96  1  0.47878633  0.32206067  0.14372767  1
  O  O97  1  0.16721067  0.68398533  0.74224433  1
  O  O98  1  0.49658633  0.15370167  0.90790767  1
  O  O99  1  0.67793933  0.15672567  0.14372767  1
  O  O100  1  0.65711533  0.50341367  0.90790767  1
  O  O101  1  0.82625033  0.83882967  0.92227767  1
  O  O102  1  0.84629833  0.34288467  0.90790767  1
  O  O103  1  0.14102800  0.46173900  0.85466200  1
  O  O104  1  0.01257933  0.17374967  0.92227767  1
  O  O105  1  0.46763600  0.13203600  0.64503100  1
  O  O106  1  0.66440000  0.53236400  0.64503100  1
  O  O107  1  0.86796400  0.33560000  0.64503100  1
