# generated using pymatgen
data_LiV2OF5
_symmetry_space_group_name_H-M   'P 1'
_cell_length_a   4.72457137
_cell_length_b   4.72466609
_cell_length_c   10.40833192
_cell_angle_alpha   90.00000000
_cell_angle_beta   116.23818453
_cell_angle_gamma   90.00000000
_symmetry_Int_Tables_number   1
_chemical_formula_structural   LiV2OF5
_chemical_formula_sum   'Li2 V4 O2 F10'
_cell_volume   208.39612872
_cell_formula_units_Z   2
loop_
 _symmetry_equiv_pos_site_id
 _symmetry_equiv_pos_as_xyz
  1  'x, y, z'
loop_
 _atom_site_type_symbol
 _atom_site_label
 _atom_site_symmetry_multiplicity
 _atom_site_fract_x
 _atom_site_fract_y
 _atom_site_fract_z
 _atom_site_occupancy
  Li  Li0  1  0.01292000  0.24929350  0.00535400  1
  Li  Li1  1  0.01292000  0.75070650  0.50535400  1
  V  V2  1  0.64796300  0.22829750  0.66526200  1
  V  V3  1  0.33294500  0.76011050  0.82270800  1
  V  V4  1  0.64796300  0.77170250  0.16526200  1
  V  V5  1  0.33294500  0.23988950  0.32270800  1
  O  O6  1  0.38376800  0.04955050  0.17914700  1
  O  O7  1  0.38376800  0.95044950  0.67914700  1
  F  F8  1  0.69659300  0.94666950  0.00031800  1
  F  F9  1  0.69659300  0.05333050  0.50031800  1
  F  F10  1  0.96037400  0.45999650  0.17043100  1
  F  F11  1  0.96037400  0.54000350  0.67043100  1
  F  F12  1  0.03022100  0.95125950  0.33206200  1
  F  F13  1  0.03022100  0.04874050  0.83206200  1
  F  F14  1  0.62947700  0.55236950  0.32987500  1
  F  F15  1  0.62947700  0.44763050  0.82987500  1
  F  F16  1  0.30627700  0.43496550  0.49503000  1
  F  F17  1  0.30627700  0.56503450  0.99503000  1
