# generated using pymatgen
data_Na4Mn5O12
_symmetry_space_group_name_H-M   'P 1'
_cell_length_a   8.66556200
_cell_length_b   8.59622400
_cell_length_c   13.63440269
_cell_angle_alpha   90.00000000
_cell_angle_beta   105.32943851
_cell_angle_gamma   90.00000000
_symmetry_Int_Tables_number   1
_chemical_formula_structural   Na4Mn5O12
_chemical_formula_sum   'Na16 Mn20 O48'
_cell_volume   979.50702240
_cell_formula_units_Z   4
loop_
 _symmetry_equiv_pos_site_id
 _symmetry_equiv_pos_as_xyz
  1  'x, y, z'
loop_
 _atom_site_type_symbol
 _atom_site_label
 _atom_site_symmetry_multiplicity
 _atom_site_fract_x
 _atom_site_fract_y
 _atom_site_fract_z
 _atom_site_occupancy
  Na  Na0  1  0.83227500  0.36279800  0.92263400  1
  Na  Na1  1  0.00000000  0.11180800  0.75000000  1
  Na  Na2  1  0.16772500  0.36279800  0.57736600  1
  Na  Na3  1  0.00000000  0.00000000  0.50000000  1
  Na  Na4  1  0.83227500  0.63720200  0.42263400  1
  Na  Na5  1  0.00000000  0.88819200  0.25000000  1
  Na  Na6  1  0.16772500  0.63720200  0.07736600  1
  Na  Na7  1  0.00000000  0.00000000  0.00000000  1
  Na  Na8  1  0.33227500  0.86279800  0.92263400  1
  Na  Na9  1  0.50000000  0.61180800  0.75000000  1
  Na  Na10  1  0.66772500  0.86279800  0.57736600  1
  Na  Na11  1  0.50000000  0.50000000  0.50000000  1
  Na  Na12  1  0.33227500  0.13720200  0.42263400  1
  Na  Na13  1  0.50000000  0.38819200  0.25000000  1
  Na  Na14  1  0.66772500  0.13720200  0.07736600  1
  Na  Na15  1  0.50000000  0.50000000  0.00000000  1
  Mn  Mn16  1  0.15943750  0.48422750  0.83193800  1
  Mn  Mn17  1  0.90713700  0.73681400  0.83105300  1
  Mn  Mn18  1  0.84056250  0.48422750  0.66806200  1
  Mn  Mn19  1  0.09286300  0.73681400  0.66894700  1
  Mn  Mn20  1  0.25000000  0.75000000  0.50000000  1
  Mn  Mn21  1  0.15943750  0.51577250  0.33193800  1
  Mn  Mn22  1  0.90713700  0.26318600  0.33105300  1
  Mn  Mn23  1  0.84056250  0.51577250  0.16806200  1
  Mn  Mn24  1  0.09286300  0.26318600  0.16894700  1
  Mn  Mn25  1  0.75000000  0.75000000  0.00000000  1
  Mn  Mn26  1  0.65943750  0.98422750  0.83193800  1
  Mn  Mn27  1  0.40713700  0.23681400  0.83105300  1
  Mn  Mn28  1  0.34056250  0.98422750  0.66806200  1
  Mn  Mn29  1  0.59286300  0.23681400  0.66894700  1
  Mn  Mn30  1  0.75000000  0.25000000  0.50000000  1
  Mn  Mn31  1  0.65943750  0.01577250  0.33193800  1
  Mn  Mn32  1  0.40713700  0.76318600  0.33105300  1
  Mn  Mn33  1  0.34056250  0.01577250  0.16806200  1
  Mn  Mn34  1  0.59286300  0.76318600  0.16894700  1
  Mn  Mn35  1  0.25000000  0.25000000  0.00000000  1
  O  O36  1  0.18498650  0.25197050  0.84824100  1
  O  O37  1  0.37307000  0.45510500  0.82155000  1
  O  O38  1  0.92591650  0.50445550  0.81839600  1
  O  O39  1  0.13480300  0.71460000  0.82220000  1
  O  O40  1  0.07408350  0.50445550  0.68160400  1
  O  O41  1  0.86519700  0.71460000  0.67780000  1
  O  O42  1  0.81501350  0.25197050  0.65175900  1
  O  O43  1  0.62693000  0.45510500  0.67845000  1
  O  O44  1  0.76885200  0.47081300  0.52585800  1
  O  O45  1  0.04297800  0.74376800  0.52748900  1
  O  O46  1  0.95702200  0.25623200  0.47251100  1
  O  O47  1  0.23114800  0.52918700  0.47414200  1
  O  O48  1  0.37307000  0.54489500  0.32155000  1
  O  O49  1  0.18498650  0.74802950  0.34824100  1
  O  O50  1  0.13480300  0.28540000  0.32220000  1
  O  O51  1  0.92591650  0.49554450  0.31839600  1
  O  O52  1  0.07408350  0.49554450  0.18160400  1
  O  O53  1  0.86519700  0.28540000  0.17780000  1
  O  O54  1  0.81501350  0.74802950  0.15175900  1
  O  O55  1  0.62693000  0.54489500  0.17845000  1
  O  O56  1  0.76885200  0.52918700  0.02585800  1
  O  O57  1  0.04297800  0.25623200  0.02748900  1
  O  O58  1  0.23114800  0.47081300  0.97414200  1
  O  O59  1  0.95702200  0.74376800  0.97251100  1
  O  O60  1  0.68498650  0.75197050  0.84824100  1
  O  O61  1  0.87307000  0.95510500  0.82155000  1
  O  O62  1  0.42591650  0.00445550  0.81839600  1
  O  O63  1  0.63480300  0.21460000  0.82220000  1
  O  O64  1  0.57408350  0.00445550  0.68160400  1
  O  O65  1  0.36519700  0.21460000  0.67780000  1
  O  O66  1  0.31501350  0.75197050  0.65175900  1
  O  O67  1  0.12693000  0.95510500  0.67845000  1
  O  O68  1  0.26885200  0.97081300  0.52585800  1
  O  O69  1  0.54297800  0.24376800  0.52748900  1
  O  O70  1  0.45702200  0.75623200  0.47251100  1
  O  O71  1  0.73114800  0.02918700  0.47414200  1
  O  O72  1  0.87307000  0.04489500  0.32155000  1
  O  O73  1  0.68498650  0.24802950  0.34824100  1
  O  O74  1  0.63480300  0.78540000  0.32220000  1
  O  O75  1  0.42591650  0.99554450  0.31839600  1
  O  O76  1  0.57408350  0.99554450  0.18160400  1
  O  O77  1  0.36519700  0.78540000  0.17780000  1
  O  O78  1  0.31501350  0.24802950  0.15175900  1
  O  O79  1  0.12693000  0.04489500  0.17845000  1
  O  O80  1  0.26885200  0.02918700  0.02585800  1
  O  O81  1  0.54297800  0.75623200  0.02748900  1
  O  O82  1  0.73114800  0.97081300  0.97414200  1
  O  O83  1  0.45702200  0.24376800  0.97251100  1
