# generated using pymatgen
data_Li4Cr3NiO8
_symmetry_space_group_name_H-M   'P 1'
_cell_length_a   10.17453681
_cell_length_b   5.92067815
_cell_length_c   5.13729986
_cell_angle_alpha   90.00000000
_cell_angle_beta   109.54288342
_cell_angle_gamma   90.00000000
_symmetry_Int_Tables_number   1
_chemical_formula_structural   Li4Cr3NiO8
_chemical_formula_sum   'Li8 Cr6 Ni2 O16'
_cell_volume   291.64351550
_cell_formula_units_Z   2
loop_
 _symmetry_equiv_pos_site_id
 _symmetry_equiv_pos_as_xyz
  1  'x, y, z'
loop_
 _atom_site_type_symbol
 _atom_site_label
 _atom_site_symmetry_multiplicity
 _atom_site_fract_x
 _atom_site_fract_y
 _atom_site_fract_z
 _atom_site_occupancy
  Li  Li0  1  0.24894050  0.50000000  0.00130300  1
  Li  Li1  1  0.75105950  0.50000000  0.99869700  1
  Li  Li2  1  0.00000000  0.25640400  0.00000000  1
  Li  Li3  1  0.00000000  0.74359600  0.00000000  1
  Li  Li4  1  0.74894050  0.00000000  0.00130300  1
  Li  Li5  1  0.25105950  0.00000000  0.99869700  1
  Li  Li6  1  0.50000000  0.75640400  0.00000000  1
  Li  Li7  1  0.50000000  0.24359600  0.00000000  1
  Cr  Cr8  1  0.50000000  0.50000000  0.50000000  1
  Cr  Cr9  1  0.25000000  0.75000000  0.50000000  1
  Cr  Cr10  1  0.25000000  0.25000000  0.50000000  1
  Cr  Cr11  1  0.00000000  0.00000000  0.50000000  1
  Cr  Cr12  1  0.75000000  0.25000000  0.50000000  1
  Cr  Cr13  1  0.75000000  0.75000000  0.50000000  1
  Ni  Ni14  1  0.00000000  0.50000000  0.50000000  1
  Ni  Ni15  1  0.50000000  0.00000000  0.50000000  1
  O  O16  1  0.13094750  0.50000000  0.27188400  1
  O  O17  1  0.86905250  0.50000000  0.72811600  1
  O  O18  1  0.62786050  0.50000000  0.27283100  1
  O  O19  1  0.37213950  0.50000000  0.72716900  1
  O  O20  1  0.11990100  0.76629800  0.72568700  1
  O  O21  1  0.11990100  0.23370200  0.72568700  1
  O  O22  1  0.38009900  0.73370200  0.27431300  1
  O  O23  1  0.38009900  0.26629800  0.27431300  1
  O  O24  1  0.63094750  0.00000000  0.27188400  1
  O  O25  1  0.36905250  0.00000000  0.72811600  1
  O  O26  1  0.12786050  0.00000000  0.27283100  1
  O  O27  1  0.87213950  0.00000000  0.72716900  1
  O  O28  1  0.61990100  0.26629800  0.72568700  1
  O  O29  1  0.61990100  0.73370200  0.72568700  1
  O  O30  1  0.88009900  0.23370200  0.27431300  1
  O  O31  1  0.88009900  0.76629800  0.27431300  1
