# generated using pymatgen
data_Li7Fe3(WO8)2
_symmetry_space_group_name_H-M   'P 1'
_cell_length_a   10.29459800
_cell_length_b   5.86338400
_cell_length_c   9.71436688
_cell_angle_alpha   90.00000000
_cell_angle_beta   90.70524123
_cell_angle_gamma   90.00000000
_symmetry_Int_Tables_number   1
_chemical_formula_structural   Li7Fe3(WO8)2
_chemical_formula_sum   'Li14 Fe6 W4 O32'
_cell_volume   586.32624090
_cell_formula_units_Z   2
loop_
 _symmetry_equiv_pos_site_id
 _symmetry_equiv_pos_as_xyz
  1  'x, y, z'
loop_
 _atom_site_type_symbol
 _atom_site_label
 _atom_site_symmetry_multiplicity
 _atom_site_fract_x
 _atom_site_fract_y
 _atom_site_fract_z
 _atom_site_occupancy
  Li  Li0  1  0.58015450  0.75653750  0.78971300  1
  Li  Li1  1  0.67307000  0.00000000  0.09218800  1
  Li  Li2  1  0.99779700  0.00000000  0.00385200  1
  Li  Li3  1  0.50066600  0.50000000  0.51507700  1
  Li  Li4  1  0.58015450  0.24346250  0.78971300  1
  Li  Li5  1  0.67019800  0.50000000  0.28841900  1
  Li  Li6  1  0.83324800  0.50000000  0.59690500  1
  Li  Li7  1  0.08015450  0.25653750  0.78971300  1
  Li  Li8  1  0.17307000  0.50000000  0.09218800  1
  Li  Li9  1  0.49779700  0.50000000  0.00385200  1
  Li  Li10  1  0.00066600  0.00000000  0.51507700  1
  Li  Li11  1  0.08015450  0.74346250  0.78971300  1
  Li  Li12  1  0.17019800  0.00000000  0.28841900  1
  Li  Li13  1  0.33324800  0.00000000  0.59690500  1
  Fe  Fe14  1  0.82836500  0.00000000  0.78234400  1
  Fe  Fe15  1  0.91349250  0.25113150  0.28538700  1
  Fe  Fe16  1  0.91349250  0.74886850  0.28538700  1
  Fe  Fe17  1  0.32836500  0.50000000  0.78234400  1
  Fe  Fe18  1  0.41349250  0.75113150  0.28538700  1
  Fe  Fe19  1  0.41349250  0.24886850  0.28538700  1
  W  W20  1  0.65034100  0.00000000  0.52036800  1
  W  W21  1  0.82794800  0.50000000  0.00889900  1
  W  W22  1  0.15034100  0.50000000  0.52036800  1
  W  W23  1  0.32794800  0.00000000  0.00889900  1
  O  O24  1  0.58429850  0.75659950  0.40986600  1
  O  O25  1  0.51504700  0.00000000  0.64161300  1
  O  O26  1  0.68390600  0.00000000  0.88430200  1
  O  O27  1  0.98375600  0.00000000  0.70288100  1
  O  O28  1  0.99205200  0.00000000  0.19725400  1
  O  O29  1  0.58429850  0.24340050  0.40986600  1
  O  O30  1  0.74761650  0.78404050  0.64332100  1
  O  O31  1  0.74761650  0.21595950  0.64332100  1
  O  O32  1  0.66856500  0.50000000  0.92513100  1
  O  O33  1  0.83441000  0.00000000  0.40168100  1
  O  O34  1  0.77024550  0.27323950  0.15332700  1
  O  O35  1  0.77024550  0.72676050  0.15332700  1
  O  O36  1  0.84706100  0.50000000  0.38635800  1
  O  O37  1  0.90866350  0.25796250  0.91177400  1
  O  O38  1  0.98524700  0.50000000  0.15830000  1
  O  O39  1  0.90866350  0.74203750  0.91177400  1
  O  O40  1  0.08429850  0.25659950  0.40986600  1
  O  O41  1  0.01504700  0.50000000  0.64161300  1
  O  O42  1  0.18390600  0.50000000  0.88430200  1
  O  O43  1  0.48375600  0.50000000  0.70288100  1
  O  O44  1  0.49205200  0.50000000  0.19725400  1
  O  O45  1  0.08429850  0.74340050  0.40986600  1
  O  O46  1  0.24761650  0.28404050  0.64332100  1
  O  O47  1  0.24761650  0.71595950  0.64332100  1
  O  O48  1  0.16856500  0.00000000  0.92513100  1
  O  O49  1  0.33441000  0.50000000  0.40168100  1
  O  O50  1  0.27024550  0.77323950  0.15332700  1
  O  O51  1  0.27024550  0.22676050  0.15332700  1
  O  O52  1  0.34706100  0.00000000  0.38635800  1
  O  O53  1  0.40866350  0.75796250  0.91177400  1
  O  O54  1  0.48524700  0.00000000  0.15830000  1
  O  O55  1  0.40866350  0.24203750  0.91177400  1
