# generated using pymatgen
data_Li4Ti3Cr2Co3O16
_symmetry_space_group_name_H-M   'P 1'
_cell_length_a   10.11722200
_cell_length_b   5.89559400
_cell_length_c   9.57533462
_cell_angle_alpha   90.00000000
_cell_angle_beta   90.52345999
_cell_angle_gamma   90.00000000
_symmetry_Int_Tables_number   1
_chemical_formula_structural   Li4Ti3Cr2Co3O16
_chemical_formula_sum   'Li8 Ti6 Cr4 Co6 O32'
_cell_volume   571.11646698
_cell_formula_units_Z   2
loop_
 _symmetry_equiv_pos_site_id
 _symmetry_equiv_pos_as_xyz
  1  'x, y, z'
loop_
 _atom_site_type_symbol
 _atom_site_label
 _atom_site_symmetry_multiplicity
 _atom_site_fract_x
 _atom_site_fract_y
 _atom_site_fract_z
 _atom_site_occupancy
  Li  Li0  1  0.66925800  0.00000000  0.89041600  1
  Li  Li1  1  0.98902300  0.00000000  0.99412600  1
  Li  Li2  1  0.99333900  0.00000000  0.49838400  1
  Li  Li3  1  0.33628800  0.00000000  0.39674900  1
  Li  Li4  1  0.16925800  0.50000000  0.89041600  1
  Li  Li5  1  0.48902300  0.50000000  0.99412600  1
  Li  Li6  1  0.49333900  0.50000000  0.49838400  1
  Li  Li7  1  0.83628800  0.50000000  0.39674900  1
  Ti  Ti8  1  0.58654000  0.24807500  0.21448700  1
  Ti  Ti9  1  0.58654000  0.75192500  0.21448700  1
  Ti  Ti10  1  0.17203100  0.00000000  0.71681700  1
  Ti  Ti11  1  0.08654000  0.74807500  0.21448700  1
  Ti  Ti12  1  0.08654000  0.25192500  0.21448700  1
  Ti  Ti13  1  0.67203100  0.50000000  0.71681700  1
  Cr  Cr14  1  0.66769800  0.00000000  0.48546100  1
  Cr  Cr15  1  0.33585400  0.00000000  0.98246400  1
  Cr  Cr16  1  0.16769800  0.50000000  0.48546100  1
  Cr  Cr17  1  0.83585400  0.50000000  0.98246400  1
  Co  Co18  1  0.83073700  0.00000000  0.21200700  1
  Co  Co19  1  0.41807150  0.24569250  0.70936900  1
  Co  Co20  1  0.41807150  0.75430750  0.70936900  1
  Co  Co21  1  0.33073700  0.50000000  0.21200700  1
  Co  Co22  1  0.91807150  0.74569250  0.70936900  1
  Co  Co23  1  0.91807150  0.25430750  0.70936900  1
  O  O24  1  0.58404650  0.25470950  0.60092600  1
  O  O25  1  0.51985600  0.00000000  0.33693400  1
  O  O26  1  0.66746500  0.00000000  0.10538600  1
  O  O27  1  0.99608000  0.00000000  0.31041300  1
  O  O28  1  0.99860500  0.00000000  0.80777100  1
  O  O29  1  0.58404650  0.74529050  0.60092600  1
  O  O30  1  0.73844650  0.22298650  0.34194300  1
  O  O31  1  0.73844650  0.77701350  0.34194300  1
  O  O32  1  0.16484300  0.00000000  0.10476300  1
  O  O33  1  0.83303400  0.00000000  0.60621700  1
  O  O34  1  0.25710400  0.21865600  0.84148800  1
  O  O35  1  0.25710400  0.78134400  0.84148800  1
  O  O36  1  0.33061400  0.00000000  0.60148100  1
  O  O37  1  0.42129450  0.25022350  0.10292300  1
  O  O38  1  0.48105000  0.00000000  0.83652400  1
  O  O39  1  0.42129450  0.74977650  0.10292300  1
  O  O40  1  0.08404650  0.75470950  0.60092600  1
  O  O41  1  0.01985600  0.50000000  0.33693400  1
  O  O42  1  0.16746500  0.50000000  0.10538600  1
  O  O43  1  0.49608000  0.50000000  0.31041300  1
  O  O44  1  0.49860500  0.50000000  0.80777100  1
  O  O45  1  0.08404650  0.24529050  0.60092600  1
  O  O46  1  0.23844650  0.72298650  0.34194300  1
  O  O47  1  0.23844650  0.27701350  0.34194300  1
  O  O48  1  0.66484300  0.50000000  0.10476300  1
  O  O49  1  0.33303400  0.50000000  0.60621700  1
  O  O50  1  0.75710400  0.71865600  0.84148800  1
  O  O51  1  0.75710400  0.28134400  0.84148800  1
  O  O52  1  0.83061400  0.50000000  0.60148100  1
  O  O53  1  0.92129450  0.75022350  0.10292300  1
  O  O54  1  0.98105000  0.50000000  0.83652400  1
  O  O55  1  0.92129450  0.24977650  0.10292300  1
