# generated using pymatgen
data_Li4MnNb(WO6)2
_symmetry_space_group_name_H-M   'P 1'
_cell_length_a   5.13673155
_cell_length_b   5.44163297
_cell_length_c   7.70338942
_cell_angle_alpha   94.67412726
_cell_angle_beta   90.72336347
_cell_angle_gamma   90.12664835
_symmetry_Int_Tables_number   1
_chemical_formula_structural   Li4MnNb(WO6)2
_chemical_formula_sum   'Li4 Mn1 Nb1 W2 O12'
_cell_volume   214.59238896
_cell_formula_units_Z   1
loop_
 _symmetry_equiv_pos_site_id
 _symmetry_equiv_pos_as_xyz
  1  'x, y, z'
loop_
 _atom_site_type_symbol
 _atom_site_label
 _atom_site_symmetry_multiplicity
 _atom_site_fract_x
 _atom_site_fract_y
 _atom_site_fract_z
 _atom_site_occupancy
  Li  Li0  1  0.00321200  0.40601700  0.27262800  1
  Li  Li1  1  0.49578150  0.93622900  0.79969750  1
  Li  Li2  1  0.99773300  0.40998600  0.80178000  1
  Li  Li3  1  0.49831600  0.96746050  0.25651350  1
  Mn  Mn4  1  0.99948450  0.99599950  0.99823500  1
  Nb  Nb5  1  0.49836300  0.48678300  0.51824900  1
  W  W6  1  0.99549500  0.98406600  0.49691900  1
  W  W7  1  0.50806450  0.50238650  0.01283900  1
  O  O8  1  0.30701850  0.19829850  0.42615500  1
  O  O9  1  0.13031450  0.02364750  0.72498100  1
  O  O10  1  0.31626100  0.81179600  0.04402200  1
  O  O11  1  0.18216500  0.69551950  0.42705450  1
  O  O12  1  0.79848400  0.69751850  0.93400350  1
  O  O13  1  0.37639700  0.50997350  0.74921450  1
  O  O14  1  0.62135650  0.51883900  0.24499650  1
  O  O15  1  0.19705650  0.31533600  0.04718150  1
  O  O16  1  0.82117200  0.32697600  0.55799100  1
  O  O17  1  0.69681950  0.20840700  0.93429850  1
  O  O18  1  0.87460600  0.03456450  0.26642650  1
  O  O19  1  0.68190350  0.82779900  0.55801650  1
