# generated using pymatgen
data_Li3CoOF3
_symmetry_space_group_name_H-M   'P 1'
_cell_length_a   2.91205211
_cell_length_b   2.91205211
_cell_length_c   8.51949328
_cell_angle_alpha   90.00000000
_cell_angle_beta   90.00000000
_cell_angle_gamma   90.00000000
_symmetry_Int_Tables_number   1
_chemical_formula_structural   Li3CoOF3
_chemical_formula_sum   'Li3 Co1 O1 F3'
_cell_volume   72.24570767
_cell_formula_units_Z   1
loop_
 _symmetry_equiv_pos_site_id
 _symmetry_equiv_pos_as_xyz
  1  'x, y, z'
loop_
 _atom_site_type_symbol
 _atom_site_label
 _atom_site_symmetry_multiplicity
 _atom_site_fract_x
 _atom_site_fract_y
 _atom_site_fract_z
 _atom_site_occupancy
  Li  Li0  1  0.50000000  0.50000000  0.00000000  1
  Li  Li1  1  0.00000000  0.00000000  0.75606300  1
  Li  Li2  1  0.00000000  0.00000000  0.24393700  1
  Co  Co3  1  0.50000000  0.50000000  0.50000000  1
  O  O4  1  0.00000000  0.00000000  0.50000000  1
  F  F5  1  0.00000000  0.00000000  0.00000000  1
  F  F6  1  0.50000000  0.50000000  0.76350400  1
  F  F7  1  0.50000000  0.50000000  0.23649600  1
