# generated using pymatgen
data_Ti3CoSn2(PO4)6
_symmetry_space_group_name_H-M   'P 1'
_cell_length_a   8.65796950
_cell_length_b   8.65796950
_cell_length_c   22.63720510
_cell_angle_alpha   90.00000000
_cell_angle_beta   90.00000000
_cell_angle_gamma   120.00000000
_symmetry_Int_Tables_number   1
_chemical_formula_structural   Ti3CoSn2(PO4)6
_chemical_formula_sum   'Ti9 Co3 Sn6 P18 O72'
_cell_volume   1469.55397089
_cell_formula_units_Z   3
loop_
 _symmetry_equiv_pos_site_id
 _symmetry_equiv_pos_as_xyz
  1  'x, y, z'
loop_
 _atom_site_type_symbol
 _atom_site_label
 _atom_site_symmetry_multiplicity
 _atom_site_fract_x
 _atom_site_fract_y
 _atom_site_fract_z
 _atom_site_occupancy
  Ti  Ti0  1  0.33333333  0.66666667  0.31456367  1
  Ti  Ti1  1  0.66666667  0.33333333  0.18868233  1
  Ti  Ti2  1  0.33333333  0.66666667  0.01518167  1
  Ti  Ti3  1  0.00000000  0.00000000  0.64789700  1
  Ti  Ti4  1  0.33333333  0.66666667  0.52201567  1
  Ti  Ti5  1  0.00000000  0.00000000  0.34851500  1
  Ti  Ti6  1  0.66666667  0.33333333  0.98123033  1
  Ti  Ti7  1  0.00000000  0.00000000  0.85534900  1
  Ti  Ti8  1  0.66666667  0.33333333  0.68184833  1
  Co  Co9  1  0.00000000  0.00000000  0.15004000  1
  Co  Co10  1  0.66666667  0.33333333  0.48337333  1
  Co  Co11  1  0.33333333  0.66666667  0.81670667  1
  Sn  Sn12  1  0.00000000  0.00000000  0.01243500  1
  Sn  Sn13  1  0.33333333  0.66666667  0.16410667  1
  Sn  Sn14  1  0.66666667  0.33333333  0.34576833  1
  Sn  Sn15  1  0.00000000  0.00000000  0.49744000  1
  Sn  Sn16  1  0.33333333  0.66666667  0.67910167  1
  Sn  Sn17  1  0.66666667  0.33333333  0.83077333  1
  P  P18  1  0.71016400  0.71100000  0.24827300  1
  P  P19  1  0.28900000  0.99916400  0.24827300  1
  P  P20  1  0.00083600  0.28983600  0.24827300  1
  P  P21  1  0.66324767  0.04573533  0.08346233  1
  P  P22  1  0.38248767  0.33675233  0.08346233  1
  P  P23  1  0.95426467  0.61751233  0.08346233  1
  P  P24  1  0.37683067  0.04433333  0.58160633  1
  P  P25  1  0.95566667  0.33249733  0.58160633  1
  P  P26  1  0.66750267  0.62316933  0.58160633  1
  P  P27  1  0.32991433  0.37906867  0.41679567  1
  P  P28  1  0.04915433  0.67008567  0.41679567  1
  P  P29  1  0.62093133  0.95084567  0.41679567  1
  P  P30  1  0.04349733  0.37766667  0.91493967  1
  P  P31  1  0.62233333  0.66583067  0.91493967  1
  P  P32  1  0.33416933  0.95650267  0.91493967  1
  P  P33  1  0.99658100  0.71240200  0.75012900  1
  P  P34  1  0.71582100  0.00341900  0.75012900  1
  P  P35  1  0.28759800  0.28417900  0.75012900  1
  O  O36  1  0.19709067  0.02109433  0.30522433  1
  O  O37  1  0.97890567  0.17599633  0.30522433  1
  O  O38  1  0.82400367  0.80290933  0.30522433  1
  O  O39  1  0.69160967  0.52305833  0.24412233  1
  O  O40  1  0.78695700  0.81684700  0.19240000  1
  O  O41  1  0.51972533  0.68372867  0.25801267  1
  O  O42  1  0.47694167  0.16855133  0.24412233  1
  O  O43  1  0.31627133  0.83599667  0.25801267  1
  O  O44  1  0.64755033  0.13690567  0.13999767  1
  O  O45  1  0.16400333  0.48027467  0.25801267  1
  O  O46  1  0.83187133  0.02834867  0.08490767  1
  O  O47  1  0.48935533  0.35244967  0.13999767  1
  O  O48  1  0.18315300  0.97011000  0.19240000  1
  O  O49  1  0.83144867  0.30839033  0.24412233  1
  O  O50  1  0.49252067  0.85722433  0.07909433  1
  O  O51  1  0.02989000  0.21304300  0.19240000  1
  O  O52  1  0.36470367  0.50747933  0.07909433  1
  O  O53  1  0.19647733  0.16812867  0.08490767  1
  O  O54  1  0.14277567  0.63529633  0.07909433  1
  O  O55  1  0.86309433  0.51064467  0.13999767  1
  O  O56  1  0.97165133  0.80352267  0.08490767  1
  O  O57  1  0.84828933  0.52088467  0.02727667  1
  O  O58  1  0.67259533  0.15171067  0.02727667  1
  O  O59  1  0.47911533  0.32740467  0.02727667  1
  O  O60  1  0.86375733  0.35442767  0.63855767  1
  O  O61  1  0.64557233  0.50932967  0.63855767  1
  O  O62  1  0.49067033  0.13624267  0.63855767  1
  O  O63  1  0.35827633  0.85639167  0.57745567  1
  O  O64  1  0.45362367  0.15018033  0.52573333  1
  O  O65  1  0.18639200  0.01706200  0.59134600  1
  O  O66  1  0.14360833  0.50188467  0.57745567  1
  O  O67  1  0.98293800  0.16933000  0.59134600  1
  O  O68  1  0.31421700  0.47023900  0.47333100  1
  O  O69  1  0.83067000  0.81360800  0.59134600  1
  O  O70  1  0.49853800  0.36168200  0.41824100  1
  O  O71  1  0.15602200  0.68578300  0.47333100  1
  O  O72  1  0.84981967  0.30344333  0.52573333  1
  O  O73  1  0.49811533  0.64172367  0.57745567  1
  O  O74  1  0.15918733  0.19055767  0.41242767  1
  O  O75  1  0.69655667  0.54637633  0.52573333  1
  O  O76  1  0.03137033  0.84081267  0.41242767  1
  O  O77  1  0.86314400  0.50146200  0.41824100  1
  O  O78  1  0.80944233  0.96862967  0.41242767  1
  O  O79  1  0.52976100  0.84397800  0.47333100  1
  O  O80  1  0.63831800  0.13685600  0.41824100  1
  O  O81  1  0.51495600  0.85421800  0.36061000  1
  O  O82  1  0.33926200  0.48504400  0.36061000  1
  O  O83  1  0.14578200  0.66073800  0.36061000  1
  O  O84  1  0.53042400  0.68776100  0.97189100  1
  O  O85  1  0.31223900  0.84266300  0.97189100  1
  O  O86  1  0.15733700  0.46957600  0.97189100  1
  O  O87  1  0.02494300  0.18972500  0.91078900  1
  O  O88  1  0.12029033  0.48351367  0.85906667  1
  O  O89  1  0.85305867  0.35039533  0.92467933  1
  O  O90  1  0.81027500  0.83521800  0.91078900  1
  O  O91  1  0.64960467  0.50266333  0.92467933  1
  O  O92  1  0.98088367  0.80357233  0.80666433  1
  O  O93  1  0.49733667  0.14694133  0.92467933  1
  O  O94  1  0.16520467  0.69501533  0.75157433  1
  O  O95  1  0.82268867  0.01911633  0.80666433  1
  O  O96  1  0.51648633  0.63677667  0.85906667  1
  O  O97  1  0.16478200  0.97505700  0.91078900  1
  O  O98  1  0.82585400  0.52389100  0.74576100  1
  O  O99  1  0.36322333  0.87970967  0.85906667  1
  O  O100  1  0.69803700  0.17414600  0.74576100  1
  O  O101  1  0.52981067  0.83479533  0.75157433  1
  O  O102  1  0.47610900  0.30196300  0.74576100  1
  O  O103  1  0.19642767  0.17731133  0.80666433  1
  O  O104  1  0.30498467  0.47018933  0.75157433  1
  O  O105  1  0.18162267  0.18755133  0.69394333  1
  O  O106  1  0.00592867  0.81837733  0.69394333  1
  O  O107  1  0.81244867  0.99407133  0.69394333  1
