# generated using pymatgen
data_Ho2V2O7
_symmetry_space_group_name_H-M   'P 1'
_cell_length_a   6.66222200
_cell_length_b   9.49959200
_cell_length_c   5.24298516
_cell_angle_alpha   90.00000000
_cell_angle_beta   100.57778519
_cell_angle_gamma   90.00000000
_symmetry_Int_Tables_number   1
_chemical_formula_structural   Ho2V2O7
_chemical_formula_sum   'Ho4 V4 O14'
_cell_volume   326.18134124
_cell_formula_units_Z   2
loop_
 _symmetry_equiv_pos_site_id
 _symmetry_equiv_pos_as_xyz
  1  'x, y, z'
loop_
 _atom_site_type_symbol
 _atom_site_label
 _atom_site_symmetry_multiplicity
 _atom_site_fract_x
 _atom_site_fract_y
 _atom_site_fract_z
 _atom_site_occupancy
  Ho  Ho0  1  0.50000000  0.81246600  0.50000000  1
  Ho  Ho1  1  0.50000000  0.18753400  0.50000000  1
  Ho  Ho2  1  0.00000000  0.31246600  0.50000000  1
  Ho  Ho3  1  0.00000000  0.68753400  0.50000000  1
  V  V4  1  0.24532800  0.00000000  0.89926600  1
  V  V5  1  0.75467200  0.00000000  0.10073400  1
  V  V6  1  0.74532800  0.50000000  0.89926600  1
  V  V7  1  0.25467200  0.50000000  0.10073400  1
  O  O8  1  0.22812100  0.83749900  0.70610700  1
  O  O9  1  0.22812100  0.16250100  0.70610700  1
  O  O10  1  0.42251500  0.00000000  0.22259000  1
  O  O11  1  0.57748500  0.00000000  0.77741000  1
  O  O12  1  0.00000000  0.00000000  0.00000000  1
  O  O13  1  0.77187900  0.83749900  0.29389300  1
  O  O14  1  0.77187900  0.16250100  0.29389300  1
  O  O15  1  0.72812100  0.33749900  0.70610700  1
  O  O16  1  0.72812100  0.66250100  0.70610700  1
  O  O17  1  0.92251500  0.50000000  0.22259000  1
  O  O18  1  0.07748500  0.50000000  0.77741000  1
  O  O19  1  0.50000000  0.50000000  0.00000000  1
  O  O20  1  0.27187900  0.33749900  0.29389300  1
  O  O21  1  0.27187900  0.66250100  0.29389300  1
