# generated using pymatgen
data_Mn3O5F
_symmetry_space_group_name_H-M   'P 1'
_cell_length_a   6.51934200
_cell_length_b   6.32366600
_cell_length_c   9.00405169
_cell_angle_alpha   90.00000000
_cell_angle_beta   90.49179623
_cell_angle_gamma   90.00000000
_symmetry_Int_Tables_number   1
_chemical_formula_structural   Mn3O5F
_chemical_formula_sum   'Mn12 O20 F4'
_cell_volume   371.18863338
_cell_formula_units_Z   4
loop_
 _symmetry_equiv_pos_site_id
 _symmetry_equiv_pos_as_xyz
  1  'x, y, z'
loop_
 _atom_site_type_symbol
 _atom_site_label
 _atom_site_symmetry_multiplicity
 _atom_site_fract_x
 _atom_site_fract_y
 _atom_site_fract_z
 _atom_site_occupancy
  Mn  Mn0  1  0.00616300  0.00000000  0.84019300  1
  Mn  Mn1  1  0.99383700  0.00000000  0.15980700  1
  Mn  Mn2  1  0.00000000  0.00000000  0.50000000  1
  Mn  Mn3  1  0.47689600  0.00000000  0.66747300  1
  Mn  Mn4  1  0.50000000  0.00000000  0.00000000  1
  Mn  Mn5  1  0.52310400  0.00000000  0.33252700  1
  Mn  Mn6  1  0.50616300  0.50000000  0.84019300  1
  Mn  Mn7  1  0.49383700  0.50000000  0.15980700  1
  Mn  Mn8  1  0.50000000  0.50000000  0.50000000  1
  Mn  Mn9  1  0.97689600  0.50000000  0.66747300  1
  Mn  Mn10  1  0.00000000  0.50000000  0.00000000  1
  Mn  Mn11  1  0.02310400  0.50000000  0.33252700  1
  O  O12  1  0.19356500  0.00000000  0.00127600  1
  O  O13  1  0.18854200  0.00000000  0.67032800  1
  O  O14  1  0.49601250  0.80516150  0.83388500  1
  O  O15  1  0.50398750  0.80516150  0.16611500  1
  O  O16  1  0.50000000  0.80752900  0.50000000  1
  O  O17  1  0.49601250  0.19483850  0.83388500  1
  O  O18  1  0.50398750  0.19483850  0.16611500  1
  O  O19  1  0.50000000  0.19247100  0.50000000  1
  O  O20  1  0.80643500  0.00000000  0.99872400  1
  O  O21  1  0.81145800  0.00000000  0.32967200  1
  O  O22  1  0.69356500  0.50000000  0.00127600  1
  O  O23  1  0.68854200  0.50000000  0.67032800  1
  O  O24  1  0.99601250  0.30516150  0.83388500  1
  O  O25  1  0.00398750  0.30516150  0.16611500  1
  O  O26  1  0.00000000  0.30752900  0.50000000  1
  O  O27  1  0.99601250  0.69483850  0.83388500  1
  O  O28  1  0.00398750  0.69483850  0.16611500  1
  O  O29  1  0.00000000  0.69247100  0.50000000  1
  O  O30  1  0.30643500  0.50000000  0.99872400  1
  O  O31  1  0.31145800  0.50000000  0.32967200  1
  F  F32  1  0.21000300  0.00000000  0.32273800  1
  F  F33  1  0.78999700  0.00000000  0.67726200  1
  F  F34  1  0.71000300  0.50000000  0.32273800  1
  F  F35  1  0.28999700  0.50000000  0.67726200  1
