# generated using pymatgen
data_Mg5Fe19O32
_symmetry_space_group_name_H-M   'P 1'
_cell_length_a   12.11867000
_cell_length_b   12.04640400
_cell_length_c   10.46046672
_cell_angle_alpha   90.00000000
_cell_angle_beta   125.31019883
_cell_angle_gamma   90.00000000
_symmetry_Int_Tables_number   1
_chemical_formula_structural   Mg5Fe19O32
_chemical_formula_sum   'Mg10 Fe38 O64'
_cell_volume   1246.15504828
_cell_formula_units_Z   2
loop_
 _symmetry_equiv_pos_site_id
 _symmetry_equiv_pos_as_xyz
  1  'x, y, z'
loop_
 _atom_site_type_symbol
 _atom_site_label
 _atom_site_symmetry_multiplicity
 _atom_site_fract_x
 _atom_site_fract_y
 _atom_site_fract_z
 _atom_site_occupancy
  Mg  Mg0  1  0.25003100  0.00000000  0.49943600  1
  Mg  Mg1  1  0.50000000  0.00000000  0.50000000  1
  Mg  Mg2  1  0.24996900  0.50000000  0.50056400  1
  Mg  Mg3  1  0.75000000  0.75000000  0.00000000  1
  Mg  Mg4  1  0.25000000  0.75000000  0.00000000  1
  Mg  Mg5  1  0.75003100  0.50000000  0.49943600  1
  Mg  Mg6  1  0.00000000  0.50000000  0.50000000  1
  Mg  Mg7  1  0.74996900  0.00000000  0.50056400  1
  Mg  Mg8  1  0.25000000  0.25000000  0.00000000  1
  Mg  Mg9  1  0.75000000  0.25000000  0.00000000  1
  Fe  Fe10  1  0.25184400  0.87385900  0.25158200  1
  Fe  Fe11  1  0.75184400  0.62614100  0.25158200  1
  Fe  Fe12  1  0.24993250  0.37725250  0.25080800  1
  Fe  Fe13  1  0.24993250  0.62274750  0.25080800  1
  Fe  Fe14  1  0.06165650  0.74868050  0.37861400  1
  Fe  Fe15  1  0.56165650  0.75131950  0.37861400  1
  Fe  Fe16  1  0.00000000  0.00000000  0.50000000  1
  Fe  Fe17  1  0.93834350  0.74868050  0.62138600  1
  Fe  Fe18  1  0.43834350  0.75131950  0.62138600  1
  Fe  Fe19  1  0.24815600  0.62614100  0.74841800  1
  Fe  Fe20  1  0.25006750  0.12274750  0.74919200  1
  Fe  Fe21  1  0.74815600  0.87385900  0.74841800  1
  Fe  Fe22  1  0.25006750  0.87725250  0.74919200  1
  Fe  Fe23  1  0.05972000  0.00000000  0.87724100  1
  Fe  Fe24  1  0.56201300  0.00000000  0.87596500  1
  Fe  Fe25  1  0.00000000  0.74863800  0.00000000  1
  Fe  Fe26  1  0.00000000  0.25136200  0.00000000  1
  Fe  Fe27  1  0.44028000  0.50000000  0.12275900  1
  Fe  Fe28  1  0.93798700  0.50000000  0.12403500  1
  Fe  Fe29  1  0.75184400  0.37385900  0.25158200  1
  Fe  Fe30  1  0.25184400  0.12614100  0.25158200  1
  Fe  Fe31  1  0.74993250  0.87725250  0.25080800  1
  Fe  Fe32  1  0.74993250  0.12274750  0.25080800  1
  Fe  Fe33  1  0.56165650  0.24868050  0.37861400  1
  Fe  Fe34  1  0.06165650  0.25131950  0.37861400  1
  Fe  Fe35  1  0.50000000  0.50000000  0.50000000  1
  Fe  Fe36  1  0.43834350  0.24868050  0.62138600  1
  Fe  Fe37  1  0.93834350  0.25131950  0.62138600  1
  Fe  Fe38  1  0.74815600  0.12614100  0.74841800  1
  Fe  Fe39  1  0.75006750  0.62274750  0.74919200  1
  Fe  Fe40  1  0.24815600  0.37385900  0.74841800  1
  Fe  Fe41  1  0.75006750  0.37725250  0.74919200  1
  Fe  Fe42  1  0.55972000  0.50000000  0.87724100  1
  Fe  Fe43  1  0.06201300  0.50000000  0.87596500  1
  Fe  Fe44  1  0.50000000  0.24863800  0.00000000  1
  Fe  Fe45  1  0.50000000  0.75136200  0.00000000  1
  Fe  Fe46  1  0.94028000  0.00000000  0.12275900  1
  Fe  Fe47  1  0.43798700  0.00000000  0.12403500  1
  O  O48  1  0.37896500  0.50000000  0.25727200  1
  O  O49  1  0.86721100  0.50000000  0.25257800  1
  O  O50  1  0.12933300  0.50000000  0.25666000  1
  O  O51  1  0.13607800  0.00000000  0.25242300  1
  O  O52  1  0.37535950  0.38253950  0.49484900  1
  O  O53  1  0.37535950  0.61746050  0.49484900  1
  O  O54  1  0.86851000  0.62021600  0.48851600  1
  O  O55  1  0.36851000  0.87978400  0.48851600  1
  O  O56  1  0.12464050  0.11746050  0.50515100  1
  O  O57  1  0.13149000  0.62021600  0.51148400  1
  O  O58  1  0.63149000  0.87978400  0.51148400  1
  O  O59  1  0.12464050  0.88253950  0.50515100  1
  O  O60  1  0.37066700  0.00000000  0.74334000  1
  O  O61  1  0.36392200  0.50000000  0.74757700  1
  O  O62  1  0.12103500  0.00000000  0.74272800  1
  O  O63  1  0.63278900  0.00000000  0.74742200  1
  O  O64  1  0.37545100  0.25458400  0.75804900  1
  O  O65  1  0.63323100  0.75473200  0.75425300  1
  O  O66  1  0.37545100  0.74541600  0.75804900  1
  O  O67  1  0.13323100  0.74526800  0.75425300  1
  O  O68  1  0.37300800  0.36771200  0.99137600  1
  O  O69  1  0.37415100  0.86782200  0.99314900  1
  O  O70  1  0.37300800  0.63228800  0.99137600  1
  O  O71  1  0.37415100  0.13217800  0.99314900  1
  O  O72  1  0.12584900  0.36782200  0.00685100  1
  O  O73  1  0.12584900  0.63217800  0.00685100  1
  O  O74  1  0.12699200  0.13228800  0.00862400  1
  O  O75  1  0.12699200  0.86771200  0.00862400  1
  O  O76  1  0.36676900  0.75473200  0.24574700  1
  O  O77  1  0.86676900  0.74526800  0.24574700  1
  O  O78  1  0.12454900  0.24541600  0.24195100  1
  O  O79  1  0.12454900  0.75458400  0.24195100  1
  O  O80  1  0.87896500  0.00000000  0.25727200  1
  O  O81  1  0.36721100  0.00000000  0.25257800  1
  O  O82  1  0.62933300  0.00000000  0.25666000  1
  O  O83  1  0.63607800  0.50000000  0.25242300  1
  O  O84  1  0.87535950  0.88253950  0.49484900  1
  O  O85  1  0.87535950  0.11746050  0.49484900  1
  O  O86  1  0.36851000  0.12021600  0.48851600  1
  O  O87  1  0.86851000  0.37978400  0.48851600  1
  O  O88  1  0.62464050  0.61746050  0.50515100  1
  O  O89  1  0.63149000  0.12021600  0.51148400  1
  O  O90  1  0.13149000  0.37978400  0.51148400  1
  O  O91  1  0.62464050  0.38253950  0.50515100  1
  O  O92  1  0.87066700  0.50000000  0.74334000  1
  O  O93  1  0.86392200  0.00000000  0.74757700  1
  O  O94  1  0.62103500  0.50000000  0.74272800  1
  O  O95  1  0.13278900  0.50000000  0.74742200  1
  O  O96  1  0.87545100  0.75458400  0.75804900  1
  O  O97  1  0.13323100  0.25473200  0.75425300  1
  O  O98  1  0.87545100  0.24541600  0.75804900  1
  O  O99  1  0.63323100  0.24526800  0.75425300  1
  O  O100  1  0.87300800  0.86771200  0.99137600  1
  O  O101  1  0.87415100  0.36782200  0.99314900  1
  O  O102  1  0.87300800  0.13228800  0.99137600  1
  O  O103  1  0.87415100  0.63217800  0.99314900  1
  O  O104  1  0.62584900  0.86782200  0.00685100  1
  O  O105  1  0.62584900  0.13217800  0.00685100  1
  O  O106  1  0.62699200  0.63228800  0.00862400  1
  O  O107  1  0.62699200  0.36771200  0.00862400  1
  O  O108  1  0.86676900  0.25473200  0.24574700  1
  O  O109  1  0.36676900  0.24526800  0.24574700  1
  O  O110  1  0.62454900  0.74541600  0.24195100  1
  O  O111  1  0.62454900  0.25458400  0.24195100  1
