# generated using pymatgen
data_NbCr2Fe3(PO4)6
_symmetry_space_group_name_H-M   'P 1'
_cell_length_a   8.72504200
_cell_length_b   8.72504200
_cell_length_c   21.53975325
_cell_angle_alpha   90.00000000
_cell_angle_beta   90.00000000
_cell_angle_gamma   120.00000000
_symmetry_Int_Tables_number   1
_chemical_formula_structural   NbCr2Fe3(PO4)6
_chemical_formula_sum   'Nb3 Cr6 Fe9 P18 O72'
_cell_volume   1420.05906364
_cell_formula_units_Z   3
loop_
 _symmetry_equiv_pos_site_id
 _symmetry_equiv_pos_as_xyz
  1  'x, y, z'
loop_
 _atom_site_type_symbol
 _atom_site_label
 _atom_site_symmetry_multiplicity
 _atom_site_fract_x
 _atom_site_fract_y
 _atom_site_fract_z
 _atom_site_occupancy
  Nb  Nb0  1  0.00000000  0.00000000  0.14468000  1
  Nb  Nb1  1  0.66666667  0.33333333  0.47801333  1
  Nb  Nb2  1  0.33333333  0.66666667  0.81134667  1
  Cr  Cr3  1  0.66666667  0.33333333  0.32463533  1
  Cr  Cr4  1  0.33333333  0.66666667  0.16595667  1
  Cr  Cr5  1  0.33333333  0.66666667  0.65796867  1
  Cr  Cr6  1  0.00000000  0.00000000  0.49929000  1
  Cr  Cr7  1  0.00000000  0.00000000  0.99130200  1
  Cr  Cr8  1  0.66666667  0.33333333  0.83262333  1
  Fe  Fe9  1  0.66666667  0.33333333  0.18434733  1
  Fe  Fe10  1  0.33333333  0.66666667  0.31192867  1
  Fe  Fe11  1  0.33333333  0.66666667  0.02240267  1
  Fe  Fe12  1  0.33333333  0.66666667  0.51768067  1
  Fe  Fe13  1  0.00000000  0.00000000  0.64526200  1
  Fe  Fe14  1  0.00000000  0.00000000  0.35573600  1
  Fe  Fe15  1  0.00000000  0.00000000  0.85101400  1
  Fe  Fe16  1  0.66666667  0.33333333  0.97859533  1
  Fe  Fe17  1  0.66666667  0.33333333  0.68906933  1
  P  P18  1  0.99955733  0.29641767  0.25258167  1
  P  P19  1  0.66277800  0.03956900  0.08316800  1
  P  P20  1  0.37679100  0.33722200  0.08316800  1
  P  P21  1  0.96043100  0.62320900  0.08316800  1
  P  P22  1  0.70358233  0.70313967  0.25258167  1
  P  P23  1  0.29686033  0.00044267  0.25258167  1
  P  P24  1  0.66622400  0.62975100  0.58591500  1
  P  P25  1  0.32944467  0.37290233  0.41650133  1
  P  P26  1  0.04345767  0.67055533  0.41650133  1
  P  P27  1  0.62709767  0.95654233  0.41650133  1
  P  P28  1  0.37024900  0.03647300  0.58591500  1
  P  P29  1  0.96352700  0.33377600  0.58591500  1
  P  P30  1  0.33289067  0.96308433  0.91924833  1
  P  P31  1  0.99611133  0.70623567  0.74983467  1
  P  P32  1  0.71012433  0.00388867  0.74983467  1
  P  P33  1  0.29376433  0.28987567  0.74983467  1
  P  P34  1  0.03691567  0.36980633  0.91924833  1
  P  P35  1  0.63019367  0.66710933  0.91924833  1
  O  O36  1  0.86309467  0.52885233  0.02381233  1
  O  O37  1  0.66575767  0.13690533  0.02381233  1
  O  O38  1  0.68521600  0.51664900  0.25505600  1
  O  O39  1  0.47114767  0.33424233  0.02381233  1
  O  O40  1  0.81649200  0.80718300  0.19332300  1
  O  O41  1  0.52050300  0.68813100  0.24299800  1
  O  O42  1  0.48335100  0.16856700  0.25505600  1
  O  O43  1  0.31186900  0.83237200  0.24299800  1
  O  O44  1  0.67405833  0.14112567  0.14237467  1
  O  O45  1  0.16762800  0.47949700  0.24299800  1
  O  O46  1  0.83179567  0.01380533  0.07956933  1
  O  O47  1  0.46706733  0.32594167  0.14237467  1
  O  O48  1  0.19281700  0.00930900  0.19332300  1
  O  O49  1  0.83143300  0.31478400  0.25505600  1
  O  O50  1  0.49929800  0.85026900  0.08854200  1
  O  O51  1  0.99069100  0.18350800  0.19332300  1
  O  O52  1  0.35097100  0.50070200  0.08854200  1
  O  O53  1  0.18200967  0.16820433  0.07956933  1
  O  O54  1  0.14973100  0.64902900  0.08854200  1
  O  O55  1  0.85887433  0.53293267  0.14237467  1
  O  O56  1  0.19116867  0.99418133  0.30948033  1
  O  O57  1  0.98619467  0.81799033  0.07956933  1
  O  O58  1  0.00581867  0.19698733  0.30948033  1
  O  O59  1  0.80301267  0.80883133  0.30948033  1
  O  O60  1  0.52976133  0.86218567  0.35714567  1
  O  O61  1  0.33242433  0.47023867  0.35714567  1
  O  O62  1  0.35188267  0.84998233  0.58838933  1
  O  O63  1  0.13781433  0.66757567  0.35714567  1
  O  O64  1  0.48315867  0.14051633  0.52665633  1
  O  O65  1  0.18716967  0.02146433  0.57633133  1
  O  O66  1  0.15001767  0.50190033  0.58838933  1
  O  O67  1  0.97853567  0.16570533  0.57633133  1
  O  O68  1  0.34072500  0.47445900  0.47570800  1
  O  O69  1  0.83429467  0.81283033  0.57633133  1
  O  O70  1  0.49846233  0.34713867  0.41290267  1
  O  O71  1  0.13373400  0.65927500  0.47570800  1
  O  O72  1  0.85948367  0.34264233  0.52665633  1
  O  O73  1  0.49809967  0.64811733  0.58838933  1
  O  O74  1  0.16596467  0.18360233  0.42187533  1
  O  O75  1  0.65735767  0.51684133  0.52665633  1
  O  O76  1  0.01763767  0.83403533  0.42187533  1
  O  O77  1  0.84867633  0.50153767  0.41290267  1
  O  O78  1  0.81639767  0.98236233  0.42187533  1
  O  O79  1  0.52554100  0.86626600  0.47570800  1
  O  O80  1  0.85783533  0.32751467  0.64281367  1
  O  O81  1  0.65286133  0.15132367  0.41290267  1
  O  O82  1  0.67248533  0.53032067  0.64281367  1
  O  O83  1  0.46967933  0.14216467  0.64281367  1
  O  O84  1  0.19642800  0.19551900  0.69047900  1
  O  O85  1  0.99909100  0.80357200  0.69047900  1
  O  O86  1  0.01854933  0.18331567  0.92172267  1
  O  O87  1  0.80448100  0.00090900  0.69047900  1
  O  O88  1  0.14982533  0.47384967  0.85998967  1
  O  O89  1  0.85383633  0.35479767  0.90966467  1
  O  O90  1  0.81668433  0.83523367  0.92172267  1
  O  O91  1  0.64520233  0.49903867  0.90966467  1
  O  O92  1  0.00739167  0.80779233  0.80904133  1
  O  O93  1  0.50096133  0.14616367  0.90966467  1
  O  O94  1  0.16512900  0.68047200  0.74623600  1
  O  O95  1  0.80040067  0.99260833  0.80904133  1
  O  O96  1  0.52615033  0.67597567  0.85998967  1
  O  O97  1  0.16476633  0.98145067  0.92172267  1
  O  O98  1  0.83263133  0.51693567  0.75520867  1
  O  O99  1  0.32402433  0.85017467  0.85998967  1
  O  O100  1  0.68430433  0.16736867  0.75520867  1
  O  O101  1  0.51534300  0.83487100  0.74623600  1
  O  O102  1  0.48306433  0.31569567  0.75520867  1
  O  O103  1  0.19220767  0.19959933  0.80904133  1
  O  O104  1  0.52450200  0.66084800  0.97614700  1
  O  O105  1  0.31952800  0.48465700  0.74623600  1
  O  O106  1  0.33915200  0.86365400  0.97614700  1
  O  O107  1  0.13634600  0.47549800  0.97614700  1
