# generated using pymatgen
data_Li2Ni3TeO8
_symmetry_space_group_name_H-M   'P 1'
_cell_length_a   5.90807128
_cell_length_b   5.90807128
_cell_length_c   14.88042687
_cell_angle_alpha   90.00000000
_cell_angle_beta   90.00000000
_cell_angle_gamma   120.00000000
_symmetry_Int_Tables_number   1
_chemical_formula_structural   Li2Ni3TeO8
_chemical_formula_sum   'Li6 Ni9 Te3 O24'
_cell_volume   449.81866628
_cell_formula_units_Z   3
loop_
 _symmetry_equiv_pos_site_id
 _symmetry_equiv_pos_as_xyz
  1  'x, y, z'
loop_
 _atom_site_type_symbol
 _atom_site_label
 _atom_site_symmetry_multiplicity
 _atom_site_fract_x
 _atom_site_fract_y
 _atom_site_fract_z
 _atom_site_occupancy
  Li  Li0  1  0.00000000  0.00000000  0.13453967  1
  Li  Li1  1  0.66666667  0.33333333  0.19879367  1
  Li  Li2  1  0.66666667  0.33333333  0.46787300  1
  Li  Li3  1  0.33333333  0.66666667  0.53212700  1
  Li  Li4  1  0.33333333  0.66666667  0.80120633  1
  Li  Li5  1  0.00000000  0.00000000  0.86546033  1
  Ni  Ni6  1  0.66666667  0.83333333  0.33333333  1
  Ni  Ni7  1  0.16666667  0.83333333  0.33333333  1
  Ni  Ni8  1  0.16666667  0.33333333  0.33333333  1
  Ni  Ni9  1  0.33333333  0.16666667  0.66666667  1
  Ni  Ni10  1  0.83333333  0.16666667  0.66666667  1
  Ni  Ni11  1  0.83333333  0.66666667  0.66666667  1
  Ni  Ni12  1  0.00000000  0.50000000  0.00000000  1
  Ni  Ni13  1  0.50000000  0.50000000  0.00000000  1
  Ni  Ni14  1  0.50000000  0.00000000  0.00000000  1
  Te  Te15  1  0.33333333  0.66666667  0.16666667  1
  Te  Te16  1  1.00000000  1.00000000  0.50000000  1
  Te  Te17  1  0.66666667  0.33333333  0.83333333  1
  O  O18  1  0.00000000  0.00000000  0.27036067  1
  O  O19  1  0.18122950  0.36245900  0.08629100  1
  O  O20  1  0.18122950  0.81877050  0.08629100  1
  O  O21  1  0.63754100  0.81877050  0.08629100  1
  O  O22  1  0.02912567  0.51456283  0.24704233  1
  O  O23  1  0.48543717  0.51456283  0.24704233  1
  O  O24  1  0.48543717  0.97087433  0.24704233  1
  O  O25  1  0.66666667  0.33333333  0.06297267  1
  O  O26  1  0.66666667  0.33333333  0.60369400  1
  O  O27  1  0.84789617  0.69579233  0.41962433  1
  O  O28  1  0.84789617  0.15210383  0.41962433  1
  O  O29  1  0.30420767  0.15210383  0.41962433  1
  O  O30  1  0.69579233  0.84789617  0.58037567  1
  O  O31  1  0.15210383  0.84789617  0.58037567  1
  O  O32  1  0.15210383  0.30420767  0.58037567  1
  O  O33  1  0.33333333  0.66666667  0.39630600  1
  O  O34  1  0.33333333  0.66666667  0.93702733  1
  O  O35  1  0.51456283  0.02912567  0.75295767  1
  O  O36  1  0.51456283  0.48543717  0.75295767  1
  O  O37  1  0.97087433  0.48543717  0.75295767  1
  O  O38  1  0.36245900  0.18122950  0.91370900  1
  O  O39  1  0.81877050  0.18122950  0.91370900  1
  O  O40  1  0.81877050  0.63754100  0.91370900  1
  O  O41  1  0.00000000  0.00000000  0.72963933  1
