# generated using pymatgen
data_Mn3Fe3(CoO8)2
_symmetry_space_group_name_H-M   'P 1'
_cell_length_a   10.23535400
_cell_length_b   5.85846000
_cell_length_c   8.67607233
_cell_angle_alpha   90.00000000
_cell_angle_beta   91.25442883
_cell_angle_gamma   90.00000000
_symmetry_Int_Tables_number   1
_chemical_formula_structural   Mn3Fe3(CoO8)2
_chemical_formula_sum   'Mn6 Fe6 Co4 O32'
_cell_volume   520.12221590
_cell_formula_units_Z   2
loop_
 _symmetry_equiv_pos_site_id
 _symmetry_equiv_pos_as_xyz
  1  'x, y, z'
loop_
 _atom_site_type_symbol
 _atom_site_label
 _atom_site_symmetry_multiplicity
 _atom_site_fract_x
 _atom_site_fract_y
 _atom_site_fract_z
 _atom_site_occupancy
  Mn  Mn0  1  0.83006100  0.00000000  0.79183600  1
  Mn  Mn1  1  0.91453150  0.25386850  0.28917900  1
  Mn  Mn2  1  0.91453150  0.74613150  0.28917900  1
  Mn  Mn3  1  0.33006100  0.50000000  0.79183600  1
  Mn  Mn4  1  0.41453150  0.75386850  0.28917900  1
  Mn  Mn5  1  0.41453150  0.24613150  0.28917900  1
  Fe  Fe6  1  0.58166700  0.74990400  0.79529700  1
  Fe  Fe7  1  0.58166700  0.25009600  0.79529700  1
  Fe  Fe8  1  0.66603200  0.50000000  0.29237500  1
  Fe  Fe9  1  0.08166700  0.24990400  0.79529700  1
  Fe  Fe10  1  0.08166700  0.75009600  0.79529700  1
  Fe  Fe11  1  0.16603200  0.00000000  0.29237500  1
  Co  Co12  1  0.66753500  0.00000000  0.51064200  1
  Co  Co13  1  0.83265500  0.50000000  0.01179300  1
  Co  Co14  1  0.16753500  0.50000000  0.51064200  1
  Co  Co15  1  0.33265500  0.00000000  0.01179300  1
  O  O16  1  0.58594300  0.76092800  0.40007500  1
  O  O17  1  0.52724400  0.00000000  0.65128400  1
  O  O18  1  0.67130700  0.00000000  0.90614600  1
  O  O19  1  0.99392200  0.00000000  0.68893800  1
  O  O20  1  0.99526800  0.00000000  0.18547800  1
  O  O21  1  0.58594300  0.23907200  0.40007500  1
  O  O22  1  0.74248900  0.79082800  0.65374600  1
  O  O23  1  0.74248900  0.20917200  0.65374600  1
  O  O24  1  0.67417900  0.50000000  0.89988200  1
  O  O25  1  0.83110800  0.00000000  0.39786600  1
  O  O26  1  0.76490200  0.28362200  0.15387300  1
  O  O27  1  0.76490200  0.71637800  0.15387300  1
  O  O28  1  0.83915000  0.50000000  0.40170100  1
  O  O29  1  0.91080350  0.25810950  0.90107800  1
  O  O30  1  0.97665200  0.50000000  0.15954100  1
  O  O31  1  0.91080350  0.74189050  0.90107800  1
  O  O32  1  0.08594300  0.26092800  0.40007500  1
  O  O33  1  0.02724400  0.50000000  0.65128400  1
  O  O34  1  0.17130700  0.50000000  0.90614600  1
  O  O35  1  0.49392200  0.50000000  0.68893800  1
  O  O36  1  0.49526800  0.50000000  0.18547800  1
  O  O37  1  0.08594300  0.73907200  0.40007500  1
  O  O38  1  0.24248900  0.29082800  0.65374600  1
  O  O39  1  0.24248900  0.70917200  0.65374600  1
  O  O40  1  0.17417900  0.00000000  0.89988200  1
  O  O41  1  0.33110800  0.50000000  0.39786600  1
  O  O42  1  0.26490200  0.78362200  0.15387300  1
  O  O43  1  0.26490200  0.21637800  0.15387300  1
  O  O44  1  0.33915000  0.00000000  0.40170100  1
  O  O45  1  0.41080350  0.75810950  0.90107800  1
  O  O46  1  0.47665200  0.00000000  0.15954100  1
  O  O47  1  0.41080350  0.24189050  0.90107800  1
