# generated using pymatgen
data_Li2V3(PO4)3
_symmetry_space_group_name_H-M   'P 1'
_cell_length_a   14.61552400
_cell_length_b   8.98227200
_cell_length_c   8.51725269
_cell_angle_alpha   90.00000000
_cell_angle_beta   121.95330391
_cell_angle_gamma   90.00000000
_symmetry_Int_Tables_number   1
_chemical_formula_structural   Li2V3(PO4)3
_chemical_formula_sum   'Li8 V12 P12 O48'
_cell_volume   948.72769916
_cell_formula_units_Z   4
loop_
 _symmetry_equiv_pos_site_id
 _symmetry_equiv_pos_as_xyz
  1  'x, y, z'
loop_
 _atom_site_type_symbol
 _atom_site_label
 _atom_site_symmetry_multiplicity
 _atom_site_fract_x
 _atom_site_fract_y
 _atom_site_fract_z
 _atom_site_occupancy
  Li  Li0  1  0.50000000  0.13975000  0.50000000  1
  Li  Li1  1  0.50000000  0.84539000  0.00000000  1
  Li  Li2  1  0.20140850  0.94998450  0.39940200  1
  Li  Li3  1  0.79859150  0.94998450  0.60059800  1
  Li  Li4  1  0.00000000  0.63975000  0.50000000  1
  Li  Li5  1  0.00000000  0.34539000  0.00000000  1
  Li  Li6  1  0.70140850  0.44998450  0.39940200  1
  Li  Li7  1  0.29859150  0.44998450  0.60059800  1
  V  V8  1  0.25153900  0.75055900  0.75673100  1
  V  V9  1  0.39618400  0.25181900  0.10761700  1
  V  V10  1  0.40049600  0.74880900  0.60269100  1
  V  V11  1  0.74846100  0.75055900  0.24326900  1
  V  V12  1  0.60381600  0.25181900  0.89238300  1
  V  V13  1  0.59950400  0.74880900  0.39730900  1
  V  V14  1  0.75153900  0.25055900  0.75673100  1
  V  V15  1  0.89618400  0.75181900  0.10761700  1
  V  V16  1  0.90049600  0.24880900  0.60269100  1
  V  V17  1  0.24846100  0.25055900  0.24326900  1
  V  V18  1  0.10381600  0.75181900  0.89238300  1
  V  V19  1  0.09950400  0.24880900  0.39730900  1
  P  P20  1  0.65675100  0.90391300  0.81221200  1
  P  P21  1  0.34324900  0.90391300  0.18778800  1
  P  P22  1  0.50000000  0.44105200  0.50000000  1
  P  P23  1  0.50000000  0.54423100  0.00000000  1
  P  P24  1  0.64509150  0.10340850  0.30212900  1
  P  P25  1  0.35490850  0.10340850  0.69787100  1
  P  P26  1  0.15675100  0.40391300  0.81221200  1
  P  P27  1  0.84324900  0.40391300  0.18778800  1
  P  P28  1  0.00000000  0.94105200  0.50000000  1
  P  P29  1  0.00000000  0.04423100  0.00000000  1
  P  P30  1  0.14509150  0.60340850  0.30212900  1
  P  P31  1  0.85490850  0.60340850  0.69787100  1
  O  O32  1  0.45073100  0.85596200  0.21227900  1
  O  O33  1  0.06411900  0.02983600  0.43838700  1
  O  O34  1  0.67275650  0.86102950  0.65428900  1
  O  O35  1  0.66880150  0.07887950  0.82126700  1
  O  O36  1  0.54926900  0.85596200  0.78772100  1
  O  O37  1  0.74567900  0.83664200  0.00312200  1
  O  O38  1  0.25432100  0.83664200  0.99687800  1
  O  O39  1  0.33119850  0.07887950  0.17873300  1
  O  O40  1  0.55294850  0.44655850  0.92436700  1
  O  O41  1  0.41451200  0.32894400  0.34947500  1
  O  O42  1  0.41172200  0.65180300  0.85010200  1
  O  O43  1  0.64658400  0.16491000  0.13773500  1
  O  O44  1  0.32724350  0.86102950  0.34571100  1
  O  O45  1  0.58548800  0.32894400  0.65052500  1
  O  O46  1  0.58827800  0.65180300  0.14989800  1
  O  O47  1  0.93588100  0.02983600  0.56161300  1
  O  O48  1  0.66677000  0.93081600  0.31280800  1
  O  O49  1  0.73579700  0.16648600  0.49554100  1
  O  O50  1  0.26420300  0.16648600  0.50445900  1
  O  O51  1  0.46204200  0.14292800  0.71266800  1
  O  O52  1  0.33323000  0.93081600  0.68719200  1
  O  O53  1  0.35341600  0.16491000  0.86226500  1
  O  O54  1  0.44705150  0.44655850  0.07563300  1
  O  O55  1  0.53795800  0.14292800  0.28733200  1
  O  O56  1  0.95073100  0.35596200  0.21227900  1
  O  O57  1  0.56411900  0.52983600  0.43838700  1
  O  O58  1  0.17275650  0.36102950  0.65428900  1
  O  O59  1  0.16880150  0.57887950  0.82126700  1
  O  O60  1  0.04926900  0.35596200  0.78772100  1
  O  O61  1  0.24567900  0.33664200  0.00312200  1
  O  O62  1  0.75432100  0.33664200  0.99687800  1
  O  O63  1  0.83119850  0.57887950  0.17873300  1
  O  O64  1  0.05294850  0.94655850  0.92436700  1
  O  O65  1  0.91451200  0.82894400  0.34947500  1
  O  O66  1  0.91172200  0.15180300  0.85010200  1
  O  O67  1  0.14658400  0.66491000  0.13773500  1
  O  O68  1  0.82724350  0.36102950  0.34571100  1
  O  O69  1  0.08548800  0.82894400  0.65052500  1
  O  O70  1  0.08827800  0.15180300  0.14989800  1
  O  O71  1  0.43588100  0.52983600  0.56161300  1
  O  O72  1  0.16677000  0.43081600  0.31280800  1
  O  O73  1  0.23579700  0.66648600  0.49554100  1
  O  O74  1  0.76420300  0.66648600  0.50445900  1
  O  O75  1  0.96204200  0.64292800  0.71266800  1
  O  O76  1  0.83323000  0.43081600  0.68719200  1
  O  O77  1  0.85341600  0.66491000  0.86226500  1
  O  O78  1  0.94705150  0.94655850  0.07563300  1
  O  O79  1  0.03795800  0.64292800  0.28733200  1
