# generated using pymatgen
data_Li4Mn5Sb3O16
_symmetry_space_group_name_H-M   'P 1'
_cell_length_a   10.75837600
_cell_length_b   6.12774000
_cell_length_c   9.93039499
_cell_angle_alpha   90.00000000
_cell_angle_beta   90.37437790
_cell_angle_gamma   90.00000000
_symmetry_Int_Tables_number   1
_chemical_formula_structural   Li4Mn5Sb3O16
_chemical_formula_sum   'Li8 Mn10 Sb6 O32'
_cell_volume   654.64265653
_cell_formula_units_Z   2
loop_
 _symmetry_equiv_pos_site_id
 _symmetry_equiv_pos_as_xyz
  1  'x, y, z'
loop_
 _atom_site_type_symbol
 _atom_site_label
 _atom_site_symmetry_multiplicity
 _atom_site_fract_x
 _atom_site_fract_y
 _atom_site_fract_z
 _atom_site_occupancy
  Li  Li0  1  0.66228400  0.00000000  0.87310600  1
  Li  Li1  1  0.99014900  0.00000000  0.99222900  1
  Li  Li2  1  0.99747800  0.00000000  0.50666800  1
  Li  Li3  1  0.82432400  0.50000000  0.39858200  1
  Li  Li4  1  0.16228400  0.50000000  0.87310600  1
  Li  Li5  1  0.49014900  0.50000000  0.99222900  1
  Li  Li6  1  0.49747800  0.50000000  0.50666800  1
  Li  Li7  1  0.32432400  0.00000000  0.39858200  1
  Mn  Mn8  1  0.67646500  0.00000000  0.51120300  1
  Mn  Mn9  1  0.83177900  0.00000000  0.21659700  1
  Mn  Mn10  1  0.84431000  0.50000000  0.98574500  1
  Mn  Mn11  1  0.91689300  0.74704400  0.71438000  1
  Mn  Mn12  1  0.91689300  0.25295600  0.71438000  1
  Mn  Mn13  1  0.17646500  0.50000000  0.51120300  1
  Mn  Mn14  1  0.33177900  0.50000000  0.21659700  1
  Mn  Mn15  1  0.34431000  0.00000000  0.98574500  1
  Mn  Mn16  1  0.41689300  0.24704400  0.71438000  1
  Mn  Mn17  1  0.41689300  0.75295600  0.71438000  1
  Sb  Sb18  1  0.58404250  0.24658550  0.21586300  1
  Sb  Sb19  1  0.58404250  0.75341450  0.21586300  1
  Sb  Sb20  1  0.67122300  0.50000000  0.71606800  1
  Sb  Sb21  1  0.08404250  0.74658550  0.21586300  1
  Sb  Sb22  1  0.08404250  0.25341450  0.21586300  1
  Sb  Sb23  1  0.17122300  0.00000000  0.71606800  1
  O  O24  1  0.58255950  0.26750350  0.60453100  1
  O  O25  1  0.51131500  0.00000000  0.32993200  1
  O  O26  1  0.65230400  0.00000000  0.09747200  1
  O  O27  1  0.51156100  0.50000000  0.32290300  1
  O  O28  1  0.51162100  0.50000000  0.81730700  1
  O  O29  1  0.58255950  0.73249650  0.60453100  1
  O  O30  1  0.73673850  0.22639350  0.32776200  1
  O  O31  1  0.73673850  0.77360650  0.32776200  1
  O  O32  1  0.65361000  0.50000000  0.10308500  1
  O  O33  1  0.84951000  0.00000000  0.61246500  1
  O  O34  1  0.75790200  0.72517500  0.83263400  1
  O  O35  1  0.75790200  0.27482500  0.83263400  1
  O  O36  1  0.82285700  0.50000000  0.59812400  1
  O  O37  1  0.92635550  0.76509150  0.10789600  1
  O  O38  1  0.97954700  0.50000000  0.82017700  1
  O  O39  1  0.92635550  0.23490850  0.10789600  1
  O  O40  1  0.08255950  0.76750350  0.60453100  1
  O  O41  1  0.01131500  0.50000000  0.32993200  1
  O  O42  1  0.15230400  0.50000000  0.09747200  1
  O  O43  1  0.01156100  0.00000000  0.32290300  1
  O  O44  1  0.01162100  0.00000000  0.81730700  1
  O  O45  1  0.08255950  0.23249650  0.60453100  1
  O  O46  1  0.23673850  0.72639350  0.32776200  1
  O  O47  1  0.23673850  0.27360650  0.32776200  1
  O  O48  1  0.15361000  0.00000000  0.10308500  1
  O  O49  1  0.34951000  0.50000000  0.61246500  1
  O  O50  1  0.25790200  0.22517500  0.83263400  1
  O  O51  1  0.25790200  0.77482500  0.83263400  1
  O  O52  1  0.32285700  0.00000000  0.59812400  1
  O  O53  1  0.42635550  0.26509150  0.10789600  1
  O  O54  1  0.47954700  0.00000000  0.82017700  1
  O  O55  1  0.42635550  0.73490850  0.10789600  1
