# generated using pymatgen
data_Cr4OF11
_symmetry_space_group_name_H-M   'P 1'
_cell_length_a   5.07584889
_cell_length_b   5.32478059
_cell_length_c   16.87531597
_cell_angle_alpha   88.24142978
_cell_angle_beta   98.33276917
_cell_angle_gamma   118.22416372
_symmetry_Int_Tables_number   1
_chemical_formula_structural   Cr4OF11
_chemical_formula_sum   'Cr8 O2 F22'
_cell_volume   397.25618422
_cell_formula_units_Z   2
loop_
 _symmetry_equiv_pos_site_id
 _symmetry_equiv_pos_as_xyz
  1  'x, y, z'
loop_
 _atom_site_type_symbol
 _atom_site_label
 _atom_site_symmetry_multiplicity
 _atom_site_fract_x
 _atom_site_fract_y
 _atom_site_fract_z
 _atom_site_occupancy
  Cr  Cr0  1  0.74049900  0.35662000  0.12883100  1
  Cr  Cr1  1  0.74164300  0.88694200  0.62794900  1
  Cr  Cr2  1  0.50654500  0.23944500  0.74575300  1
  Cr  Cr3  1  0.50511600  0.76853400  0.24637100  1
  Cr  Cr4  1  0.25323800  0.13114700  0.37441000  1
  Cr  Cr5  1  0.25180800  0.61946300  0.87475900  1
  Cr  Cr6  1  0.99967300  0.50458700  0.50091400  1
  Cr  Cr7  1  0.99956500  0.99355100  0.00066200  1
  O  O8  1  0.50180700  0.06310200  0.18775100  1
  O  O9  1  0.56359700  0.09397900  0.65650000  1
  F  F10  1  0.43645700  0.21490600  0.03326000  1
  F  F11  1  0.99518200  0.18769000  0.56320900  1
  F  F12  1  0.98798300  0.67934200  0.06419500  1
  F  F13  1  0.06674100  0.03183400  0.71851200  1
  F  F14  1  0.06346200  0.34550700  0.40736600  1
  F  F15  1  0.06665200  0.53305700  0.21759100  1
  F  F16  1  0.43539300  0.40262100  0.83977400  1
  F  F17  1  0.43848300  0.90895300  0.34245700  1
  F  F18  1  0.43534300  0.71799000  0.53368900  1
  F  F19  1  0.93953900  0.15589600  0.09416800  1
  F  F20  1  0.50363400  0.56216400  0.68807300  1
  F  F21  1  0.49294800  0.44386700  0.31034300  1
  F  F22  1  0.06558100  0.84030200  0.90686200  1
  F  F23  1  0.56546100  0.59319700  0.15672300  1
  F  F24  1  0.56489300  0.28351100  0.46782800  1
  F  F25  1  0.93613000  0.46769800  0.78155100  1
  F  F26  1  0.93027800  0.66303800  0.59332600  1
  F  F27  1  0.93775500  0.96833800  0.28137700  1
  F  F28  1  0.00362500  0.30953400  0.93810500  1
  F  F29  1  0.00496800  0.81640100  0.43725900  1
  F  F30  1  0.50217500  0.93623000  0.81251700  1
  F  F31  1  0.56382700  0.78055200  0.96791500  1
