# generated using pymatgen
data_Li5V2Cr2O8
_symmetry_space_group_name_H-M   'P 1'
_cell_length_a   10.45503770
_cell_length_b   6.01865607
_cell_length_c   6.04581944
_cell_angle_alpha   90.00000000
_cell_angle_beta   124.91819156
_cell_angle_gamma   90.00000000
_symmetry_Int_Tables_number   1
_chemical_formula_structural   Li5V2Cr2O8
_chemical_formula_sum   'Li10 V4 Cr4 O16'
_cell_volume   311.94523754
_cell_formula_units_Z   2
loop_
 _symmetry_equiv_pos_site_id
 _symmetry_equiv_pos_as_xyz
  1  'x, y, z'
loop_
 _atom_site_type_symbol
 _atom_site_label
 _atom_site_symmetry_multiplicity
 _atom_site_fract_x
 _atom_site_fract_y
 _atom_site_fract_z
 _atom_site_occupancy
  Li  Li0  1  0.00000000  0.00000000  0.50000000  1
  Li  Li1  1  0.25000000  0.75000000  0.50000000  1
  Li  Li2  1  0.25000000  0.25000000  0.50000000  1
  Li  Li3  1  0.43437950  0.50000000  0.79077500  1
  Li  Li4  1  0.06562050  0.00000000  0.20922500  1
  Li  Li5  1  0.50000000  0.50000000  0.50000000  1
  Li  Li6  1  0.75000000  0.25000000  0.50000000  1
  Li  Li7  1  0.75000000  0.75000000  0.50000000  1
  Li  Li8  1  0.93437950  0.00000000  0.79077500  1
  Li  Li9  1  0.56562050  0.50000000  0.20922500  1
  V  V10  1  0.50000000  0.00000000  0.50000000  1
  V  V11  1  0.50000000  0.00000000  0.00000000  1
  V  V12  1  0.00000000  0.50000000  0.50000000  1
  V  V13  1  0.00000000  0.50000000  0.00000000  1
  Cr  Cr14  1  0.25000000  0.25000000  0.00000000  1
  Cr  Cr15  1  0.25000000  0.75000000  0.00000000  1
  Cr  Cr16  1  0.75000000  0.75000000  0.00000000  1
  Cr  Cr17  1  0.75000000  0.25000000  0.00000000  1
  O  O18  1  0.25224700  0.00000000  0.23625800  1
  O  O19  1  0.24775300  0.50000000  0.76374200  1
  O  O20  1  0.24866650  0.00000000  0.76530000  1
  O  O21  1  0.25133350  0.50000000  0.23470000  1
  O  O22  1  0.01007550  0.74060050  0.74811300  1
  O  O23  1  0.01007550  0.25939950  0.74811300  1
  O  O24  1  0.48992450  0.24060050  0.25188700  1
  O  O25  1  0.48992450  0.75939950  0.25188700  1
  O  O26  1  0.75224700  0.50000000  0.23625800  1
  O  O27  1  0.74775300  0.00000000  0.76374200  1
  O  O28  1  0.74866650  0.50000000  0.76530000  1
  O  O29  1  0.75133350  0.00000000  0.23470000  1
  O  O30  1  0.51007550  0.24060050  0.74811300  1
  O  O31  1  0.51007550  0.75939950  0.74811300  1
  O  O32  1  0.98992450  0.74060050  0.25188700  1
  O  O33  1  0.98992450  0.25939950  0.25188700  1
