# generated using pymatgen
data_Li4Ti2Cr3Fe3O16
_symmetry_space_group_name_H-M   'P 1'
_cell_length_a   10.17681200
_cell_length_b   5.88277400
_cell_length_c   9.44894463
_cell_angle_alpha   90.00000000
_cell_angle_beta   90.03369611
_cell_angle_gamma   90.00000000
_symmetry_Int_Tables_number   1
_chemical_formula_structural   Li4Ti2Cr3Fe3O16
_chemical_formula_sum   'Li8 Ti4 Cr6 Fe6 O32'
_cell_volume   565.68823324
_cell_formula_units_Z   2
loop_
 _symmetry_equiv_pos_site_id
 _symmetry_equiv_pos_as_xyz
  1  'x, y, z'
loop_
 _atom_site_type_symbol
 _atom_site_label
 _atom_site_symmetry_multiplicity
 _atom_site_fract_x
 _atom_site_fract_y
 _atom_site_fract_z
 _atom_site_occupancy
  Li  Li0  1  0.67058500  0.00000000  0.89565500  1
  Li  Li1  1  0.99655800  0.00000000  0.99452400  1
  Li  Li2  1  0.99874100  0.00000000  0.49418500  1
  Li  Li3  1  0.33455600  0.00000000  0.39672200  1
  Li  Li4  1  0.17058500  0.50000000  0.89565500  1
  Li  Li5  1  0.49655800  0.50000000  0.99452400  1
  Li  Li6  1  0.49874100  0.50000000  0.49418500  1
  Li  Li7  1  0.83455600  0.50000000  0.39672200  1
  Ti  Ti8  1  0.66163600  0.00000000  0.48507800  1
  Ti  Ti9  1  0.33307800  0.00000000  0.99942000  1
  Ti  Ti10  1  0.16163600  0.50000000  0.48507800  1
  Ti  Ti11  1  0.83307800  0.50000000  0.99942000  1
  Cr  Cr12  1  0.58548550  0.24524150  0.21372300  1
  Cr  Cr13  1  0.58548550  0.75475850  0.21372300  1
  Cr  Cr14  1  0.17004000  0.00000000  0.71371600  1
  Cr  Cr15  1  0.08548550  0.74524150  0.21372300  1
  Cr  Cr16  1  0.08548550  0.25475850  0.21372300  1
  Cr  Cr17  1  0.67004000  0.50000000  0.71371600  1
  Fe  Fe18  1  0.82958800  0.00000000  0.21716200  1
  Fe  Fe19  1  0.41506750  0.24531550  0.71456300  1
  Fe  Fe20  1  0.41506750  0.75468450  0.71456300  1
  Fe  Fe21  1  0.32958800  0.50000000  0.21716200  1
  Fe  Fe22  1  0.91506750  0.74531550  0.71456300  1
  Fe  Fe23  1  0.91506750  0.25468450  0.71456300  1
  O  O24  1  0.57859250  0.24980450  0.59840800  1
  O  O25  1  0.51955900  0.00000000  0.34331400  1
  O  O26  1  0.66931700  0.00000000  0.10392100  1
  O  O27  1  0.99918800  0.00000000  0.30828400  1
  O  O28  1  0.99641800  0.00000000  0.80659400  1
  O  O29  1  0.57859250  0.75019550  0.59840800  1
  O  O30  1  0.73825950  0.22277350  0.34950300  1
  O  O31  1  0.73825950  0.77722650  0.34950300  1
  O  O32  1  0.16736100  0.00000000  0.09184000  1
  O  O33  1  0.83654000  0.00000000  0.60146300  1
  O  O34  1  0.26428300  0.22139300  0.83709500  1
  O  O35  1  0.26428300  0.77860700  0.83709500  1
  O  O36  1  0.33799100  0.00000000  0.60982500  1
  O  O37  1  0.41765250  0.24430550  0.09214200  1
  O  O38  1  0.48003200  0.00000000  0.83491100  1
  O  O39  1  0.41765250  0.75569450  0.09214200  1
  O  O40  1  0.07859250  0.74980450  0.59840800  1
  O  O41  1  0.01955900  0.50000000  0.34331400  1
  O  O42  1  0.16931700  0.50000000  0.10392100  1
  O  O43  1  0.49918800  0.50000000  0.30828400  1
  O  O44  1  0.49641800  0.50000000  0.80659400  1
  O  O45  1  0.07859250  0.25019550  0.59840800  1
  O  O46  1  0.23825950  0.72277350  0.34950300  1
  O  O47  1  0.23825950  0.27722650  0.34950300  1
  O  O48  1  0.66736100  0.50000000  0.09184000  1
  O  O49  1  0.33654000  0.50000000  0.60146300  1
  O  O50  1  0.76428300  0.72139300  0.83709500  1
  O  O51  1  0.76428300  0.27860700  0.83709500  1
  O  O52  1  0.83799100  0.50000000  0.60982500  1
  O  O53  1  0.91765250  0.74430550  0.09214200  1
  O  O54  1  0.98003200  0.50000000  0.83491100  1
  O  O55  1  0.91765250  0.25569450  0.09214200  1
