# generated using pymatgen
data_V2O3F
_symmetry_space_group_name_H-M   'P 1'
_cell_length_a   6.16770000
_cell_length_b   13.23073800
_cell_length_c   6.37948800
_cell_angle_alpha   90.00000000
_cell_angle_beta   90.00000000
_cell_angle_gamma   90.00000000
_symmetry_Int_Tables_number   1
_chemical_formula_structural   V2O3F
_chemical_formula_sum   'V16 O24 F8'
_cell_volume   520.58678038
_cell_formula_units_Z   8
loop_
 _symmetry_equiv_pos_site_id
 _symmetry_equiv_pos_as_xyz
  1  'x, y, z'
loop_
 _atom_site_type_symbol
 _atom_site_label
 _atom_site_symmetry_multiplicity
 _atom_site_fract_x
 _atom_site_fract_y
 _atom_site_fract_z
 _atom_site_occupancy
  V  V0  1  0.75366100  0.87380100  0.75000000  1
  V  V1  1  0.24633900  0.87380100  0.75000000  1
  V  V2  1  0.00000000  0.61838900  0.75000000  1
  V  V3  1  0.50000000  0.62693300  0.75000000  1
  V  V4  1  0.00000000  0.87306700  0.25000000  1
  V  V5  1  0.50000000  0.88161100  0.25000000  1
  V  V6  1  0.74633900  0.62619900  0.25000000  1
  V  V7  1  0.25366100  0.62619900  0.25000000  1
  V  V8  1  0.25366100  0.37380100  0.75000000  1
  V  V9  1  0.74633900  0.37380100  0.75000000  1
  V  V10  1  0.50000000  0.11838900  0.75000000  1
  V  V11  1  0.00000000  0.12693300  0.75000000  1
  V  V12  1  0.50000000  0.37306700  0.25000000  1
  V  V13  1  0.00000000  0.38161100  0.25000000  1
  V  V14  1  0.24633900  0.12619900  0.25000000  1
  V  V15  1  0.75366100  0.12619900  0.25000000  1
  O  O16  1  0.50000000  0.97508900  0.75000000  1
  O  O17  1  0.25083950  0.87552150  0.44949400  1
  O  O18  1  0.74916050  0.87552150  0.44949400  1
  O  O19  1  0.24916050  0.62447850  0.55050600  1
  O  O20  1  0.74916050  0.87552150  0.05050600  1
  O  O21  1  0.25083950  0.87552150  0.05050600  1
  O  O22  1  0.75083950  0.62447850  0.55050600  1
  O  O23  1  0.00000000  0.52491100  0.25000000  1
  O  O24  1  0.00000000  0.77590600  0.75000000  1
  O  O25  1  0.50000000  0.72409400  0.25000000  1
  O  O26  1  0.75083950  0.62447850  0.94949400  1
  O  O27  1  0.24916050  0.62447850  0.94949400  1
  O  O28  1  0.00000000  0.47508900  0.75000000  1
  O  O29  1  0.75083950  0.37552150  0.44949400  1
  O  O30  1  0.24916050  0.37552150  0.44949400  1
  O  O31  1  0.74916050  0.12447850  0.55050600  1
  O  O32  1  0.24916050  0.37552150  0.05050600  1
  O  O33  1  0.75083950  0.37552150  0.05050600  1
  O  O34  1  0.25083950  0.12447850  0.55050600  1
  O  O35  1  0.50000000  0.02491100  0.25000000  1
  O  O36  1  0.50000000  0.27590600  0.75000000  1
  O  O37  1  0.00000000  0.22409400  0.25000000  1
  O  O38  1  0.25083950  0.12447850  0.94949400  1
  O  O39  1  0.74916050  0.12447850  0.94949400  1
  F  F40  1  0.00000000  0.97626500  0.75000000  1
  F  F41  1  0.50000000  0.77586500  0.75000000  1
  F  F42  1  0.50000000  0.52373500  0.25000000  1
  F  F43  1  0.00000000  0.72413500  0.25000000  1
  F  F44  1  0.50000000  0.47626500  0.75000000  1
  F  F45  1  0.00000000  0.27586500  0.75000000  1
  F  F46  1  0.00000000  0.02373500  0.25000000  1
  F  F47  1  0.50000000  0.22413500  0.25000000  1
