# generated using pymatgen
data_Li5MnO5
_symmetry_space_group_name_H-M   'P 1'
_cell_length_a   9.51695762
_cell_length_b   3.92354501
_cell_length_c   5.78243180
_cell_angle_alpha   90.00000000
_cell_angle_beta   108.87115842
_cell_angle_gamma   90.00000000
_symmetry_Int_Tables_number   1
_chemical_formula_structural   Li5MnO5
_chemical_formula_sum   'Li10 Mn2 O10'
_cell_volume   204.31130752
_cell_formula_units_Z   2
loop_
 _symmetry_equiv_pos_site_id
 _symmetry_equiv_pos_as_xyz
  1  'x, y, z'
loop_
 _atom_site_type_symbol
 _atom_site_label
 _atom_site_symmetry_multiplicity
 _atom_site_fract_x
 _atom_site_fract_y
 _atom_site_fract_z
 _atom_site_occupancy
  Li  Li0  1  0.31590900  0.00000000  0.13547600  1
  Li  Li1  1  0.29873950  0.00000000  0.66850400  1
  Li  Li2  1  0.20126050  0.50000000  0.33149600  1
  Li  Li3  1  0.18409100  0.50000000  0.86452400  1
  Li  Li4  1  0.00000000  0.00000000  0.50000000  1
  Li  Li5  1  0.81590900  0.50000000  0.13547600  1
  Li  Li6  1  0.79873950  0.50000000  0.66850400  1
  Li  Li7  1  0.70126050  0.00000000  0.33149600  1
  Li  Li8  1  0.68409100  0.00000000  0.86452400  1
  Li  Li9  1  0.50000000  0.50000000  0.50000000  1
  Mn  Mn10  1  0.00000000  0.00000000  0.00000000  1
  Mn  Mn11  1  0.50000000  0.50000000  0.00000000  1
  O  O12  1  0.35771650  0.50000000  0.17276300  1
  O  O13  1  0.00000000  0.50000000  0.00000000  1
  O  O14  1  0.34566600  0.50000000  0.68671500  1
  O  O15  1  0.15433400  0.00000000  0.31328500  1
  O  O16  1  0.14228350  0.00000000  0.82723700  1
  O  O17  1  0.85771650  0.00000000  0.17276300  1
  O  O18  1  0.50000000  0.00000000  0.00000000  1
  O  O19  1  0.84566600  0.00000000  0.68671500  1
  O  O20  1  0.65433400  0.50000000  0.31328500  1
  O  O21  1  0.64228350  0.50000000  0.82723700  1
