# generated using pymatgen
data_Li4NbCo3O8
_symmetry_space_group_name_H-M   'P 1'
_cell_length_a   5.98112759
_cell_length_b   5.98112759
_cell_length_c   14.74746980
_cell_angle_alpha   90.00000000
_cell_angle_beta   90.00000000
_cell_angle_gamma   120.00000000
_symmetry_Int_Tables_number   1
_chemical_formula_structural   Li4NbCo3O8
_chemical_formula_sum   'Li12 Nb3 Co9 O24'
_cell_volume   456.89276464
_cell_formula_units_Z   3
loop_
 _symmetry_equiv_pos_site_id
 _symmetry_equiv_pos_as_xyz
  1  'x, y, z'
loop_
 _atom_site_type_symbol
 _atom_site_label
 _atom_site_symmetry_multiplicity
 _atom_site_fract_x
 _atom_site_fract_y
 _atom_site_fract_z
 _atom_site_occupancy
  Li  Li0  1  0.33333333  0.66666667  0.16666667  1
  Li  Li1  1  0.33333333  0.16666667  0.16666667  1
  Li  Li2  1  0.83333333  0.66666667  0.16666667  1
  Li  Li3  1  0.83333333  0.16666667  0.16666667  1
  Li  Li4  1  1.00000000  1.00000000  0.50000000  1
  Li  Li5  1  0.00000000  0.50000000  0.50000000  1
  Li  Li6  1  0.50000000  0.00000000  0.50000000  1
  Li  Li7  1  0.50000000  0.50000000  0.50000000  1
  Li  Li8  1  0.66666667  0.33333333  0.83333333  1
  Li  Li9  1  0.66666667  0.83333333  0.83333333  1
  Li  Li10  1  0.16666667  0.33333333  0.83333333  1
  Li  Li11  1  0.16666667  0.83333333  0.83333333  1
  Nb  Nb12  1  0.00000000  0.00000000  0.00000000  1
  Nb  Nb13  1  0.66666667  0.33333333  0.33333333  1
  Nb  Nb14  1  0.33333333  0.66666667  0.66666667  1
  Co  Co15  1  0.00000000  0.50000000  0.00000000  1
  Co  Co16  1  0.50000000  0.00000000  0.00000000  1
  Co  Co17  1  0.50000000  0.50000000  0.00000000  1
  Co  Co18  1  0.66666667  0.83333333  0.33333333  1
  Co  Co19  1  0.16666667  0.33333333  0.33333333  1
  Co  Co20  1  0.16666667  0.83333333  0.33333333  1
  Co  Co21  1  0.33333333  0.16666667  0.66666667  1
  Co  Co22  1  0.83333333  0.66666667  0.66666667  1
  Co  Co23  1  0.83333333  0.16666667  0.66666667  1
  O  O24  1  0.66666667  0.33333333  0.06752033  1
  O  O25  1  0.68257133  0.84128567  0.08152967  1
  O  O26  1  0.15871433  0.31742867  0.08152967  1
  O  O27  1  0.00000000  0.00000000  0.26581300  1
  O  O28  1  0.15871433  0.84128567  0.08152967  1
  O  O29  1  0.98409533  0.49204767  0.25180367  1
  O  O30  1  0.50795233  0.01590467  0.25180367  1
  O  O31  1  0.50795233  0.49204767  0.25180367  1
  O  O32  1  0.33333333  0.66666667  0.40085367  1
  O  O33  1  0.34923800  0.17461900  0.41486300  1
  O  O34  1  0.82538100  0.65076200  0.41486300  1
  O  O35  1  0.66666667  0.33333333  0.59914633  1
  O  O36  1  0.82538100  0.17461900  0.41486300  1
  O  O37  1  0.65076200  0.82538100  0.58513700  1
  O  O38  1  0.17461900  0.34923800  0.58513700  1
  O  O39  1  0.17461900  0.82538100  0.58513700  1
  O  O40  1  0.00000000  0.00000000  0.73418700  1
  O  O41  1  0.01590467  0.50795233  0.74819633  1
  O  O42  1  0.49204767  0.98409533  0.74819633  1
  O  O43  1  0.33333333  0.66666667  0.93247967  1
  O  O44  1  0.49204767  0.50795233  0.74819633  1
  O  O45  1  0.31742867  0.15871433  0.91847033  1
  O  O46  1  0.84128567  0.68257133  0.91847033  1
  O  O47  1  0.84128567  0.15871433  0.91847033  1
