# generated using pymatgen
data_Na4Mn2As(CO4)4
_symmetry_space_group_name_H-M   'P 1'
_cell_length_a   13.77965795
_cell_length_b   14.29876879
_cell_length_c   14.43707533
_cell_angle_alpha   90.00000000
_cell_angle_beta   90.00000000
_cell_angle_gamma   90.00000000
_symmetry_Int_Tables_number   1
_chemical_formula_structural   Na4Mn2As(CO4)4
_chemical_formula_sum   'Na32 Mn16 As8 C32 O128'
_cell_volume   2844.56789100
_cell_formula_units_Z   8
loop_
 _symmetry_equiv_pos_site_id
 _symmetry_equiv_pos_as_xyz
  1  'x, y, z'
loop_
 _atom_site_type_symbol
 _atom_site_label
 _atom_site_symmetry_multiplicity
 _atom_site_fract_x
 _atom_site_fract_y
 _atom_site_fract_z
 _atom_site_occupancy
  Na  Na0  1  0.96385500  0.75000000  0.25000000  1
  Na  Na1  1  0.25000000  0.75000000  0.95955800  1
  Na  Na2  1  0.00000000  0.00000000  0.20955800  1
  Na  Na3  1  0.21385500  0.00000000  0.00000000  1
  Na  Na4  1  0.03614500  0.25000000  0.25000000  1
  Na  Na5  1  0.25000000  0.25000000  0.04044200  1
  Na  Na6  1  0.00000000  0.50000000  0.29044200  1
  Na  Na7  1  0.28614500  0.50000000  0.00000000  1
  Na  Na8  1  0.96385500  0.25000000  0.75000000  1
  Na  Na9  1  0.25000000  0.25000000  0.45955800  1
  Na  Na10  1  0.00000000  0.50000000  0.70955800  1
  Na  Na11  1  0.21385500  0.50000000  0.50000000  1
  Na  Na12  1  0.03614500  0.75000000  0.75000000  1
  Na  Na13  1  0.25000000  0.75000000  0.54044200  1
  Na  Na14  1  0.00000000  0.00000000  0.79044200  1
  Na  Na15  1  0.28614500  0.00000000  0.50000000  1
  Na  Na16  1  0.46385500  0.75000000  0.75000000  1
  Na  Na17  1  0.75000000  0.75000000  0.45955800  1
  Na  Na18  1  0.50000000  0.00000000  0.70955800  1
  Na  Na19  1  0.71385500  0.00000000  0.50000000  1
  Na  Na20  1  0.53614500  0.25000000  0.75000000  1
  Na  Na21  1  0.75000000  0.25000000  0.54044200  1
  Na  Na22  1  0.50000000  0.50000000  0.79044200  1
  Na  Na23  1  0.78614500  0.50000000  0.50000000  1
  Na  Na24  1  0.46385500  0.25000000  0.25000000  1
  Na  Na25  1  0.75000000  0.25000000  0.95955800  1
  Na  Na26  1  0.50000000  0.50000000  0.20955800  1
  Na  Na27  1  0.71385500  0.50000000  0.00000000  1
  Na  Na28  1  0.53614500  0.75000000  0.25000000  1
  Na  Na29  1  0.75000000  0.75000000  0.04044200  1
  Na  Na30  1  0.50000000  0.00000000  0.29044200  1
  Na  Na31  1  0.78614500  0.00000000  0.00000000  1
  Mn  Mn32  1  0.62500000  0.12500000  0.12500000  1
  Mn  Mn33  1  0.37500000  0.12500000  0.87500000  1
  Mn  Mn34  1  0.12500000  0.37500000  0.87500000  1
  Mn  Mn35  1  0.87500000  0.37500000  0.12500000  1
  Mn  Mn36  1  0.62500000  0.62500000  0.62500000  1
  Mn  Mn37  1  0.37500000  0.62500000  0.37500000  1
  Mn  Mn38  1  0.12500000  0.87500000  0.37500000  1
  Mn  Mn39  1  0.87500000  0.87500000  0.62500000  1
  Mn  Mn40  1  0.12500000  0.12500000  0.62500000  1
  Mn  Mn41  1  0.87500000  0.12500000  0.37500000  1
  Mn  Mn42  1  0.62500000  0.37500000  0.37500000  1
  Mn  Mn43  1  0.37500000  0.37500000  0.62500000  1
  Mn  Mn44  1  0.12500000  0.62500000  0.12500000  1
  Mn  Mn45  1  0.87500000  0.62500000  0.87500000  1
  Mn  Mn46  1  0.62500000  0.87500000  0.87500000  1
  Mn  Mn47  1  0.37500000  0.87500000  0.12500000  1
  As  As48  1  0.00000000  0.00000000  0.00000000  1
  As  As49  1  0.25000000  0.25000000  0.25000000  1
  As  As50  1  0.00000000  0.50000000  0.50000000  1
  As  As51  1  0.25000000  0.75000000  0.75000000  1
  As  As52  1  0.50000000  0.00000000  0.50000000  1
  As  As53  1  0.75000000  0.25000000  0.75000000  1
  As  As54  1  0.50000000  0.50000000  0.00000000  1
  As  As55  1  0.75000000  0.75000000  0.25000000  1
  C  C56  1  0.41074600  0.91661250  0.90758850  1
  C  C57  1  0.16074600  0.83338750  0.15758850  1
  C  C58  1  0.41074600  0.08338750  0.09241150  1
  C  C59  1  0.58925400  0.08338750  0.90758850  1
  C  C60  1  0.66074600  0.16661250  0.34241150  1
  C  C61  1  0.83925400  0.16661250  0.15758850  1
  C  C62  1  0.08925400  0.41661250  0.09241150  1
  C  C63  1  0.83925400  0.33338750  0.34241150  1
  C  C64  1  0.41074600  0.41661250  0.40758850  1
  C  C65  1  0.16074600  0.33338750  0.65758850  1
  C  C66  1  0.41074600  0.58338750  0.59241150  1
  C  C67  1  0.58925400  0.58338750  0.40758850  1
  C  C68  1  0.66074600  0.66661250  0.84241150  1
  C  C69  1  0.83925400  0.66661250  0.65758850  1
  C  C70  1  0.08925400  0.91661250  0.59241150  1
  C  C71  1  0.83925400  0.83338750  0.84241150  1
  C  C72  1  0.91074600  0.91661250  0.40758850  1
  C  C73  1  0.66074600  0.83338750  0.65758850  1
  C  C74  1  0.91074600  0.08338750  0.59241150  1
  C  C75  1  0.08925400  0.08338750  0.40758850  1
  C  C76  1  0.16074600  0.16661250  0.84241150  1
  C  C77  1  0.33925400  0.16661250  0.65758850  1
  C  C78  1  0.58925400  0.41661250  0.59241150  1
  C  C79  1  0.33925400  0.33338750  0.84241150  1
  C  C80  1  0.91074600  0.41661250  0.90758850  1
  C  C81  1  0.66074600  0.33338750  0.15758850  1
  C  C82  1  0.91074600  0.58338750  0.09241150  1
  C  C83  1  0.08925400  0.58338750  0.90758850  1
  C  C84  1  0.16074600  0.66661250  0.34241150  1
  C  C85  1  0.33925400  0.66661250  0.15758850  1
  C  C86  1  0.58925400  0.91661250  0.09241150  1
  C  C87  1  0.33925400  0.83338750  0.34241150  1
  O  O88  1  0.48107100  0.85761350  0.89011750  1
  O  O89  1  0.92630900  0.93460400  0.07102400  1
  O  O90  1  0.90122800  0.98916550  0.35384250  1
  O  O91  1  0.15122800  0.76083450  0.10384250  1
  O  O92  1  0.40122800  0.01083450  0.14615750  1
  O  O93  1  0.10117250  0.85045750  0.22348500  1
  O  O94  1  0.92630900  0.06539600  0.92897600  1
  O  O95  1  0.07369100  0.93460400  0.92897600  1
  O  O96  1  0.89882750  0.14954250  0.22348500  1
  O  O97  1  0.09877200  0.01083450  0.35384250  1
  O  O98  1  0.23107100  0.89238650  0.14011750  1
  O  O99  1  0.07369100  0.06539600  0.07102400  1
  O  O100  1  0.48107100  0.14238650  0.10988250  1
  O  O101  1  0.51892900  0.14238650  0.89011750  1
  O  O102  1  0.35117250  0.89954250  0.97348500  1
  O  O103  1  0.60117250  0.14954250  0.27651500  1
  O  O104  1  0.64882750  0.10045750  0.97348500  1
  O  O105  1  0.89882750  0.35045750  0.27651500  1
  O  O106  1  0.73107100  0.10761350  0.35988250  1
  O  O107  1  0.76892900  0.10761350  0.14011750  1
  O  O108  1  0.17630900  0.18460400  0.17897600  1
  O  O109  1  0.01892900  0.35761350  0.10988250  1
  O  O110  1  0.15122800  0.23916550  0.89615750  1
  O  O111  1  0.35117250  0.10045750  0.02651500  1
  O  O112  1  0.17630900  0.31539600  0.32102400  1
  O  O113  1  0.32369100  0.18460400  0.32102400  1
  O  O114  1  0.14882750  0.39954250  0.02651500  1
  O  O115  1  0.84877200  0.23916550  0.10384250  1
  O  O116  1  0.09877200  0.48916550  0.14615750  1
  O  O117  1  0.34877200  0.26083450  0.89615750  1
  O  O118  1  0.32369100  0.31539600  0.17897600  1
  O  O119  1  0.76892900  0.39238650  0.35988250  1
  O  O120  1  0.48107100  0.35761350  0.39011750  1
  O  O121  1  0.92630900  0.43460400  0.57102400  1
  O  O122  1  0.90122800  0.48916550  0.85384250  1
  O  O123  1  0.15122800  0.26083450  0.60384250  1
  O  O124  1  0.40122800  0.51083450  0.64615750  1
  O  O125  1  0.10117250  0.35045750  0.72348500  1
  O  O126  1  0.92630900  0.56539600  0.42897600  1
  O  O127  1  0.07369100  0.43460400  0.42897600  1
  O  O128  1  0.89882750  0.64954250  0.72348500  1
  O  O129  1  0.09877200  0.51083450  0.85384250  1
  O  O130  1  0.23107100  0.39238650  0.64011750  1
  O  O131  1  0.07369100  0.56539600  0.57102400  1
  O  O132  1  0.48107100  0.64238650  0.60988250  1
  O  O133  1  0.51892900  0.64238650  0.39011750  1
  O  O134  1  0.35117250  0.39954250  0.47348500  1
  O  O135  1  0.60117250  0.64954250  0.77651500  1
  O  O136  1  0.64882750  0.60045750  0.47348500  1
  O  O137  1  0.89882750  0.85045750  0.77651500  1
  O  O138  1  0.73107100  0.60761350  0.85988250  1
  O  O139  1  0.76892900  0.60761350  0.64011750  1
  O  O140  1  0.17630900  0.68460400  0.67897600  1
  O  O141  1  0.01892900  0.85761350  0.60988250  1
  O  O142  1  0.15122800  0.73916550  0.39615750  1
  O  O143  1  0.35117250  0.60045750  0.52651500  1
  O  O144  1  0.17630900  0.81539600  0.82102400  1
  O  O145  1  0.32369100  0.68460400  0.82102400  1
  O  O146  1  0.14882750  0.89954250  0.52651500  1
  O  O147  1  0.84877200  0.73916550  0.60384250  1
  O  O148  1  0.09877200  0.98916550  0.64615750  1
  O  O149  1  0.34877200  0.76083450  0.39615750  1
  O  O150  1  0.32369100  0.81539600  0.67897600  1
  O  O151  1  0.76892900  0.89238650  0.85988250  1
  O  O152  1  0.98107100  0.85761350  0.39011750  1
  O  O153  1  0.42630900  0.93460400  0.57102400  1
  O  O154  1  0.40122800  0.98916550  0.85384250  1
  O  O155  1  0.65122800  0.76083450  0.60384250  1
  O  O156  1  0.90122800  0.01083450  0.64615750  1
  O  O157  1  0.60117250  0.85045750  0.72348500  1
  O  O158  1  0.42630900  0.06539600  0.42897600  1
  O  O159  1  0.57369100  0.93460400  0.42897600  1
  O  O160  1  0.39882750  0.14954250  0.72348500  1
  O  O161  1  0.59877200  0.01083450  0.85384250  1
  O  O162  1  0.73107100  0.89238650  0.64011750  1
  O  O163  1  0.57369100  0.06539600  0.57102400  1
  O  O164  1  0.98107100  0.14238650  0.60988250  1
  O  O165  1  0.01892900  0.14238650  0.39011750  1
  O  O166  1  0.85117250  0.89954250  0.47348500  1
  O  O167  1  0.10117250  0.14954250  0.77651500  1
  O  O168  1  0.14882750  0.10045750  0.47348500  1
  O  O169  1  0.39882750  0.35045750  0.77651500  1
  O  O170  1  0.23107100  0.10761350  0.85988250  1
  O  O171  1  0.26892900  0.10761350  0.64011750  1
  O  O172  1  0.67630900  0.18460400  0.67897600  1
  O  O173  1  0.51892900  0.35761350  0.60988250  1
  O  O174  1  0.65122800  0.23916550  0.39615750  1
  O  O175  1  0.85117250  0.10045750  0.52651500  1
  O  O176  1  0.67630900  0.31539600  0.82102400  1
  O  O177  1  0.82369100  0.18460400  0.82102400  1
  O  O178  1  0.64882750  0.39954250  0.52651500  1
  O  O179  1  0.34877200  0.23916550  0.60384250  1
  O  O180  1  0.59877200  0.48916550  0.64615750  1
  O  O181  1  0.84877200  0.26083450  0.39615750  1
  O  O182  1  0.82369100  0.31539600  0.67897600  1
  O  O183  1  0.26892900  0.39238650  0.85988250  1
  O  O184  1  0.98107100  0.35761350  0.89011750  1
  O  O185  1  0.42630900  0.43460400  0.07102400  1
  O  O186  1  0.40122800  0.48916550  0.35384250  1
  O  O187  1  0.65122800  0.26083450  0.10384250  1
  O  O188  1  0.90122800  0.51083450  0.14615750  1
  O  O189  1  0.60117250  0.35045750  0.22348500  1
  O  O190  1  0.42630900  0.56539600  0.92897600  1
  O  O191  1  0.57369100  0.43460400  0.92897600  1
  O  O192  1  0.39882750  0.64954250  0.22348500  1
  O  O193  1  0.59877200  0.51083450  0.35384250  1
  O  O194  1  0.73107100  0.39238650  0.14011750  1
  O  O195  1  0.57369100  0.56539600  0.07102400  1
  O  O196  1  0.98107100  0.64238650  0.10988250  1
  O  O197  1  0.01892900  0.64238650  0.89011750  1
  O  O198  1  0.85117250  0.39954250  0.97348500  1
  O  O199  1  0.10117250  0.64954250  0.27651500  1
  O  O200  1  0.14882750  0.60045750  0.97348500  1
  O  O201  1  0.39882750  0.85045750  0.27651500  1
  O  O202  1  0.23107100  0.60761350  0.35988250  1
  O  O203  1  0.26892900  0.60761350  0.14011750  1
  O  O204  1  0.67630900  0.68460400  0.17897600  1
  O  O205  1  0.51892900  0.85761350  0.10988250  1
  O  O206  1  0.65122800  0.73916550  0.89615750  1
  O  O207  1  0.85117250  0.60045750  0.02651500  1
  O  O208  1  0.67630900  0.81539600  0.32102400  1
  O  O209  1  0.82369100  0.68460400  0.32102400  1
  O  O210  1  0.64882750  0.89954250  0.02651500  1
  O  O211  1  0.34877200  0.73916550  0.10384250  1
  O  O212  1  0.59877200  0.98916550  0.14615750  1
  O  O213  1  0.84877200  0.76083450  0.89615750  1
  O  O214  1  0.82369100  0.81539600  0.17897600  1
  O  O215  1  0.26892900  0.89238650  0.35988250  1
