# generated using pymatgen
data_Na7(WO3)8
_symmetry_space_group_name_H-M   'P 1'
_cell_length_a   15.74846400
_cell_length_b   7.88355200
_cell_length_c   8.80653884
_cell_angle_alpha   90.00000000
_cell_angle_beta   116.55222860
_cell_angle_gamma   90.00000000
_symmetry_Int_Tables_number   1
_chemical_formula_structural   Na7(WO3)8
_chemical_formula_sum   'Na14 W16 O48'
_cell_volume   978.04529922
_cell_formula_units_Z   2
loop_
 _symmetry_equiv_pos_site_id
 _symmetry_equiv_pos_as_xyz
  1  'x, y, z'
loop_
 _atom_site_type_symbol
 _atom_site_label
 _atom_site_symmetry_multiplicity
 _atom_site_fract_x
 _atom_site_fract_y
 _atom_site_fract_z
 _atom_site_occupancy
  Na  Na0  1  0.00000000  0.50000000  0.00000000  1
  Na  Na1  1  0.24959700  0.00000000  0.99998600  1
  Na  Na2  1  0.37504900  0.00000000  0.49987100  1
  Na  Na3  1  0.12490200  0.00000000  0.49931200  1
  Na  Na4  1  0.37509800  0.50000000  0.50068800  1
  Na  Na5  1  0.12495100  0.50000000  0.50012900  1
  Na  Na6  1  0.25040300  0.50000000  0.00001400  1
  Na  Na7  1  0.50000000  0.00000000  0.00000000  1
  Na  Na8  1  0.74959700  0.50000000  0.99998600  1
  Na  Na9  1  0.87504900  0.50000000  0.49987100  1
  Na  Na10  1  0.62490200  0.50000000  0.49931200  1
  Na  Na11  1  0.87509800  0.00000000  0.50068800  1
  Na  Na12  1  0.62495100  0.00000000  0.50012900  1
  Na  Na13  1  0.75040300  0.00000000  0.00001400  1
  W  W14  1  0.43778300  0.74877100  0.24877500  1
  W  W15  1  0.31340100  0.74879300  0.75122600  1
  W  W16  1  0.43778300  0.25122900  0.24877500  1
  W  W17  1  0.18659900  0.24879300  0.24877400  1
  W  W18  1  0.31340100  0.25120700  0.75122600  1
  W  W19  1  0.06221700  0.24877100  0.75122500  1
  W  W20  1  0.06221700  0.75122900  0.75122500  1
  W  W21  1  0.18659900  0.75120700  0.24877400  1
  W  W22  1  0.93778300  0.24877100  0.24877500  1
  W  W23  1  0.81340100  0.24879300  0.75122600  1
  W  W24  1  0.93778300  0.75122900  0.24877500  1
  W  W25  1  0.68659900  0.74879300  0.24877400  1
  W  W26  1  0.81340100  0.75120700  0.75122600  1
  W  W27  1  0.56221700  0.74877100  0.75122500  1
  W  W28  1  0.56221700  0.25122900  0.75122500  1
  W  W29  1  0.68659900  0.25120700  0.24877400  1
  O  O30  1  0.00000000  0.24958600  0.50000000  1
  O  O31  1  0.37391750  0.75200750  0.99999700  1
  O  O32  1  0.31242550  0.75001850  0.24970300  1
  O  O33  1  0.43700150  0.75209050  0.74798700  1
  O  O34  1  0.25000000  0.75000000  0.50000000  1
  O  O35  1  0.43758600  0.00000000  0.24972100  1
  O  O36  1  0.18912000  0.00000000  0.25218200  1
  O  O37  1  0.31272000  0.00000000  0.75028700  1
  O  O38  1  0.06304700  0.00000000  0.74786500  1
  O  O39  1  0.00000000  0.75041400  0.50000000  1
  O  O40  1  0.37391750  0.24799250  0.99999700  1
  O  O41  1  0.31242550  0.24998150  0.24970300  1
  O  O42  1  0.25000000  0.25000000  0.50000000  1
  O  O43  1  0.06299850  0.25209050  0.25201300  1
  O  O44  1  0.43700150  0.24790950  0.74798700  1
  O  O45  1  0.12608250  0.25200750  0.00000300  1
  O  O46  1  0.18757450  0.25001850  0.75029700  1
  O  O47  1  0.18728000  0.50000000  0.24971300  1
  O  O48  1  0.43695300  0.50000000  0.25213500  1
  O  O49  1  0.06241400  0.50000000  0.75027900  1
  O  O50  1  0.31088000  0.50000000  0.74781800  1
  O  O51  1  0.18757450  0.74998150  0.75029700  1
  O  O52  1  0.06299850  0.74790950  0.25201300  1
  O  O53  1  0.12608250  0.74799250  0.00000300  1
  O  O54  1  0.50000000  0.74958600  0.50000000  1
  O  O55  1  0.87391750  0.25200750  0.99999700  1
  O  O56  1  0.81242550  0.25001850  0.24970300  1
  O  O57  1  0.93700150  0.25209050  0.74798700  1
  O  O58  1  0.75000000  0.25000000  0.50000000  1
  O  O59  1  0.93758600  0.50000000  0.24972100  1
  O  O60  1  0.68912000  0.50000000  0.25218200  1
  O  O61  1  0.81272000  0.50000000  0.75028700  1
  O  O62  1  0.56304700  0.50000000  0.74786500  1
  O  O63  1  0.50000000  0.25041400  0.50000000  1
  O  O64  1  0.87391750  0.74799250  0.99999700  1
  O  O65  1  0.81242550  0.74998150  0.24970300  1
  O  O66  1  0.75000000  0.75000000  0.50000000  1
  O  O67  1  0.56299850  0.75209050  0.25201300  1
  O  O68  1  0.93700150  0.74790950  0.74798700  1
  O  O69  1  0.62608250  0.75200750  0.00000300  1
  O  O70  1  0.68757450  0.75001850  0.75029700  1
  O  O71  1  0.68728000  0.00000000  0.24971300  1
  O  O72  1  0.93695300  0.00000000  0.25213500  1
  O  O73  1  0.56241400  0.00000000  0.75027900  1
  O  O74  1  0.81088000  0.00000000  0.74781800  1
  O  O75  1  0.68757450  0.24998150  0.75029700  1
  O  O76  1  0.56299850  0.24790950  0.25201300  1
  O  O77  1  0.62608250  0.24799250  0.00000300  1
