# generated using pymatgen
data_Co5SbO12
_symmetry_space_group_name_H-M   'P 1'
_cell_length_a   5.00904458
_cell_length_b   8.67754976
_cell_length_c   9.61888743
_cell_angle_alpha   90.00000000
_cell_angle_beta   90.06679248
_cell_angle_gamma   90.00000000
_symmetry_Int_Tables_number   1
_chemical_formula_structural   Co5SbO12
_chemical_formula_sum   'Co10 Sb2 O24'
_cell_volume   418.09652374
_cell_formula_units_Z   2
loop_
 _symmetry_equiv_pos_site_id
 _symmetry_equiv_pos_as_xyz
  1  'x, y, z'
loop_
 _atom_site_type_symbol
 _atom_site_label
 _atom_site_symmetry_multiplicity
 _atom_site_fract_x
 _atom_site_fract_y
 _atom_site_fract_z
 _atom_site_occupancy
  Co  Co0  1  0.50000000  0.66665000  0.50000000  1
  Co  Co1  1  0.00000000  0.66665550  0.00000000  1
  Co  Co2  1  0.50000000  0.83334450  0.00000000  1
  Co  Co3  1  0.00000000  0.83335000  0.50000000  1
  Co  Co4  1  0.50000000  0.00000000  0.50000000  1
  Co  Co5  1  0.00000000  0.16665000  0.50000000  1
  Co  Co6  1  0.50000000  0.16665550  0.00000000  1
  Co  Co7  1  0.00000000  0.33334450  0.00000000  1
  Co  Co8  1  0.50000000  0.33335000  0.50000000  1
  Co  Co9  1  0.00000000  0.50000000  0.50000000  1
  Sb  Sb10  1  0.00000000  0.00000000  0.00000000  1
  Sb  Sb11  1  0.50000000  0.50000000  0.00000000  1
  O  O12  1  0.67469700  0.67497000  0.89826000  1
  O  O13  1  0.32530300  0.67497000  0.10174000  1
  O  O14  1  0.66692100  0.83360100  0.59458700  1
  O  O15  1  0.16692100  0.66639900  0.59458700  1
  O  O16  1  0.33307900  0.83360100  0.40541300  1
  O  O17  1  0.83391100  0.00000000  0.40489800  1
  O  O18  1  0.83307900  0.66639900  0.40541300  1
  O  O19  1  0.17469700  0.82503000  0.89826000  1
  O  O20  1  0.64973600  0.00000000  0.89815500  1
  O  O21  1  0.82530300  0.82503000  0.10174000  1
  O  O22  1  0.35026400  0.00000000  0.10184500  1
  O  O23  1  0.16608900  0.00000000  0.59510200  1
  O  O24  1  0.17469700  0.17497000  0.89826000  1
  O  O25  1  0.82530300  0.17497000  0.10174000  1
  O  O26  1  0.16692100  0.33360100  0.59458700  1
  O  O27  1  0.66692100  0.16639900  0.59458700  1
  O  O28  1  0.83307900  0.33360100  0.40541300  1
  O  O29  1  0.33391100  0.50000000  0.40489800  1
  O  O30  1  0.33307900  0.16639900  0.40541300  1
  O  O31  1  0.67469700  0.32503000  0.89826000  1
  O  O32  1  0.14973600  0.50000000  0.89815500  1
  O  O33  1  0.32530300  0.32503000  0.10174000  1
  O  O34  1  0.85026400  0.50000000  0.10184500  1
  O  O35  1  0.66608900  0.50000000  0.59510200  1
