# generated using pymatgen
data_Na3FePCO7
_symmetry_space_group_name_H-M   'P 1'
_cell_length_a   5.30101677
_cell_length_b   6.72750656
_cell_length_c   9.00110274
_cell_angle_alpha   90.00000000
_cell_angle_beta   90.02386358
_cell_angle_gamma   90.00000000
_symmetry_Int_Tables_number   1
_chemical_formula_structural   Na3FePCO7
_chemical_formula_sum   'Na6 Fe2 P2 C2 O14'
_cell_volume   321.00292445
_cell_formula_units_Z   2
loop_
 _symmetry_equiv_pos_site_id
 _symmetry_equiv_pos_as_xyz
  1  'x, y, z'
loop_
 _atom_site_type_symbol
 _atom_site_label
 _atom_site_symmetry_multiplicity
 _atom_site_fract_x
 _atom_site_fract_y
 _atom_site_fract_z
 _atom_site_occupancy
  Na  Na0  1  0.00253350  0.51572550  0.50250725  1
  Na  Na1  1  0.99746650  0.01572550  0.49749275  1
  Na  Na2  1  0.44244200  0.77560050  0.66507025  1
  Na  Na3  1  0.55755800  0.27560050  0.33492975  1
  Na  Na4  1  0.49248900  0.51037600  0.99504375  1
  Na  Na5  1  0.50751100  0.01037600  0.00495625  1
  Fe  Fe6  1  0.02967450  0.26195250  0.79821025  1
  Fe  Fe7  1  0.97032550  0.76195250  0.20178975  1
  P  P8  1  0.98523750  0.76273450  0.84359725  1
  P  P9  1  0.01476250  0.26273450  0.15640275  1
  C  C10  1  0.49930950  0.26192150  0.65377825  1
  C  C11  1  0.50069050  0.76192150  0.34622175  1
  O  O12  1  0.32330200  0.26328650  0.55236225  1
  O  O13  1  0.67669800  0.76328650  0.44763775  1
  O  O14  1  0.73687150  0.26561100  0.61387775  1
  O  O15  1  0.26312850  0.76561100  0.38612225  1
  O  O16  1  0.06982500  0.94747800  0.75072475  1
  O  O17  1  0.93017500  0.44747800  0.24927525  1
  O  O18  1  0.08239350  0.57794150  0.75523625  1
  O  O19  1  0.91760650  0.07794150  0.24476375  1
  O  O20  1  0.43823600  0.25619150  0.79267325  1
  O  O21  1  0.56176400  0.75619150  0.20732675  1
  O  O22  1  0.69746950  0.75909800  0.86537975  1
  O  O23  1  0.30253050  0.25909800  0.13462025  1
  O  O24  1  0.12351550  0.76811800  0.99789575  1
  O  O25  1  0.87648450  0.26811800  0.00210425  1
