# generated using pymatgen
data_Li6NiOF6
_symmetry_space_group_name_H-M   'P 1'
_cell_length_a   2.90337302
_cell_length_b   2.90337302
_cell_length_c   28.90177550
_cell_angle_alpha   90.00000000
_cell_angle_beta   90.00000000
_cell_angle_gamma   90.00000000
_symmetry_Int_Tables_number   1
_chemical_formula_structural   Li6NiOF6
_chemical_formula_sum   'Li12 Ni2 O2 F12'
_cell_volume   243.62968098
_cell_formula_units_Z   2
loop_
 _symmetry_equiv_pos_site_id
 _symmetry_equiv_pos_as_xyz
  1  'x, y, z'
loop_
 _atom_site_type_symbol
 _atom_site_label
 _atom_site_symmetry_multiplicity
 _atom_site_fract_x
 _atom_site_fract_y
 _atom_site_fract_z
 _atom_site_occupancy
  Li  Li0  1  0.50000000  0.50000000  0.07265575  1
  Li  Li1  1  0.00000000  0.00000000  0.42734425  1
  Li  Li2  1  0.00000000  0.00000000  0.14476950  1
  Li  Li3  1  0.50000000  0.50000000  0.35523050  1
  Li  Li4  1  0.50000000  0.50000000  0.21464425  1
  Li  Li5  1  0.00000000  0.00000000  0.28535575  1
  Li  Li6  1  0.00000000  0.00000000  0.57265575  1
  Li  Li7  1  0.50000000  0.50000000  0.92734425  1
  Li  Li8  1  0.50000000  0.50000000  0.64476950  1
  Li  Li9  1  0.00000000  0.00000000  0.85523050  1
  Li  Li10  1  0.00000000  0.00000000  0.71464425  1
  Li  Li11  1  0.50000000  0.50000000  0.78535575  1
  Ni  Ni12  1  0.00000000  0.00000000  0.00000000  1
  Ni  Ni13  1  0.50000000  0.50000000  0.50000000  1
  O  O14  1  0.50000000  0.50000000  0.00000000  1
  O  O15  1  0.00000000  0.00000000  0.50000000  1
  F  F16  1  0.00000000  0.00000000  0.07487225  1
  F  F17  1  0.50000000  0.50000000  0.42512775  1
  F  F18  1  0.50000000  0.50000000  0.14435625  1
  F  F19  1  0.00000000  0.00000000  0.35564375  1
  F  F20  1  0.00000000  0.00000000  0.21476400  1
  F  F21  1  0.50000000  0.50000000  0.28523600  1
  F  F22  1  0.50000000  0.50000000  0.57487225  1
  F  F23  1  0.00000000  0.00000000  0.92512775  1
  F  F24  1  0.00000000  0.00000000  0.64435625  1
  F  F25  1  0.50000000  0.50000000  0.85564375  1
  F  F26  1  0.50000000  0.50000000  0.71476400  1
  F  F27  1  0.00000000  0.00000000  0.78523600  1
