# generated using pymatgen
data_LiSn2(SO4)3
_symmetry_space_group_name_H-M   'P 1'
_cell_length_a   9.20782750
_cell_length_b   9.20782750
_cell_length_c   23.12234599
_cell_angle_alpha   90.00000000
_cell_angle_beta   90.00000000
_cell_angle_gamma   120.00000000
_symmetry_Int_Tables_number   1
_chemical_formula_structural   LiSn2(SO4)3
_chemical_formula_sum   'Li6 Sn12 S18 O72'
_cell_volume   1697.76226501
_cell_formula_units_Z   6
loop_
 _symmetry_equiv_pos_site_id
 _symmetry_equiv_pos_as_xyz
  1  'x, y, z'
loop_
 _atom_site_type_symbol
 _atom_site_label
 _atom_site_symmetry_multiplicity
 _atom_site_fract_x
 _atom_site_fract_y
 _atom_site_fract_z
 _atom_site_occupancy
  Li  Li0  1  0.00000000  0.00000000  0.00000000  1
  Li  Li1  1  0.33333333  0.66666667  0.16666667  1
  Li  Li2  1  0.66666667  0.33333333  0.33333333  1
  Li  Li3  1  0.00000000  0.00000000  0.50000000  1
  Li  Li4  1  0.33333333  0.66666667  0.66666667  1
  Li  Li5  1  0.66666667  0.33333333  0.83333333  1
  Sn  Sn6  1  0.33333333  0.66666667  0.01972167  1
  Sn  Sn7  1  0.00000000  0.00000000  0.14694500  1
  Sn  Sn8  1  0.33333333  0.66666667  0.31361167  1
  Sn  Sn9  1  0.66666667  0.33333333  0.18638833  1
  Sn  Sn10  1  0.00000000  0.00000000  0.35305500  1
  Sn  Sn11  1  0.66666667  0.33333333  0.48027833  1
  Sn  Sn12  1  0.00000000  0.00000000  0.64694500  1
  Sn  Sn13  1  0.33333333  0.66666667  0.51972167  1
  Sn  Sn14  1  0.66666667  0.33333333  0.68638833  1
  Sn  Sn15  1  0.33333333  0.66666667  0.81361167  1
  Sn  Sn16  1  0.66666667  0.33333333  0.98027833  1
  Sn  Sn17  1  0.00000000  0.00000000  0.85305500  1
  S  S18  1  0.66666667  0.64649733  0.08333333  1
  S  S19  1  0.68683600  0.00000000  0.25000000  1
  S  S20  1  0.31316400  0.31316400  0.25000000  1
  S  S21  1  0.35350267  0.02016933  0.08333333  1
  S  S22  1  0.97983067  0.33333333  0.08333333  1
  S  S23  1  0.00000000  0.68683600  0.25000000  1
  S  S24  1  0.33333333  0.97983067  0.41666667  1
  S  S25  1  0.35350267  0.33333333  0.58333333  1
  S  S26  1  0.97983067  0.64649733  0.58333333  1
  S  S27  1  0.02016933  0.35350267  0.41666667  1
  S  S28  1  0.64649733  0.66666667  0.41666667  1
  S  S29  1  0.66666667  0.02016933  0.58333333  1
  S  S30  1  0.00000000  0.31316400  0.75000000  1
  S  S31  1  0.02016933  0.66666667  0.91666667  1
  S  S32  1  0.64649733  0.97983067  0.91666667  1
  S  S33  1  0.68683600  0.68683600  0.75000000  1
  S  S34  1  0.31316400  0.00000000  0.75000000  1
  S  S35  1  0.33333333  0.35350267  0.91666667  1
  O  O36  1  0.81882400  0.81729900  0.07437600  1
  O  O37  1  0.48396567  0.33180833  0.25895733  1
  O  O38  1  0.90092800  0.35324000  0.03054000  1
  O  O39  1  0.88102133  0.31342667  0.13612667  1
  O  O40  1  0.51450933  0.66514167  0.09229067  1
  O  O41  1  0.51603433  0.84784267  0.24104267  1
  O  O42  1  0.66819167  0.15215733  0.25895733  1
  O  O43  1  0.98009333  0.76573867  0.19720667  1
  O  O44  1  0.21435467  0.23426133  0.30279333  1
  O  O45  1  0.01990667  0.78564533  0.30279333  1
  O  O46  1  0.23426133  0.21435467  0.19720667  1
  O  O47  1  0.33180833  0.48396567  0.24104267  1
  O  O48  1  0.33485833  0.84936767  0.09229067  1
  O  O49  1  0.64676000  0.54768800  0.03054000  1
  O  O50  1  0.43240533  0.11897867  0.13612667  1
  O  O51  1  0.68657333  0.56759467  0.13612667  1
  O  O52  1  0.45231200  0.09907200  0.03054000  1
  O  O53  1  0.99847500  0.18117600  0.07437600  1
  O  O54  1  0.15063233  0.48549067  0.09229067  1
  O  O55  1  0.15215733  0.66819167  0.24104267  1
  O  O56  1  0.76573867  0.98009333  0.30279333  1
  O  O57  1  0.78564533  0.01990667  0.19720667  1
  O  O58  1  0.18270100  0.00152500  0.07437600  1
  O  O59  1  0.84784267  0.51603433  0.25895733  1
  O  O60  1  0.48549067  0.15063233  0.40770933  1
  O  O61  1  0.15063233  0.66514167  0.59229067  1
  O  O62  1  0.56759467  0.68657333  0.36387333  1
  O  O63  1  0.54768800  0.64676000  0.46946000  1
  O  O64  1  0.18117600  0.99847500  0.42562400  1
  O  O65  1  0.18270100  0.18117600  0.57437600  1
  O  O66  1  0.33485833  0.48549067  0.59229067  1
  O  O67  1  0.64676000  0.09907200  0.53054000  1
  O  O68  1  0.88102133  0.56759467  0.63612667  1
  O  O69  1  0.68657333  0.11897867  0.63612667  1
  O  O70  1  0.90092800  0.54768800  0.53054000  1
  O  O71  1  0.99847500  0.81729900  0.57437600  1
  O  O72  1  0.00152500  0.18270100  0.42562400  1
  O  O73  1  0.31342667  0.88102133  0.36387333  1
  O  O74  1  0.09907200  0.45231200  0.46946000  1
  O  O75  1  0.35324000  0.90092800  0.46946000  1
  O  O76  1  0.11897867  0.43240533  0.36387333  1
  O  O77  1  0.66514167  0.51450933  0.40770933  1
  O  O78  1  0.81729900  0.81882400  0.42562400  1
  O  O79  1  0.81882400  0.00152500  0.57437600  1
  O  O80  1  0.43240533  0.31342667  0.63612667  1
  O  O81  1  0.45231200  0.35324000  0.53054000  1
  O  O82  1  0.84936767  0.33485833  0.40770933  1
  O  O83  1  0.51450933  0.84936767  0.59229067  1
  O  O84  1  0.15215733  0.48396567  0.74104267  1
  O  O85  1  0.81729900  0.99847500  0.92562400  1
  O  O86  1  0.23426133  0.01990667  0.69720667  1
  O  O87  1  0.21435467  0.98009333  0.80279333  1
  O  O88  1  0.84784267  0.33180833  0.75895733  1
  O  O89  1  0.84936767  0.51450933  0.90770933  1
  O  O90  1  0.00152500  0.81882400  0.92562400  1
  O  O91  1  0.31342667  0.43240533  0.86387333  1
  O  O92  1  0.54768800  0.90092800  0.96946000  1
  O  O93  1  0.35324000  0.45231200  0.96946000  1
  O  O94  1  0.56759467  0.88102133  0.86387333  1
  O  O95  1  0.66514167  0.15063233  0.90770933  1
  O  O96  1  0.66819167  0.51603433  0.75895733  1
  O  O97  1  0.98009333  0.21435467  0.69720667  1
  O  O98  1  0.76573867  0.78564533  0.80279333  1
  O  O99  1  0.01990667  0.23426133  0.80279333  1
  O  O100  1  0.78564533  0.76573867  0.69720667  1
  O  O101  1  0.33180833  0.84784267  0.74104267  1
  O  O102  1  0.48396567  0.15215733  0.75895733  1
  O  O103  1  0.48549067  0.33485833  0.90770933  1
  O  O104  1  0.09907200  0.64676000  0.96946000  1
  O  O105  1  0.11897867  0.68657333  0.86387333  1
  O  O106  1  0.51603433  0.66819167  0.74104267  1
  O  O107  1  0.18117600  0.18270100  0.92562400  1
