# generated using pymatgen
data_MnOF
_symmetry_space_group_name_H-M   'P 1'
_cell_length_a   3.08233000
_cell_length_b   4.80265002
_cell_length_c   14.19443806
_cell_angle_alpha   90.00000000
_cell_angle_beta   90.00000000
_cell_angle_gamma   90.00000000
_symmetry_Int_Tables_number   1
_chemical_formula_structural   MnOF
_chemical_formula_sum   'Mn6 O6 F6'
_cell_volume   210.12526632
_cell_formula_units_Z   6
loop_
 _symmetry_equiv_pos_site_id
 _symmetry_equiv_pos_as_xyz
  1  'x, y, z'
loop_
 _atom_site_type_symbol
 _atom_site_label
 _atom_site_symmetry_multiplicity
 _atom_site_fract_x
 _atom_site_fract_y
 _atom_site_fract_z
 _atom_site_occupancy
  Mn  Mn0  1  0.50000000  0.71661000  0.99914900  1
  Mn  Mn1  1  0.50000000  0.85459800  0.33146600  1
  Mn  Mn2  1  0.50000000  0.70757100  0.66695100  1
  Mn  Mn3  1  0.00000000  0.29242900  0.16695100  1
  Mn  Mn4  1  0.00000000  0.28339000  0.49914900  1
  Mn  Mn5  1  0.00000000  0.14540200  0.83146600  1
  O  O6  1  0.00000000  0.02004100  0.26780000  1
  O  O7  1  0.00000000  0.89115300  0.93537100  1
  O  O8  1  0.50000000  0.97995900  0.76780000  1
  O  O9  1  0.50000000  0.10884700  0.43537100  1
  O  O10  1  0.50000000  0.44529300  0.56592200  1
  O  O11  1  0.00000000  0.55470700  0.06592200  1
  F  F12  1  0.00000000  0.91999400  0.60576900  1
  F  F13  1  0.50000000  0.08000600  0.10576900  1
  F  F14  1  0.50000000  0.51214100  0.23440800  1
  F  F15  1  0.50000000  0.36860300  0.89312200  1
  F  F16  1  0.00000000  0.63139700  0.39312200  1
  F  F17  1  0.00000000  0.48785900  0.73440800  1
