# generated using pymatgen
data_Ti2Sn(PO4)3
_symmetry_space_group_name_H-M   'P 1'
_cell_length_a   8.66849561
_cell_length_b   8.66849561
_cell_length_c   22.61567156
_cell_angle_alpha   90.00000000
_cell_angle_beta   90.00000000
_cell_angle_gamma   120.00000000
_symmetry_Int_Tables_number   1
_chemical_formula_structural   Ti2Sn(PO4)3
_chemical_formula_sum   'Ti12 Sn6 P18 O72'
_cell_volume   1471.72811845
_cell_formula_units_Z   6
loop_
 _symmetry_equiv_pos_site_id
 _symmetry_equiv_pos_as_xyz
  1  'x, y, z'
loop_
 _atom_site_type_symbol
 _atom_site_label
 _atom_site_symmetry_multiplicity
 _atom_site_fract_x
 _atom_site_fract_y
 _atom_site_fract_z
 _atom_site_occupancy
  Ti  Ti0  1  0.00000000  0.00000000  0.14863000  1
  Ti  Ti1  1  0.33333333  0.66666667  0.01803667  1
  Ti  Ti2  1  0.33333333  0.66666667  0.31529667  1
  Ti  Ti3  1  0.66666667  0.33333333  0.18470333  1
  Ti  Ti4  1  0.66666667  0.33333333  0.48196333  1
  Ti  Ti5  1  0.00000000  0.00000000  0.35137000  1
  Ti  Ti6  1  0.00000000  0.00000000  0.64863000  1
  Ti  Ti7  1  0.33333333  0.66666667  0.51803667  1
  Ti  Ti8  1  0.33333333  0.66666667  0.81529667  1
  Ti  Ti9  1  0.66666667  0.33333333  0.68470333  1
  Ti  Ti10  1  0.66666667  0.33333333  0.98196333  1
  Ti  Ti11  1  0.00000000  0.00000000  0.85137000  1
  Sn  Sn12  1  0.00000000  0.00000000  0.00000000  1
  Sn  Sn13  1  0.33333333  0.66666667  0.16666667  1
  Sn  Sn14  1  0.66666667  0.33333333  0.33333333  1
  Sn  Sn15  1  0.00000000  0.00000000  0.50000000  1
  Sn  Sn16  1  0.33333333  0.66666667  0.66666667  1
  Sn  Sn17  1  0.66666667  0.33333333  0.83333333  1
  P  P18  1  0.66666667  0.62140033  0.08333333  1
  P  P19  1  0.95473367  0.33333333  0.08333333  1
  P  P20  1  0.37859967  0.04526633  0.08333333  1
  P  P21  1  0.28806700  0.28806700  0.25000000  1
  P  P22  1  0.71193300  0.00000000  0.25000000  1
  P  P23  1  0.00000000  0.71193300  0.25000000  1
  P  P24  1  0.33333333  0.95473367  0.41666667  1
  P  P25  1  0.62140033  0.66666667  0.41666667  1
  P  P26  1  0.04526633  0.37859967  0.41666667  1
  P  P27  1  0.95473367  0.62140033  0.58333333  1
  P  P28  1  0.37859967  0.33333333  0.58333333  1
  P  P29  1  0.66666667  0.04526633  0.58333333  1
  P  P30  1  0.00000000  0.28806700  0.75000000  1
  P  P31  1  0.28806700  0.00000000  0.75000000  1
  P  P32  1  0.71193300  0.71193300  0.75000000  1
  P  P33  1  0.62140033  0.95473367  0.91666667  1
  P  P34  1  0.04526633  0.66666667  0.91666667  1
  P  P35  1  0.33333333  0.37859967  0.91666667  1
  O  O36  1  0.98074133  0.80057967  0.30649767  1
  O  O37  1  0.19942033  0.18016167  0.30649767  1
  O  O38  1  0.83504500  0.80910400  0.08765200  1
  O  O39  1  0.81983833  0.01925867  0.30649767  1
  O  O40  1  0.64740800  0.51349500  0.13983100  1
  O  O41  1  0.49828833  0.64072567  0.07901467  1
  O  O42  1  0.97405900  0.16495500  0.08765200  1
  O  O43  1  0.14243733  0.50171167  0.07901467  1
  O  O44  1  0.18016167  0.19942033  0.19350233  1
  O  O45  1  0.35927433  0.85756267  0.07901467  1
  O  O46  1  0.47577067  0.30739233  0.24568133  1
  O  O47  1  0.80057967  0.98074133  0.19350233  1
  O  O48  1  0.86608700  0.35259200  0.13983100  1
  O  O49  1  0.19089600  0.02594100  0.08765200  1
  O  O50  1  0.30739233  0.47577067  0.25431867  1
  O  O51  1  0.48650500  0.13391300  0.13983100  1
  O  O52  1  0.52422933  0.83162167  0.25431867  1
  O  O53  1  0.69260767  0.16837833  0.24568133  1
  O  O54  1  0.16837833  0.69260767  0.25431867  1
  O  O55  1  0.01925867  0.81983833  0.19350233  1
  O  O56  1  0.84682833  0.31407467  0.02683567  1
  O  O57  1  0.83162167  0.52422933  0.24568133  1
  O  O58  1  0.46724633  0.15317167  0.02683567  1
  O  O59  1  0.68592533  0.53275367  0.02683567  1
  O  O60  1  0.64740800  0.13391300  0.63983100  1
  O  O61  1  0.86608700  0.51349500  0.63983100  1
  O  O62  1  0.50171167  0.14243733  0.42098533  1
  O  O63  1  0.48650500  0.35259200  0.63983100  1
  O  O64  1  0.31407467  0.84682833  0.47316433  1
  O  O65  1  0.16495500  0.97405900  0.41234800  1
  O  O66  1  0.64072567  0.49828833  0.42098533  1
  O  O67  1  0.80910400  0.83504500  0.41234800  1
  O  O68  1  0.84682833  0.53275367  0.52683567  1
  O  O69  1  0.02594100  0.19089600  0.41234800  1
  O  O70  1  0.14243733  0.64072567  0.57901467  1
  O  O71  1  0.46724633  0.31407467  0.52683567  1
  O  O72  1  0.53275367  0.68592533  0.47316433  1
  O  O73  1  0.85756267  0.35927433  0.42098533  1
  O  O74  1  0.97405900  0.80910400  0.58765200  1
  O  O75  1  0.15317167  0.46724633  0.47316433  1
  O  O76  1  0.19089600  0.16495500  0.58765200  1
  O  O77  1  0.35927433  0.50171167  0.57901467  1
  O  O78  1  0.83504500  0.02594100  0.58765200  1
  O  O79  1  0.68592533  0.15317167  0.52683567  1
  O  O80  1  0.51349500  0.64740800  0.36016900  1
  O  O81  1  0.49828833  0.85756267  0.57901467  1
  O  O82  1  0.13391300  0.48650500  0.36016900  1
  O  O83  1  0.35259200  0.86608700  0.36016900  1
  O  O84  1  0.31407467  0.46724633  0.97316433  1
  O  O85  1  0.53275367  0.84682833  0.97316433  1
  O  O86  1  0.16837833  0.47577067  0.75431867  1
  O  O87  1  0.15317167  0.68592533  0.97316433  1
  O  O88  1  0.98074133  0.18016167  0.80649767  1
  O  O89  1  0.83162167  0.30739233  0.74568133  1
  O  O90  1  0.30739233  0.83162167  0.75431867  1
  O  O91  1  0.47577067  0.16837833  0.74568133  1
  O  O92  1  0.51349500  0.86608700  0.86016900  1
  O  O93  1  0.69260767  0.52422933  0.74568133  1
  O  O94  1  0.80910400  0.97405900  0.91234800  1
  O  O95  1  0.13391300  0.64740800  0.86016900  1
  O  O96  1  0.19942033  0.01925867  0.80649767  1
  O  O97  1  0.52422933  0.69260767  0.75431867  1
  O  O98  1  0.64072567  0.14243733  0.92098533  1
  O  O99  1  0.81983833  0.80057967  0.80649767  1
  O  O100  1  0.85756267  0.49828833  0.92098533  1
  O  O101  1  0.02594100  0.83504500  0.91234800  1
  O  O102  1  0.50171167  0.35927433  0.92098533  1
  O  O103  1  0.35259200  0.48650500  0.86016900  1
  O  O104  1  0.18016167  0.98074133  0.69350233  1
  O  O105  1  0.16495500  0.19089600  0.91234800  1
  O  O106  1  0.80057967  0.81983833  0.69350233  1
  O  O107  1  0.01925867  0.19942033  0.69350233  1
