# generated using pymatgen
data_Li3V2(O2F)2
_symmetry_space_group_name_H-M   'P 1'
_cell_length_a   5.13998000
_cell_length_b   8.95202600
_cell_length_c   7.37529012
_cell_angle_alpha   90.00000000
_cell_angle_beta   91.50704399
_cell_angle_gamma   90.00000000
_symmetry_Int_Tables_number   1
_chemical_formula_structural   Li3V2(O2F)2
_chemical_formula_sum   'Li9 V6 O12 F6'
_cell_volume   339.24356925
_cell_formula_units_Z   3
loop_
 _symmetry_equiv_pos_site_id
 _symmetry_equiv_pos_as_xyz
  1  'x, y, z'
loop_
 _atom_site_type_symbol
 _atom_site_label
 _atom_site_symmetry_multiplicity
 _atom_site_fract_x
 _atom_site_fract_y
 _atom_site_fract_z
 _atom_site_occupancy
  Li  Li0  1  0.31733500  0.83382500  0.36917000  1
  Li  Li1  1  0.68901400  0.83333400  0.62486300  1
  Li  Li2  1  0.86247300  0.00000000  0.36136800  1
  Li  Li3  1  0.31733500  0.16617500  0.36917000  1
  Li  Li4  1  0.68901400  0.16666600  0.62486300  1
  Li  Li5  1  0.14900800  0.32221200  0.64549500  1
  Li  Li6  1  0.28871800  0.50000000  0.36512800  1
  Li  Li7  1  0.68305400  0.50000000  0.59933300  1
  Li  Li8  1  0.14900800  0.67778800  0.64549500  1
  V  V9  1  0.99622200  0.83353700  0.00163300  1
  V  V10  1  0.49207100  0.00000000  0.99074900  1
  V  V11  1  0.99622200  0.16646300  0.00163300  1
  V  V12  1  0.50497200  0.33289100  0.00327500  1
  V  V13  1  0.00230400  0.50000000  0.00915400  1
  V  V14  1  0.50497200  0.66710900  0.00327500  1
  O  O15  1  0.31235900  0.82839100  0.86160900  1
  O  O16  1  0.68217400  0.83911900  0.13681900  1
  O  O17  1  0.83290500  0.00000000  0.85436000  1
  O  O18  1  0.15878900  0.00000000  0.14916000  1
  O  O19  1  0.31235900  0.17160900  0.86160900  1
  O  O20  1  0.68217400  0.16088100  0.13681900  1
  O  O21  1  0.84385200  0.33202000  0.85463200  1
  O  O22  1  0.16961200  0.33261300  0.14812200  1
  O  O23  1  0.31781100  0.50000000  0.86589900  1
  O  O24  1  0.68788800  0.50000000  0.13630200  1
  O  O25  1  0.84385200  0.66798000  0.85463200  1
  O  O26  1  0.16961200  0.66738700  0.14812200  1
  F  F27  1  0.00256000  0.83375300  0.49800400  1
  F  F28  1  0.52815100  0.00000000  0.48239700  1
  F  F29  1  0.00256000  0.16624700  0.49800400  1
  F  F30  1  0.47776300  0.33158000  0.51291900  1
  F  F31  1  0.02276000  0.50000000  0.53235300  1
  F  F32  1  0.47776300  0.66842000  0.51291900  1
