# generated using pymatgen
data_Li4Nb3Cr5O16
_symmetry_space_group_name_H-M   'P 1'
_cell_length_a   10.45436200
_cell_length_b   5.97489200
_cell_length_c   9.76293187
_cell_angle_alpha   90.00000000
_cell_angle_beta   90.35639709
_cell_angle_gamma   90.00000000
_symmetry_Int_Tables_number   1
_chemical_formula_structural   Li4Nb3Cr5O16
_chemical_formula_sum   'Li8 Nb6 Cr10 O32'
_cell_volume   609.81689254
_cell_formula_units_Z   2
loop_
 _symmetry_equiv_pos_site_id
 _symmetry_equiv_pos_as_xyz
  1  'x, y, z'
loop_
 _atom_site_type_symbol
 _atom_site_label
 _atom_site_symmetry_multiplicity
 _atom_site_fract_x
 _atom_site_fract_y
 _atom_site_fract_z
 _atom_site_occupancy
  Li  Li0  1  0.66740300  0.00000000  0.10298900  1
  Li  Li1  1  0.51111800  0.50000000  0.00456900  1
  Li  Li2  1  0.50537600  0.50000000  0.50509400  1
  Li  Li3  1  0.83400800  0.50000000  0.61354500  1
  Li  Li4  1  0.16740300  0.50000000  0.10298900  1
  Li  Li5  1  0.01111800  0.00000000  0.00456900  1
  Li  Li6  1  0.00537600  0.00000000  0.50509400  1
  Li  Li7  1  0.33400800  0.00000000  0.61354500  1
  Nb  Nb8  1  0.83175900  0.00000000  0.78845800  1
  Nb  Nb9  1  0.91591150  0.27140050  0.28870600  1
  Nb  Nb10  1  0.91591150  0.72859950  0.28870600  1
  Nb  Nb11  1  0.33175900  0.50000000  0.78845800  1
  Nb  Nb12  1  0.41591150  0.77140050  0.28870600  1
  Nb  Nb13  1  0.41591150  0.22859950  0.28870600  1
  Cr  Cr14  1  0.58579150  0.75404750  0.78548600  1
  Cr  Cr15  1  0.66618300  0.00000000  0.51928300  1
  Cr  Cr16  1  0.58579150  0.24595250  0.78548600  1
  Cr  Cr17  1  0.66686900  0.50000000  0.28603100  1
  Cr  Cr18  1  0.82871700  0.50000000  0.01036600  1
  Cr  Cr19  1  0.08579150  0.25404750  0.78548600  1
  Cr  Cr20  1  0.16618300  0.50000000  0.51928300  1
  Cr  Cr21  1  0.08579150  0.74595250  0.78548600  1
  Cr  Cr22  1  0.16686900  0.00000000  0.28603100  1
  Cr  Cr23  1  0.32871700  0.00000000  0.01036600  1
  O  O24  1  0.57937350  0.74987750  0.39866200  1
  O  O25  1  0.52112900  0.00000000  0.66157800  1
  O  O26  1  0.66988900  0.00000000  0.89679800  1
  O  O27  1  0.50016600  0.50000000  0.68789800  1
  O  O28  1  0.50360200  0.50000000  0.18702600  1
  O  O29  1  0.57937350  0.25012250  0.39866200  1
  O  O30  1  0.74109000  0.78075900  0.65987500  1
  O  O31  1  0.74109000  0.21924100  0.65987500  1
  O  O32  1  0.66286100  0.50000000  0.89828400  1
  O  O33  1  0.83299900  0.00000000  0.40068200  1
  O  O34  1  0.76101400  0.28088000  0.15930100  1
  O  O35  1  0.76101400  0.71912000  0.15930100  1
  O  O36  1  0.82009400  0.50000000  0.41151000  1
  O  O37  1  0.91424100  0.24499000  0.89647400  1
  O  O38  1  0.98334900  0.50000000  0.14102500  1
  O  O39  1  0.91424100  0.75501000  0.89647400  1
  O  O40  1  0.07937350  0.24987750  0.39866200  1
  O  O41  1  0.02112900  0.50000000  0.66157800  1
  O  O42  1  0.16988900  0.50000000  0.89679800  1
  O  O43  1  0.00016600  0.00000000  0.68789800  1
  O  O44  1  0.00360200  0.00000000  0.18702600  1
  O  O45  1  0.07937350  0.75012250  0.39866200  1
  O  O46  1  0.24109000  0.28075900  0.65987500  1
  O  O47  1  0.24109000  0.71924100  0.65987500  1
  O  O48  1  0.16286100  0.00000000  0.89828400  1
  O  O49  1  0.33299900  0.50000000  0.40068200  1
  O  O50  1  0.26101400  0.78088000  0.15930100  1
  O  O51  1  0.26101400  0.21912000  0.15930100  1
  O  O52  1  0.32009400  0.00000000  0.41151000  1
  O  O53  1  0.41424100  0.74499000  0.89647400  1
  O  O54  1  0.48334900  0.00000000  0.14102500  1
  O  O55  1  0.41424100  0.25501000  0.89647400  1
