# generated using pymatgen
data_NaLi2FePCO7
_symmetry_space_group_name_H-M   'P 1'
_cell_length_a   5.11583429
_cell_length_b   6.60260991
_cell_length_c   8.61460063
_cell_angle_alpha   90.00000000
_cell_angle_beta   95.68069743
_cell_angle_gamma   90.00000000
_symmetry_Int_Tables_number   1
_chemical_formula_structural   NaLi2FePCO7
_chemical_formula_sum   'Na2 Li4 Fe2 P2 C2 O14'
_cell_volume   289.55373488
_cell_formula_units_Z   2
loop_
 _symmetry_equiv_pos_site_id
 _symmetry_equiv_pos_as_xyz
  1  'x, y, z'
loop_
 _atom_site_type_symbol
 _atom_site_label
 _atom_site_symmetry_multiplicity
 _atom_site_fract_x
 _atom_site_fract_y
 _atom_site_fract_z
 _atom_site_occupancy
  Na  Na0  1  0.23050700  0.99076650  0.26359000  1
  Na  Na1  1  0.76949300  0.49076650  0.73641000  1
  Li  Li2  1  0.70980900  0.73718200  0.10315300  1
  Li  Li3  1  0.29019100  0.23718200  0.89684700  1
  Li  Li4  1  0.22732900  0.51916900  0.27756300  1
  Li  Li5  1  0.77267100  0.01916900  0.72243700  1
  Fe  Fe6  1  0.71057850  0.25927900  0.33653200  1
  Fe  Fe7  1  0.28942150  0.75927900  0.66346800  1
  P  P8  1  0.77268700  0.75355550  0.41003400  1
  P  P9  1  0.22731300  0.25355550  0.58996600  1
  C  C10  1  0.81642850  0.24553000  0.04218100  1
  C  C11  1  0.18357150  0.74553000  0.95781900  1
  O  O12  1  0.10363500  0.72264400  0.09610300  1
  O  O13  1  0.89636500  0.22264400  0.90389700  1
  O  O14  1  0.56983350  0.24389750  0.06599500  1
  O  O15  1  0.43016650  0.74389750  0.93400500  1
  O  O16  1  0.98994650  0.27181500  0.16291000  1
  O  O17  1  0.01005350  0.77181500  0.83709000  1
  O  O18  1  0.70493300  0.94140050  0.30339200  1
  O  O19  1  0.29506700  0.44140050  0.69660800  1
  O  O20  1  0.65110250  0.57280000  0.30952300  1
  O  O21  1  0.34889750  0.07280000  0.69047700  1
  O  O22  1  0.07717050  0.72765450  0.43655800  1
  O  O23  1  0.92282950  0.22765450  0.56344200  1
  O  O24  1  0.33950000  0.26973200  0.43172900  1
  O  O25  1  0.66050000  0.76973200  0.56827100  1
