# generated using pymatgen
data_FeOF
_symmetry_space_group_name_H-M   'P 1'
_cell_length_a   4.77832800
_cell_length_b   3.08052500
_cell_length_c   14.33523560
_cell_angle_alpha   90.00000000
_cell_angle_beta   90.76135429
_cell_angle_gamma   90.00000000
_symmetry_Int_Tables_number   1
_chemical_formula_structural   FeOF
_chemical_formula_sum   'Fe6 O6 F6'
_cell_volume   210.99258194
_cell_formula_units_Z   6
loop_
 _symmetry_equiv_pos_site_id
 _symmetry_equiv_pos_as_xyz
  1  'x, y, z'
loop_
 _atom_site_type_symbol
 _atom_site_label
 _atom_site_symmetry_multiplicity
 _atom_site_fract_x
 _atom_site_fract_y
 _atom_site_fract_z
 _atom_site_occupancy
  Fe  Fe0  1  0.00915800  0.00000000  0.99929700  1
  Fe  Fe1  1  0.00597300  0.00000000  0.33260600  1
  Fe  Fe2  1  0.02302500  0.00000000  0.66663000  1
  Fe  Fe3  1  0.57832500  0.50000000  0.16544500  1
  Fe  Fe4  1  0.43780300  0.50000000  0.49956800  1
  Fe  Fe5  1  0.44228500  0.50000000  0.83471800  1
  O  O6  1  0.17393700  0.50000000  0.59956000  1
  O  O7  1  0.19951800  0.50000000  0.93932000  1
  O  O8  1  0.28967500  0.00000000  0.76834700  1
  O  O9  1  0.29820400  0.00000000  0.42912300  1
  O  O10  1  0.71756000  0.00000000  0.23822900  1
  O  O11  1  0.82358100  0.50000000  0.06377800  1
  F  F12  1  0.20432500  0.50000000  0.26804300  1
  F  F13  1  0.32824900  0.00000000  0.10971700  1
  F  F14  1  0.67688800  0.00000000  0.56275600  1
  F  F15  1  0.69283100  0.00000000  0.89312700  1
  F  F16  1  0.81077400  0.50000000  0.40134200  1
  F  F17  1  0.78788800  0.50000000  0.72839800  1
