# generated using pymatgen
data_LiCo2OF3
_symmetry_space_group_name_H-M   'P 1'
_cell_length_a   5.92102400
_cell_length_b   8.70108000
_cell_length_c   12.43418800
_cell_angle_alpha   90.00000000
_cell_angle_beta   90.00000000
_cell_angle_gamma   90.00000000
_symmetry_Int_Tables_number   1
_chemical_formula_structural   LiCo2OF3
_chemical_formula_sum   'Li8 Co16 O8 F24'
_cell_volume   640.60070542
_cell_formula_units_Z   8
loop_
 _symmetry_equiv_pos_site_id
 _symmetry_equiv_pos_as_xyz
  1  'x, y, z'
loop_
 _atom_site_type_symbol
 _atom_site_label
 _atom_site_symmetry_multiplicity
 _atom_site_fract_x
 _atom_site_fract_y
 _atom_site_fract_z
 _atom_site_occupancy
  Li  Li0  1  0.00000000  0.35210700  0.13431950  1
  Li  Li1  1  0.00000000  0.35210700  0.86568050  1
  Li  Li2  1  0.50000000  0.13890700  0.13247750  1
  Li  Li3  1  0.50000000  0.13890700  0.86752250  1
  Li  Li4  1  0.50000000  0.85210700  0.63431950  1
  Li  Li5  1  0.50000000  0.85210700  0.36568050  1
  Li  Li6  1  0.00000000  0.63890700  0.63247750  1
  Li  Li7  1  0.00000000  0.63890700  0.36752250  1
  Co  Co8  1  0.50000000  0.51706500  0.75335850  1
  Co  Co9  1  0.74010750  0.75182450  0.11753700  1
  Co  Co10  1  0.25989250  0.75182450  0.88246300  1
  Co  Co11  1  0.00000000  0.01727400  0.00000000  1
  Co  Co12  1  0.50000000  0.51706500  0.24664150  1
  Co  Co13  1  0.50000000  0.47263900  0.00000000  1
  Co  Co14  1  0.25989250  0.75182450  0.11753700  1
  Co  Co15  1  0.74010750  0.75182450  0.88246300  1
  Co  Co16  1  0.00000000  0.01706500  0.25335850  1
  Co  Co17  1  0.24010750  0.25182450  0.61753700  1
  Co  Co18  1  0.75989250  0.25182450  0.38246300  1
  Co  Co19  1  0.50000000  0.51727400  0.50000000  1
  Co  Co20  1  0.00000000  0.01706500  0.74664150  1
  Co  Co21  1  0.00000000  0.97263900  0.50000000  1
  Co  Co22  1  0.75989250  0.25182450  0.61753700  1
  Co  Co23  1  0.24010750  0.25182450  0.38246300  1
  O  O24  1  0.50000000  0.73910200  0.77104550  1
  O  O25  1  0.50000000  0.73910200  0.22895450  1
  O  O26  1  0.00000000  0.78264600  0.00000000  1
  O  O27  1  0.50000000  0.70684100  0.00000000  1
  O  O28  1  0.00000000  0.23910200  0.27104550  1
  O  O29  1  0.00000000  0.23910200  0.72895450  1
  O  O30  1  0.50000000  0.28264600  0.50000000  1
  O  O31  1  0.00000000  0.20684100  0.50000000  1
  F  F32  1  0.25719250  0.49175250  0.87586100  1
  F  F33  1  0.00000000  0.24241000  0.00000000  1
  F  F34  1  0.74280750  0.49175250  0.12413900  1
  F  F35  1  0.73899800  0.50450300  0.37227150  1
  F  F36  1  0.74280750  0.49175250  0.87586100  1
  F  F37  1  0.50000000  0.27337100  0.26278850  1
  F  F38  1  0.26100200  0.50450300  0.62772850  1
  F  F39  1  0.26100200  0.50450300  0.37227150  1
  F  F40  1  0.25719250  0.49175250  0.12413900  1
  F  F41  1  0.50000000  0.24476500  0.00000000  1
  F  F42  1  0.50000000  0.27337100  0.73721150  1
  F  F43  1  0.73899800  0.50450300  0.62772850  1
  F  F44  1  0.75719250  0.99175250  0.37586100  1
  F  F45  1  0.50000000  0.74241000  0.50000000  1
  F  F46  1  0.24280750  0.99175250  0.62413900  1
  F  F47  1  0.23899800  0.00450300  0.87227150  1
  F  F48  1  0.24280750  0.99175250  0.37586100  1
  F  F49  1  0.00000000  0.77337100  0.76278850  1
  F  F50  1  0.76100200  0.00450300  0.12772850  1
  F  F51  1  0.76100200  0.00450300  0.87227150  1
  F  F52  1  0.75719250  0.99175250  0.62413900  1
  F  F53  1  0.00000000  0.74476500  0.50000000  1
  F  F54  1  0.00000000  0.77337100  0.23721150  1
  F  F55  1  0.23899800  0.00450300  0.12772850  1
