# generated using pymatgen
data_Li2PWO6
_symmetry_space_group_name_H-M   'P 1'
_cell_length_a   13.54050400
_cell_length_b   10.11276800
_cell_length_c   7.18555170
_cell_angle_alpha   90.00000000
_cell_angle_beta   105.78113347
_cell_angle_gamma   90.00000000
_symmetry_Int_Tables_number   1
_chemical_formula_structural   Li2PWO6
_chemical_formula_sum   'Li16 P8 W8 O48'
_cell_volume   946.84503762
_cell_formula_units_Z   8
loop_
 _symmetry_equiv_pos_site_id
 _symmetry_equiv_pos_as_xyz
  1  'x, y, z'
loop_
 _atom_site_type_symbol
 _atom_site_label
 _atom_site_symmetry_multiplicity
 _atom_site_fract_x
 _atom_site_fract_y
 _atom_site_fract_z
 _atom_site_occupancy
  Li  Li0  1  0.63433000  0.29677900  0.58670400  1
  Li  Li1  1  0.63433000  0.70322100  0.08670400  1
  Li  Li2  1  0.50000000  0.51014000  0.75000000  1
  Li  Li3  1  0.50000000  0.09256800  0.75000000  1
  Li  Li4  1  0.50000000  0.48986000  0.25000000  1
  Li  Li5  1  0.50000000  0.90743200  0.25000000  1
  Li  Li6  1  0.36567000  0.29677900  0.91329600  1
  Li  Li7  1  0.36567000  0.70322100  0.41329600  1
  Li  Li8  1  0.13433000  0.79677900  0.58670400  1
  Li  Li9  1  0.13433000  0.20322100  0.08670400  1
  Li  Li10  1  0.00000000  0.01014000  0.75000000  1
  Li  Li11  1  0.00000000  0.59256800  0.75000000  1
  Li  Li12  1  0.00000000  0.98986000  0.25000000  1
  Li  Li13  1  0.00000000  0.40743200  0.25000000  1
  Li  Li14  1  0.86567000  0.79677900  0.91329600  1
  Li  Li15  1  0.86567000  0.20322100  0.41329600  1
  P  P16  1  0.61495450  0.68779750  0.53913200  1
  P  P17  1  0.61495450  0.31220250  0.03913200  1
  P  P18  1  0.38504550  0.68779750  0.96086800  1
  P  P19  1  0.38504550  0.31220250  0.46086800  1
  P  P20  1  0.11495450  0.18779750  0.53913200  1
  P  P21  1  0.11495450  0.81220250  0.03913200  1
  P  P22  1  0.88504550  0.18779750  0.96086800  1
  P  P23  1  0.88504550  0.81220250  0.46086800  1
  W  W24  1  0.71631800  0.00368800  0.62886700  1
  W  W25  1  0.71631800  0.99631200  0.12886700  1
  W  W26  1  0.28368200  0.00368800  0.87113300  1
  W  W27  1  0.28368200  0.99631200  0.37113300  1
  W  W28  1  0.21631800  0.50368800  0.62886700  1
  W  W29  1  0.21631800  0.49631200  0.12886700  1
  W  W30  1  0.78368200  0.50368800  0.87113300  1
  W  W31  1  0.78368200  0.49631200  0.37113300  1
  O  O32  1  0.85357050  0.88520350  0.63006400  1
  O  O33  1  0.81322800  0.15312400  0.75687800  1
  O  O34  1  0.85357050  0.11479650  0.13006400  1
  O  O35  1  0.81322800  0.84687600  0.25687800  1
  O  O36  1  0.74651200  0.92252000  0.88828000  1
  O  O37  1  0.62703250  0.83857650  0.50408300  1
  O  O38  1  0.74651200  0.07748000  0.38828000  1
  O  O39  1  0.59996750  0.09699450  0.60386300  1
  O  O40  1  0.62703250  0.16142350  0.00408300  1
  O  O41  1  0.50611000  0.64665900  0.53225200  1
  O  O42  1  0.59996750  0.90300550  0.10386300  1
  O  O43  1  0.50611000  0.35334100  0.03225200  1
  O  O44  1  0.49389000  0.64665900  0.96774800  1
  O  O45  1  0.40003250  0.09699450  0.89613700  1
  O  O46  1  0.49389000  0.35334100  0.46774800  1
  O  O47  1  0.37296750  0.83857650  0.99591700  1
  O  O48  1  0.40003250  0.90300550  0.39613700  1
  O  O49  1  0.25348800  0.92252000  0.61172000  1
  O  O50  1  0.37296750  0.16142350  0.49591700  1
  O  O51  1  0.25348800  0.07748000  0.11172000  1
  O  O52  1  0.18677200  0.15312400  0.74312200  1
  O  O53  1  0.14642950  0.88520350  0.86993600  1
  O  O54  1  0.18677200  0.84687600  0.24312200  1
  O  O55  1  0.14642950  0.11479650  0.36993600  1
  O  O56  1  0.35357050  0.38520350  0.63006400  1
  O  O57  1  0.31322800  0.65312400  0.75687800  1
  O  O58  1  0.35357050  0.61479650  0.13006400  1
  O  O59  1  0.31322800  0.34687600  0.25687800  1
  O  O60  1  0.24651200  0.42252000  0.88828000  1
  O  O61  1  0.12703250  0.33857650  0.50408300  1
  O  O62  1  0.24651200  0.57748000  0.38828000  1
  O  O63  1  0.09996750  0.59699450  0.60386300  1
  O  O64  1  0.12703250  0.66142350  0.00408300  1
  O  O65  1  0.00611000  0.14665900  0.53225200  1
  O  O66  1  0.09996750  0.40300550  0.10386300  1
  O  O67  1  0.00611000  0.85334100  0.03225200  1
  O  O68  1  0.99389000  0.14665900  0.96774800  1
  O  O69  1  0.90003250  0.59699450  0.89613700  1
  O  O70  1  0.99389000  0.85334100  0.46774800  1
  O  O71  1  0.87296750  0.33857650  0.99591700  1
  O  O72  1  0.90003250  0.40300550  0.39613700  1
  O  O73  1  0.75348800  0.42252000  0.61172000  1
  O  O74  1  0.87296750  0.66142350  0.49591700  1
  O  O75  1  0.75348800  0.57748000  0.11172000  1
  O  O76  1  0.68677200  0.65312400  0.74312200  1
  O  O77  1  0.64642950  0.38520350  0.86993600  1
  O  O78  1  0.68677200  0.34687600  0.24312200  1
  O  O79  1  0.64642950  0.61479650  0.36993600  1
