# generated using pymatgen
data_MnZn4O5
_symmetry_space_group_name_H-M   'P 1'
_cell_length_a   3.31331251
_cell_length_b   6.29691211
_cell_length_c   12.69652274
_cell_angle_alpha   93.19405081
_cell_angle_beta   89.99095779
_cell_angle_gamma   105.25524766
_symmetry_Int_Tables_number   1
_chemical_formula_structural   MnZn4O5
_chemical_formula_sum   'Mn2 Zn8 O10'
_cell_volume   255.13566074
_cell_formula_units_Z   2
loop_
 _symmetry_equiv_pos_site_id
 _symmetry_equiv_pos_as_xyz
  1  'x, y, z'
loop_
 _atom_site_type_symbol
 _atom_site_label
 _atom_site_symmetry_multiplicity
 _atom_site_fract_x
 _atom_site_fract_y
 _atom_site_fract_z
 _atom_site_occupancy
  Mn  Mn0  1  0.87205650  0.26802250  0.23102100  1
  Mn  Mn1  1  0.05640200  0.86872750  0.63446150  1
  Zn  Zn2  1  0.92770450  0.13905050  0.86902600  1
  Zn  Zn3  1  0.72585100  0.53448200  0.46610200  1
  Zn  Zn4  1  0.53690900  0.93170400  0.06493400  1
  Zn  Zn5  1  0.66741350  0.66889400  0.83493050  1
  Zn  Zn6  1  0.33325450  0.33716000  0.66846150  1
  Zn  Zn7  1  0.13396600  0.73804200  0.26806300  1
  Zn  Zn8  1  0.26316900  0.47129350  0.03183550  1
  Zn  Zn9  1  0.45819200  0.06879300  0.43385800  1
  O  O10  1  0.77827200  0.44181700  0.94342900  1
  O  O11  1  0.97500250  0.03638500  0.34535850  1
  O  O12  1  0.57285750  0.83642750  0.53836500  1
  O  O13  1  0.51112100  0.97304850  0.90876550  1
  O  O14  1  0.71296800  0.57884100  0.31050600  1
  O  O15  1  0.91083950  0.18070200  0.71278550  1
  O  O16  1  0.18487450  0.63377900  0.74717950  1
  O  O17  1  0.38787600  0.23588750  0.13495550  1
  O  O18  1  0.30753250  0.37203700  0.51047750  1
  O  O19  1  0.11640150  0.77198800  0.11025750  1
