# generated using pymatgen
data_Li5Ti2Fe5O12
_symmetry_space_group_name_H-M   'P 1'
_cell_length_a   5.16435000
_cell_length_b   9.15788600
_cell_length_c   10.03032960
_cell_angle_alpha   90.00000000
_cell_angle_beta   101.48448235
_cell_angle_gamma   90.00000000
_symmetry_Int_Tables_number   1
_chemical_formula_structural   Li5Ti2Fe5O12
_chemical_formula_sum   'Li10 Ti4 Fe10 O24'
_cell_volume   464.88199417
_cell_formula_units_Z   2
loop_
 _symmetry_equiv_pos_site_id
 _symmetry_equiv_pos_as_xyz
  1  'x, y, z'
loop_
 _atom_site_type_symbol
 _atom_site_label
 _atom_site_symmetry_multiplicity
 _atom_site_fract_x
 _atom_site_fract_y
 _atom_site_fract_z
 _atom_site_occupancy
  Li  Li0  1  0.75211950  0.91785850  0.24642400  1
  Li  Li1  1  0.25279800  0.58020800  0.75518900  1
  Li  Li2  1  0.24788050  0.91785850  0.75357600  1
  Li  Li3  1  0.74720200  0.58020800  0.24481100  1
  Li  Li4  1  0.00000000  0.92046900  0.00000000  1
  Li  Li5  1  0.25211950  0.41785850  0.24642400  1
  Li  Li6  1  0.75279800  0.08020800  0.75518900  1
  Li  Li7  1  0.74788050  0.41785850  0.75357600  1
  Li  Li8  1  0.24720200  0.08020800  0.24481100  1
  Li  Li9  1  0.50000000  0.42046900  0.00000000  1
  Ti  Ti10  1  0.50000000  0.75225100  0.00000000  1
  Ti  Ti11  1  0.00000000  0.74643800  0.50000000  1
  Ti  Ti12  1  0.00000000  0.25225100  0.00000000  1
  Ti  Ti13  1  0.50000000  0.24643800  0.50000000  1
  Fe  Fe14  1  0.50000000  0.57749200  0.50000000  1
  Fe  Fe15  1  0.75047450  0.75437850  0.75188800  1
  Fe  Fe16  1  0.24952550  0.75437850  0.24811200  1
  Fe  Fe17  1  0.50000000  0.91924000  0.50000000  1
  Fe  Fe18  1  0.00000000  0.58120700  0.00000000  1
  Fe  Fe19  1  0.00000000  0.07749200  0.50000000  1
  Fe  Fe20  1  0.25047450  0.25437850  0.75188800  1
  Fe  Fe21  1  0.74952550  0.25437850  0.24811200  1
  Fe  Fe22  1  0.00000000  0.41924000  0.50000000  1
  Fe  Fe23  1  0.50000000  0.08120700  0.00000000  1
  O  O24  1  0.62803350  0.59729550  0.88580700  1
  O  O25  1  0.37196650  0.59729550  0.11419300  1
  O  O26  1  0.63191300  0.74882800  0.38208600  1
  O  O27  1  0.36808700  0.74882800  0.61791400  1
  O  O28  1  0.60497200  0.91230300  0.88624500  1
  O  O29  1  0.39502800  0.91230300  0.11375500  1
  O  O30  1  0.10430900  0.59520300  0.38154300  1
  O  O31  1  0.89569100  0.59520300  0.61845700  1
  O  O32  1  0.13715400  0.74186300  0.88556300  1
  O  O33  1  0.86284600  0.74186300  0.11443700  1
  O  O34  1  0.10340650  0.90351550  0.37979500  1
  O  O35  1  0.89659350  0.90351550  0.62020500  1
  O  O36  1  0.12803350  0.09729550  0.88580700  1
  O  O37  1  0.87196650  0.09729550  0.11419300  1
  O  O38  1  0.13191300  0.24882800  0.38208600  1
  O  O39  1  0.86808700  0.24882800  0.61791400  1
  O  O40  1  0.10497200  0.41230300  0.88624500  1
  O  O41  1  0.89502800  0.41230300  0.11375500  1
  O  O42  1  0.60430900  0.09520300  0.38154300  1
  O  O43  1  0.39569100  0.09520300  0.61845700  1
  O  O44  1  0.63715400  0.24186300  0.88556300  1
  O  O45  1  0.36284600  0.24186300  0.11443700  1
  O  O46  1  0.60340650  0.40351550  0.37979500  1
  O  O47  1  0.39659350  0.40351550  0.62020500  1
