# generated using pymatgen
data_Li2MnF6
_symmetry_space_group_name_H-M   'P 1'
_cell_length_a   5.28007200
_cell_length_b   12.55543800
_cell_length_c   7.75365996
_cell_angle_alpha   90.00000000
_cell_angle_beta   97.84424331
_cell_angle_gamma   90.00000000
_symmetry_Int_Tables_number   1
_chemical_formula_structural   Li2MnF6
_chemical_formula_sum   'Li8 Mn4 F24'
_cell_volume   509.20836276
_cell_formula_units_Z   4
loop_
 _symmetry_equiv_pos_site_id
 _symmetry_equiv_pos_as_xyz
  1  'x, y, z'
loop_
 _atom_site_type_symbol
 _atom_site_label
 _atom_site_symmetry_multiplicity
 _atom_site_fract_x
 _atom_site_fract_y
 _atom_site_fract_z
 _atom_site_occupancy
  Li  Li0  1  0.99060250  0.72372450  0.44749400  1
  Li  Li1  1  0.00939750  0.72372450  0.05250600  1
  Li  Li2  1  0.49060250  0.77627550  0.94749400  1
  Li  Li3  1  0.50939750  0.77627550  0.55250600  1
  Li  Li4  1  0.49060250  0.22372450  0.44749400  1
  Li  Li5  1  0.50939750  0.22372450  0.05250600  1
  Li  Li6  1  0.99060250  0.27627550  0.94749400  1
  Li  Li7  1  0.00939750  0.27627550  0.55250600  1
  Mn  Mn8  1  0.00000000  0.87092000  0.75000000  1
  Mn  Mn9  1  0.50000000  0.62908000  0.25000000  1
  Mn  Mn10  1  0.50000000  0.37092000  0.75000000  1
  Mn  Mn11  1  0.00000000  0.12908000  0.25000000  1
  F  F12  1  0.21701450  0.96507950  0.68605300  1
  F  F13  1  0.77963150  0.76017850  0.82175500  1
  F  F14  1  0.81766150  0.85454350  0.52845100  1
  F  F15  1  0.18233850  0.85454350  0.97154900  1
  F  F16  1  0.22036850  0.76017850  0.67824500  1
  F  F17  1  0.78298550  0.96507950  0.81394700  1
  F  F18  1  0.71701450  0.53492050  0.18605300  1
  F  F19  1  0.27963150  0.73982150  0.32175500  1
  F  F20  1  0.31766150  0.64545650  0.02845100  1
  F  F21  1  0.68233850  0.64545650  0.47154900  1
  F  F22  1  0.72036850  0.73982150  0.17824500  1
  F  F23  1  0.28298550  0.53492050  0.31394700  1
  F  F24  1  0.71701450  0.46507950  0.68605300  1
  F  F25  1  0.27963150  0.26017850  0.82175500  1
  F  F26  1  0.31766150  0.35454350  0.52845100  1
  F  F27  1  0.68233850  0.35454350  0.97154900  1
  F  F28  1  0.72036850  0.26017850  0.67824500  1
  F  F29  1  0.28298550  0.46507950  0.81394700  1
  F  F30  1  0.21701450  0.03492050  0.18605300  1
  F  F31  1  0.77963150  0.23982150  0.32175500  1
  F  F32  1  0.81766150  0.14545650  0.02845100  1
  F  F33  1  0.18233850  0.14545650  0.47154900  1
  F  F34  1  0.22036850  0.23982150  0.17824500  1
  F  F35  1  0.78298550  0.03492050  0.31394700  1
