# generated using pymatgen
data_Li4MgCo3O8
_symmetry_space_group_name_H-M   'P 1'
_cell_length_a   5.71119366
_cell_length_b   5.71119366
_cell_length_c   14.21613095
_cell_angle_alpha   90.00000000
_cell_angle_beta   90.00000000
_cell_angle_gamma   120.00000000
_symmetry_Int_Tables_number   1
_chemical_formula_structural   Li4MgCo3O8
_chemical_formula_sum   'Li12 Mg3 Co9 O24'
_cell_volume   401.57421633
_cell_formula_units_Z   3
loop_
 _symmetry_equiv_pos_site_id
 _symmetry_equiv_pos_as_xyz
  1  'x, y, z'
loop_
 _atom_site_type_symbol
 _atom_site_label
 _atom_site_symmetry_multiplicity
 _atom_site_fract_x
 _atom_site_fract_y
 _atom_site_fract_z
 _atom_site_occupancy
  Li  Li0  1  0.33333333  0.66666667  0.16666667  1
  Li  Li1  1  0.33333333  0.16666667  0.16666667  1
  Li  Li2  1  0.83333333  0.16666667  0.16666667  1
  Li  Li3  1  0.83333333  0.66666667  0.16666667  1
  Li  Li4  1  1.00000000  1.00000000  0.50000000  1
  Li  Li5  1  0.00000000  0.50000000  0.50000000  1
  Li  Li6  1  0.50000000  0.50000000  0.50000000  1
  Li  Li7  1  0.50000000  0.00000000  0.50000000  1
  Li  Li8  1  0.66666667  0.33333333  0.83333333  1
  Li  Li9  1  0.66666667  0.83333333  0.83333333  1
  Li  Li10  1  0.16666667  0.83333333  0.83333333  1
  Li  Li11  1  0.16666667  0.33333333  0.83333333  1
  Mg  Mg12  1  0.00000000  0.00000000  0.00000000  1
  Mg  Mg13  1  0.66666667  0.33333333  0.33333333  1
  Mg  Mg14  1  0.33333333  0.66666667  0.66666667  1
  Co  Co15  1  0.50000000  0.50000000  0.00000000  1
  Co  Co16  1  0.50000000  0.00000000  0.00000000  1
  Co  Co17  1  0.00000000  0.50000000  0.00000000  1
  Co  Co18  1  0.16666667  0.83333333  0.33333333  1
  Co  Co19  1  0.16666667  0.33333333  0.33333333  1
  Co  Co20  1  0.66666667  0.83333333  0.33333333  1
  Co  Co21  1  0.83333333  0.16666667  0.66666667  1
  Co  Co22  1  0.83333333  0.66666667  0.66666667  1
  Co  Co23  1  0.33333333  0.16666667  0.66666667  1
  O  O24  1  0.00000000  0.00000000  0.26108100  1
  O  O25  1  0.01594267  0.50797133  0.25947633  1
  O  O26  1  0.49202867  0.50797133  0.25947633  1
  O  O27  1  0.49202867  0.98405733  0.25947633  1
  O  O28  1  0.17463800  0.34927600  0.07385700  1
  O  O29  1  0.17463800  0.82536200  0.07385700  1
  O  O30  1  0.65072400  0.82536200  0.07385700  1
  O  O31  1  0.66666667  0.33333333  0.07225233  1
  O  O32  1  0.66666667  0.33333333  0.59441433  1
  O  O33  1  0.68260933  0.84130467  0.59280967  1
  O  O34  1  0.15869533  0.84130467  0.59280967  1
  O  O35  1  0.15869533  0.31739067  0.59280967  1
  O  O36  1  0.84130467  0.68260933  0.40719033  1
  O  O37  1  0.84130467  0.15869533  0.40719033  1
  O  O38  1  0.31739067  0.15869533  0.40719033  1
  O  O39  1  0.33333333  0.66666667  0.40558567  1
  O  O40  1  0.33333333  0.66666667  0.92774767  1
  O  O41  1  0.34927600  0.17463800  0.92614300  1
  O  O42  1  0.82536200  0.17463800  0.92614300  1
  O  O43  1  0.82536200  0.65072400  0.92614300  1
  O  O44  1  0.50797133  0.01594267  0.74052367  1
  O  O45  1  0.50797133  0.49202867  0.74052367  1
  O  O46  1  0.98405733  0.49202867  0.74052367  1
  O  O47  1  0.00000000  0.00000000  0.73891900  1
