# generated using pymatgen
data_Li2VCrO4
_symmetry_space_group_name_H-M   'P 1'
_cell_length_a   10.29107600
_cell_length_b   6.00200800
_cell_length_c   5.14794636
_cell_angle_alpha   90.00000000
_cell_angle_beta   108.99141440
_cell_angle_gamma   90.00000000
_symmetry_Int_Tables_number   1
_chemical_formula_structural   Li2VCrO4
_chemical_formula_sum   'Li8 V4 Cr4 O16'
_cell_volume   300.66566538
_cell_formula_units_Z   4
loop_
 _symmetry_equiv_pos_site_id
 _symmetry_equiv_pos_as_xyz
  1  'x, y, z'
loop_
 _atom_site_type_symbol
 _atom_site_label
 _atom_site_symmetry_multiplicity
 _atom_site_fract_x
 _atom_site_fract_y
 _atom_site_fract_z
 _atom_site_occupancy
  Li  Li0  1  0.24855450  0.12500950  0.24659700  1
  Li  Li1  1  0.75144550  0.12500950  0.25340300  1
  Li  Li2  1  0.24855450  0.87499050  0.74659700  1
  Li  Li3  1  0.75144550  0.87499050  0.75340300  1
  Li  Li4  1  0.74855450  0.62500950  0.24659700  1
  Li  Li5  1  0.25144550  0.62500950  0.25340300  1
  Li  Li6  1  0.74855450  0.37499050  0.74659700  1
  Li  Li7  1  0.25144550  0.37499050  0.75340300  1
  V  V8  1  0.50000000  0.87585200  0.25000000  1
  V  V9  1  0.50000000  0.12414800  0.75000000  1
  V  V10  1  0.00000000  0.37585200  0.25000000  1
  V  V11  1  0.00000000  0.62414800  0.75000000  1
  Cr  Cr12  1  0.50000000  0.37686400  0.25000000  1
  Cr  Cr13  1  0.50000000  0.62313600  0.75000000  1
  Cr  Cr14  1  0.00000000  0.87686400  0.25000000  1
  Cr  Cr15  1  0.00000000  0.12313600  0.75000000  1
  O  O16  1  0.61329300  0.12666300  0.48925700  1
  O  O17  1  0.61353950  0.62215650  0.49245800  1
  O  O18  1  0.61353950  0.37784350  0.99245800  1
  O  O19  1  0.38670700  0.87333700  0.51074300  1
  O  O20  1  0.38646050  0.37784350  0.50754200  1
  O  O21  1  0.38670700  0.12666300  0.01074300  1
  O  O22  1  0.61329300  0.87333700  0.98925700  1
  O  O23  1  0.38646050  0.62215650  0.00754200  1
  O  O24  1  0.11329300  0.62666300  0.48925700  1
  O  O25  1  0.11353950  0.12215650  0.49245800  1
  O  O26  1  0.11353950  0.87784350  0.99245800  1
  O  O27  1  0.88670700  0.37333700  0.51074300  1
  O  O28  1  0.88646050  0.87784350  0.50754200  1
  O  O29  1  0.88670700  0.62666300  0.01074300  1
  O  O30  1  0.11329300  0.37333700  0.98925700  1
  O  O31  1  0.88646050  0.12215650  0.00754200  1
