# generated using pymatgen
data_Mn3SbO8
_symmetry_space_group_name_H-M   'P 1'
_cell_length_a   6.07933618
_cell_length_b   6.07933618
_cell_length_c   14.55634949
_cell_angle_alpha   90.00000000
_cell_angle_beta   90.00000000
_cell_angle_gamma   120.00000000
_symmetry_Int_Tables_number   1
_chemical_formula_structural   Mn3SbO8
_chemical_formula_sum   'Mn9 Sb3 O24'
_cell_volume   465.90291270
_cell_formula_units_Z   3
loop_
 _symmetry_equiv_pos_site_id
 _symmetry_equiv_pos_as_xyz
  1  'x, y, z'
loop_
 _atom_site_type_symbol
 _atom_site_label
 _atom_site_symmetry_multiplicity
 _atom_site_fract_x
 _atom_site_fract_y
 _atom_site_fract_z
 _atom_site_occupancy
  Mn  Mn0  1  0.16666667  0.33333333  0.33333333  1
  Mn  Mn1  1  0.00000000  0.50000000  0.00000000  1
  Mn  Mn2  1  0.50000000  0.50000000  0.00000000  1
  Mn  Mn3  1  0.83333333  0.66666667  0.66666667  1
  Mn  Mn4  1  0.66666667  0.83333333  0.33333333  1
  Mn  Mn5  1  0.16666667  0.83333333  0.33333333  1
  Mn  Mn6  1  0.50000000  0.00000000  0.00000000  1
  Mn  Mn7  1  0.33333333  0.16666667  0.66666667  1
  Mn  Mn8  1  0.83333333  0.16666667  0.66666667  1
  Sb  Sb9  1  0.00000000  0.00000000  0.00000000  1
  Sb  Sb10  1  0.66666667  0.33333333  0.33333333  1
  Sb  Sb11  1  0.33333333  0.66666667  0.66666667  1
  O  O12  1  0.33333333  0.66666667  0.93976067  1
  O  O13  1  0.50033533  0.00067067  0.26495767  1
  O  O14  1  0.99932933  0.49966467  0.26495767  1
  O  O15  1  0.33333333  0.66666667  0.39357267  1
  O  O16  1  0.50033533  0.49966467  0.26495767  1
  O  O17  1  0.16633133  0.33266267  0.06837567  1
  O  O18  1  0.66733733  0.83366867  0.06837567  1
  O  O19  1  0.16633133  0.83366867  0.06837567  1
  O  O20  1  0.00000000  0.00000000  0.27309400  1
  O  O21  1  0.16700200  0.33400400  0.59829100  1
  O  O22  1  0.66599600  0.83299800  0.59829100  1
  O  O23  1  0.00000000  0.00000000  0.72690600  1
  O  O24  1  0.16700200  0.83299800  0.59829100  1
  O  O25  1  0.83299800  0.66599600  0.40170900  1
  O  O26  1  0.33400400  0.16700200  0.40170900  1
  O  O27  1  0.83299800  0.16700200  0.40170900  1
  O  O28  1  0.66666667  0.33333333  0.60642733  1
  O  O29  1  0.83366867  0.66733733  0.93162433  1
  O  O30  1  0.33266267  0.16633133  0.93162433  1
  O  O31  1  0.66666667  0.33333333  0.06023933  1
  O  O32  1  0.83366867  0.16633133  0.93162433  1
  O  O33  1  0.49966467  0.99932933  0.73504233  1
  O  O34  1  0.00067067  0.50033533  0.73504233  1
  O  O35  1  0.49966467  0.50033533  0.73504233  1
