# generated using pymatgen
data_Li3Si2(NiO4)2
_symmetry_space_group_name_H-M   'P 1'
_cell_length_a   6.56192900
_cell_length_b   5.02647200
_cell_length_c   10.44981651
_cell_angle_alpha   90.00000000
_cell_angle_beta   90.79564107
_cell_angle_gamma   90.00000000
_symmetry_Int_Tables_number   1
_chemical_formula_structural   Li3Si2(NiO4)2
_chemical_formula_sum   'Li6 Si4 Ni4 O16'
_cell_volume   344.63674852
_cell_formula_units_Z   2
loop_
 _symmetry_equiv_pos_site_id
 _symmetry_equiv_pos_as_xyz
  1  'x, y, z'
loop_
 _atom_site_type_symbol
 _atom_site_label
 _atom_site_symmetry_multiplicity
 _atom_site_fract_x
 _atom_site_fract_y
 _atom_site_fract_z
 _atom_site_occupancy
  Li  Li0  1  0.88308700  0.42764500  0.83843800  1
  Li  Li1  1  0.38123400  0.93973600  0.65957300  1
  Li  Li2  1  0.63328100  0.54589600  0.58225100  1
  Li  Li3  1  0.88308700  0.57235500  0.33843800  1
  Li  Li4  1  0.38123400  0.06026400  0.15957300  1
  Li  Li5  1  0.63328100  0.45410400  0.08225100  1
  Si  Si6  1  0.63066400  0.94180800  0.91148100  1
  Si  Si7  1  0.13618900  0.42737200  0.58975300  1
  Si  Si8  1  0.63066400  0.05819200  0.41148100  1
  Si  Si9  1  0.13618900  0.57262800  0.08975300  1
  Ni  Ni10  1  0.36898800  0.42408600  0.83980200  1
  Ni  Ni11  1  0.89401400  0.94377700  0.66113600  1
  Ni  Ni12  1  0.36898800  0.57591400  0.33980200  1
  Ni  Ni13  1  0.89401400  0.05622300  0.16113600  1
  O  O14  1  0.14494600  0.48232400  0.93722700  1
  O  O15  1  0.60826500  0.60910100  0.90420500  1
  O  O16  1  0.42867300  0.06759600  0.83522300  1
  O  O17  1  0.83133200  0.03947800  0.83665500  1
  O  O18  1  0.34390400  0.54684400  0.66738600  1
  O  O19  1  0.92472600  0.54464600  0.65241600  1
  O  O20  1  0.14311200  0.10731100  0.60372900  1
  O  O21  1  0.63241100  0.95428100  0.56052900  1
  O  O22  1  0.14494600  0.51767600  0.43722700  1
  O  O23  1  0.60826500  0.39089900  0.40420500  1
  O  O24  1  0.42867300  0.93240400  0.33522300  1
  O  O25  1  0.83133200  0.96052200  0.33665500  1
  O  O26  1  0.34390400  0.45315600  0.16738600  1
  O  O27  1  0.92472600  0.45535400  0.15241600  1
  O  O28  1  0.14311200  0.89268900  0.10372900  1
  O  O29  1  0.63241100  0.04571900  0.06052900  1
