# generated using pymatgen
data_VCr2Fe3(PO4)6
_symmetry_space_group_name_H-M   'P 1'
_cell_length_a   8.72988349
_cell_length_b   8.72988349
_cell_length_c   20.52865166
_cell_angle_alpha   90.00000000
_cell_angle_beta   90.00000000
_cell_angle_gamma   120.00000000
_symmetry_Int_Tables_number   1
_chemical_formula_structural   VCr2Fe3(PO4)6
_chemical_formula_sum   'V3 Cr6 Fe9 P18 O72'
_cell_volume   1354.90221422
_cell_formula_units_Z   3
loop_
 _symmetry_equiv_pos_site_id
 _symmetry_equiv_pos_as_xyz
  1  'x, y, z'
loop_
 _atom_site_type_symbol
 _atom_site_label
 _atom_site_symmetry_multiplicity
 _atom_site_fract_x
 _atom_site_fract_y
 _atom_site_fract_z
 _atom_site_occupancy
  V  V0  1  0.33333333  0.66666667  0.81038567  1
  V  V1  1  0.00000000  0.00000000  0.14371900  1
  V  V2  1  0.66666667  0.33333333  0.47705233  1
  Cr  Cr3  1  0.33333333  0.66666667  0.66660733  1
  Cr  Cr4  1  0.33333333  0.66666667  0.16630200  1
  Cr  Cr5  1  0.00000000  0.00000000  0.99994067  1
  Cr  Cr6  1  0.00000000  0.00000000  0.49963533  1
  Cr  Cr7  1  0.66666667  0.33333333  0.33327400  1
  Cr  Cr8  1  0.66666667  0.33333333  0.83296867  1
  Fe  Fe9  1  0.33333333  0.66666667  0.31270833  1
  Fe  Fe10  1  0.33333333  0.66666667  0.52098600  1
  Fe  Fe11  1  0.33333333  0.66666667  0.02023300  1
  Fe  Fe12  1  0.00000000  0.00000000  0.64604167  1
  Fe  Fe13  1  0.00000000  0.00000000  0.85431933  1
  Fe  Fe14  1  0.00000000  0.00000000  0.35356633  1
  Fe  Fe15  1  0.66666667  0.33333333  0.97937500  1
  Fe  Fe16  1  0.66666667  0.33333333  0.18765267  1
  Fe  Fe17  1  0.66666667  0.33333333  0.68689967  1
  P  P18  1  0.70246900  0.99932800  0.24985300  1
  P  P19  1  0.29685900  0.29753100  0.24985300  1
  P  P20  1  0.00067200  0.70314100  0.24985300  1
  P  P21  1  0.66571033  0.63057367  0.08397167  1
  P  P22  1  0.36942633  0.03513667  0.08397167  1
  P  P23  1  0.96486333  0.33428967  0.08397167  1
  P  P24  1  0.36913567  0.33266133  0.58318633  1
  P  P25  1  0.96352567  0.63086433  0.58318633  1
  P  P26  1  0.66733867  0.03647433  0.58318633  1
  P  P27  1  0.33237700  0.96390700  0.41730500  1
  P  P28  1  0.03609300  0.36847000  0.41730500  1
  P  P29  1  0.63153000  0.66762300  0.41730500  1
  P  P30  1  0.03580233  0.66599467  0.91651967  1
  P  P31  1  0.63019233  0.96419767  0.91651967  1
  P  P32  1  0.33400533  0.36980767  0.91651967  1
  P  P33  1  0.99904367  0.29724033  0.75063833  1
  P  P34  1  0.70275967  0.70180333  0.75063833  1
  P  P35  1  0.29819667  0.00095633  0.75063833  1
  O  O36  1  0.52493967  0.87358233  0.97799133  1
  O  O37  1  0.34864267  0.47506033  0.97799133  1
  O  O38  1  0.12641767  0.65135733  0.97799133  1
  O  O39  1  0.67801600  0.16512900  0.26052000  1
  O  O40  1  0.81001100  0.01199200  0.18838600  1
  O  O41  1  0.51268367  0.83351333  0.23799133  1
  O  O42  1  0.48711300  0.32198400  0.26052000  1
  O  O43  1  0.32082967  0.48731633  0.23799133  1
  O  O44  1  0.67939267  0.53961533  0.14547733  1
  O  O45  1  0.16648667  0.67917033  0.23799133  1
  O  O46  1  0.83142533  0.82296567  0.07366367  1
  O  O47  1  0.46038467  0.13977733  0.14547733  1
  O  O48  1  0.20198100  0.18998900  0.18838600  1
  O  O49  1  0.83487100  0.51288700  0.26052000  1
  O  O50  1  0.50081733  0.65661067  0.09438467  1
  O  O51  1  0.98800800  0.79801900  0.18838600  1
  O  O52  1  0.34338933  0.84420667  0.09438467  1
  O  O53  1  0.17703433  0.00845967  0.07366367  1
  O  O54  1  0.15579333  0.49918267  0.09438467  1
  O  O55  1  0.86022267  0.32060733  0.14547733  1
  O  O56  1  0.99154033  0.16857467  0.07366367  1
  O  O57  1  0.53828733  0.67586667  0.35536167  1
  O  O58  1  0.32413333  0.86242067  0.35536167  1
  O  O59  1  0.13757933  0.46171267  0.35536167  1
  O  O60  1  0.19160633  0.20691567  0.31132467  1
  O  O61  1  0.01530933  0.80839367  0.31132467  1
  O  O62  1  0.79308433  0.98469067  0.31132467  1
  O  O63  1  0.34468267  0.49846233  0.59385333  1
  O  O64  1  0.47667767  0.34532533  0.52171933  1
  O  O65  1  0.17935033  0.16684667  0.57132467  1
  O  O66  1  0.15377967  0.65531733  0.59385333  1
  O  O67  1  0.98749633  0.82064967  0.57132467  1
  O  O68  1  0.34605933  0.87294867  0.47881067  1
  O  O69  1  0.83315333  0.01250367  0.57132467  1
  O  O70  1  0.49809200  0.15629900  0.40699700  1
  O  O71  1  0.12705133  0.47311067  0.47881067  1
  O  O72  1  0.86864767  0.52332233  0.52171933  1
  O  O73  1  0.50153767  0.84622033  0.59385333  1
  O  O74  1  0.16748400  0.98994400  0.42771800  1
  O  O75  1  0.65467467  0.13135233  0.52171933  1
  O  O76  1  0.01005600  0.17754000  0.42771800  1
  O  O77  1  0.84370100  0.34179300  0.40699700  1
  O  O78  1  0.82246000  0.83251600  0.42771800  1
  O  O79  1  0.52688933  0.65394067  0.47881067  1
  O  O80  1  0.65820700  0.50190800  0.40699700  1
  O  O81  1  0.20495400  0.00920000  0.68869500  1
  O  O82  1  0.99080000  0.19575400  0.68869500  1
  O  O83  1  0.80424600  0.79504600  0.68869500  1
  O  O84  1  0.85827300  0.54024900  0.64465800  1
  O  O85  1  0.68197600  0.14172700  0.64465800  1
  O  O86  1  0.45975100  0.31802400  0.64465800  1
  O  O87  1  0.01134933  0.83179567  0.92718667  1
  O  O88  1  0.14334433  0.67865867  0.85505267  1
  O  O89  1  0.84601700  0.50018000  0.90465800  1
  O  O90  1  0.82044633  0.98865067  0.92718667  1
  O  O91  1  0.65416300  0.15398300  0.90465800  1
  O  O92  1  0.01272600  0.20628200  0.81214400  1
  O  O93  1  0.49982000  0.34583700  0.90465800  1
  O  O94  1  0.16475867  0.48963233  0.74033033  1
  O  O95  1  0.79371800  0.80644400  0.81214400  1
  O  O96  1  0.53531433  0.85665567  0.85505267  1
  O  O97  1  0.16820433  0.17955367  0.92718667  1
  O  O98  1  0.83415067  0.32327733  0.76105133  1
  O  O99  1  0.32134133  0.46468567  0.85505267  1
  O  O100  1  0.67672267  0.51087333  0.76105133  1
  O  O101  1  0.51036767  0.67512633  0.74033033  1
  O  O102  1  0.48912667  0.16584933  0.76105133  1
  O  O103  1  0.19355600  0.98727400  0.81214400  1
  O  O104  1  0.32487367  0.83524133  0.74033033  1
  O  O105  1  0.87162067  0.34253333  0.02202833  1
  O  O106  1  0.65746667  0.52908733  0.02202833  1
  O  O107  1  0.47091267  0.12837933  0.02202833  1
