# generated using pymatgen
data_Na3VO3
_symmetry_space_group_name_H-M   'P 1'
_cell_length_a   6.16399258
_cell_length_b   10.68769402
_cell_length_c   6.31020587
_cell_angle_alpha   90.00000000
_cell_angle_beta   92.50501465
_cell_angle_gamma   90.00000000
_symmetry_Int_Tables_number   1
_chemical_formula_structural   Na3VO3
_chemical_formula_sum   'Na12 V4 O12'
_cell_volume   415.31195910
_cell_formula_units_Z   4
loop_
 _symmetry_equiv_pos_site_id
 _symmetry_equiv_pos_as_xyz
  1  'x, y, z'
loop_
 _atom_site_type_symbol
 _atom_site_label
 _atom_site_symmetry_multiplicity
 _atom_site_fract_x
 _atom_site_fract_y
 _atom_site_fract_z
 _atom_site_occupancy
  Na  Na0  1  0.45657700  0.22134400  0.89230100  1
  Na  Na1  1  0.14780500  0.99047700  0.86569300  1
  Na  Na2  1  0.97958500  0.71366500  0.98254800  1
  Na  Na3  1  0.45657700  0.27865600  0.39230100  1
  Na  Na4  1  0.02041500  0.21366500  0.51745200  1
  Na  Na5  1  0.14780500  0.50952300  0.36569300  1
  Na  Na6  1  0.85219500  0.49047700  0.63430700  1
  Na  Na7  1  0.97958500  0.78633500  0.48254800  1
  Na  Na8  1  0.54342300  0.72134400  0.60769900  1
  Na  Na9  1  0.02041500  0.28633500  0.01745200  1
  Na  Na10  1  0.85219500  0.00952300  0.13430700  1
  Na  Na11  1  0.54342300  0.77865600  0.10769900  1
  V  V12  1  0.33344500  0.50492600  0.82373200  1
  V  V13  1  0.33344500  0.99507400  0.32373200  1
  V  V14  1  0.66655500  0.00492600  0.67626800  1
  V  V15  1  0.66655500  0.49507400  0.17626800  1
  O  O16  1  0.36272800  0.06065600  0.61881000  1
  O  O17  1  0.18530500  0.64115100  0.69560100  1
  O  O18  1  0.23623600  0.36558300  0.66743000  1
  O  O19  1  0.76376400  0.86558300  0.83257000  1
  O  O20  1  0.81469500  0.14115100  0.80439900  1
  O  O21  1  0.63727200  0.56065600  0.88119000  1
  O  O22  1  0.36272800  0.43934400  0.11881000  1
  O  O23  1  0.18530500  0.85884900  0.19560100  1
  O  O24  1  0.23623600  0.13441700  0.16743000  1
  O  O25  1  0.76376400  0.63441700  0.33257000  1
  O  O26  1  0.81469500  0.35884900  0.30439900  1
  O  O27  1  0.63727200  0.93934400  0.38119000  1
