# generated using pymatgen
data_Li3Fe4CuO8
_symmetry_space_group_name_H-M   'P 1'
_cell_length_a   10.37822200
_cell_length_b   5.95782800
_cell_length_c   6.03435392
_cell_angle_alpha   90.00000000
_cell_angle_beta   125.32871284
_cell_angle_gamma   90.00000000
_symmetry_Int_Tables_number   1
_chemical_formula_structural   Li3Fe4CuO8
_chemical_formula_sum   'Li6 Fe8 Cu2 O16'
_cell_volume   304.40438081
_cell_formula_units_Z   2
loop_
 _symmetry_equiv_pos_site_id
 _symmetry_equiv_pos_as_xyz
  1  'x, y, z'
loop_
 _atom_site_type_symbol
 _atom_site_label
 _atom_site_symmetry_multiplicity
 _atom_site_fract_x
 _atom_site_fract_y
 _atom_site_fract_z
 _atom_site_occupancy
  Li  Li0  1  0.75000000  0.25000000  0.00000000  1
  Li  Li1  1  0.00000000  0.00000000  0.50000000  1
  Li  Li2  1  0.75000000  0.75000000  0.00000000  1
  Li  Li3  1  0.25000000  0.75000000  0.00000000  1
  Li  Li4  1  0.50000000  0.50000000  0.50000000  1
  Li  Li5  1  0.25000000  0.25000000  0.00000000  1
  Fe  Fe6  1  0.00000000  0.50000000  0.50000000  1
  Fe  Fe7  1  0.00000000  0.00000000  0.00000000  1
  Fe  Fe8  1  0.25000000  0.75000000  0.50000000  1
  Fe  Fe9  1  0.25000000  0.25000000  0.50000000  1
  Fe  Fe10  1  0.50000000  0.00000000  0.50000000  1
  Fe  Fe11  1  0.50000000  0.50000000  0.00000000  1
  Fe  Fe12  1  0.75000000  0.25000000  0.50000000  1
  Fe  Fe13  1  0.75000000  0.75000000  0.50000000  1
  Cu  Cu14  1  0.00000000  0.50000000  0.00000000  1
  Cu  Cu15  1  0.50000000  0.00000000  0.00000000  1
  O  O16  1  0.73748800  0.00000000  0.25639900  1
  O  O17  1  0.99197000  0.75036000  0.72908600  1
  O  O18  1  0.99197000  0.24964000  0.72908600  1
  O  O19  1  0.75692900  0.50000000  0.26655000  1
  O  O20  1  0.24307100  0.50000000  0.73345000  1
  O  O21  1  0.00803000  0.75036000  0.27091400  1
  O  O22  1  0.00803000  0.24964000  0.27091400  1
  O  O23  1  0.26251200  0.00000000  0.74360100  1
  O  O24  1  0.23748800  0.50000000  0.25639900  1
  O  O25  1  0.49197000  0.25036000  0.72908600  1
  O  O26  1  0.49197000  0.74964000  0.72908600  1
  O  O27  1  0.25692900  0.00000000  0.26655000  1
  O  O28  1  0.74307100  0.00000000  0.73345000  1
  O  O29  1  0.50803000  0.25036000  0.27091400  1
  O  O30  1  0.50803000  0.74964000  0.27091400  1
  O  O31  1  0.76251200  0.50000000  0.74360100  1
