# generated using pymatgen
data_Li13Ti28O56
_symmetry_space_group_name_H-M   'P 1'
_cell_length_a   15.82656248
_cell_length_b   15.82656248
_cell_length_c   14.67861736
_cell_angle_alpha   90.00000000
_cell_angle_beta   90.00000000
_cell_angle_gamma   120.00000000
_symmetry_Int_Tables_number   1
_chemical_formula_structural   Li13Ti28O56
_chemical_formula_sum   'Li39 Ti84 O168'
_cell_volume   3184.11668376
_cell_formula_units_Z   3
loop_
 _symmetry_equiv_pos_site_id
 _symmetry_equiv_pos_as_xyz
  1  'x, y, z'
loop_
 _atom_site_type_symbol
 _atom_site_label
 _atom_site_symmetry_multiplicity
 _atom_site_fract_x
 _atom_site_fract_y
 _atom_site_fract_z
 _atom_site_occupancy
  Li  Li0  1  0.61913233  0.52332367  0.39856567  1
  Li  Li1  1  0.95234033  0.19047067  0.31549167  1
  Li  Li2  1  0.80952933  0.76186967  0.31549167  1
  Li  Li3  1  0.90419133  0.38086767  0.39856567  1
  Li  Li4  1  0.04761800  0.80942400  0.39870800  1
  Li  Li5  1  0.76180600  0.95238200  0.39870800  1
  Li  Li6  1  0.76184667  0.95236733  0.64889333  1
  Li  Li7  1  0.04763267  0.80947933  0.64889333  1
  Li  Li8  1  0.23813033  0.04765967  0.31549167  1
  Li  Li9  1  0.47667633  0.09580867  0.39856567  1
  Li  Li10  1  0.00000000  0.00000000  0.73283000  1
  Li  Li11  1  0.19057600  0.23819400  0.39870800  1
  Li  Li12  1  0.19052067  0.23815333  0.64889333  1
  Li  Li13  1  0.28579900  0.85665700  0.73189900  1
  Li  Li14  1  0.61900700  0.52380400  0.64882500  1
  Li  Li15  1  0.47619600  0.09520300  0.64882500  1
  Li  Li16  1  0.57085800  0.71420100  0.73189900  1
  Li  Li17  1  0.71428467  0.14275733  0.73204133  1
  Li  Li18  1  0.42847267  0.28571533  0.73204133  1
  Li  Li19  1  0.42851333  0.28570067  0.98222667  1
  Li  Li20  1  0.71429933  0.14281267  0.98222667  1
  Li  Li21  1  0.90479700  0.38099300  0.64882500  1
  Li  Li22  1  0.14334300  0.42914200  0.73189900  1
  Li  Li23  1  0.66666667  0.33333333  0.06616333  1
  Li  Li24  1  0.85724267  0.57152733  0.73204133  1
  Li  Li25  1  0.85718733  0.57148667  0.98222667  1
  Li  Li26  1  0.95246567  0.18999033  0.06523233  1
  Li  Li27  1  0.28567367  0.85713733  0.98215833  1
  Li  Li28  1  0.14286267  0.42853633  0.98215833  1
  Li  Li29  1  0.23752467  0.04753433  0.06523233  1
  Li  Li30  1  0.38095133  0.47609067  0.06537467  1
  Li  Li31  1  0.09513933  0.61904867  0.06537467  1
  Li  Li32  1  0.09518000  0.61903400  0.31556000  1
  Li  Li33  1  0.38096600  0.47614600  0.31556000  1
  Li  Li34  1  0.57146367  0.71432633  0.98215833  1
  Li  Li35  1  0.81000967  0.76247533  0.06523233  1
  Li  Li36  1  0.33333333  0.66666667  0.39949667  1
  Li  Li37  1  0.52390933  0.90486067  0.06537467  1
  Li  Li38  1  0.52385400  0.90482000  0.31556000  1
  Ti  Ti39  1  0.14154833  0.92847167  0.85802167  1
  Ti  Ti40  1  0.23848100  0.04761500  0.69078200  1
  Ti  Ti41  1  0.09425600  0.11786300  0.18942600  1
  Ti  Ti42  1  0.85591133  0.56994867  0.35637967  1
  Ti  Ti43  1  0.69029700  0.73804900  0.52343400  1
  Ti  Ti44  1  0.54619567  0.80898533  0.52465933  1
  Ti  Ti45  1  0.07152833  0.21307667  0.85802167  1
  Ti  Ti46  1  0.88213700  0.97639300  0.18942600  1
  Ti  Ti47  1  0.02360700  0.90574400  0.18942600  1
  Ti  Ti48  1  0.83363967  0.66656633  0.52388533  1
  Ti  Ti49  1  0.40450067  0.38060533  0.52391233  1
  Ti  Ti50  1  0.97610467  0.59549933  0.52391233  1
  Ti  Ti51  1  0.71403733  0.14408867  0.35637967  1
  Ti  Ti52  1  0.61939467  0.02389533  0.52391233  1
  Ti  Ti53  1  0.43005133  0.28596267  0.35637967  1
  Ti  Ti54  1  0.19101467  0.73721033  0.52465933  1
  Ti  Ti55  1  0.80913400  0.76151900  0.69078200  1
  Ti  Ti56  1  0.00000000  0.00000000  0.35688000  1
  Ti  Ti57  1  0.90468333  0.88087867  0.52390067  1
  Ti  Ti58  1  0.83292667  0.16636033  0.52388533  1
  Ti  Ti59  1  0.97619533  0.09531667  0.52390067  1
  Ti  Ti60  1  0.11912133  0.02380467  0.52390067  1
  Ti  Ti61  1  0.26195100  0.95224800  0.52343400  1
  Ti  Ti62  1  0.78692333  0.85845167  0.85802167  1
  Ti  Ti63  1  0.26278967  0.45380433  0.52465933  1
  Ti  Ti64  1  0.95238500  0.19086600  0.69078200  1
  Ti  Ti65  1  0.33343367  0.16707333  0.52388533  1
  Ti  Ti66  1  0.04775200  0.30970300  0.52343400  1
  Ti  Ti67  1  0.80821500  0.26180500  0.19135500  1
  Ti  Ti68  1  0.90514767  0.38094833  0.02411533  1
  Ti  Ti69  1  0.76092267  0.45119633  0.52275933  1
  Ti  Ti70  1  0.52257800  0.90328200  0.68971300  1
  Ti  Ti71  1  0.35696367  0.07138233  0.85676733  1
  Ti  Ti72  1  0.21286233  0.14231867  0.85799267  1
  Ti  Ti73  1  0.73819500  0.54641000  0.19135500  1
  Ti  Ti74  1  0.54880367  0.30972633  0.52275933  1
  Ti  Ti75  1  0.69027367  0.23907733  0.52275933  1
  Ti  Ti76  1  0.50030633  0.99989967  0.85721867  1
  Ti  Ti77  1  0.07116733  0.71393867  0.85724567  1
  Ti  Ti78  1  0.64277133  0.92883267  0.85724567  1
  Ti  Ti79  1  0.38070400  0.47742200  0.68971300  1
  Ti  Ti80  1  0.28606133  0.35722867  0.85724567  1
  Ti  Ti81  1  0.09671800  0.61929600  0.68971300  1
  Ti  Ti82  1  0.85768133  0.07054367  0.85799267  1
  Ti  Ti83  1  0.47580067  0.09485233  0.02411533  1
  Ti  Ti84  1  0.66666667  0.33333333  0.69021333  1
  Ti  Ti85  1  0.57135000  0.21421200  0.85723400  1
  Ti  Ti86  1  0.49959333  0.49969367  0.85721867  1
  Ti  Ti87  1  0.64286200  0.42865000  0.85723400  1
  Ti  Ti88  1  0.78578800  0.35713800  0.85723400  1
  Ti  Ti89  1  0.92861767  0.28558133  0.85676733  1
  Ti  Ti90  1  0.45359000  0.19178500  0.19135500  1
  Ti  Ti91  1  0.92945633  0.78713767  0.85799267  1
  Ti  Ti92  1  0.61905167  0.52419933  0.02411533  1
  Ti  Ti93  1  0.00010033  0.50040667  0.85721867  1
  Ti  Ti94  1  0.71441867  0.64303633  0.85676733  1
  Ti  Ti95  1  0.47488167  0.59513833  0.52468833  1
  Ti  Ti96  1  0.57181433  0.71428167  0.35744867  1
  Ti  Ti97  1  0.42758933  0.78452967  0.85609267  1
  Ti  Ti98  1  0.18924467  0.23661533  0.02304633  1
  Ti  Ti99  1  0.02363033  0.40471567  0.19010067  1
  Ti  Ti100  1  0.87952900  0.47565200  0.19132600  1
  Ti  Ti101  1  0.40486167  0.87974333  0.52468833  1
  Ti  Ti102  1  0.21547033  0.64305967  0.85609267  1
  Ti  Ti103  1  0.35694033  0.57241067  0.85609267  1
  Ti  Ti104  1  0.16697300  0.33323300  0.19055200  1
  Ti  Ti105  1  0.73783400  0.04727200  0.19057900  1
  Ti  Ti106  1  0.30943800  0.26216600  0.19057900  1
  Ti  Ti107  1  0.04737067  0.81075533  0.02304633  1
  Ti  Ti108  1  0.95272800  0.69056200  0.19057900  1
  Ti  Ti109  1  0.76338467  0.95262933  0.02304633  1
  Ti  Ti110  1  0.52434800  0.40387700  0.19132600  1
  Ti  Ti111  1  0.14246733  0.42818567  0.35744867  1
  Ti  Ti112  1  0.33333333  0.66666667  0.02354667  1
  Ti  Ti113  1  0.23801667  0.54754533  0.19056733  1
  Ti  Ti114  1  0.16626000  0.83302700  0.19055200  1
  Ti  Ti115  1  0.30952867  0.76198333  0.19056733  1
  Ti  Ti116  1  0.45245467  0.69047133  0.19056733  1
  Ti  Ti117  1  0.59528433  0.61891467  0.19010067  1
  Ti  Ti118  1  0.12025667  0.52511833  0.52468833  1
  Ti  Ti119  1  0.59612300  0.12047100  0.19132600  1
  Ti  Ti120  1  0.28571833  0.85753267  0.35744867  1
  Ti  Ti121  1  0.66676700  0.83374000  0.19055200  1
  Ti  Ti122  1  0.38108533  0.97636967  0.19010067  1
  O  O123  1  0.51398067  0.39275233  0.44463733  1
  O  O124  1  0.00000000  0.00000000  0.12308600  1
  O  O125  1  0.82159867  0.16411633  0.26969233  1
  O  O126  1  0.34514700  0.06908500  0.60300600  1
  O  O127  1  0.36018967  0.55924433  0.60201933  1
  O  O128  1  0.83588367  0.65748233  0.26969233  1
  O  O129  1  0.59296800  0.62875900  0.44448200  1
  O  O130  1  0.75020600  0.55027600  0.44463200  1
  O  O131  1  0.87877167  0.48601933  0.44463733  1
  O  O132  1  0.94274333  0.67847067  0.44468767  1
  O  O133  1  0.57159367  0.71431133  0.59456433  1
  O  O134  1  0.04765133  0.80940167  0.26123667  1
  O  O135  1  0.65711967  0.82127433  0.44454933  1
  O  O136  1  0.19059833  0.23824967  0.26123667  1
  O  O137  1  0.76175033  0.95234867  0.26123667  1
  O  O138  1  0.80954400  0.76190800  0.45298200  1
  O  O139  1  0.19065100  0.23832100  0.78601100  1
  O  O140  1  0.34251767  0.17840133  0.26969233  1
  O  O141  1  0.72393800  0.65485300  0.60300600  1
  O  O142  1  0.44075567  0.80094533  0.60201933  1
  O  O143  1  0.91410767  0.89271433  0.27011533  1
  O  O144  1  0.78811200  0.84752100  0.60305000  1
  O  O145  1  0.19905467  0.63981033  0.60201933  1
  O  O146  1  0.10728567  0.02139333  0.27011533  1
  O  O147  1  0.91656667  0.78337933  0.60309833  1
  O  O148  1  0.07354467  0.70485633  0.60307633  1
  O  O149  1  0.97860667  0.08589233  0.27011533  1
  O  O150  1  0.63131167  0.92645533  0.60307633  1
  O  O151  1  0.17872567  0.83584533  0.44454933  1
  O  O152  1  0.03579100  0.40703200  0.44448200  1
  O  O153  1  0.89295067  0.97855333  0.44463433  1
  O  O154  1  0.73572733  0.05725667  0.44468767  1
  O  O155  1  0.60724767  0.12122833  0.44463733  1
  O  O156  1  0.16415467  0.34288033  0.44454933  1
  O  O157  1  0.02144667  0.91439733  0.44463433  1
  O  O158  1  0.28568867  0.85728233  0.59456433  1
  O  O159  1  0.89505633  0.86884667  0.77768967  1
  O  O160  1  0.80007000  0.24979400  0.44463200  1
  O  O161  1  0.08560267  0.10704933  0.44463433  1
  O  O162  1  0.37124100  0.96420900  0.44448200  1
  O  O163  1  0.00000000  0.00000000  0.59469500  1
  O  O164  1  0.86681267  0.08343333  0.60309833  1
  O  O165  1  0.23809200  0.04763600  0.45298200  1
  O  O166  1  0.95236400  0.19045600  0.45298200  1
  O  O167  1  0.76167900  0.95233000  0.78601100  1
  O  O168  1  0.04767000  0.80934900  0.78601100  1
  O  O169  1  0.15247900  0.94059100  0.60305000  1
  O  O170  1  0.05940900  0.21188800  0.60305000  1
  O  O171  1  0.21662067  0.13318733  0.60309833  1
  O  O172  1  0.93091500  0.27606200  0.60300600  1
  O  O173  1  0.97379033  0.10494367  0.77768967  1
  O  O174  1  0.32152933  0.26427267  0.44468767  1
  O  O175  1  0.44972400  0.19993000  0.44463200  1
  O  O176  1  0.13115333  0.02620967  0.77768967  1
  O  O177  1  0.14271767  0.42840633  0.59456433  1
  O  O178  1  0.29514367  0.36868833  0.60307633  1
  O  O179  1  0.18064733  0.72608567  0.77797067  1
  O  O180  1  0.66666667  0.33333333  0.45641933  1
  O  O181  1  0.48826533  0.49744967  0.60302567  1
  O  O182  1  0.01181367  0.40241833  0.93633933  1
  O  O183  1  0.02685633  0.89257767  0.93535267  1
  O  O184  1  0.50255033  0.99081567  0.60302567  1
  O  O185  1  0.25963467  0.96209233  0.77781533  1
  O  O186  1  0.41687267  0.88360933  0.77796533  1
  O  O187  1  0.54543833  0.81935267  0.77797067  1
  O  O188  1  0.60941000  0.01180400  0.77802100  1
  O  O189  1  0.23826033  0.04764467  0.92789767  1
  O  O190  1  0.71431800  0.14273500  0.59457000  1
  O  O191  1  0.32378633  0.15460767  0.77788267  1
  O  O192  1  0.85726500  0.57158300  0.59457000  1
  O  O193  1  0.42841700  0.28568200  0.59457000  1
  O  O194  1  0.47621067  0.09524133  0.78631533  1
  O  O195  1  0.85731767  0.57165433  0.11934433  1
  O  O196  1  0.00918433  0.51173467  0.60302567  1
  O  O197  1  0.39060467  0.98818633  0.93633933  1
  O  O198  1  0.10742233  0.13427867  0.93535267  1
  O  O199  1  0.58077433  0.22604767  0.60344867  1
  O  O200  1  0.45477867  0.18085433  0.93638333  1
  O  O201  1  0.86572133  0.97314367  0.93535267  1
  O  O202  1  0.77395233  0.35472667  0.60344867  1
  O  O203  1  0.58323333  0.11671267  0.93643167  1
  O  O204  1  0.74021133  0.03818967  0.93640967  1
  O  O205  1  0.64527333  0.41922567  0.60344867  1
  O  O206  1  0.29797833  0.25978867  0.93640967  1
  O  O207  1  0.84539233  0.16917867  0.77788267  1
  O  O208  1  0.70245767  0.74036533  0.77781533  1
  O  O209  1  0.55961733  0.31188667  0.77796767  1
  O  O210  1  0.40239400  0.39059000  0.77802100  1
  O  O211  1  0.27391433  0.45456167  0.77797067  1
  O  O212  1  0.83082133  0.67621367  0.77788267  1
  O  O213  1  0.68811333  0.24773067  0.77796767  1
  O  O214  1  0.95235533  0.19061567  0.92789767  1
  O  O215  1  0.56172300  0.20218000  0.11102300  1
  O  O216  1  0.46673667  0.58312733  0.77796533  1
  O  O217  1  0.75226933  0.44038267  0.77796767  1
  O  O218  1  0.03790767  0.29754233  0.77781533  1
  O  O219  1  0.66666667  0.33333333  0.92802833  1
  O  O220  1  0.53347933  0.41676667  0.93643167  1
  O  O221  1  0.90475867  0.38096933  0.78631533  1
  O  O222  1  0.61903067  0.52378933  0.78631533  1
  O  O223  1  0.42834567  0.28566333  0.11934433  1
  O  O224  1  0.71433667  0.14268233  0.11934433  1
  O  O225  1  0.81914567  0.27392433  0.93638333  1
  O  O226  1  0.72607567  0.54522133  0.93638333  1
  O  O227  1  0.88328733  0.46652067  0.93643167  1
  O  O228  1  0.59758167  0.60939533  0.93633933  1
  O  O229  1  0.64045700  0.43827700  0.11102300  1
  O  O230  1  0.98819600  0.59760600  0.77802100  1
  O  O231  1  0.11639067  0.53326333  0.77796533  1
  O  O232  1  0.79782000  0.35954300  0.11102300  1
  O  O233  1  0.80938433  0.76173967  0.92789767  1
  O  O234  1  0.96181033  0.70202167  0.93640967  1
  O  O235  1  0.84731400  0.05941900  0.11130400  1
  O  O236  1  0.33333333  0.66666667  0.78975267  1
  O  O237  1  0.15493200  0.83078300  0.93635900  1
  O  O238  1  0.67848033  0.73575167  0.26967267  1
  O  O239  1  0.69352300  0.22591100  0.26868600  1
  O  O240  1  0.16921700  0.32414900  0.93635900  1
  O  O241  1  0.92630133  0.29542567  0.11114867  1
  O  O242  1  0.08353933  0.21694267  0.11129867  1
  O  O243  1  0.21210500  0.15268600  0.11130400  1
  O  O244  1  0.27607667  0.34513733  0.11135433  1
  O  O245  1  0.90492700  0.38097800  0.26123100  1
  O  O246  1  0.38098467  0.47606833  0.92790333  1
  O  O247  1  0.99045300  0.48794100  0.11121600  1
  O  O248  1  0.52393167  0.90491633  0.92790333  1
  O  O249  1  0.09508367  0.61901533  0.92790333  1
  O  O250  1  0.14287733  0.42857467  0.11964867  1
  O  O251  1  0.52398433  0.90498767  0.45267767  1
  O  O252  1  0.67585100  0.84506800  0.93635900  1
  O  O253  1  0.05727133  0.32151967  0.26967267  1
  O  O254  1  0.77408900  0.46761200  0.26868600  1
  O  O255  1  0.24744100  0.55938100  0.93678200  1
  O  O256  1  0.12144533  0.51418767  0.26971667  1
  O  O257  1  0.53238800  0.30647700  0.26868600  1
  O  O258  1  0.44061900  0.68806000  0.93678200  1
  O  O259  1  0.24990000  0.45004600  0.26976500  1
  O  O260  1  0.40687800  0.37152300  0.26974300  1
  O  O261  1  0.31194000  0.75255900  0.93678200  1
  O  O262  1  0.96464500  0.59312200  0.26974300  1
  O  O263  1  0.51205900  0.50251200  0.11121600  1
  O  O264  1  0.36912433  0.07369867  0.11114867  1
  O  O265  1  0.22628400  0.64522000  0.11130100  1
  O  O266  1  0.06906067  0.72392333  0.11135433  1
  O  O267  1  0.94058100  0.78789500  0.11130400  1
  O  O268  1  0.49748800  0.00954700  0.11121600  1
  O  O269  1  0.35478000  0.58106400  0.11130100  1
  O  O270  1  0.61902200  0.52394900  0.26123100  1
  O  O271  1  0.22838967  0.53551333  0.44435633  1
  O  O272  1  0.13340333  0.91646067  0.11129867  1
  O  O273  1  0.41893600  0.77371600  0.11130100  1
  O  O274  1  0.70457433  0.63087567  0.11114867  1
  O  O275  1  0.33333333  0.66666667  0.26136167  1
  O  O276  1  0.20014600  0.75010000  0.26976500  1
  O  O277  1  0.57142533  0.71430267  0.11964867  1
  O  O278  1  0.28569733  0.85712267  0.11964867  1
  O  O279  1  0.09501233  0.61899667  0.45267767  1
  O  O280  1  0.38100333  0.47601567  0.45267767  1
  O  O281  1  0.48581233  0.60725767  0.26971667  1
  O  O282  1  0.39274233  0.87855467  0.26971667  1
  O  O283  1  0.54995400  0.79985400  0.26976500  1
  O  O284  1  0.26424833  0.94272867  0.26967267  1
  O  O285  1  0.30712367  0.77161033  0.44435633  1
  O  O286  1  0.65486267  0.93093933  0.11135433  1
  O  O287  1  0.78305733  0.86659667  0.11129867  1
  O  O288  1  0.46448667  0.69287633  0.44435633  1
  O  O289  1  0.47605100  0.09507300  0.26123100  1
  O  O290  1  0.62847700  0.03535500  0.26974300  1
