# generated using pymatgen
data_Li2MnFe3O8
_symmetry_space_group_name_H-M   'P 1'
_cell_length_a   5.78555200
_cell_length_b   5.78555200
_cell_length_c   14.28311491
_cell_angle_alpha   90.00000000
_cell_angle_beta   90.00000000
_cell_angle_gamma   120.00000000
_symmetry_Int_Tables_number   1
_chemical_formula_structural   Li2MnFe3O8
_chemical_formula_sum   'Li6 Mn3 Fe9 O24'
_cell_volume   414.04082489
_cell_formula_units_Z   3
loop_
 _symmetry_equiv_pos_site_id
 _symmetry_equiv_pos_as_xyz
  1  'x, y, z'
loop_
 _atom_site_type_symbol
 _atom_site_label
 _atom_site_symmetry_multiplicity
 _atom_site_fract_x
 _atom_site_fract_y
 _atom_site_fract_z
 _atom_site_occupancy
  Li  Li0  1  0.66666667  0.33333333  0.20677533  1
  Li  Li1  1  0.00000000  0.00000000  0.12655800  1
  Li  Li2  1  0.33333333  0.66666667  0.54010867  1
  Li  Li3  1  0.66666667  0.33333333  0.45989133  1
  Li  Li4  1  0.00000000  0.00000000  0.87344200  1
  Li  Li5  1  0.33333333  0.66666667  0.79322467  1
  Mn  Mn6  1  0.33333333  0.66666667  0.16666667  1
  Mn  Mn7  1  1.00000000  1.00000000  0.50000000  1
  Mn  Mn8  1  0.66666667  0.33333333  0.83333333  1
  Fe  Fe9  1  0.50000000  0.50000000  0.00000000  1
  Fe  Fe10  1  0.50000000  0.00000000  0.00000000  1
  Fe  Fe11  1  0.00000000  0.50000000  0.00000000  1
  Fe  Fe12  1  0.16666667  0.83333333  0.33333333  1
  Fe  Fe13  1  0.16666667  0.33333333  0.33333333  1
  Fe  Fe14  1  0.66666667  0.83333333  0.33333333  1
  Fe  Fe15  1  0.83333333  0.16666667  0.66666667  1
  Fe  Fe16  1  0.83333333  0.66666667  0.66666667  1
  Fe  Fe17  1  0.33333333  0.16666667  0.66666667  1
  O  O18  1  0.66666667  0.33333333  0.06942333  1
  O  O19  1  0.03576800  0.51788400  0.25521700  1
  O  O20  1  0.48211600  0.96423200  0.25521700  1
  O  O21  1  0.48211600  0.51788400  0.25521700  1
  O  O22  1  0.18455067  0.81544933  0.07811633  1
  O  O23  1  0.18455067  0.36910133  0.07811633  1
  O  O24  1  0.63089867  0.81544933  0.07811633  1
  O  O25  1  0.00000000  0.00000000  0.26391000  1
  O  O26  1  0.33333333  0.66666667  0.40275667  1
  O  O27  1  0.70243467  0.85121733  0.58855033  1
  O  O28  1  0.14878267  0.29756533  0.58855033  1
  O  O29  1  0.14878267  0.85121733  0.58855033  1
  O  O30  1  0.85121733  0.14878267  0.41144967  1
  O  O31  1  0.85121733  0.70243467  0.41144967  1
  O  O32  1  0.29756533  0.14878267  0.41144967  1
  O  O33  1  0.66666667  0.33333333  0.59724333  1
  O  O34  1  0.00000000  0.00000000  0.73609000  1
  O  O35  1  0.36910133  0.18455067  0.92188367  1
  O  O36  1  0.81544933  0.63089867  0.92188367  1
  O  O37  1  0.81544933  0.18455067  0.92188367  1
  O  O38  1  0.51788400  0.48211600  0.74478300  1
  O  O39  1  0.51788400  0.03576800  0.74478300  1
  O  O40  1  0.96423200  0.48211600  0.74478300  1
  O  O41  1  0.33333333  0.66666667  0.93057667  1
