# generated using pymatgen
data_Te2(PO4)3
_symmetry_space_group_name_H-M   'P 1'
_cell_length_a   8.59066378
_cell_length_b   8.59066378
_cell_length_c   23.70128906
_cell_angle_alpha   90.00000000
_cell_angle_beta   90.00000000
_cell_angle_gamma   120.00000000
_symmetry_Int_Tables_number   1
_chemical_formula_structural   Te2(PO4)3
_chemical_formula_sum   'Te12 P18 O72'
_cell_volume   1514.80260374
_cell_formula_units_Z   6
loop_
 _symmetry_equiv_pos_site_id
 _symmetry_equiv_pos_as_xyz
  1  'x, y, z'
loop_
 _atom_site_type_symbol
 _atom_site_label
 _atom_site_symmetry_multiplicity
 _atom_site_fract_x
 _atom_site_fract_y
 _atom_site_fract_z
 _atom_site_occupancy
  Te  Te0  1  0.00000000  0.00000000  0.14175100  1
  Te  Te1  1  0.66666667  0.33333333  0.19158233  1
  Te  Te2  1  0.33333333  0.66666667  0.01425867  1
  Te  Te3  1  0.33333333  0.66666667  0.31907467  1
  Te  Te4  1  0.66666667  0.33333333  0.47508433  1
  Te  Te5  1  0.33333333  0.66666667  0.52491567  1
  Te  Te6  1  0.00000000  0.00000000  0.34759200  1
  Te  Te7  1  0.00000000  0.00000000  0.65240800  1
  Te  Te8  1  0.33333333  0.66666667  0.80841767  1
  Te  Te9  1  0.00000000  0.00000000  0.85824900  1
  Te  Te10  1  0.66666667  0.33333333  0.68092533  1
  Te  Te11  1  0.66666667  0.33333333  0.98574133  1
  P  P12  1  0.66602967  0.62641233  0.08174733  1
  P  P13  1  0.96038267  0.33397033  0.08174733  1
  P  P14  1  0.37358767  0.03961733  0.08174733  1
  P  P15  1  0.29307900  0.29371600  0.25158600  1
  P  P16  1  0.70628400  0.99936300  0.25158600  1
  P  P17  1  0.00063700  0.70692100  0.25158600  1
  P  P18  1  0.33269633  0.95974567  0.41508067  1
  P  P19  1  0.62704933  0.66730367  0.41508067  1
  P  P20  1  0.04025433  0.37295067  0.41508067  1
  P  P21  1  0.95974567  0.62704933  0.58491933  1
  P  P22  1  0.37295067  0.33269633  0.58491933  1
  P  P23  1  0.66730367  0.04025433  0.58491933  1
  P  P24  1  0.99936300  0.29307900  0.74841400  1
  P  P25  1  0.29371600  0.00063700  0.74841400  1
  P  P26  1  0.70692100  0.70628400  0.74841400  1
  P  P27  1  0.62641233  0.96038267  0.91825267  1
  P  P28  1  0.03961733  0.66602967  0.91825267  1
  P  P29  1  0.33397033  0.37358767  0.91825267  1
  O  O30  1  0.91527733  0.77054067  0.29848067  1
  O  O31  1  0.22945933  0.14473667  0.29848067  1
  O  O32  1  0.85526333  0.08472267  0.29848067  1
  O  O33  1  0.47014533  0.57724267  0.06511567  1
  O  O34  1  0.78866233  0.83269467  0.08570467  1
  O  O35  1  0.65116633  0.53424067  0.13839767  1
  O  O36  1  0.04403233  0.21133767  0.08570467  1
  O  O37  1  0.10709733  0.52985467  0.06511567  1
  O  O38  1  0.42275733  0.89290267  0.06511567  1
  O  O39  1  0.20090733  0.21640767  0.19493567  1
  O  O40  1  0.49936133  0.37736567  0.24762867  1
  O  O41  1  0.78359233  0.98449967  0.19493567  1
  O  O42  1  0.88307433  0.34883367  0.13839767  1
  O  O43  1  0.16730533  0.95596767  0.08570467  1
  O  O44  1  0.46575933  0.11692567  0.13839767  1
  O  O45  1  0.24390933  0.44043067  0.26821767  1
  O  O46  1  0.55956933  0.80347867  0.26821767  1
  O  O47  1  0.62263433  0.12199567  0.24762867  1
  O  O48  1  0.01550033  0.79909267  0.19493567  1
  O  O49  1  0.87800433  0.50063867  0.24762867  1
  O  O50  1  0.19652133  0.75609067  0.26821767  1
  O  O51  1  0.81140333  0.24861067  0.03485267  1
  O  O52  1  0.43720733  0.18859667  0.03485267  1
  O  O53  1  0.75138933  0.56279267  0.03485267  1
  O  O54  1  0.58194400  0.10387400  0.63181400  1
  O  O55  1  0.89612600  0.47807000  0.63181400  1
  O  O56  1  0.52193000  0.41805600  0.63181400  1
  O  O57  1  0.13681200  0.91057600  0.39844900  1
  O  O58  1  0.45532900  0.16602800  0.41903800  1
  O  O59  1  0.31783300  0.86757400  0.47173100  1
  O  O60  1  0.71069900  0.54467100  0.41903800  1
  O  O61  1  0.77376400  0.86318800  0.39844900  1
  O  O62  1  0.08942400  0.22623600  0.39844900  1
  O  O63  1  0.86757400  0.54974100  0.52826900  1
  O  O64  1  0.16602800  0.71069900  0.58096200  1
  O  O65  1  0.45025900  0.31783300  0.52826900  1
  O  O66  1  0.54974100  0.68216700  0.47173100  1
  O  O67  1  0.83397200  0.28930100  0.41903800  1
  O  O68  1  0.13242600  0.45025900  0.47173100  1
  O  O69  1  0.91057600  0.77376400  0.60155100  1
  O  O70  1  0.22623600  0.13681200  0.60155100  1
  O  O71  1  0.28930100  0.45532900  0.58096200  1
  O  O72  1  0.68216700  0.13242600  0.52826900  1
  O  O73  1  0.54467100  0.83397200  0.58096200  1
  O  O74  1  0.86318800  0.08942400  0.60155100  1
  O  O75  1  0.47807000  0.58194400  0.36818600  1
  O  O76  1  0.10387400  0.52193000  0.36818600  1
  O  O77  1  0.41805600  0.89612600  0.36818600  1
  O  O78  1  0.24861067  0.43720733  0.96514733  1
  O  O79  1  0.56279267  0.81140333  0.96514733  1
  O  O80  1  0.18859667  0.75138933  0.96514733  1
  O  O81  1  0.80347867  0.24390933  0.73178233  1
  O  O82  1  0.12199567  0.49936133  0.75237133  1
  O  O83  1  0.98449967  0.20090733  0.80506433  1
  O  O84  1  0.37736567  0.87800433  0.75237133  1
  O  O85  1  0.44043067  0.19652133  0.73178233  1
  O  O86  1  0.75609067  0.55956933  0.73178233  1
  O  O87  1  0.53424067  0.88307433  0.86160233  1
  O  O88  1  0.83269467  0.04403233  0.91429533  1
  O  O89  1  0.11692567  0.65116633  0.86160233  1
  O  O90  1  0.21640767  0.01550033  0.80506433  1
  O  O91  1  0.50063867  0.62263433  0.75237133  1
  O  O92  1  0.79909267  0.78359233  0.80506433  1
  O  O93  1  0.57724267  0.10709733  0.93488433  1
  O  O94  1  0.89290267  0.47014533  0.93488433  1
  O  O95  1  0.95596767  0.78866233  0.91429533  1
  O  O96  1  0.34883367  0.46575933  0.86160233  1
  O  O97  1  0.21133767  0.16730533  0.91429533  1
  O  O98  1  0.52985467  0.42275733  0.93488433  1
  O  O99  1  0.14473667  0.91527733  0.70151933  1
  O  O100  1  0.77054067  0.85526333  0.70151933  1
  O  O101  1  0.08472267  0.22945933  0.70151933  1
