# generated using pymatgen
data_Li4Cr7(PO4)6
_symmetry_space_group_name_H-M   'P 1'
_cell_length_a   11.74782600
_cell_length_b   13.99208800
_cell_length_c   6.48547754
_cell_angle_alpha   90.00000000
_cell_angle_beta   103.89882076
_cell_angle_gamma   90.00000000
_symmetry_Int_Tables_number   1
_chemical_formula_structural   Li4Cr7(PO4)6
_chemical_formula_sum   'Li8 Cr14 P12 O48'
_cell_volume   1034.84810364
_cell_formula_units_Z   2
loop_
 _symmetry_equiv_pos_site_id
 _symmetry_equiv_pos_as_xyz
  1  'x, y, z'
loop_
 _atom_site_type_symbol
 _atom_site_label
 _atom_site_symmetry_multiplicity
 _atom_site_fract_x
 _atom_site_fract_y
 _atom_site_fract_z
 _atom_site_occupancy
  Li  Li0  1  0.23245600  0.00000000  0.49509900  1
  Li  Li1  1  0.56513300  0.87405700  0.54824900  1
  Li  Li2  1  0.56513300  0.12594300  0.54824900  1
  Li  Li3  1  0.93601800  0.00000000  0.54683900  1
  Li  Li4  1  0.73245600  0.50000000  0.49509900  1
  Li  Li5  1  0.06513300  0.37405700  0.54824900  1
  Li  Li6  1  0.06513300  0.62594300  0.54824900  1
  Li  Li7  1  0.43601800  0.50000000  0.54683900  1
  Cr  Cr8  1  0.32946750  0.69128550  0.18182400  1
  Cr  Cr9  1  0.32946750  0.30871450  0.18182400  1
  Cr  Cr10  1  0.49745650  0.87579550  0.98983100  1
  Cr  Cr11  1  0.49745650  0.12420450  0.98983100  1
  Cr  Cr12  1  0.98810200  0.00000000  0.00656200  1
  Cr  Cr13  1  0.66799950  0.67795850  0.81925700  1
  Cr  Cr14  1  0.66799950  0.32204150  0.81925700  1
  Cr  Cr15  1  0.82946750  0.19128550  0.18182400  1
  Cr  Cr16  1  0.82946750  0.80871450  0.18182400  1
  Cr  Cr17  1  0.99745650  0.37579550  0.98983100  1
  Cr  Cr18  1  0.99745650  0.62420450  0.98983100  1
  Cr  Cr19  1  0.48810200  0.50000000  0.00656200  1
  Cr  Cr20  1  0.16799950  0.17795850  0.81925700  1
  Cr  Cr21  1  0.16799950  0.82204150  0.81925700  1
  P  P22  1  0.40936200  0.69186700  0.71652300  1
  P  P23  1  0.40936200  0.30813300  0.71652300  1
  P  P24  1  0.32917400  0.00000000  0.05992400  1
  P  P25  1  0.68364600  0.00000000  0.90357100  1
  P  P26  1  0.60071350  0.68666250  0.29960000  1
  P  P27  1  0.60071350  0.31333750  0.29960000  1
  P  P28  1  0.90936200  0.19186700  0.71652300  1
  P  P29  1  0.90936200  0.80813300  0.71652300  1
  P  P30  1  0.82917400  0.50000000  0.05992400  1
  P  P31  1  0.18364600  0.50000000  0.90357100  1
  P  P32  1  0.10071350  0.18666250  0.29960000  1
  P  P33  1  0.10071350  0.81333750  0.29960000  1
  O  O34  1  0.31489900  0.08977500  0.91010900  1
  O  O35  1  0.31489900  0.91022500  0.91010900  1
  O  O36  1  0.25313400  0.00000000  0.21441500  1
  O  O37  1  0.33045050  0.71252550  0.86933600  1
  O  O38  1  0.33045050  0.28747450  0.86933600  1
  O  O39  1  0.48769700  0.40045200  0.76779600  1
  O  O40  1  0.48769700  0.59954800  0.76779600  1
  O  O41  1  0.50537100  0.77460200  0.74893600  1
  O  O42  1  0.50537100  0.22539800  0.74893600  1
  O  O43  1  0.46620500  0.00000000  0.16195100  1
  O  O44  1  0.57978100  0.00000000  0.69865900  1
  O  O45  1  0.49576500  0.38604800  0.21431700  1
  O  O46  1  0.49576500  0.61395200  0.21431700  1
  O  O47  1  0.54117750  0.21673650  0.32156100  1
  O  O48  1  0.54117750  0.78326350  0.32156100  1
  O  O49  1  0.17224750  0.14250050  0.51057700  1
  O  O50  1  0.17224750  0.85749950  0.51057700  1
  O  O51  1  0.80139500  0.00000000  0.84835600  1
  O  O52  1  0.68112750  0.70051050  0.14157800  1
  O  O53  1  0.68112750  0.29948950  0.14157800  1
  O  O54  1  0.67049500  0.90876900  0.03776400  1
  O  O55  1  0.67049500  0.09123100  0.03776400  1
  O  O56  1  0.33318400  0.68023300  0.49221500  1
  O  O57  1  0.33318400  0.31976700  0.49221500  1
  O  O58  1  0.81489900  0.58977500  0.91010900  1
  O  O59  1  0.81489900  0.41022500  0.91010900  1
  O  O60  1  0.75313400  0.50000000  0.21441500  1
  O  O61  1  0.83045050  0.21252550  0.86933600  1
  O  O62  1  0.83045050  0.78747450  0.86933600  1
  O  O63  1  0.98769700  0.90045200  0.76779600  1
  O  O64  1  0.98769700  0.09954800  0.76779600  1
  O  O65  1  0.00537100  0.27460200  0.74893600  1
  O  O66  1  0.00537100  0.72539800  0.74893600  1
  O  O67  1  0.96620500  0.50000000  0.16195100  1
  O  O68  1  0.07978100  0.50000000  0.69865900  1
  O  O69  1  0.99576500  0.88604800  0.21431700  1
  O  O70  1  0.99576500  0.11395200  0.21431700  1
  O  O71  1  0.04117750  0.71673650  0.32156100  1
  O  O72  1  0.04117750  0.28326350  0.32156100  1
  O  O73  1  0.67224750  0.64250050  0.51057700  1
  O  O74  1  0.67224750  0.35749950  0.51057700  1
  O  O75  1  0.30139500  0.50000000  0.84835600  1
  O  O76  1  0.18112750  0.20051050  0.14157800  1
  O  O77  1  0.18112750  0.79948950  0.14157800  1
  O  O78  1  0.17049500  0.40876900  0.03776400  1
  O  O79  1  0.17049500  0.59123100  0.03776400  1
  O  O80  1  0.83318400  0.18023300  0.49221500  1
  O  O81  1  0.83318400  0.81976700  0.49221500  1
