# generated using pymatgen
data_Li4TiCrO6
_symmetry_space_group_name_H-M   'P 1'
_cell_length_a   5.05877158
_cell_length_b   8.78710829
_cell_length_c   9.81108159
_cell_angle_alpha   90.00000000
_cell_angle_beta   99.77844062
_cell_angle_gamma   90.00000000
_symmetry_Int_Tables_number   1
_chemical_formula_structural   Li4TiCrO6
_chemical_formula_sum   'Li16 Ti4 Cr4 O24'
_cell_volume   429.78590625
_cell_formula_units_Z   4
loop_
 _symmetry_equiv_pos_site_id
 _symmetry_equiv_pos_as_xyz
  1  'x, y, z'
loop_
 _atom_site_type_symbol
 _atom_site_label
 _atom_site_symmetry_multiplicity
 _atom_site_fract_x
 _atom_site_fract_y
 _atom_site_fract_z
 _atom_site_occupancy
  Li  Li0  1  0.75000000  0.25000000  0.50000000  1
  Li  Li1  1  0.25000000  0.25000000  0.00000000  1
  Li  Li2  1  0.50000000  0.25421300  0.75000000  1
  Li  Li3  1  0.00000000  0.24578700  0.25000000  1
  Li  Li4  1  0.75598200  0.09206900  0.00048000  1
  Li  Li5  1  0.25598200  0.40793100  0.50048000  1
  Li  Li6  1  0.24401800  0.09206900  0.49952000  1
  Li  Li7  1  0.74401800  0.40793100  0.99952000  1
  Li  Li8  1  0.25000000  0.75000000  0.50000000  1
  Li  Li9  1  0.75000000  0.75000000  0.00000000  1
  Li  Li10  1  0.00000000  0.75421300  0.75000000  1
  Li  Li11  1  0.50000000  0.74578700  0.25000000  1
  Li  Li12  1  0.25598200  0.59206900  0.00048000  1
  Li  Li13  1  0.75598200  0.90793100  0.50048000  1
  Li  Li14  1  0.74401800  0.59206900  0.49952000  1
  Li  Li15  1  0.24401800  0.90793100  0.99952000  1
  Ti  Ti16  1  0.50000000  0.08665900  0.25000000  1
  Ti  Ti17  1  0.00000000  0.41334100  0.75000000  1
  Ti  Ti18  1  0.00000000  0.58665900  0.25000000  1
  Ti  Ti19  1  0.50000000  0.91334100  0.75000000  1
  Cr  Cr20  1  0.50000000  0.41919500  0.25000000  1
  Cr  Cr21  1  0.00000000  0.08080500  0.75000000  1
  Cr  Cr22  1  0.00000000  0.91919500  0.25000000  1
  Cr  Cr23  1  0.50000000  0.58080500  0.75000000  1
  O  O24  1  0.60291125  0.25070625  0.13296450  1
  O  O25  1  0.39708875  0.25070625  0.36703550  1
  O  O26  1  0.10291125  0.24929375  0.63296450  1
  O  O27  1  0.89708875  0.24929375  0.86703550  1
  O  O28  1  0.64658325  0.07708525  0.63733200  1
  O  O29  1  0.35341675  0.07708525  0.86266800  1
  O  O30  1  0.14658325  0.42291475  0.13733200  1
  O  O31  1  0.85341675  0.42291475  0.36266800  1
  O  O32  1  0.85458350  0.07661650  0.36396300  1
  O  O33  1  0.35458350  0.42338350  0.86396300  1
  O  O34  1  0.14541650  0.07661650  0.13603700  1
  O  O35  1  0.63466825  0.43390725  0.63794400  1
  O  O36  1  0.10291125  0.75070625  0.13296450  1
  O  O37  1  0.89708875  0.75070625  0.36703550  1
  O  O38  1  0.60291125  0.74929375  0.63296450  1
  O  O39  1  0.39708875  0.74929375  0.86703550  1
  O  O40  1  0.14658325  0.57708525  0.63733200  1
  O  O41  1  0.85341675  0.57708525  0.86266800  1
  O  O42  1  0.64658325  0.92291475  0.13733200  1
  O  O43  1  0.35341675  0.92291475  0.36266800  1
  O  O44  1  0.35458350  0.57661650  0.36396300  1
  O  O45  1  0.85458350  0.92338350  0.86396300  1
  O  O46  1  0.64541650  0.57661650  0.13603700  1
  O  O47  1  0.13466825  0.93390725  0.63794400  1
