# generated using pymatgen
data_Fe3(OF2)2
_symmetry_space_group_name_H-M   'P 1'
_cell_length_a   6.67103800
_cell_length_b   20.68741400
_cell_length_c   3.10776000
_cell_angle_alpha   90.00000000
_cell_angle_beta   90.00000000
_cell_angle_gamma   90.00000000
_symmetry_Int_Tables_number   1
_chemical_formula_structural   Fe3(OF2)2
_chemical_formula_sum   'Fe12 O8 F16'
_cell_volume   428.89115787
_cell_formula_units_Z   4
loop_
 _symmetry_equiv_pos_site_id
 _symmetry_equiv_pos_as_xyz
  1  'x, y, z'
loop_
 _atom_site_type_symbol
 _atom_site_label
 _atom_site_symmetry_multiplicity
 _atom_site_fract_x
 _atom_site_fract_y
 _atom_site_fract_z
 _atom_site_occupancy
  Fe  Fe0  1  0.00000000  0.32501600  0.00000000  1
  Fe  Fe1  1  0.50000000  0.32849500  0.50000000  1
  Fe  Fe2  1  0.50000000  0.17498400  0.00000000  1
  Fe  Fe3  1  0.50000000  0.00000000  0.50000000  1
  Fe  Fe4  1  0.00000000  0.17150500  0.50000000  1
  Fe  Fe5  1  0.00000000  0.00000000  0.00000000  1
  Fe  Fe6  1  0.50000000  0.82501600  0.00000000  1
  Fe  Fe7  1  0.00000000  0.82849500  0.50000000  1
  Fe  Fe8  1  0.00000000  0.67498400  0.00000000  1
  Fe  Fe9  1  0.00000000  0.50000000  0.50000000  1
  Fe  Fe10  1  0.50000000  0.67150500  0.50000000  1
  Fe  Fe11  1  0.50000000  0.50000000  0.00000000  1
  O  O12  1  0.50000000  0.22979700  0.50000000  1
  O  O13  1  0.00000000  0.27020300  0.50000000  1
  O  O14  1  0.70155400  0.00000000  0.00000000  1
  O  O15  1  0.29844600  0.00000000  0.00000000  1
  O  O16  1  0.00000000  0.72979700  0.50000000  1
  O  O17  1  0.50000000  0.77020300  0.50000000  1
  O  O18  1  0.20155400  0.50000000  0.00000000  1
  O  O19  1  0.79844600  0.50000000  0.00000000  1
  F  F20  1  0.29506400  0.33907300  0.00000000  1
  F  F21  1  0.20493600  0.16092700  0.00000000  1
  F  F22  1  0.70493600  0.33907300  0.00000000  1
  F  F23  1  0.50000000  0.10476100  0.50000000  1
  F  F24  1  0.79506400  0.16092700  0.00000000  1
  F  F25  1  0.00000000  0.39523900  0.50000000  1
  F  F26  1  0.00000000  0.06531400  0.50000000  1
  F  F27  1  0.50000000  0.43468600  0.50000000  1
  F  F28  1  0.79506400  0.83907300  0.00000000  1
  F  F29  1  0.70493600  0.66092700  0.00000000  1
  F  F30  1  0.20493600  0.83907300  0.00000000  1
  F  F31  1  0.00000000  0.60476100  0.50000000  1
  F  F32  1  0.29506400  0.66092700  0.00000000  1
  F  F33  1  0.50000000  0.89523900  0.50000000  1
  F  F34  1  0.50000000  0.56531400  0.50000000  1
  F  F35  1  0.00000000  0.93468600  0.50000000  1
