# generated using pymatgen
data_V2(OF)3
_symmetry_space_group_name_H-M   'P 1'
_cell_length_a   5.18526381
_cell_length_b   5.24953482
_cell_length_c   5.34885220
_cell_angle_alpha   119.19009171
_cell_angle_beta   89.76991334
_cell_angle_gamma   119.42559610
_symmetry_Int_Tables_number   1
_chemical_formula_structural   V2(OF)3
_chemical_formula_sum   'V2 O3 F3'
_cell_volume   105.26163998
_cell_formula_units_Z   1
loop_
 _symmetry_equiv_pos_site_id
 _symmetry_equiv_pos_as_xyz
  1  'x, y, z'
loop_
 _atom_site_type_symbol
 _atom_site_label
 _atom_site_symmetry_multiplicity
 _atom_site_fract_x
 _atom_site_fract_y
 _atom_site_fract_z
 _atom_site_occupancy
  V  V0  1  0.98366507  0.03137956  0.97761286  1
  V  V1  1  0.49031720  0.54483116  0.45640420  1
  O  O2  1  0.18682716  0.67128776  0.26076608  1
  O  O3  1  0.74950039  0.80964995  0.26584087  1
  O  O4  1  0.82568527  0.30960496  0.75922479  1
  F  F5  1  0.33934626  0.24602025  0.26223954  1
  F  F6  1  0.26062904  0.16418811  0.75109396  1
  F  F7  1  0.66402760  0.72303825  0.76681770  1
