# generated using pymatgen
data_Sr7W4O19
_symmetry_space_group_name_H-M   'P 1'
_cell_length_a   13.93899800
_cell_length_b   5.68070600
_cell_length_c   10.59431983
_cell_angle_alpha   90.00000000
_cell_angle_beta   98.11396981
_cell_angle_gamma   90.00000000
_symmetry_Int_Tables_number   1
_chemical_formula_structural   Sr7W4O19
_chemical_formula_sum   'Sr14 W8 O38'
_cell_volume   830.49579554
_cell_formula_units_Z   2
loop_
 _symmetry_equiv_pos_site_id
 _symmetry_equiv_pos_as_xyz
  1  'x, y, z'
loop_
 _atom_site_type_symbol
 _atom_site_label
 _atom_site_symmetry_multiplicity
 _atom_site_fract_x
 _atom_site_fract_y
 _atom_site_fract_z
 _atom_site_occupancy
  Sr  Sr0  1  0.85910900  0.00000000  0.04585600  1
  Sr  Sr1  1  0.91660100  0.50000000  0.83915000  1
  Sr  Sr2  1  0.79007700  0.00000000  0.41319300  1
  Sr  Sr3  1  0.70992300  0.50000000  0.58680700  1
  Sr  Sr4  1  0.58339900  0.00000000  0.16085000  1
  Sr  Sr5  1  0.64089100  0.50000000  0.95414400  1
  Sr  Sr6  1  0.00000000  0.50000000  0.50000000  1
  Sr  Sr7  1  0.35910900  0.50000000  0.04585600  1
  Sr  Sr8  1  0.41660100  0.00000000  0.83915000  1
  Sr  Sr9  1  0.29007700  0.50000000  0.41319300  1
  Sr  Sr10  1  0.20992300  0.00000000  0.58680700  1
  Sr  Sr11  1  0.08339900  0.50000000  0.16085000  1
  Sr  Sr12  1  0.14089100  0.00000000  0.95414400  1
  Sr  Sr13  1  0.50000000  0.00000000  0.50000000  1
  W  W14  1  0.96453700  0.00000000  0.68071500  1
  W  W15  1  0.82668600  0.50000000  0.21814600  1
  W  W16  1  0.67331400  0.00000000  0.78185400  1
  W  W17  1  0.53546300  0.50000000  0.31928500  1
  W  W18  1  0.46453700  0.50000000  0.68071500  1
  W  W19  1  0.32668600  0.00000000  0.21814600  1
  W  W20  1  0.17331400  0.50000000  0.78185400  1
  W  W21  1  0.03546300  0.00000000  0.31928500  1
  O  O22  1  0.92852200  0.24136300  0.28521100  1
  O  O23  1  0.92852200  0.75863700  0.28521100  1
  O  O24  1  0.89952600  0.50000000  0.07107900  1
  O  O25  1  0.95401500  0.00000000  0.85690500  1
  O  O26  1  0.87827150  0.24656950  0.62973300  1
  O  O27  1  0.87827150  0.75343050  0.62973300  1
  O  O28  1  0.80466100  0.50000000  0.39004800  1
  O  O29  1  0.74263200  0.74276100  0.15420100  1
  O  O30  1  0.74263200  0.25723900  0.15420100  1
  O  O31  1  0.75736800  0.24276100  0.84579900  1
  O  O32  1  0.75736800  0.75723900  0.84579900  1
  O  O33  1  0.69533900  0.00000000  0.60995200  1
  O  O34  1  0.62172850  0.25343050  0.37026700  1
  O  O35  1  0.62172850  0.74656950  0.37026700  1
  O  O36  1  0.54598500  0.50000000  0.14309500  1
  O  O37  1  0.60047400  0.00000000  0.92892100  1
  O  O38  1  0.57147800  0.74136300  0.71478900  1
  O  O39  1  0.57147800  0.25863700  0.71478900  1
  O  O40  1  0.00000000  0.00000000  0.50000000  1
  O  O41  1  0.42852200  0.74136300  0.28521100  1
  O  O42  1  0.42852200  0.25863700  0.28521100  1
  O  O43  1  0.39952600  0.00000000  0.07107900  1
  O  O44  1  0.45401500  0.50000000  0.85690500  1
  O  O45  1  0.37827150  0.74656950  0.62973300  1
  O  O46  1  0.37827150  0.25343050  0.62973300  1
  O  O47  1  0.30466100  0.00000000  0.39004800  1
  O  O48  1  0.24263200  0.24276100  0.15420100  1
  O  O49  1  0.24263200  0.75723900  0.15420100  1
  O  O50  1  0.25736800  0.74276100  0.84579900  1
  O  O51  1  0.25736800  0.25723900  0.84579900  1
  O  O52  1  0.19533900  0.50000000  0.60995200  1
  O  O53  1  0.12172850  0.75343050  0.37026700  1
  O  O54  1  0.12172850  0.24656950  0.37026700  1
  O  O55  1  0.04598500  0.00000000  0.14309500  1
  O  O56  1  0.10047400  0.50000000  0.92892100  1
  O  O57  1  0.07147800  0.24136300  0.71478900  1
  O  O58  1  0.07147800  0.75863700  0.71478900  1
  O  O59  1  0.50000000  0.50000000  0.50000000  1
