# generated using pymatgen
data_Mn3CoSn2(PO4)6
_symmetry_space_group_name_H-M   'P 1'
_cell_length_a   8.77834166
_cell_length_b   8.77834166
_cell_length_c   20.78918692
_cell_angle_alpha   90.00000000
_cell_angle_beta   90.00000000
_cell_angle_gamma   120.00000000
_symmetry_Int_Tables_number   1
_chemical_formula_structural   Mn3CoSn2(PO4)6
_chemical_formula_sum   'Mn9 Co3 Sn6 P18 O72'
_cell_volume   1387.37254289
_cell_formula_units_Z   3
loop_
 _symmetry_equiv_pos_site_id
 _symmetry_equiv_pos_as_xyz
  1  'x, y, z'
loop_
 _atom_site_type_symbol
 _atom_site_label
 _atom_site_symmetry_multiplicity
 _atom_site_fract_x
 _atom_site_fract_y
 _atom_site_fract_z
 _atom_site_occupancy
  Mn  Mn0  1  0.33333333  0.66666667  0.01504467  1
  Mn  Mn1  1  0.33333333  0.66666667  0.81727167  1
  Mn  Mn2  1  0.33333333  0.66666667  0.31649367  1
  Mn  Mn3  1  0.00000000  0.00000000  0.34837800  1
  Mn  Mn4  1  0.00000000  0.00000000  0.15060500  1
  Mn  Mn5  1  0.00000000  0.00000000  0.64982700  1
  Mn  Mn6  1  0.66666667  0.33333333  0.68171133  1
  Mn  Mn7  1  0.66666667  0.33333333  0.48393833  1
  Mn  Mn8  1  0.66666667  0.33333333  0.98316033  1
  Co  Co9  1  0.33333333  0.66666667  0.51564567  1
  Co  Co10  1  0.00000000  0.00000000  0.84897900  1
  Co  Co11  1  0.66666667  0.33333333  0.18231233  1
  Sn  Sn12  1  0.33333333  0.66666667  0.66583667  1
  Sn  Sn13  1  0.33333333  0.66666667  0.16682867  1
  Sn  Sn14  1  0.00000000  0.00000000  0.99917000  1
  Sn  Sn15  1  0.00000000  0.00000000  0.50016200  1
  Sn  Sn16  1  0.66666667  0.33333333  0.33250333  1
  Sn  Sn17  1  0.66666667  0.33333333  0.83349533  1
  P  P18  1  0.66734033  0.63141167  0.08428267  1
  P  P19  1  0.96407133  0.33265967  0.08428267  1
  P  P20  1  0.36858833  0.03592867  0.08428267  1
  P  P21  1  0.30391867  0.30326333  0.24949733  1
  P  P22  1  0.69673667  0.00065533  0.24949733  1
  P  P23  1  0.99934467  0.69608133  0.24949733  1
  P  P24  1  0.33400700  0.96474500  0.41761600  1
  P  P25  1  0.63073800  0.66599300  0.41761600  1
  P  P26  1  0.03525500  0.36926200  0.41761600  1
  P  P27  1  0.97058533  0.63659667  0.58283067  1
  P  P28  1  0.36340333  0.33398867  0.58283067  1
  P  P29  1  0.66601133  0.02941467  0.58283067  1
  P  P30  1  0.00067367  0.29807833  0.75094933  1
  P  P31  1  0.29740467  0.99932633  0.75094933  1
  P  P32  1  0.70192167  0.70259533  0.75094933  1
  P  P33  1  0.63725200  0.96993000  0.91616400  1
  P  P34  1  0.03007000  0.66732200  0.91616400  1
  P  P35  1  0.33267800  0.36274800  0.91616400  1
  O  O36  1  0.54836700  0.67980500  0.35594400  1
  O  O37  1  0.13143800  0.45163300  0.35594400  1
  O  O38  1  0.32019500  0.86856200  0.35594400  1
  O  O39  1  0.83113433  0.82366967  0.07305067  1
  O  O40  1  0.68238667  0.53953933  0.14458133  1
  O  O41  1  0.50442300  0.65770000  0.09717300  1
  O  O42  1  0.99253533  0.16886567  0.07305067  1
  O  O43  1  0.15327700  0.49557700  0.09717300  1
  O  O44  1  0.21465233  0.20625167  0.18845867  1
  O  O45  1  0.34230000  0.84672300  0.09717300  1
  O  O46  1  0.49706833  0.33006367  0.25782467  1
  O  O47  1  0.79374833  0.00840067  0.18845867  1
  O  O48  1  0.85715267  0.31761333  0.14458133  1
  O  O49  1  0.17633033  0.00746467  0.07305067  1
  O  O50  1  0.33333567  0.49548733  0.23892733  1
  O  O51  1  0.46046067  0.14284733  0.14458133  1
  O  O52  1  0.50451267  0.83784833  0.23892733  1
  O  O53  1  0.66993633  0.16700467  0.25782467  1
  O  O54  1  0.16215167  0.66666433  0.23892733  1
  O  O55  1  0.99159933  0.78534767  0.18845867  1
  O  O56  1  0.83299533  0.50293167  0.25782467  1
  O  O57  1  0.34152933  0.45573567  0.97787867  1
  O  O58  1  0.54426433  0.88579367  0.97787867  1
  O  O59  1  0.11420633  0.65847067  0.97787867  1
  O  O60  1  0.21503367  0.01313833  0.68927733  1
  O  O61  1  0.79810467  0.78496633  0.68927733  1
  O  O62  1  0.98686167  0.20189533  0.68927733  1
  O  O63  1  0.49780100  0.15700300  0.40638400  1
  O  O64  1  0.34905333  0.87287267  0.47791467  1
  O  O65  1  0.17108967  0.99103333  0.43050633  1
  O  O66  1  0.65920200  0.50219900  0.40638400  1
  O  O67  1  0.81994367  0.82891033  0.43050633  1
  O  O68  1  0.88131900  0.53958500  0.52179200  1
  O  O69  1  0.00896667  0.18005633  0.43050633  1
  O  O70  1  0.16373500  0.66339700  0.59115800  1
  O  O71  1  0.46041500  0.34173400  0.52179200  1
  O  O72  1  0.52381933  0.65094667  0.47791467  1
  O  O73  1  0.84299700  0.34079800  0.40638400  1
  O  O74  1  0.00000233  0.82882067  0.57226067  1
  O  O75  1  0.12712733  0.47618067  0.47791467  1
  O  O76  1  0.17117933  0.17118167  0.57226067  1
  O  O77  1  0.33660300  0.50033800  0.59115800  1
  O  O78  1  0.82881833  0.99999767  0.57226067  1
  O  O79  1  0.65826600  0.11868100  0.52179200  1
  O  O80  1  0.49966200  0.83626500  0.59115800  1
  O  O81  1  0.00819600  0.78906900  0.31121200  1
  O  O82  1  0.21093100  0.21912700  0.31121200  1
  O  O83  1  0.78087300  0.99180400  0.31121200  1
  O  O84  1  0.88170033  0.34647167  0.02261067  1
  O  O85  1  0.46477133  0.11829967  0.02261067  1
  O  O86  1  0.65352833  0.53522867  0.02261067  1
  O  O87  1  0.16446767  0.49033633  0.73971733  1
  O  O88  1  0.01572000  0.20620600  0.81124800  1
  O  O89  1  0.83775633  0.32436667  0.76383967  1
  O  O90  1  0.32586867  0.83553233  0.73971733  1
  O  O91  1  0.48661033  0.16224367  0.76383967  1
  O  O92  1  0.54798567  0.87291833  0.85512533  1
  O  O93  1  0.67563333  0.51338967  0.76383967  1
  O  O94  1  0.83040167  0.99673033  0.92449133  1
  O  O95  1  0.12708167  0.67506733  0.85512533  1
  O  O96  1  0.19048600  0.98428000  0.81124800  1
  O  O97  1  0.50966367  0.67413133  0.73971733  1
  O  O98  1  0.66666900  0.16215400  0.90559400  1
  O  O99  1  0.79379400  0.80951400  0.81124800  1
  O  O100  1  0.83784600  0.50451500  0.90559400  1
  O  O101  1  0.00326967  0.83367133  0.92449133  1
  O  O102  1  0.49548500  0.33333100  0.90559400  1
  O  O103  1  0.32493267  0.45201433  0.85512533  1
  O  O104  1  0.16632867  0.16959833  0.92449133  1
  O  O105  1  0.67486267  0.12240233  0.64454533  1
  O  O106  1  0.87759767  0.55246033  0.64454533  1
  O  O107  1  0.44753967  0.32513733  0.64454533  1
