# generated using pymatgen
data_Li2Mn(NiO3)2
_symmetry_space_group_name_H-M   'P 1'
_cell_length_a   5.13444400
_cell_length_b   8.40792200
_cell_length_c   9.99703400
_cell_angle_alpha   90.00000000
_cell_angle_beta   90.00000000
_cell_angle_gamma   90.00000000
_symmetry_Int_Tables_number   1
_chemical_formula_structural   Li2Mn(NiO3)2
_chemical_formula_sum   'Li8 Mn4 Ni8 O24'
_cell_volume   431.57200442
_cell_formula_units_Z   4
loop_
 _symmetry_equiv_pos_site_id
 _symmetry_equiv_pos_as_xyz
  1  'x, y, z'
loop_
 _atom_site_type_symbol
 _atom_site_label
 _atom_site_symmetry_multiplicity
 _atom_site_fract_x
 _atom_site_fract_y
 _atom_site_fract_z
 _atom_site_occupancy
  Li  Li0  1  0.38230300  0.25000000  0.75000000  1
  Li  Li1  1  0.61769700  0.25000000  0.25000000  1
  Li  Li2  1  0.38230300  0.75000000  0.75000000  1
  Li  Li3  1  0.61769700  0.75000000  0.25000000  1
  Li  Li4  1  0.88230300  0.75000000  0.75000000  1
  Li  Li5  1  0.11769700  0.75000000  0.25000000  1
  Li  Li6  1  0.88230300  0.25000000  0.75000000  1
  Li  Li7  1  0.11769700  0.25000000  0.25000000  1
  Mn  Mn8  1  0.00000000  0.00000000  0.00000000  1
  Mn  Mn9  1  0.50000000  0.00000000  0.50000000  1
  Mn  Mn10  1  0.50000000  0.50000000  0.00000000  1
  Mn  Mn11  1  0.00000000  0.50000000  0.50000000  1
  Ni  Ni12  1  0.50000000  0.33501400  0.50000000  1
  Ni  Ni13  1  0.50000000  0.16498600  0.00000000  1
  Ni  Ni14  1  0.50000000  0.83501400  0.00000000  1
  Ni  Ni15  1  0.50000000  0.66498600  0.50000000  1
  Ni  Ni16  1  0.00000000  0.83501400  0.50000000  1
  Ni  Ni17  1  0.00000000  0.66498600  0.00000000  1
  Ni  Ni18  1  0.00000000  0.33501400  0.00000000  1
  Ni  Ni19  1  0.00000000  0.16498600  0.50000000  1
  O  O20  1  0.36087450  0.32962650  0.10792800  1
  O  O21  1  0.63912550  0.67037350  0.89207200  1
  O  O22  1  0.36087450  0.17037350  0.39207200  1
  O  O23  1  0.63912550  0.17037350  0.60792800  1
  O  O24  1  0.16902800  0.00000000  0.59530100  1
  O  O25  1  0.33097200  0.00000000  0.09530100  1
  O  O26  1  0.66902800  0.00000000  0.90469900  1
  O  O27  1  0.63912550  0.32962650  0.89207200  1
  O  O28  1  0.83097200  0.00000000  0.40469900  1
  O  O29  1  0.36087450  0.82962650  0.39207200  1
  O  O30  1  0.63912550  0.82962650  0.60792800  1
  O  O31  1  0.36087450  0.67037350  0.10792800  1
  O  O32  1  0.86087450  0.82962650  0.10792800  1
  O  O33  1  0.13912550  0.17037350  0.89207200  1
  O  O34  1  0.86087450  0.67037350  0.39207200  1
  O  O35  1  0.13912550  0.67037350  0.60792800  1
  O  O36  1  0.66902800  0.50000000  0.59530100  1
  O  O37  1  0.83097200  0.50000000  0.09530100  1
  O  O38  1  0.16902800  0.50000000  0.90469900  1
  O  O39  1  0.13912550  0.82962650  0.89207200  1
  O  O40  1  0.33097200  0.50000000  0.40469900  1
  O  O41  1  0.86087450  0.32962650  0.39207200  1
  O  O42  1  0.13912550  0.32962650  0.60792800  1
  O  O43  1  0.86087450  0.17037350  0.10792800  1
