# generated using pymatgen
data_Mn2O3F
_symmetry_space_group_name_H-M   'P 1'
_cell_length_a   18.38334731
_cell_length_b   6.04681500
_cell_length_c   4.58672045
_cell_angle_alpha   90.00000000
_cell_angle_beta   92.24984328
_cell_angle_gamma   90.00000000
_symmetry_Int_Tables_number   1
_chemical_formula_structural   Mn2O3F
_chemical_formula_sum   'Mn16 O24 F8'
_cell_volume   509.47002635
_cell_formula_units_Z   8
loop_
 _symmetry_equiv_pos_site_id
 _symmetry_equiv_pos_as_xyz
  1  'x, y, z'
loop_
 _atom_site_type_symbol
 _atom_site_label
 _atom_site_symmetry_multiplicity
 _atom_site_fract_x
 _atom_site_fract_y
 _atom_site_fract_z
 _atom_site_occupancy
  Mn  Mn0  1  0.24374400  0.50000000  0.52470300  1
  Mn  Mn1  1  0.25625600  0.00000000  0.47529700  1
  Mn  Mn2  1  0.50000000  0.50000000  0.50000000  1
  Mn  Mn3  1  0.50000000  0.00000000  0.50000000  1
  Mn  Mn4  1  0.12559950  0.24577450  0.99873500  1
  Mn  Mn5  1  0.37440050  0.74577450  0.00126500  1
  Mn  Mn6  1  0.12559950  0.75422550  0.99873500  1
  Mn  Mn7  1  0.37440050  0.25422550  0.00126500  1
  Mn  Mn8  1  0.74374400  0.00000000  0.52470300  1
  Mn  Mn9  1  0.75625600  0.50000000  0.47529700  1
  Mn  Mn10  1  0.00000000  0.00000000  0.50000000  1
  Mn  Mn11  1  0.00000000  0.50000000  0.50000000  1
  Mn  Mn12  1  0.62559950  0.74577450  0.99873500  1
  Mn  Mn13  1  0.87440050  0.24577450  0.00126500  1
  Mn  Mn14  1  0.62559950  0.25422550  0.99873500  1
  Mn  Mn15  1  0.87440050  0.75422550  0.00126500  1
  O  O16  1  0.32873900  0.00000000  0.18949400  1
  O  O17  1  0.57808500  0.50000000  0.18871300  1
  O  O18  1  0.20248600  0.75052300  0.30723700  1
  O  O19  1  0.20248600  0.24947700  0.30723700  1
  O  O20  1  0.45216350  0.75097650  0.30798700  1
  O  O21  1  0.45216350  0.24902350  0.30798700  1
  O  O22  1  0.29751400  0.74947700  0.69276300  1
  O  O23  1  0.54783650  0.75097650  0.69201300  1
  O  O24  1  0.54783650  0.24902350  0.69201300  1
  O  O25  1  0.29751400  0.25052300  0.69276300  1
  O  O26  1  0.42191500  0.50000000  0.81128700  1
  O  O27  1  0.17126100  0.50000000  0.81050600  1
  O  O28  1  0.82873900  0.50000000  0.18949400  1
  O  O29  1  0.07808500  0.00000000  0.18871300  1
  O  O30  1  0.70248600  0.25052300  0.30723700  1
  O  O31  1  0.70248600  0.74947700  0.30723700  1
  O  O32  1  0.95216350  0.25097650  0.30798700  1
  O  O33  1  0.95216350  0.74902350  0.30798700  1
  O  O34  1  0.79751400  0.24947700  0.69276300  1
  O  O35  1  0.04783650  0.25097650  0.69201300  1
  O  O36  1  0.04783650  0.74902350  0.69201300  1
  O  O37  1  0.79751400  0.75052300  0.69276300  1
  O  O38  1  0.92191500  0.00000000  0.81128700  1
  O  O39  1  0.67126100  0.00000000  0.81050600  1
  F  F40  1  0.31917600  0.50000000  0.22241600  1
  F  F41  1  0.57156650  0.00000000  0.21369800  1
  F  F42  1  0.42843350  0.00000000  0.78630200  1
  F  F43  1  0.18082400  0.00000000  0.77758400  1
  F  F44  1  0.81917600  0.00000000  0.22241600  1
  F  F45  1  0.07156650  0.50000000  0.21369800  1
  F  F46  1  0.92843350  0.50000000  0.78630200  1
  F  F47  1  0.68082400  0.50000000  0.77758400  1
