# generated using pymatgen
data_Li2FePCO7
_symmetry_space_group_name_H-M   'P 1'
_cell_length_a   5.11149743
_cell_length_b   6.46986055
_cell_length_c   8.34167799
_cell_angle_alpha   90.00000000
_cell_angle_beta   96.48800524
_cell_angle_gamma   90.00000000
_symmetry_Int_Tables_number   1
_chemical_formula_structural   Li2FePCO7
_chemical_formula_sum   'Li4 Fe2 P2 C2 O14'
_cell_volume   274.09815891
_cell_formula_units_Z   2
loop_
 _symmetry_equiv_pos_site_id
 _symmetry_equiv_pos_as_xyz
  1  'x, y, z'
loop_
 _atom_site_type_symbol
 _atom_site_label
 _atom_site_symmetry_multiplicity
 _atom_site_fract_x
 _atom_site_fract_y
 _atom_site_fract_z
 _atom_site_occupancy
  Li  Li0  1  0.28958025  0.24451900  0.90171150  1
  Li  Li1  1  0.71041975  0.74451900  0.09828850  1
  Li  Li2  1  0.77092125  0.46430450  0.72704000  1
  Li  Li3  1  0.22907875  0.96430450  0.27296000  1
  Fe  Fe4  1  0.29728425  0.75762100  0.67016450  1
  Fe  Fe5  1  0.70271575  0.25762100  0.32983550  1
  P  P6  1  0.23720975  0.25216400  0.58310400  1
  P  P7  1  0.76279025  0.75216400  0.41689600  1
  C  C8  1  0.17442475  0.74848050  0.95247850  1
  C  C9  1  0.82557525  0.24848050  0.04752150  1
  O  O10  1  0.42239975  0.76286500  0.92527400  1
  O  O11  1  0.57760025  0.26286500  0.07472600  1
  O  O12  1  0.90372125  0.27537550  0.91041200  1
  O  O13  1  0.09627875  0.77537550  0.08958800  1
  O  O14  1  0.01143725  0.71006600  0.82277650  1
  O  O15  1  0.98856275  0.21006600  0.17722350  1
  O  O16  1  0.29246825  0.06362400  0.69687350  1
  O  O17  1  0.70753175  0.56362400  0.30312650  1
  O  O18  1  0.34833575  0.43618750  0.69079550  1
  O  O19  1  0.65166425  0.93618750  0.30920450  1
  O  O20  1  0.63075075  0.73006150  0.57244750  1
  O  O21  1  0.36924925  0.23006150  0.42755250  1
  O  O22  1  0.93511375  0.28296100  0.53889700  1
  O  O23  1  0.06488625  0.78296100  0.46110300  1
