# generated using pymatgen
data_Li4Mn3CuO8
_symmetry_space_group_name_H-M   'P 1'
_cell_length_a   5.94886651
_cell_length_b   5.94886651
_cell_length_c   14.52866675
_cell_angle_alpha   90.00000000
_cell_angle_beta   90.00000000
_cell_angle_gamma   120.00000000
_symmetry_Int_Tables_number   1
_chemical_formula_structural   Li4Mn3CuO8
_chemical_formula_sum   'Li12 Mn9 Cu3 O24'
_cell_volume   445.27144160
_cell_formula_units_Z   3
loop_
 _symmetry_equiv_pos_site_id
 _symmetry_equiv_pos_as_xyz
  1  'x, y, z'
loop_
 _atom_site_type_symbol
 _atom_site_label
 _atom_site_symmetry_multiplicity
 _atom_site_fract_x
 _atom_site_fract_y
 _atom_site_fract_z
 _atom_site_occupancy
  Li  Li0  1  0.33333333  0.66666667  0.16666667  1
  Li  Li1  1  0.16666667  0.33333333  0.83333333  1
  Li  Li2  1  0.83333333  0.16666667  0.16666667  1
  Li  Li3  1  0.33333333  0.16666667  0.16666667  1
  Li  Li4  1  1.00000000  1.00000000  0.50000000  1
  Li  Li5  1  0.83333333  0.66666667  0.16666667  1
  Li  Li6  1  0.50000000  0.50000000  0.50000000  1
  Li  Li7  1  0.00000000  0.50000000  0.50000000  1
  Li  Li8  1  0.66666667  0.33333333  0.83333333  1
  Li  Li9  1  0.50000000  0.00000000  0.50000000  1
  Li  Li10  1  0.16666667  0.83333333  0.83333333  1
  Li  Li11  1  0.66666667  0.83333333  0.83333333  1
  Mn  Mn12  1  0.16666667  0.33333333  0.33333333  1
  Mn  Mn13  1  0.50000000  0.50000000  0.00000000  1
  Mn  Mn14  1  0.00000000  0.50000000  0.00000000  1
  Mn  Mn15  1  0.83333333  0.66666667  0.66666667  1
  Mn  Mn16  1  0.16666667  0.83333333  0.33333333  1
  Mn  Mn17  1  0.66666667  0.83333333  0.33333333  1
  Mn  Mn18  1  0.50000000  0.00000000  0.00000000  1
  Mn  Mn19  1  0.83333333  0.16666667  0.66666667  1
  Mn  Mn20  1  0.33333333  0.16666667  0.66666667  1
  Cu  Cu21  1  0.00000000  0.00000000  0.00000000  1
  Cu  Cu22  1  0.66666667  0.33333333  0.33333333  1
  Cu  Cu23  1  0.33333333  0.66666667  0.66666667  1
  O  O24  1  0.33333333  0.66666667  0.91446167  1
  O  O25  1  0.49182967  0.98365933  0.26022633  1
  O  O26  1  0.49182967  0.50817033  0.26022633  1
  O  O27  1  0.33333333  0.66666667  0.41887167  1
  O  O28  1  0.01634067  0.50817033  0.26022633  1
  O  O29  1  0.17483700  0.34967400  0.07310700  1
  O  O30  1  0.17483700  0.82516300  0.07310700  1
  O  O31  1  0.65032600  0.82516300  0.07310700  1
  O  O32  1  0.00000000  0.00000000  0.24779500  1
  O  O33  1  0.15849633  0.31699267  0.59355967  1
  O  O34  1  0.15849633  0.84150367  0.59355967  1
  O  O35  1  0.00000000  0.00000000  0.75220500  1
  O  O36  1  0.68300733  0.84150367  0.59355967  1
  O  O37  1  0.84150367  0.68300733  0.40644033  1
  O  O38  1  0.84150367  0.15849633  0.40644033  1
  O  O39  1  0.31699267  0.15849633  0.40644033  1
  O  O40  1  0.66666667  0.33333333  0.58112833  1
  O  O41  1  0.82516300  0.65032600  0.92689300  1
  O  O42  1  0.82516300  0.17483700  0.92689300  1
  O  O43  1  0.66666667  0.33333333  0.08553833  1
  O  O44  1  0.34967400  0.17483700  0.92689300  1
  O  O45  1  0.50817033  0.01634067  0.73977367  1
  O  O46  1  0.50817033  0.49182967  0.73977367  1
  O  O47  1  0.98365933  0.49182967  0.73977367  1
