# generated using pymatgen
data_LiMnP2O7
_symmetry_space_group_name_H-M   'P 1'
_cell_length_a   5.96048525
_cell_length_b   6.18980193
_cell_length_c   8.12243536
_cell_angle_alpha   96.45247981
_cell_angle_beta   101.30740523
_cell_angle_gamma   109.01754402
_symmetry_Int_Tables_number   1
_chemical_formula_structural   LiMnP2O7
_chemical_formula_sum   'Li2 Mn2 P4 O14'
_cell_volume   272.74713800
_cell_formula_units_Z   2
loop_
 _symmetry_equiv_pos_site_id
 _symmetry_equiv_pos_as_xyz
  1  'x, y, z'
loop_
 _atom_site_type_symbol
 _atom_site_label
 _atom_site_symmetry_multiplicity
 _atom_site_fract_x
 _atom_site_fract_y
 _atom_site_fract_z
 _atom_site_occupancy
  Li  Li0  1  0.00000000  0.00000000  0.00000000  1
  Li  Li1  1  0.00000000  0.00000000  0.50000000  1
  Mn  Mn2  1  0.36049100  0.68636600  0.22179800  1
  Mn  Mn3  1  0.63950900  0.31363400  0.77820200  1
  P  P4  1  0.18710400  0.46187500  0.78942200  1
  P  P5  1  0.81289600  0.53812500  0.21057800  1
  P  P6  1  0.57610600  0.77623800  0.68155500  1
  P  P7  1  0.42389400  0.22376200  0.31844500  1
  O  O8  1  0.21495600  0.62586300  0.94893700  1
  O  O9  1  0.78504400  0.37413700  0.05106300  1
  O  O10  1  0.31432600  0.28073600  0.81376800  1
  O  O11  1  0.68567400  0.71926400  0.18623200  1
  O  O12  1  0.61724700  0.99835000  0.80829700  1
  O  O13  1  0.38275300  0.00165000  0.19170300  1
  O  O14  1  0.72934900  0.65151100  0.78305900  1
  O  O15  1  0.27065100  0.34848900  0.21694100  1
  O  O16  1  0.29285200  0.61093800  0.65025800  1
  O  O17  1  0.70714800  0.38906200  0.34974200  1
  O  O18  1  0.92072200  0.31849500  0.68917800  1
  O  O19  1  0.07927800  0.68150500  0.31082200  1
  O  O20  1  0.37118100  0.18657700  0.49019300  1
  O  O21  1  0.62881900  0.81342300  0.50980700  1
