# generated using pymatgen
data_Li3Ni(OF)2
_symmetry_space_group_name_H-M   'P 1'
_cell_length_a   4.99737511
_cell_length_b   5.87338050
_cell_length_c   5.02975393
_cell_angle_alpha   90.00000000
_cell_angle_beta   107.76581465
_cell_angle_gamma   90.00000000
_symmetry_Int_Tables_number   1
_chemical_formula_structural   Li3Ni(OF)2
_chemical_formula_sum   'Li6 Ni2 O4 F4'
_cell_volume   140.59047773
_cell_formula_units_Z   2
loop_
 _symmetry_equiv_pos_site_id
 _symmetry_equiv_pos_as_xyz
  1  'x, y, z'
loop_
 _atom_site_type_symbol
 _atom_site_label
 _atom_site_symmetry_multiplicity
 _atom_site_fract_x
 _atom_site_fract_y
 _atom_site_fract_z
 _atom_site_occupancy
  Li  Li0  1  0.75000000  0.11573400  0.00000000  1
  Li  Li1  1  0.25000000  0.88426600  0.00000000  1
  Li  Li2  1  0.75000000  0.63902300  0.00000000  1
  Li  Li3  1  0.25000000  0.36097700  0.00000000  1
  Li  Li4  1  0.75000000  0.36596100  0.50000000  1
  Li  Li5  1  0.25000000  0.63403900  0.50000000  1
  Ni  Ni6  1  0.75000000  0.88921400  0.50000000  1
  Ni  Ni7  1  0.25000000  0.11078600  0.50000000  1
  O  O8  1  0.98470600  0.88653600  0.27154000  1
  O  O9  1  0.51529400  0.88653600  0.72846000  1
  O  O10  1  0.48470600  0.11346400  0.27154000  1
  O  O11  1  0.01529400  0.11346400  0.72846000  1
  F  F12  1  0.99512900  0.62212600  0.74982100  1
  F  F13  1  0.49512900  0.37787400  0.74982100  1
  F  F14  1  0.50487100  0.62212600  0.25017900  1
  F  F15  1  0.00487100  0.37787400  0.25017900  1
