# generated using pymatgen
data_Li3Cr4(PO4)6
_symmetry_space_group_name_H-M   'P 1'
_cell_length_a   11.65293600
_cell_length_b   11.72087000
_cell_length_c   11.76327400
_cell_angle_alpha   90.00000000
_cell_angle_beta   90.00000000
_cell_angle_gamma   90.00000000
_symmetry_Int_Tables_number   1
_chemical_formula_structural   Li3Cr4(PO4)6
_chemical_formula_sum   'Li12 Cr16 P24 O96'
_cell_volume   1606.65793544
_cell_formula_units_Z   4
loop_
 _symmetry_equiv_pos_site_id
 _symmetry_equiv_pos_as_xyz
  1  'x, y, z'
loop_
 _atom_site_type_symbol
 _atom_site_label
 _atom_site_symmetry_multiplicity
 _atom_site_fract_x
 _atom_site_fract_y
 _atom_site_fract_z
 _atom_site_occupancy
  Li  Li0  1  0.37739900  0.50000000  0.75000000  1
  Li  Li1  1  0.37525300  0.00000000  0.25000000  1
  Li  Li2  1  0.25000000  0.62798000  0.00000000  1
  Li  Li3  1  0.12260100  0.50000000  0.25000000  1
  Li  Li4  1  0.12474700  0.00000000  0.75000000  1
  Li  Li5  1  0.25000000  0.37202000  0.50000000  1
  Li  Li6  1  0.87739900  0.00000000  0.25000000  1
  Li  Li7  1  0.87525300  0.50000000  0.75000000  1
  Li  Li8  1  0.75000000  0.12798000  0.50000000  1
  Li  Li9  1  0.62260100  0.00000000  0.75000000  1
  Li  Li10  1  0.62474700  0.50000000  0.25000000  1
  Li  Li11  1  0.75000000  0.87202000  0.00000000  1
  Cr  Cr12  1  0.00205650  0.00129950  0.99957050  1
  Cr  Cr13  1  0.24937900  0.24896700  0.75203400  1
  Cr  Cr14  1  0.24937900  0.75103300  0.74796600  1
  Cr  Cr15  1  0.49794350  0.99870050  0.49957050  1
  Cr  Cr16  1  0.25062100  0.75103300  0.25203400  1
  Cr  Cr17  1  0.49794350  0.00129950  0.00042950  1
  Cr  Cr18  1  0.00205650  0.99870050  0.50042950  1
  Cr  Cr19  1  0.25062100  0.24896700  0.24796600  1
  Cr  Cr20  1  0.50205650  0.50129950  0.49957050  1
  Cr  Cr21  1  0.74937900  0.74896700  0.25203400  1
  Cr  Cr22  1  0.74937900  0.25103300  0.24796600  1
  Cr  Cr23  1  0.99794350  0.49870050  0.99957050  1
  Cr  Cr24  1  0.75062100  0.25103300  0.75203400  1
  Cr  Cr25  1  0.99794350  0.50129950  0.50042950  1
  Cr  Cr26  1  0.50205650  0.49870050  0.00042950  1
  Cr  Cr27  1  0.75062100  0.74896700  0.74796600  1
  P  P28  1  0.00000000  0.25000000  0.12563700  1
  P  P29  1  0.87586700  0.50000000  0.25000000  1
  P  P30  1  0.12413300  0.00000000  0.25000000  1
  P  P31  1  0.25000000  0.37580500  0.00000000  1
  P  P32  1  0.75000000  0.37225200  0.50000000  1
  P  P33  1  0.50000000  0.25000000  0.87436300  1
  P  P34  1  0.00000000  0.25000000  0.62351900  1
  P  P35  1  0.75000000  0.12419500  0.00000000  1
  P  P36  1  0.25000000  0.12774800  0.50000000  1
  P  P37  1  0.37469200  0.50000000  0.25000000  1
  P  P38  1  0.62530800  0.00000000  0.25000000  1
  P  P39  1  0.50000000  0.25000000  0.37648100  1
  P  P40  1  0.50000000  0.75000000  0.62563700  1
  P  P41  1  0.37586700  0.00000000  0.75000000  1
  P  P42  1  0.62413300  0.50000000  0.75000000  1
  P  P43  1  0.75000000  0.87580500  0.50000000  1
  P  P44  1  0.25000000  0.87225200  0.00000000  1
  P  P45  1  0.00000000  0.75000000  0.37436300  1
  P  P46  1  0.50000000  0.75000000  0.12351900  1
  P  P47  1  0.25000000  0.62419500  0.50000000  1
  P  P48  1  0.75000000  0.62774800  0.00000000  1
  P  P49  1  0.87469200  0.00000000  0.75000000  1
  P  P50  1  0.12530800  0.50000000  0.75000000  1
  P  P51  1  0.00000000  0.75000000  0.87648100  1
  O  O52  1  0.20231600  0.29726600  0.90623000  1
  O  O53  1  0.90510650  0.20189450  0.20476050  1
  O  O54  1  0.20987200  0.59213900  0.79678700  1
  O  O55  1  0.04679600  0.15562800  0.04591600  1
  O  O56  1  0.79122700  0.59234600  0.29419700  1
  O  O57  1  0.65669050  0.45340550  0.45090550  1
  O  O58  1  0.54076650  0.45610550  0.65699650  1
  O  O59  1  0.20877300  0.09234600  0.20580300  1
  O  O60  1  0.04076650  0.04389450  0.34300350  1
  O  O61  1  0.34289900  0.46036900  0.95349200  1
  O  O62  1  0.95923350  0.45610550  0.34300350  1
  O  O63  1  0.04937100  0.65528000  0.95424600  1
  O  O64  1  0.40510650  0.29810550  0.79523950  1
  O  O65  1  0.79409700  0.28973800  0.40659900  1
  O  O66  1  0.34330950  0.95340550  0.04909450  1
  O  O67  1  0.20590300  0.78973800  0.09340100  1
  O  O68  1  0.09489350  0.29810550  0.20476050  1
  O  O69  1  0.95923350  0.54389450  0.15699650  1
  O  O70  1  0.20877300  0.90765400  0.29419700  1
  O  O71  1  0.29768400  0.29726600  0.09377000  1
  O  O72  1  0.54679600  0.34437200  0.95408400  1
  O  O73  1  0.09489350  0.70189450  0.29523950  1
  O  O74  1  0.04937100  0.34472000  0.54575400  1
  O  O75  1  0.15710100  0.46036900  0.04650800  1
  O  O76  1  0.34330950  0.04659450  0.45090550  1
  O  O77  1  0.45320400  0.15562800  0.95408400  1
  O  O78  1  0.40649200  0.79937300  0.20469400  1
  O  O79  1  0.95062900  0.15528000  0.54575400  1
  O  O80  1  0.20590300  0.21026200  0.40659900  1
  O  O81  1  0.29012800  0.59213900  0.20321300  1
  O  O82  1  0.54183600  0.95462700  0.34196400  1
  O  O83  1  0.40649200  0.20062700  0.29530600  1
  O  O84  1  0.29768400  0.70273400  0.40623000  1
  O  O85  1  0.15710100  0.53963100  0.45349200  1
  O  O86  1  0.70231600  0.20273400  0.09377000  1
  O  O87  1  0.09350800  0.20062700  0.70469400  1
  O  O88  1  0.45320400  0.84437200  0.54591600  1
  O  O89  1  0.54183600  0.04537300  0.15803600  1
  O  O90  1  0.15669050  0.04659450  0.54909450  1
  O  O91  1  0.45816400  0.45462700  0.15803600  1
  O  O92  1  0.29012800  0.40786100  0.29678700  1
  O  O93  1  0.95816400  0.04537300  0.84196400  1
  O  O94  1  0.84289900  0.03963100  0.04650800  1
  O  O95  1  0.70987200  0.90786100  0.20321300  1
  O  O96  1  0.45062900  0.34472000  0.45424600  1
  O  O97  1  0.29122700  0.90765400  0.70580300  1
  O  O98  1  0.59350800  0.29937300  0.29530600  1
  O  O99  1  0.29409700  0.21026200  0.59340100  1
  O  O100  1  0.70231600  0.79726600  0.40623000  1
  O  O101  1  0.40510650  0.70189450  0.70476050  1
  O  O102  1  0.70987200  0.09213900  0.29678700  1
  O  O103  1  0.54679600  0.65562800  0.54591600  1
  O  O104  1  0.29122700  0.09234600  0.79419700  1
  O  O105  1  0.15669050  0.95340550  0.95090550  1
  O  O106  1  0.04076650  0.95610550  0.15699650  1
  O  O107  1  0.70877300  0.59234600  0.70580300  1
  O  O108  1  0.54076650  0.54389450  0.84300350  1
  O  O109  1  0.84289900  0.96036900  0.45349200  1
  O  O110  1  0.45923350  0.95610550  0.84300350  1
  O  O111  1  0.54937100  0.15528000  0.45424600  1
  O  O112  1  0.90510650  0.79810550  0.29523950  1
  O  O113  1  0.29409700  0.78973800  0.90659900  1
  O  O114  1  0.84330950  0.45340550  0.54909450  1
  O  O115  1  0.70590300  0.28973800  0.59340100  1
  O  O116  1  0.59489350  0.79810550  0.70476050  1
  O  O117  1  0.45923350  0.04389450  0.65699650  1
  O  O118  1  0.70877300  0.40765400  0.79419700  1
  O  O119  1  0.79768400  0.79726600  0.59377000  1
  O  O120  1  0.04679600  0.84437200  0.45408400  1
  O  O121  1  0.59489350  0.20189450  0.79523950  1
  O  O122  1  0.54937100  0.84472000  0.04575400  1
  O  O123  1  0.65710100  0.96036900  0.54650800  1
  O  O124  1  0.84330950  0.54659450  0.95090550  1
  O  O125  1  0.95320400  0.65562800  0.45408400  1
  O  O126  1  0.90649200  0.29937300  0.70469400  1
  O  O127  1  0.45062900  0.65528000  0.04575400  1
  O  O128  1  0.70590300  0.71026200  0.90659900  1
  O  O129  1  0.79012800  0.09213900  0.70321300  1
  O  O130  1  0.04183600  0.45462700  0.84196400  1
  O  O131  1  0.90649200  0.70062700  0.79530600  1
  O  O132  1  0.79768400  0.20273400  0.90623000  1
  O  O133  1  0.65710100  0.03963100  0.95349200  1
  O  O134  1  0.20231600  0.70273400  0.59377000  1
  O  O135  1  0.59350800  0.70062700  0.20469400  1
  O  O136  1  0.95320400  0.34437200  0.04591600  1
  O  O137  1  0.04183600  0.54537300  0.65803600  1
  O  O138  1  0.65669050  0.54659450  0.04909450  1
  O  O139  1  0.95816400  0.95462700  0.65803600  1
  O  O140  1  0.79012800  0.90786100  0.79678700  1
  O  O141  1  0.45816400  0.54537300  0.34196400  1
  O  O142  1  0.34289900  0.53963100  0.54650800  1
  O  O143  1  0.20987200  0.40786100  0.70321300  1
  O  O144  1  0.95062900  0.84472000  0.95424600  1
  O  O145  1  0.79122700  0.40765400  0.20580300  1
  O  O146  1  0.09350800  0.79937300  0.79530600  1
  O  O147  1  0.79409700  0.71026200  0.09340100  1
