# generated using pymatgen
data_Li4Cr7(PO4)6
_symmetry_space_group_name_H-M   'P 1'
_cell_length_a   11.34241800
_cell_length_b   14.08779400
_cell_length_c   6.50679119
_cell_angle_alpha   90.00000000
_cell_angle_beta   104.04566812
_cell_angle_gamma   90.00000000
_symmetry_Int_Tables_number   1
_chemical_formula_structural   Li4Cr7(PO4)6
_chemical_formula_sum   'Li8 Cr14 P12 O48'
_cell_volume   1008.63300609
_cell_formula_units_Z   2
loop_
 _symmetry_equiv_pos_site_id
 _symmetry_equiv_pos_as_xyz
  1  'x, y, z'
loop_
 _atom_site_type_symbol
 _atom_site_label
 _atom_site_symmetry_multiplicity
 _atom_site_fract_x
 _atom_site_fract_y
 _atom_site_fract_z
 _atom_site_occupancy
  Li  Li0  1  0.00524700  0.00000000  0.48794900  1
  Li  Li1  1  0.36090100  0.00000000  0.57311500  1
  Li  Li2  1  0.55910250  0.88522950  0.51996500  1
  Li  Li3  1  0.55910250  0.11477050  0.51996500  1
  Li  Li4  1  0.50524700  0.50000000  0.48794900  1
  Li  Li5  1  0.86090100  0.50000000  0.57311500  1
  Li  Li6  1  0.05910250  0.38522950  0.51996500  1
  Li  Li7  1  0.05910250  0.61477050  0.51996500  1
  Cr  Cr8  1  0.32859650  0.31675050  0.18536200  1
  Cr  Cr9  1  0.32859650  0.68324950  0.18536200  1
  Cr  Cr10  1  0.00141100  0.00000000  0.99467700  1
  Cr  Cr11  1  0.50460800  0.15686400  0.00604100  1
  Cr  Cr12  1  0.50460800  0.84313600  0.00604100  1
  Cr  Cr13  1  0.17973400  0.17862400  0.82024400  1
  Cr  Cr14  1  0.17973400  0.82137600  0.82024400  1
  Cr  Cr15  1  0.82859650  0.81675050  0.18536200  1
  Cr  Cr16  1  0.82859650  0.18324950  0.18536200  1
  Cr  Cr17  1  0.50141100  0.50000000  0.99467700  1
  Cr  Cr18  1  0.00460800  0.65686400  0.00604100  1
  Cr  Cr19  1  0.00460800  0.34313600  0.00604100  1
  Cr  Cr20  1  0.67973400  0.67862400  0.82024400  1
  Cr  Cr21  1  0.67973400  0.32137600  0.82024400  1
  P  P22  1  0.40598200  0.30295600  0.69787600  1
  P  P23  1  0.40598200  0.69704400  0.69787600  1
  P  P24  1  0.31759400  0.00000000  0.08392000  1
  P  P25  1  0.68753600  0.00000000  0.91770700  1
  P  P26  1  0.60693900  0.68919600  0.30601200  1
  P  P27  1  0.60693900  0.31080400  0.30601200  1
  P  P28  1  0.90598200  0.80295600  0.69787600  1
  P  P29  1  0.90598200  0.19704400  0.69787600  1
  P  P30  1  0.81759400  0.50000000  0.08392000  1
  P  P31  1  0.18753600  0.50000000  0.91770700  1
  P  P32  1  0.10693900  0.18919600  0.30601200  1
  P  P33  1  0.10693900  0.81080400  0.30601200  1
  O  O34  1  0.18913000  0.15463400  0.51544000  1
  O  O35  1  0.18913000  0.84536600  0.51544000  1
  O  O36  1  0.33383800  0.71457700  0.87274600  1
  O  O37  1  0.33383800  0.28542300  0.87274600  1
  O  O38  1  0.18615900  0.00000000  0.10552100  1
  O  O39  1  0.33818950  0.91328250  0.94469300  1
  O  O40  1  0.33818950  0.08671750  0.94469300  1
  O  O41  1  0.50425500  0.61601300  0.75997600  1
  O  O42  1  0.50425500  0.38398700  0.75997600  1
  O  O43  1  0.47932650  0.20823050  0.69585200  1
  O  O44  1  0.47932650  0.79176950  0.69585200  1
  O  O45  1  0.41005500  0.00000000  0.30257800  1
  O  O46  1  0.59020900  0.00000000  0.70208900  1
  O  O47  1  0.54070450  0.78625150  0.31347500  1
  O  O48  1  0.54070450  0.21374850  0.31347500  1
  O  O49  1  0.50159600  0.61353200  0.23921900  1
  O  O50  1  0.50159600  0.38646800  0.23921900  1
  O  O51  1  0.81767000  0.00000000  0.89179600  1
  O  O52  1  0.68222450  0.70570550  0.13642500  1
  O  O53  1  0.68222450  0.29429450  0.13642500  1
  O  O54  1  0.66855400  0.08994300  0.04703200  1
  O  O55  1  0.66855400  0.91005700  0.04703200  1
  O  O56  1  0.81829050  0.83130450  0.49037100  1
  O  O57  1  0.81829050  0.16869550  0.49037100  1
  O  O58  1  0.68913000  0.65463400  0.51544000  1
  O  O59  1  0.68913000  0.34536600  0.51544000  1
  O  O60  1  0.83383800  0.21457700  0.87274600  1
  O  O61  1  0.83383800  0.78542300  0.87274600  1
  O  O62  1  0.68615900  0.50000000  0.10552100  1
  O  O63  1  0.83818950  0.41328250  0.94469300  1
  O  O64  1  0.83818950  0.58671750  0.94469300  1
  O  O65  1  0.00425500  0.11601300  0.75997600  1
  O  O66  1  0.00425500  0.88398700  0.75997600  1
  O  O67  1  0.97932650  0.70823050  0.69585200  1
  O  O68  1  0.97932650  0.29176950  0.69585200  1
  O  O69  1  0.91005500  0.50000000  0.30257800  1
  O  O70  1  0.09020900  0.50000000  0.70208900  1
  O  O71  1  0.04070450  0.28625150  0.31347500  1
  O  O72  1  0.04070450  0.71374850  0.31347500  1
  O  O73  1  0.00159600  0.11353200  0.23921900  1
  O  O74  1  0.00159600  0.88646800  0.23921900  1
  O  O75  1  0.31767000  0.50000000  0.89179600  1
  O  O76  1  0.18222450  0.20570550  0.13642500  1
  O  O77  1  0.18222450  0.79429450  0.13642500  1
  O  O78  1  0.16855400  0.58994300  0.04703200  1
  O  O79  1  0.16855400  0.41005700  0.04703200  1
  O  O80  1  0.31829050  0.33130450  0.49037100  1
  O  O81  1  0.31829050  0.66869550  0.49037100  1
