# generated using pymatgen
data_Li4Y3VO8
_symmetry_space_group_name_H-M   'P 1'
_cell_length_a   6.19907090
_cell_length_b   10.02301051
_cell_length_c   6.21006378
_cell_angle_alpha   90.00000000
_cell_angle_beta   90.00000000
_cell_angle_gamma   90.00000000
_symmetry_Int_Tables_number   1
_chemical_formula_structural   Li4Y3VO8
_chemical_formula_sum   'Li8 Y6 V2 O16'
_cell_volume   385.85208347
_cell_formula_units_Z   2
loop_
 _symmetry_equiv_pos_site_id
 _symmetry_equiv_pos_as_xyz
  1  'x, y, z'
loop_
 _atom_site_type_symbol
 _atom_site_label
 _atom_site_symmetry_multiplicity
 _atom_site_fract_x
 _atom_site_fract_y
 _atom_site_fract_z
 _atom_site_occupancy
  Li  Li0  1  0.50000000  0.50000000  0.50000000  1
  Li  Li1  1  0.50000000  0.00000000  0.00000000  1
  Li  Li2  1  0.25000000  0.25000000  0.74594300  1
  Li  Li3  1  0.75000000  0.25000000  0.25405700  1
  Li  Li4  1  0.00000000  0.00000000  0.50000000  1
  Li  Li5  1  0.00000000  0.50000000  0.00000000  1
  Li  Li6  1  0.75000000  0.75000000  0.74594300  1
  Li  Li7  1  0.25000000  0.75000000  0.25405700  1
  Y  Y8  1  0.50000000  0.00000000  0.50000000  1
  Y  Y9  1  0.25000000  0.75000000  0.75733700  1
  Y  Y10  1  0.75000000  0.75000000  0.24266300  1
  Y  Y11  1  0.00000000  0.50000000  0.50000000  1
  Y  Y12  1  0.75000000  0.25000000  0.75733700  1
  Y  Y13  1  0.25000000  0.25000000  0.24266300  1
  V  V14  1  0.00000000  0.00000000  0.00000000  1
  V  V15  1  0.50000000  0.50000000  0.00000000  1
  O  O16  1  0.50000000  0.22570200  0.50000000  1
  O  O17  1  0.50000000  0.77429800  0.50000000  1
  O  O18  1  0.50000000  0.70933587  0.00000000  1
  O  O19  1  0.50000000  0.29066413  0.00000000  1
  O  O20  1  0.75997925  0.01663025  0.76088800  1
  O  O21  1  0.24002075  0.98336975  0.76088800  1
  O  O22  1  0.24002075  0.01663025  0.23911200  1
  O  O23  1  0.75997925  0.98336975  0.23911200  1
  O  O24  1  0.00000000  0.72570200  0.50000000  1
  O  O25  1  0.00000000  0.27429800  0.50000000  1
  O  O26  1  0.00000000  0.20933587  0.00000000  1
  O  O27  1  0.00000000  0.79066413  0.00000000  1
  O  O28  1  0.25997925  0.51663025  0.76088800  1
  O  O29  1  0.74002075  0.48336975  0.76088800  1
  O  O30  1  0.74002075  0.51663025  0.23911200  1
  O  O31  1  0.25997925  0.48336975  0.23911200  1
