# generated using pymatgen
data_LiCr3(FeO4)2
_symmetry_space_group_name_H-M   'P 1'
_cell_length_a   5.99744830
_cell_length_b   5.99744830
_cell_length_c   14.71310462
_cell_angle_alpha   90.00000000
_cell_angle_beta   90.00000000
_cell_angle_gamma   120.00000000
_symmetry_Int_Tables_number   1
_chemical_formula_structural   LiCr3(FeO4)2
_chemical_formula_sum   'Li3 Cr9 Fe6 O24'
_cell_volume   458.31912472
_cell_formula_units_Z   3
loop_
 _symmetry_equiv_pos_site_id
 _symmetry_equiv_pos_as_xyz
  1  'x, y, z'
loop_
 _atom_site_type_symbol
 _atom_site_label
 _atom_site_symmetry_multiplicity
 _atom_site_fract_x
 _atom_site_fract_y
 _atom_site_fract_z
 _atom_site_occupancy
  Li  Li0  1  0.00000000  0.00000000  0.24976300  1
  Li  Li1  1  0.66666667  0.33333333  0.58309633  1
  Li  Li2  1  0.33333333  0.66666667  0.91642967  1
  Cr  Cr3  1  0.49592967  0.99185933  0.12602433  1
  Cr  Cr4  1  0.49592967  0.50407033  0.12602433  1
  Cr  Cr5  1  0.00814067  0.50407033  0.12602433  1
  Cr  Cr6  1  0.16259633  0.32519267  0.45935767  1
  Cr  Cr7  1  0.16259633  0.83740367  0.45935767  1
  Cr  Cr8  1  0.67480733  0.83740367  0.45935767  1
  Cr  Cr9  1  0.82926300  0.65852600  0.79269100  1
  Cr  Cr10  1  0.82926300  0.17073700  0.79269100  1
  Cr  Cr11  1  0.34147400  0.17073700  0.79269100  1
  Fe  Fe12  1  0.00000000  0.00000000  0.00004900  1
  Fe  Fe13  1  0.33333333  0.66666667  0.28717867  1
  Fe  Fe14  1  0.66666667  0.33333333  0.33338233  1
  Fe  Fe15  1  0.00000000  0.00000000  0.62051200  1
  Fe  Fe16  1  0.33333333  0.66666667  0.66671567  1
  Fe  Fe17  1  0.66666667  0.33333333  0.95384533  1
  O  O18  1  0.18186733  0.81813267  0.20389767  1
  O  O19  1  0.63626533  0.81813267  0.20389767  1
  O  O20  1  0.18186733  0.36373467  0.20389767  1
  O  O21  1  0.33333333  0.66666667  0.05460167  1
  O  O22  1  0.66666667  0.33333333  0.20029733  1
  O  O23  1  0.82423167  0.64846333  0.04500033  1
  O  O24  1  0.82423167  0.17576833  0.04500033  1
  O  O25  1  0.35153667  0.17576833  0.04500033  1
  O  O26  1  0.84853400  0.15146600  0.53723100  1
  O  O27  1  0.30293200  0.15146600  0.53723100  1
  O  O28  1  0.84853400  0.69706800  0.53723100  1
  O  O29  1  0.00000000  0.00000000  0.38793500  1
  O  O30  1  0.33333333  0.66666667  0.53363067  1
  O  O31  1  0.49089833  0.98179667  0.37833367  1
  O  O32  1  0.49089833  0.50910167  0.37833367  1
  O  O33  1  0.01820333  0.50910167  0.37833367  1
  O  O34  1  0.51520067  0.48479933  0.87056433  1
  O  O35  1  0.96959867  0.48479933  0.87056433  1
  O  O36  1  0.51520067  0.03040133  0.87056433  1
  O  O37  1  0.66666667  0.33333333  0.72126833  1
  O  O38  1  0.00000000  0.00000000  0.86696400  1
  O  O39  1  0.15756500  0.31513000  0.71166700  1
  O  O40  1  0.15756500  0.84243500  0.71166700  1
  O  O41  1  0.68487000  0.84243500  0.71166700  1
