# generated using pymatgen
data_VGeO4
_symmetry_space_group_name_H-M   'P 1'
_cell_length_a   4.31709456
_cell_length_b   4.72726703
_cell_length_c   11.62875739
_cell_angle_alpha   90.00000000
_cell_angle_beta   90.00000000
_cell_angle_gamma   90.00000000
_symmetry_Int_Tables_number   1
_chemical_formula_structural   VGeO4
_chemical_formula_sum   'V4 Ge4 O16'
_cell_volume   237.32036430
_cell_formula_units_Z   4
loop_
 _symmetry_equiv_pos_site_id
 _symmetry_equiv_pos_as_xyz
  1  'x, y, z'
loop_
 _atom_site_type_symbol
 _atom_site_label
 _atom_site_symmetry_multiplicity
 _atom_site_fract_x
 _atom_site_fract_y
 _atom_site_fract_z
 _atom_site_occupancy
  V  V0  1  0.50000000  0.25000000  0.42914650  1
  V  V1  1  0.00000000  0.75000000  0.07085350  1
  V  V2  1  0.00000000  0.25000000  0.92914650  1
  V  V3  1  0.50000000  0.75000000  0.57085350  1
  Ge  Ge4  1  0.00000000  0.25000000  0.67841450  1
  Ge  Ge5  1  0.50000000  0.75000000  0.82158550  1
  Ge  Ge6  1  0.50000000  0.25000000  0.17841450  1
  Ge  Ge7  1  0.00000000  0.75000000  0.32158550  1
  O  O8  1  0.23000000  0.58150200  0.19299050  1
  O  O9  1  0.27000000  0.08150200  0.30700950  1
  O  O10  1  0.27000000  0.58150200  0.69299050  1
  O  O11  1  0.23000000  0.08150200  0.80700950  1
  O  O12  1  0.77000000  0.91849800  0.19299050  1
  O  O13  1  0.73000000  0.41849800  0.30700950  1
  O  O14  1  0.73000000  0.91849800  0.69299050  1
  O  O15  1  0.77000000  0.41849800  0.80700950  1
  O  O16  1  0.25186100  0.07709100  0.06197950  1
  O  O17  1  0.24813900  0.57709100  0.43802050  1
  O  O18  1  0.25186100  0.57709100  0.93802050  1
  O  O19  1  0.24813900  0.07709100  0.56197950  1
  O  O20  1  0.75186100  0.92290900  0.43802050  1
  O  O21  1  0.74813900  0.42290900  0.06197950  1
  O  O22  1  0.75186100  0.42290900  0.56197950  1
  O  O23  1  0.74813900  0.92290900  0.93802050  1
