# generated using pymatgen
data_Li5Ti2Mn5O12
_symmetry_space_group_name_H-M   'P 1'
_cell_length_a   5.29590400
_cell_length_b   9.17612000
_cell_length_c   10.06315167
_cell_angle_alpha   90.00000000
_cell_angle_beta   99.78202530
_cell_angle_gamma   90.00000000
_symmetry_Int_Tables_number   1
_chemical_formula_structural   Li5Ti2Mn5O12
_chemical_formula_sum   'Li10 Ti4 Mn10 O24'
_cell_volume   481.91756676
_cell_formula_units_Z   2
loop_
 _symmetry_equiv_pos_site_id
 _symmetry_equiv_pos_as_xyz
  1  'x, y, z'
loop_
 _atom_site_type_symbol
 _atom_site_label
 _atom_site_symmetry_multiplicity
 _atom_site_fract_x
 _atom_site_fract_y
 _atom_site_fract_z
 _atom_site_occupancy
  Li  Li0  1  0.75322800  0.90986700  0.24337400  1
  Li  Li1  1  0.25438800  0.58997500  0.75725500  1
  Li  Li2  1  0.24677200  0.90986700  0.75662600  1
  Li  Li3  1  0.74561200  0.58997500  0.24274500  1
  Li  Li4  1  0.00000000  0.91524200  0.00000000  1
  Li  Li5  1  0.25322800  0.40986700  0.24337400  1
  Li  Li6  1  0.75438800  0.08997500  0.75725500  1
  Li  Li7  1  0.74677200  0.40986700  0.75662600  1
  Li  Li8  1  0.24561200  0.08997500  0.24274500  1
  Li  Li9  1  0.50000000  0.41524200  0.00000000  1
  Ti  Ti10  1  0.50000000  0.74279400  0.00000000  1
  Ti  Ti11  1  0.00000000  0.74728300  0.50000000  1
  Ti  Ti12  1  0.00000000  0.24279400  0.00000000  1
  Ti  Ti13  1  0.50000000  0.24728300  0.50000000  1
  Mn  Mn14  1  0.50000000  0.58028300  0.50000000  1
  Mn  Mn15  1  0.75924150  0.75551650  0.75794500  1
  Mn  Mn16  1  0.24075850  0.75551650  0.24205500  1
  Mn  Mn17  1  0.50000000  0.91846800  0.50000000  1
  Mn  Mn18  1  0.00000000  0.57531700  0.00000000  1
  Mn  Mn19  1  0.00000000  0.08028300  0.50000000  1
  Mn  Mn20  1  0.25924150  0.25551650  0.75794500  1
  Mn  Mn21  1  0.74075850  0.25551650  0.24205500  1
  Mn  Mn22  1  0.00000000  0.41846800  0.50000000  1
  Mn  Mn23  1  0.50000000  0.07531700  0.00000000  1
  O  O24  1  0.61239700  0.60017200  0.87917200  1
  O  O25  1  0.38760300  0.60017200  0.12082800  1
  O  O26  1  0.65290450  0.75046050  0.38481000  1
  O  O27  1  0.34709550  0.75046050  0.61519000  1
  O  O28  1  0.60909850  0.90885850  0.88351100  1
  O  O29  1  0.39090150  0.90885850  0.11648900  1
  O  O30  1  0.11347400  0.59827500  0.38015600  1
  O  O31  1  0.88652600  0.59827500  0.61984400  1
  O  O32  1  0.14571050  0.74331550  0.88828100  1
  O  O33  1  0.85428950  0.74331550  0.11171900  1
  O  O34  1  0.11276000  0.90386600  0.37903100  1
  O  O35  1  0.88724000  0.90386600  0.62096900  1
  O  O36  1  0.11239700  0.10017200  0.87917200  1
  O  O37  1  0.88760300  0.10017200  0.12082800  1
  O  O38  1  0.15290450  0.25046050  0.38481000  1
  O  O39  1  0.84709550  0.25046050  0.61519000  1
  O  O40  1  0.10909850  0.40885850  0.88351100  1
  O  O41  1  0.89090150  0.40885850  0.11648900  1
  O  O42  1  0.61347400  0.09827500  0.38015600  1
  O  O43  1  0.38652600  0.09827500  0.61984400  1
  O  O44  1  0.64571050  0.24331550  0.88828100  1
  O  O45  1  0.35428950  0.24331550  0.11171900  1
  O  O46  1  0.61276000  0.40386600  0.37903100  1
  O  O47  1  0.38724000  0.40386600  0.62096900  1
