# generated using pymatgen
data_LiMnF3
_symmetry_space_group_name_H-M   'P 1'
_cell_length_a   5.37001718
_cell_length_b   5.37001718
_cell_length_c   14.21388267
_cell_angle_alpha   90.00000000
_cell_angle_beta   90.00000000
_cell_angle_gamma   120.00000000
_symmetry_Int_Tables_number   1
_chemical_formula_structural   LiMnF3
_chemical_formula_sum   'Li6 Mn6 F18'
_cell_volume   354.97249958
_cell_formula_units_Z   6
loop_
 _symmetry_equiv_pos_site_id
 _symmetry_equiv_pos_as_xyz
  1  'x, y, z'
loop_
 _atom_site_type_symbol
 _atom_site_label
 _atom_site_symmetry_multiplicity
 _atom_site_fract_x
 _atom_site_fract_y
 _atom_site_fract_z
 _atom_site_occupancy
  Li  Li0  1  0.00000000  0.00000000  0.14307500  1
  Li  Li1  1  0.66666667  0.33333333  0.19025833  1
  Li  Li2  1  0.66666667  0.33333333  0.47640833  1
  Li  Li3  1  0.33333333  0.66666667  0.52359167  1
  Li  Li4  1  0.33333333  0.66666667  0.80974167  1
  Li  Li5  1  0.00000000  0.00000000  0.85692500  1
  Mn  Mn6  1  0.33333333  0.66666667  0.31238167  1
  Mn  Mn7  1  0.33333333  0.66666667  0.02095167  1
  Mn  Mn8  1  0.00000000  0.00000000  0.64571500  1
  Mn  Mn9  1  0.00000000  0.00000000  0.35428500  1
  Mn  Mn10  1  0.66666667  0.33333333  0.97904833  1
  Mn  Mn11  1  0.66666667  0.33333333  0.68761833  1
  F  F12  1  0.99183033  0.29934767  0.24988767  1
  F  F13  1  0.96601433  0.64085067  0.08344567  1
  F  F14  1  0.35914933  0.32516367  0.08344567  1
  F  F15  1  0.30751733  0.00816967  0.24988767  1
  F  F16  1  0.70065233  0.69248267  0.24988767  1
  F  F17  1  0.67483633  0.03398567  0.08344567  1
  F  F18  1  0.65849700  0.63268100  0.58322100  1
  F  F19  1  0.63268100  0.97418400  0.41677900  1
  F  F20  1  0.02581600  0.65849700  0.41677900  1
  F  F21  1  0.97418400  0.34150300  0.58322100  1
  F  F22  1  0.36731900  0.02581600  0.58322100  1
  F  F23  1  0.34150300  0.36731900  0.41677900  1
  F  F24  1  0.32516367  0.96601433  0.91655433  1
  F  F25  1  0.29934767  0.30751733  0.75011233  1
  F  F26  1  0.69248267  0.99183033  0.75011233  1
  F  F27  1  0.64085067  0.67483633  0.91655433  1
  F  F28  1  0.03398567  0.35914933  0.91655433  1
  F  F29  1  0.00816967  0.70065233  0.75011233  1
