# generated using pymatgen
data_Li5Co5(SnO6)2
_symmetry_space_group_name_H-M   'P 1'
_cell_length_a   5.20662400
_cell_length_b   9.16775600
_cell_length_c   10.05268098
_cell_angle_alpha   90.00000000
_cell_angle_beta   101.76467907
_cell_angle_gamma   90.00000000
_symmetry_Int_Tables_number   1
_chemical_formula_structural   Li5Co5(SnO6)2
_chemical_formula_sum   'Li10 Co10 Sn4 O24'
_cell_volume   469.76522853
_cell_formula_units_Z   2
loop_
 _symmetry_equiv_pos_site_id
 _symmetry_equiv_pos_as_xyz
  1  'x, y, z'
loop_
 _atom_site_type_symbol
 _atom_site_label
 _atom_site_symmetry_multiplicity
 _atom_site_fract_x
 _atom_site_fract_y
 _atom_site_fract_z
 _atom_site_occupancy
  Li  Li0  1  0.74707750  0.93509850  0.74921100  1
  Li  Li1  1  0.24135900  0.57129400  0.25667400  1
  Li  Li2  1  0.25292250  0.93509850  0.25078900  1
  Li  Li3  1  0.75864100  0.57129400  0.74332600  1
  Li  Li4  1  0.00000000  0.91421400  0.50000000  1
  Li  Li5  1  0.24707750  0.43509850  0.74921100  1
  Li  Li6  1  0.74135900  0.07129400  0.25667400  1
  Li  Li7  1  0.75292250  0.43509850  0.25078900  1
  Li  Li8  1  0.25864100  0.07129400  0.74332600  1
  Li  Li9  1  0.50000000  0.41421400  0.50000000  1
  Co  Co10  1  0.50000000  0.58414400  0.00000000  1
  Co  Co11  1  0.75148250  0.75196850  0.25336800  1
  Co  Co12  1  0.24851750  0.75196850  0.74663200  1
  Co  Co13  1  0.50000000  0.91756500  0.00000000  1
  Co  Co14  1  0.00000000  0.58127400  0.50000000  1
  Co  Co15  1  0.00000000  0.08414400  0.00000000  1
  Co  Co16  1  0.25148250  0.25196850  0.25336800  1
  Co  Co17  1  0.74851750  0.25196850  0.74663200  1
  Co  Co18  1  0.00000000  0.41756500  0.00000000  1
  Co  Co19  1  0.50000000  0.08127400  0.50000000  1
  Sn  Sn20  1  0.50000000  0.75075800  0.50000000  1
  Sn  Sn21  1  0.00000000  0.75100500  0.00000000  1
  Sn  Sn22  1  0.00000000  0.25075800  0.50000000  1
  Sn  Sn23  1  0.50000000  0.25100500  0.00000000  1
  O  O24  1  0.64638350  0.59184550  0.38321800  1
  O  O25  1  0.35361650  0.59184550  0.61678200  1
  O  O26  1  0.62245100  0.75105400  0.87640200  1
  O  O27  1  0.37754900  0.75105400  0.12359800  1
  O  O28  1  0.60742550  0.92033250  0.38466800  1
  O  O29  1  0.39257450  0.92033250  0.61533200  1
  O  O30  1  0.12468250  0.58873350  0.88129600  1
  O  O31  1  0.87531750  0.58873350  0.11870400  1
  O  O32  1  0.11419550  0.73087250  0.38646400  1
  O  O33  1  0.88580450  0.73087250  0.61353600  1
  O  O34  1  0.12169050  0.90932050  0.87579800  1
  O  O35  1  0.87830950  0.90932050  0.12420200  1
  O  O36  1  0.14638350  0.09184550  0.38321800  1
  O  O37  1  0.85361650  0.09184550  0.61678200  1
  O  O38  1  0.12245100  0.25105400  0.87640200  1
  O  O39  1  0.87754900  0.25105400  0.12359800  1
  O  O40  1  0.10742550  0.42033250  0.38466800  1
  O  O41  1  0.89257450  0.42033250  0.61533200  1
  O  O42  1  0.62468250  0.08873350  0.88129600  1
  O  O43  1  0.37531750  0.08873350  0.11870400  1
  O  O44  1  0.61419550  0.23087250  0.38646400  1
  O  O45  1  0.38580450  0.23087250  0.61353600  1
  O  O46  1  0.62169050  0.40932050  0.87579800  1
  O  O47  1  0.37830950  0.40932050  0.12420200  1
