# generated using pymatgen
data_Li3Mn3OF7
_symmetry_space_group_name_H-M   'P 1'
_cell_length_a   6.33693758
_cell_length_b   6.33693758
_cell_length_c   14.97709559
_cell_angle_alpha   90.00000000
_cell_angle_beta   90.00000000
_cell_angle_gamma   120.00000000
_symmetry_Int_Tables_number   1
_chemical_formula_structural   Li3Mn3OF7
_chemical_formula_sum   'Li9 Mn9 O3 F21'
_cell_volume   520.85530501
_cell_formula_units_Z   3
loop_
 _symmetry_equiv_pos_site_id
 _symmetry_equiv_pos_as_xyz
  1  'x, y, z'
loop_
 _atom_site_type_symbol
 _atom_site_label
 _atom_site_symmetry_multiplicity
 _atom_site_fract_x
 _atom_site_fract_y
 _atom_site_fract_z
 _atom_site_occupancy
  Li  Li0  1  0.33333333  0.66666667  0.66602583  1
  Li  Li1  1  0.33333333  0.66666667  0.92493883  1
  Li  Li2  1  0.33333333  0.66666667  0.28931117  1
  Li  Li3  1  0.00000000  0.00000000  0.99935917  1
  Li  Li4  1  0.00000000  0.00000000  0.25827217  1
  Li  Li5  1  0.00000000  0.00000000  0.62264450  1
  Li  Li6  1  0.66666667  0.33333333  0.33269250  1
  Li  Li7  1  0.66666667  0.33333333  0.59160550  1
  Li  Li8  1  0.66666667  0.33333333  0.95597783  1
  Mn  Mn9  1  0.49299542  0.98599083  0.11980833  1
  Mn  Mn10  1  0.01400917  0.50700458  0.11980833  1
  Mn  Mn11  1  0.49299542  0.50700458  0.11980833  1
  Mn  Mn12  1  0.15966208  0.31932417  0.45314167  1
  Mn  Mn13  1  0.68067583  0.84033792  0.45314167  1
  Mn  Mn14  1  0.15966208  0.84033792  0.45314167  1
  Mn  Mn15  1  0.82632875  0.65265750  0.78647500  1
  Mn  Mn16  1  0.34734250  0.17367125  0.78647500  1
  Mn  Mn17  1  0.82632875  0.17367125  0.78647500  1
  O  O18  1  0.33333333  0.66666667  0.05193217  1
  O  O19  1  0.00000000  0.00000000  0.38526550  1
  O  O20  1  0.66666667  0.33333333  0.71859883  1
  F  F21  1  0.33333333  0.66666667  0.53137400  1
  F  F22  1  0.17412500  0.82587500  0.21146300  1
  F  F23  1  0.17412500  0.34825000  0.21146300  1
  F  F24  1  0.65175000  0.82587500  0.21146300  1
  F  F25  1  0.01720633  0.50860317  0.37472317  1
  F  F26  1  0.49139683  0.98279367  0.37472317  1
  F  F27  1  0.49139683  0.50860317  0.37472317  1
  F  F28  1  0.00000000  0.00000000  0.86470733  1
  F  F29  1  0.84079167  0.15920833  0.54479633  1
  F  F30  1  0.84079167  0.68158333  0.54479633  1
  F  F31  1  0.31841667  0.15920833  0.54479633  1
  F  F32  1  0.68387300  0.84193650  0.70805650  1
  F  F33  1  0.15806350  0.31612700  0.70805650  1
  F  F34  1  0.15806350  0.84193650  0.70805650  1
  F  F35  1  0.66666667  0.33333333  0.19804067  1
  F  F36  1  0.50745833  0.49254167  0.87812967  1
  F  F37  1  0.50745833  0.01491667  0.87812967  1
  F  F38  1  0.98508333  0.49254167  0.87812967  1
  F  F39  1  0.35053967  0.17526983  0.04138983  1
  F  F40  1  0.82473017  0.64946033  0.04138983  1
  F  F41  1  0.82473017  0.17526983  0.04138983  1
