# generated using pymatgen
data_Mg7Cu2O9
_symmetry_space_group_name_H-M   'P 1'
_cell_length_a   15.61800600
_cell_length_b   3.01346000
_cell_length_c   7.35498387
_cell_angle_alpha   90.00000000
_cell_angle_beta   90.09852096
_cell_angle_gamma   90.00000000
_symmetry_Int_Tables_number   1
_chemical_formula_structural   Mg7Cu2O9
_chemical_formula_sum   'Mg14 Cu4 O18'
_cell_volume   346.15618770
_cell_formula_units_Z   2
loop_
 _symmetry_equiv_pos_site_id
 _symmetry_equiv_pos_as_xyz
  1  'x, y, z'
loop_
 _atom_site_type_symbol
 _atom_site_label
 _atom_site_symmetry_multiplicity
 _atom_site_fract_x
 _atom_site_fract_y
 _atom_site_fract_z
 _atom_site_occupancy
  Mg  Mg0  1  0.27636600  0.00000000  0.33095300  1
  Mg  Mg1  1  0.22363400  0.50000000  0.66904700  1
  Mg  Mg2  1  0.44469900  0.50000000  0.33416200  1
  Mg  Mg3  1  0.16588500  0.00000000  0.00293900  1
  Mg  Mg4  1  0.05530100  0.00000000  0.66583800  1
  Mg  Mg5  1  0.00000000  0.50000000  0.00000000  1
  Mg  Mg6  1  0.33411500  0.50000000  0.99706100  1
  Mg  Mg7  1  0.77636600  0.50000000  0.33095300  1
  Mg  Mg8  1  0.72363400  0.00000000  0.66904700  1
  Mg  Mg9  1  0.94469900  0.00000000  0.33416200  1
  Mg  Mg10  1  0.66588500  0.50000000  0.00293900  1
  Mg  Mg11  1  0.55530100  0.50000000  0.66583800  1
  Mg  Mg12  1  0.50000000  0.00000000  0.00000000  1
  Mg  Mg13  1  0.83411500  0.00000000  0.99706100  1
  Cu  Cu14  1  0.11130200  0.50000000  0.33412000  1
  Cu  Cu15  1  0.38869800  0.00000000  0.66588000  1
  Cu  Cu16  1  0.61130200  0.00000000  0.33412000  1
  Cu  Cu17  1  0.88869800  0.50000000  0.66588000  1
  O  O18  1  0.22393000  0.50000000  0.16412500  1
  O  O19  1  0.16801300  0.00000000  0.50368300  1
  O  O20  1  0.05395800  0.00000000  0.16325600  1
  O  O21  1  0.27607000  0.00000000  0.83587500  1
  O  O22  1  0.38931900  0.00000000  0.16647500  1
  O  O23  1  0.00000000  0.50000000  0.50000000  1
  O  O24  1  0.11068100  0.50000000  0.83352500  1
  O  O25  1  0.33198700  0.50000000  0.49631700  1
  O  O26  1  0.44604200  0.50000000  0.83674400  1
  O  O27  1  0.72393000  0.00000000  0.16412500  1
  O  O28  1  0.66801300  0.50000000  0.50368300  1
  O  O29  1  0.55395800  0.50000000  0.16325600  1
  O  O30  1  0.77607000  0.50000000  0.83587500  1
  O  O31  1  0.88931900  0.50000000  0.16647500  1
  O  O32  1  0.50000000  0.00000000  0.50000000  1
  O  O33  1  0.61068100  0.00000000  0.83352500  1
  O  O34  1  0.83198700  0.00000000  0.49631700  1
  O  O35  1  0.94604200  0.00000000  0.83674400  1
