# generated using pymatgen
data_KLiSb3O8
_symmetry_space_group_name_H-M   'P 1'
_cell_length_a   8.80373816
_cell_length_b   8.80678366
_cell_length_c   8.96492184
_cell_angle_alpha   108.19695359
_cell_angle_beta   107.47257729
_cell_angle_gamma   112.08219889
_symmetry_Int_Tables_number   1
_chemical_formula_structural   KLiSb3O8
_chemical_formula_sum   'K3 Li3 Sb9 O24'
_cell_volume   538.62737524
_cell_formula_units_Z   3
loop_
 _symmetry_equiv_pos_site_id
 _symmetry_equiv_pos_as_xyz
  1  'x, y, z'
loop_
 _atom_site_type_symbol
 _atom_site_label
 _atom_site_symmetry_multiplicity
 _atom_site_fract_x
 _atom_site_fract_y
 _atom_site_fract_z
 _atom_site_occupancy
  K  K0  1  0.88031877  0.84143244  0.92906864  1
  K  K1  1  0.49528298  0.49041446  0.01697667  1
  K  K2  1  0.12950127  0.11991776  0.03855527  1
  Li  Li3  1  0.35500108  0.15042210  0.54266009  1
  Li  Li4  1  0.96919452  0.76474613  0.54164569  1
  Li  Li5  1  0.19831843  0.71728132  0.74722640  1
  Sb  Sb6  1  0.83699662  0.31964976  0.16634741  1
  Sb  Sb7  1  0.03404303  0.15124515  0.47777482  1
  Sb  Sb8  1  0.64615366  0.83422513  0.51722278  1
  Sb  Sb9  1  0.67772063  0.49279730  0.49173221  1
  Sb  Sb10  1  0.82424989  0.33248788  0.82379807  1
  Sb  Sb11  1  0.50544634  0.01385747  0.82392864  1
  Sb  Sb12  1  0.35278544  0.99204714  0.31767984  1
  Sb  Sb13  1  0.17627883  0.65816030  0.16648825  1
  Sb  Sb14  1  0.31042500  0.49830560  0.51802129  1
  O  O15  1  0.83181397  0.10969250  0.34664628  1
  O  O16  1  0.80724491  0.85730046  0.63549786  1
  O  O17  1  0.47339265  0.53217172  0.65726438  1
  O  O18  1  0.87485907  0.49706683  0.29018297  1
  O  O19  1  0.78813965  0.15188201  0.72181322  1
  O  O20  1  0.47278924  0.86705055  0.68871537  1
  O  O21  1  0.81022949  0.77198386  0.36452852  1
  O  O22  1  0.80446135  0.50864754  0.63997358  1
  O  O23  1  0.51385716  0.21763093  0.63985294  1
  O  O24  1  0.11764843  0.47723361  0.06701433  1
  O  O25  1  0.45646166  0.79054234  0.02450765  1
  O  O26  1  0.84568223  0.18089136  0.02510285  1
  O  O27  1  0.21689425  0.87019073  0.95329760  1
  O  O28  1  0.83663339  0.49092769  0.95375963  1
  O  O29  1  0.53498421  0.16636501  0.96029143  1
  O  O30  1  0.46484194  0.78500828  0.41190911  1
  O  O31  1  0.20463179  0.48316168  0.34783241  1
  O  O32  1  0.16856166  0.21882293  0.63535365  1
  O  O33  1  0.56770813  0.20477063  0.30909061  1
  O  O34  1  0.14882737  0.78706565  0.30690573  1
  O  O35  1  0.10632091  0.50059547  0.68890478  1
  O  O36  1  0.23441395  0.15107850  0.27666178  1
  O  O37  1  0.52554526  0.48735558  0.36477817  1
  O  O38  1  0.18854284  0.90177621  0.57098807  1
