# generated using pymatgen
data_V6O11F
_symmetry_space_group_name_H-M   'P 1'
_cell_length_a   6.47002800
_cell_length_b   19.92383800
_cell_length_c   2.94611700
_cell_angle_alpha   90.00000000
_cell_angle_beta   90.00000000
_cell_angle_gamma   90.00000000
_symmetry_Int_Tables_number   1
_chemical_formula_structural   V6O11F
_chemical_formula_sum   'V12 O22 F2'
_cell_volume   379.77743075
_cell_formula_units_Z   2
loop_
 _symmetry_equiv_pos_site_id
 _symmetry_equiv_pos_as_xyz
  1  'x, y, z'
loop_
 _atom_site_type_symbol
 _atom_site_label
 _atom_site_symmetry_multiplicity
 _atom_site_fract_x
 _atom_site_fract_y
 _atom_site_fract_z
 _atom_site_occupancy
  V  V0  1  0.50000000  0.49148200  0.00000000  1
  V  V1  1  0.50000000  0.32876500  0.50000000  1
  V  V2  1  0.50000000  0.00132900  0.50000000  1
  V  V3  1  0.00000000  0.33905100  0.00000000  1
  V  V4  1  0.50000000  0.16478600  0.00000000  1
  V  V5  1  0.00000000  0.17872100  0.50000000  1
  V  V6  1  0.00000000  0.99148200  0.00000000  1
  V  V7  1  0.00000000  0.82876500  0.50000000  1
  V  V8  1  0.00000000  0.50132900  0.50000000  1
  V  V9  1  0.50000000  0.83905100  0.00000000  1
  V  V10  1  0.00000000  0.66478600  0.00000000  1
  V  V11  1  0.50000000  0.67872100  0.50000000  1
  O  O12  1  0.50000000  0.43117200  0.50000000  1
  O  O13  1  0.29093900  0.00085200  0.00000000  1
  O  O14  1  0.70906100  0.00085200  0.00000000  1
  O  O15  1  0.69697050  0.33222250  0.00000000  1
  O  O16  1  0.19461000  0.16577000  0.00000000  1
  O  O17  1  0.00000000  0.40317700  0.50000000  1
  O  O18  1  0.50000000  0.23081400  0.50000000  1
  O  O19  1  0.00000000  0.26878300  0.50000000  1
  O  O20  1  0.50000000  0.10132800  0.50000000  1
  O  O21  1  0.30302950  0.33222250  0.00000000  1
  O  O22  1  0.80539000  0.16577000  0.00000000  1
  O  O23  1  0.00000000  0.93117200  0.50000000  1
  O  O24  1  0.79093900  0.50085200  0.00000000  1
  O  O25  1  0.20906100  0.50085200  0.00000000  1
  O  O26  1  0.19697050  0.83222250  0.00000000  1
  O  O27  1  0.69461000  0.66577000  0.00000000  1
  O  O28  1  0.50000000  0.90317700  0.50000000  1
  O  O29  1  0.00000000  0.73081400  0.50000000  1
  O  O30  1  0.50000000  0.76878300  0.50000000  1
  O  O31  1  0.00000000  0.60132800  0.50000000  1
  O  O32  1  0.80302950  0.83222250  0.00000000  1
  O  O33  1  0.30539000  0.66577000  0.00000000  1
  F  F34  1  0.00000000  0.06463000  0.50000000  1
  F  F35  1  0.50000000  0.56463000  0.50000000  1
