# generated using pymatgen
data_Li3MnV(PO4)3
_symmetry_space_group_name_H-M   'P 1'
_cell_length_a   8.38855521
_cell_length_b   8.41952513
_cell_length_c   9.23414331
_cell_angle_alpha   116.83710872
_cell_angle_beta   90.35394508
_cell_angle_gamma   119.54619637
_symmetry_Int_Tables_number   1
_chemical_formula_structural   Li3MnV(PO4)3
_chemical_formula_sum   'Li6 Mn2 V2 P6 O24'
_cell_volume   483.77369378
_cell_formula_units_Z   2
loop_
 _symmetry_equiv_pos_site_id
 _symmetry_equiv_pos_as_xyz
  1  'x, y, z'
loop_
 _atom_site_type_symbol
 _atom_site_label
 _atom_site_symmetry_multiplicity
 _atom_site_fract_x
 _atom_site_fract_y
 _atom_site_fract_z
 _atom_site_occupancy
  Li  Li0  1  0.38082505  0.32155808  0.87400388  1
  Li  Li1  1  0.81610233  0.07783407  0.86361836  1
  Li  Li2  1  0.19626793  0.75121324  0.62528815  1
  Li  Li3  1  0.80373207  0.24878676  0.37471185  1
  Li  Li4  1  0.18389767  0.92216593  0.13638164  1
  Li  Li5  1  0.61917495  0.67844192  0.12599612  1
  Mn  Mn6  1  0.70551127  0.84947008  0.43476746  1
  Mn  Mn7  1  0.29448873  0.15052992  0.56523254  1
  V  V8  1  0.68901633  0.34766701  0.96692724  1
  V  V9  1  0.31098367  0.65233299  0.03307276  1
  P  P10  1  0.19535544  0.46545859  0.75549836  1
  P  P11  1  0.78767947  0.73875352  0.75264831  1
  P  P12  1  0.50379775  0.05117165  0.75946466  1
  P  P13  1  0.49620225  0.94882835  0.24053534  1
  P  P14  1  0.21232053  0.26124648  0.24735169  1
  P  P15  1  0.80464456  0.53454141  0.24450164  1
  O  O16  1  0.28495302  0.49640230  0.87831510  1
  O  O17  1  0.12175412  0.26135643  0.74710745  1
  O  O18  1  0.99938162  0.48676732  0.82979855  1
  O  O19  1  0.68684110  0.51794620  0.82980189  1
  O  O20  1  0.64300437  0.79027105  0.90052639  1
  O  O21  1  0.33616858  0.84500157  0.89694812  1
  O  O22  1  0.36281649  0.62561125  0.58700097  1
  O  O23  1  0.01276433  0.85416021  0.72640658  1
  O  O24  1  0.77742067  0.76379617  0.59743541  1
  O  O25  1  0.66093410  0.17286067  0.82079173  1
  O  O26  1  0.37498851  0.13259088  0.76413465  1
  O  O27  1  0.62689928  0.03619948  0.58541366  1
  O  O28  1  0.37310072  0.96380052  0.41458634  1
  O  O29  1  0.62501149  0.86740912  0.23586535  1
  O  O30  1  0.33906590  0.82713933  0.17920827  1
  O  O31  1  0.22257933  0.23620383  0.40256459  1
  O  O32  1  0.98723567  0.14583979  0.27359342  1
  O  O33  1  0.63718351  0.37438875  0.41299903  1
  O  O34  1  0.66383142  0.15499843  0.10305188  1
  O  O35  1  0.35699563  0.20972895  0.09947361  1
  O  O36  1  0.31315890  0.48205380  0.17019811  1
  O  O37  1  0.00061838  0.51323268  0.17020145  1
  O  O38  1  0.87824588  0.73864357  0.25289255  1
  O  O39  1  0.71504698  0.50359770  0.12168490  1
