# generated using pymatgen
data_Li3MnO3
_symmetry_space_group_name_H-M   'P 1'
_cell_length_a   9.13403300
_cell_length_b   9.13403300
_cell_length_c   3.53602400
_cell_angle_alpha   90.00000000
_cell_angle_beta   90.00000000
_cell_angle_gamma   90.00000000
_symmetry_Int_Tables_number   1
_chemical_formula_structural   Li3MnO3
_chemical_formula_sum   'Li12 Mn4 O12'
_cell_volume   295.01245841
_cell_formula_units_Z   4
loop_
 _symmetry_equiv_pos_site_id
 _symmetry_equiv_pos_as_xyz
  1  'x, y, z'
loop_
 _atom_site_type_symbol
 _atom_site_label
 _atom_site_symmetry_multiplicity
 _atom_site_fract_x
 _atom_site_fract_y
 _atom_site_fract_z
 _atom_site_occupancy
  Li  Li0  1  0.17391250  0.17391250  0.00000000  1
  Li  Li1  1  0.67391250  0.32608750  0.50000000  1
  Li  Li2  1  0.32608750  0.67391250  0.50000000  1
  Li  Li3  1  0.82608750  0.82608750  0.00000000  1
  Li  Li4  1  0.35450550  0.09369850  0.50000000  1
  Li  Li5  1  0.59369850  0.14549450  0.00000000  1
  Li  Li6  1  0.09369850  0.35450550  0.50000000  1
  Li  Li7  1  0.85450550  0.40630150  0.00000000  1
  Li  Li8  1  0.14549450  0.59369850  0.00000000  1
  Li  Li9  1  0.90630150  0.64549450  0.50000000  1
  Li  Li10  1  0.40630150  0.85450550  0.00000000  1
  Li  Li11  1  0.64549450  0.90630150  0.50000000  1
  Mn  Mn12  1  0.61455950  0.61455950  0.00000000  1
  Mn  Mn13  1  0.11455950  0.88544050  0.50000000  1
  Mn  Mn14  1  0.88544050  0.11455950  0.50000000  1
  Mn  Mn15  1  0.38544050  0.38544050  0.00000000  1
  O  O16  1  0.10118700  0.10118700  0.50000000  1
  O  O17  1  0.60118700  0.39881300  0.00000000  1
  O  O18  1  0.39881300  0.60118700  0.00000000  1
  O  O19  1  0.89881300  0.89881300  0.50000000  1
  O  O20  1  0.67933350  0.11289950  0.50000000  1
  O  O21  1  0.38710050  0.17933350  0.00000000  1
  O  O22  1  0.88710050  0.32066650  0.50000000  1
  O  O23  1  0.17933350  0.38710050  0.00000000  1
  O  O24  1  0.82066650  0.61289950  0.00000000  1
  O  O25  1  0.11289950  0.67933350  0.50000000  1
  O  O26  1  0.61289950  0.82066650  0.00000000  1
  O  O27  1  0.32066650  0.88710050  0.50000000  1
