# generated using pymatgen
data_Na(WO3)10
_symmetry_space_group_name_H-M   'P 1'
_cell_length_a   10.96064000
_cell_length_b   7.72755800
_cell_length_c   13.98225546
_cell_angle_alpha   90.00000000
_cell_angle_beta   101.57716130
_cell_angle_gamma   90.00000000
_symmetry_Int_Tables_number   1
_chemical_formula_structural   Na(WO3)10
_chemical_formula_sum   'Na2 W20 O60'
_cell_volume   1160.18894399
_cell_formula_units_Z   2
loop_
 _symmetry_equiv_pos_site_id
 _symmetry_equiv_pos_as_xyz
  1  'x, y, z'
loop_
 _atom_site_type_symbol
 _atom_site_label
 _atom_site_symmetry_multiplicity
 _atom_site_fract_x
 _atom_site_fract_y
 _atom_site_fract_z
 _atom_site_occupancy
  Na  Na0  1  0.00000000  0.69943600  0.50000000  1
  Na  Na1  1  0.50000000  0.19943600  0.50000000  1
  W  W2  1  0.15436400  0.44961400  0.09428500  1
  W  W3  1  0.35482650  0.44958250  0.89591500  1
  W  W4  1  0.24612700  0.44538300  0.50444500  1
  W  W5  1  0.44454150  0.45414850  0.30188800  1
  W  W6  1  0.84563600  0.44961400  0.90571500  1
  W  W7  1  0.04582750  0.45185550  0.70663700  1
  W  W8  1  0.64517350  0.44958250  0.10408500  1
  W  W9  1  0.95417250  0.45185550  0.29336300  1
  W  W10  1  0.55545850  0.45414850  0.69811200  1
  W  W11  1  0.75387300  0.44538300  0.49555500  1
  W  W12  1  0.65436400  0.94961400  0.09428500  1
  W  W13  1  0.85482650  0.94958250  0.89591500  1
  W  W14  1  0.74612700  0.94538300  0.50444500  1
  W  W15  1  0.94454150  0.95414850  0.30188800  1
  W  W16  1  0.34563600  0.94961400  0.90571500  1
  W  W17  1  0.54582750  0.95185550  0.70663700  1
  W  W18  1  0.14517350  0.94958250  0.10408500  1
  W  W19  1  0.45417250  0.95185550  0.29336300  1
  W  W20  1  0.05545850  0.95414850  0.69811200  1
  W  W21  1  0.25387300  0.94538300  0.49555500  1
  O  O22  1  0.19953200  0.45041500  0.79994600  1
  O  O23  1  0.84999100  0.20009400  0.89976600  1
  O  O24  1  0.05190650  0.45068750  0.19887600  1
  O  O25  1  0.25139450  0.45019350  0.99849500  1
  O  O26  1  0.95082750  0.95006250  0.79809000  1
  O  O27  1  0.09906200  0.45281900  0.40129400  1
  O  O28  1  0.30027900  0.45064400  0.19987900  1
  O  O29  1  0.84986950  0.70011750  0.89987300  1
  O  O30  1  0.69972100  0.45064400  0.80012100  1
  O  O31  1  0.00000000  0.95015200  0.00000000  1
  O  O32  1  0.15000900  0.20009400  0.10023400  1
  O  O33  1  0.95036950  0.20119350  0.30065300  1
  O  O34  1  0.35040900  0.44656500  0.40204200  1
  O  O35  1  0.74860550  0.45019350  0.00150500  1
  O  O36  1  0.94809350  0.45068750  0.80112400  1
  O  O37  1  0.04917250  0.95006250  0.20191000  1
  O  O38  1  0.14744950  0.45223450  0.59996900  1
  O  O39  1  0.15013050  0.70011750  0.10012700  1
  O  O40  1  0.40112600  0.44581100  0.59859000  1
  O  O41  1  0.80046800  0.45041500  0.20005400  1
  O  O42  1  0.95039500  0.70073600  0.30244300  1
  O  O43  1  0.00000000  0.45035700  0.00000000  1
  O  O44  1  0.04963050  0.20119350  0.69934700  1
  O  O45  1  0.59887400  0.44581100  0.40141000  1
  O  O46  1  0.75186550  0.69786950  0.49973600  1
  O  O47  1  0.85255050  0.45223450  0.40003100  1
  O  O48  1  0.64959100  0.44656500  0.59795800  1
  O  O49  1  0.24813450  0.69786950  0.50026400  1
  O  O50  1  0.04960500  0.70073600  0.69755700  1
  O  O51  1  0.90093800  0.45281900  0.59870600  1
  O  O52  1  0.69953200  0.95041500  0.79994600  1
  O  O53  1  0.34999100  0.70009400  0.89976600  1
  O  O54  1  0.55190650  0.95068750  0.19887600  1
  O  O55  1  0.75139450  0.95019350  0.99849500  1
  O  O56  1  0.45082750  0.45006250  0.79809000  1
  O  O57  1  0.59906200  0.95281900  0.40129400  1
  O  O58  1  0.80027900  0.95064400  0.19987900  1
  O  O59  1  0.34986950  0.20011750  0.89987300  1
  O  O60  1  0.19972100  0.95064400  0.80012100  1
  O  O61  1  0.50000000  0.45015200  0.00000000  1
  O  O62  1  0.65000900  0.70009400  0.10023400  1
  O  O63  1  0.45036950  0.70119350  0.30065300  1
  O  O64  1  0.85040900  0.94656500  0.40204200  1
  O  O65  1  0.24860550  0.95019350  0.00150500  1
  O  O66  1  0.44809350  0.95068750  0.80112400  1
  O  O67  1  0.54917250  0.45006250  0.20191000  1
  O  O68  1  0.64744950  0.95223450  0.59996900  1
  O  O69  1  0.65013050  0.20011750  0.10012700  1
  O  O70  1  0.90112600  0.94581100  0.59859000  1
  O  O71  1  0.30046800  0.95041500  0.20005400  1
  O  O72  1  0.45039500  0.20073600  0.30244300  1
  O  O73  1  0.50000000  0.95035700  0.00000000  1
  O  O74  1  0.54963050  0.70119350  0.69934700  1
  O  O75  1  0.09887400  0.94581100  0.40141000  1
  O  O76  1  0.25186550  0.19786950  0.49973600  1
  O  O77  1  0.35255050  0.95223450  0.40003100  1
  O  O78  1  0.14959100  0.94656500  0.59795800  1
  O  O79  1  0.74813450  0.19786950  0.50026400  1
  O  O80  1  0.54960500  0.20073600  0.69755700  1
  O  O81  1  0.40093800  0.95281900  0.59870600  1
