# generated using pymatgen
data_Mn6OF11
_symmetry_space_group_name_H-M   'P 1'
_cell_length_a   5.88326600
_cell_length_b   4.96707000
_cell_length_c   16.21804806
_cell_angle_alpha   90.00000000
_cell_angle_beta   90.39379825
_cell_angle_gamma   90.00000000
_symmetry_Int_Tables_number   1
_chemical_formula_structural   Mn6OF11
_chemical_formula_sum   'Mn12 O2 F22'
_cell_volume   473.92224074
_cell_formula_units_Z   2
loop_
 _symmetry_equiv_pos_site_id
 _symmetry_equiv_pos_as_xyz
  1  'x, y, z'
loop_
 _atom_site_type_symbol
 _atom_site_label
 _atom_site_symmetry_multiplicity
 _atom_site_fract_x
 _atom_site_fract_y
 _atom_site_fract_z
 _atom_site_occupancy
  Mn  Mn0  1  0.08503800  0.48488700  0.75680400  1
  Mn  Mn1  1  0.39677900  0.48360800  0.91791900  1
  Mn  Mn2  1  0.05967600  0.52129800  0.08724200  1
  Mn  Mn3  1  0.07845100  0.49673200  0.41457400  1
  Mn  Mn4  1  0.41700200  0.50057100  0.58365100  1
  Mn  Mn5  1  0.42058100  0.50287000  0.24779600  1
  Mn  Mn6  1  0.92154900  0.99673200  0.58542600  1
  Mn  Mn7  1  0.91496200  0.98488700  0.24319600  1
  Mn  Mn8  1  0.94032400  0.02129800  0.91275800  1
  Mn  Mn9  1  0.60322100  0.98360800  0.08208100  1
  Mn  Mn10  1  0.57941900  0.00287000  0.75220400  1
  Mn  Mn11  1  0.58299800  0.00057100  0.41634900  1
  O  O12  1  0.16493000  0.28767500  0.86696500  1
  O  O13  1  0.83507000  0.78767500  0.13303500  1
  F  F14  1  0.14297000  0.26854500  0.52556500  1
  F  F15  1  0.13381300  0.28723300  0.19168000  1
  F  F16  1  0.37783900  0.25218500  0.03019500  1
  F  F17  1  0.35477600  0.26455100  0.69194000  1
  F  F18  1  0.35887000  0.27429700  0.35831200  1
  F  F19  1  0.85653600  0.22089000  0.02550200  1
  F  F20  1  0.64308100  0.24327600  0.86393900  1
  F  F21  1  0.85411800  0.23189100  0.69514900  1
  F  F22  1  0.64714700  0.23132000  0.52602700  1
  F  F23  1  0.85939100  0.22108100  0.35382200  1
  F  F24  1  0.63134300  0.22708900  0.18746600  1
  F  F25  1  0.62216100  0.75218500  0.96980500  1
  F  F26  1  0.86618700  0.78723300  0.80832000  1
  F  F27  1  0.64113000  0.77429700  0.64168800  1
  F  F28  1  0.64522400  0.76455100  0.30806000  1
  F  F29  1  0.85703000  0.76854500  0.47443500  1
  F  F30  1  0.14346400  0.72089000  0.97449800  1
  F  F31  1  0.14060900  0.72108100  0.64617800  1
  F  F32  1  0.36865700  0.72708900  0.81253400  1
  F  F33  1  0.35691900  0.74327600  0.13606100  1
  F  F34  1  0.14588200  0.73189100  0.30485100  1
  F  F35  1  0.35285300  0.73132000  0.47397300  1
