# generated using pymatgen
data_Li5Ti2V5O12
_symmetry_space_group_name_H-M   'P 1'
_cell_length_a   5.14799141
_cell_length_b   9.07652575
_cell_length_c   10.04908845
_cell_angle_alpha   90.00000000
_cell_angle_beta   101.03127873
_cell_angle_gamma   90.00000000
_symmetry_Int_Tables_number   1
_chemical_formula_structural   Li5Ti2V5O12
_chemical_formula_sum   'Li10 Ti4 V10 O24'
_cell_volume   460.87648595
_cell_formula_units_Z   2
loop_
 _symmetry_equiv_pos_site_id
 _symmetry_equiv_pos_as_xyz
  1  'x, y, z'
loop_
 _atom_site_type_symbol
 _atom_site_label
 _atom_site_symmetry_multiplicity
 _atom_site_fract_x
 _atom_site_fract_y
 _atom_site_fract_z
 _atom_site_occupancy
  Li  Li0  1  0.25589150  0.58498650  0.74460200  1
  Li  Li1  1  0.75525050  0.91990350  0.25548600  1
  Li  Li2  1  0.74410850  0.58498650  0.25539800  1
  Li  Li3  1  0.24474950  0.91990350  0.74451400  1
  Li  Li4  1  0.50000000  0.58049200  0.50000000  1
  Li  Li5  1  0.75589150  0.08498650  0.74460200  1
  Li  Li6  1  0.25525050  0.41990350  0.25548600  1
  Li  Li7  1  0.24410850  0.08498650  0.25539800  1
  Li  Li8  1  0.74474950  0.41990350  0.74451400  1
  Li  Li9  1  0.00000000  0.08049200  0.50000000  1
  Ti  Ti10  1  0.00000000  0.74805400  0.50000000  1
  Ti  Ti11  1  0.50000000  0.74914000  0.00000000  1
  Ti  Ti12  1  0.50000000  0.24805400  0.50000000  1
  Ti  Ti13  1  0.00000000  0.24914000  0.00000000  1
  V  V14  1  0.25440800  0.74872800  0.25444700  1
  V  V15  1  0.74559200  0.74872800  0.74555300  1
  V  V16  1  0.00000000  0.57783800  0.00000000  1
  V  V17  1  0.50000000  0.92032600  0.50000000  1
  V  V18  1  0.00000000  0.91712600  0.00000000  1
  V  V19  1  0.75440800  0.24872800  0.25444700  1
  V  V20  1  0.24559200  0.24872800  0.74555300  1
  V  V21  1  0.50000000  0.07783800  0.00000000  1
  V  V22  1  0.00000000  0.42032600  0.50000000  1
  V  V23  1  0.50000000  0.41712600  0.00000000  1
  O  O24  1  0.12706950  0.90717050  0.38475500  1
  O  O25  1  0.87293050  0.90717050  0.61524500  1
  O  O26  1  0.13472300  0.74761300  0.88162600  1
  O  O27  1  0.86527700  0.74761300  0.11837400  1
  O  O28  1  0.10877750  0.59158650  0.38432200  1
  O  O29  1  0.89122250  0.59158650  0.61567800  1
  O  O30  1  0.61018450  0.90479150  0.87905000  1
  O  O31  1  0.38981550  0.90479150  0.12095000  1
  O  O32  1  0.63849300  0.75748000  0.38606000  1
  O  O33  1  0.36150700  0.75748000  0.61394000  1
  O  O34  1  0.61298100  0.59125300  0.87766700  1
  O  O35  1  0.38701900  0.59125300  0.12233300  1
  O  O36  1  0.62706950  0.40717050  0.38475500  1
  O  O37  1  0.37293050  0.40717050  0.61524500  1
  O  O38  1  0.63472300  0.24761300  0.88162600  1
  O  O39  1  0.36527700  0.24761300  0.11837400  1
  O  O40  1  0.60877750  0.09158650  0.38432200  1
  O  O41  1  0.39122250  0.09158650  0.61567800  1
  O  O42  1  0.11018450  0.40479150  0.87905000  1
  O  O43  1  0.88981550  0.40479150  0.12095000  1
  O  O44  1  0.13849300  0.25748000  0.38606000  1
  O  O45  1  0.86150700  0.25748000  0.61394000  1
  O  O46  1  0.11298100  0.09125300  0.87766700  1
  O  O47  1  0.88701900  0.09125300  0.12233300  1
