# generated using pymatgen
data_Mn2O2F3
_symmetry_space_group_name_H-M   'P 1'
_cell_length_a   9.89798000
_cell_length_b   5.04870400
_cell_length_c   6.93381845
_cell_angle_alpha   90.00000000
_cell_angle_beta   109.09550963
_cell_angle_gamma   90.00000000
_symmetry_Int_Tables_number   1
_chemical_formula_structural   Mn2O2F3
_chemical_formula_sum   'Mn8 O8 F12'
_cell_volume   327.43044752
_cell_formula_units_Z   4
loop_
 _symmetry_equiv_pos_site_id
 _symmetry_equiv_pos_as_xyz
  1  'x, y, z'
loop_
 _atom_site_type_symbol
 _atom_site_label
 _atom_site_symmetry_multiplicity
 _atom_site_fract_x
 _atom_site_fract_y
 _atom_site_fract_z
 _atom_site_occupancy
  Mn  Mn0  1  0.69739250  0.00819350  0.38313500  1
  Mn  Mn1  1  0.69739250  0.99180650  0.88313500  1
  Mn  Mn2  1  0.80260750  0.50819350  0.11686500  1
  Mn  Mn3  1  0.80260750  0.49180650  0.61686500  1
  Mn  Mn4  1  0.19739250  0.50819350  0.38313500  1
  Mn  Mn5  1  0.19739250  0.49180650  0.88313500  1
  Mn  Mn6  1  0.30260750  0.00819350  0.11686500  1
  Mn  Mn7  1  0.30260750  0.99180650  0.61686500  1
  O  O8  1  0.79516400  0.32750600  0.36294300  1
  O  O9  1  0.70483600  0.82750600  0.13705700  1
  O  O10  1  0.79516400  0.67249400  0.86294300  1
  O  O11  1  0.70483600  0.17249400  0.63705700  1
  O  O12  1  0.29516400  0.82750600  0.36294300  1
  O  O13  1  0.20483600  0.32750600  0.13705700  1
  O  O14  1  0.29516400  0.17249400  0.86294300  1
  O  O15  1  0.20483600  0.67249400  0.63705700  1
  F  F16  1  0.62109700  0.31135500  0.96170000  1
  F  F17  1  0.62109700  0.68864500  0.46170000  1
  F  F18  1  0.00000000  0.37808900  0.75000000  1
  F  F19  1  0.00000000  0.62191100  0.25000000  1
  F  F20  1  0.87890300  0.81135500  0.53830000  1
  F  F21  1  0.87890300  0.18864500  0.03830000  1
  F  F22  1  0.12109700  0.81135500  0.96170000  1
  F  F23  1  0.12109700  0.18864500  0.46170000  1
  F  F24  1  0.50000000  0.87808900  0.75000000  1
  F  F25  1  0.50000000  0.12191100  0.25000000  1
  F  F26  1  0.37890300  0.31135500  0.53830000  1
  F  F27  1  0.37890300  0.68864500  0.03830000  1
