# generated using pymatgen
data_Hg2Mo2O7
_symmetry_space_group_name_H-M   'P 1'
_cell_length_a   12.32241600
_cell_length_b   7.89132000
_cell_length_c   14.93575713
_cell_angle_alpha   90.00000000
_cell_angle_beta   106.01095249
_cell_angle_gamma   90.00000000
_symmetry_Int_Tables_number   1
_chemical_formula_structural   Hg2Mo2O7
_chemical_formula_sum   'Hg16 Mo16 O56'
_cell_volume   1396.01661532
_cell_formula_units_Z   8
loop_
 _symmetry_equiv_pos_site_id
 _symmetry_equiv_pos_as_xyz
  1  'x, y, z'
loop_
 _atom_site_type_symbol
 _atom_site_label
 _atom_site_symmetry_multiplicity
 _atom_site_fract_x
 _atom_site_fract_y
 _atom_site_fract_z
 _atom_site_occupancy
  Hg  Hg0  1  0.91724450  0.15629150  0.43401400  1
  Hg  Hg1  1  0.08275550  0.84370850  0.56598600  1
  Hg  Hg2  1  0.08275550  0.15629150  0.06598600  1
  Hg  Hg3  1  0.91724450  0.84370850  0.93401400  1
  Hg  Hg4  1  0.93578500  0.67807100  0.43749800  1
  Hg  Hg5  1  0.06421500  0.32192900  0.56250200  1
  Hg  Hg6  1  0.93578500  0.32192900  0.93749800  1
  Hg  Hg7  1  0.06421500  0.67807100  0.06250200  1
  Hg  Hg8  1  0.41724450  0.65629150  0.43401400  1
  Hg  Hg9  1  0.58275550  0.34370850  0.56598600  1
  Hg  Hg10  1  0.58275550  0.65629150  0.06598600  1
  Hg  Hg11  1  0.41724450  0.34370850  0.93401400  1
  Hg  Hg12  1  0.43578500  0.17807100  0.43749800  1
  Hg  Hg13  1  0.56421500  0.82192900  0.56250200  1
  Hg  Hg14  1  0.43578500  0.82192900  0.93749800  1
  Hg  Hg15  1  0.56421500  0.17807100  0.06250200  1
  Mo  Mo16  1  0.65844700  0.51554200  0.81582500  1
  Mo  Mo17  1  0.84776500  0.52200100  0.69026500  1
  Mo  Mo18  1  0.84776500  0.47799900  0.19026500  1
  Mo  Mo19  1  0.34155300  0.48445800  0.18417500  1
  Mo  Mo20  1  0.65844700  0.48445800  0.31582500  1
  Mo  Mo21  1  0.34155300  0.51554200  0.68417500  1
  Mo  Mo22  1  0.15223500  0.52200100  0.80973500  1
  Mo  Mo23  1  0.15223500  0.47799900  0.30973500  1
  Mo  Mo24  1  0.15844700  0.01554200  0.81582500  1
  Mo  Mo25  1  0.34776500  0.02200100  0.69026500  1
  Mo  Mo26  1  0.34776500  0.97799900  0.19026500  1
  Mo  Mo27  1  0.84155300  0.98445800  0.18417500  1
  Mo  Mo28  1  0.15844700  0.98445800  0.31582500  1
  Mo  Mo29  1  0.84155300  0.01554200  0.68417500  1
  Mo  Mo30  1  0.65223500  0.02200100  0.80973500  1
  Mo  Mo31  1  0.65223500  0.97799900  0.30973500  1
  O  O32  1  0.35086350  0.45672050  0.57423700  1
  O  O33  1  0.00000000  0.02302400  0.75000000  1
  O  O34  1  0.81747250  0.54071150  0.32936600  1
  O  O35  1  0.68272350  0.51616450  0.66995800  1
  O  O36  1  0.64913650  0.45672050  0.92576300  1
  O  O37  1  0.68272350  0.48383550  0.16995800  1
  O  O38  1  0.64913650  0.54327950  0.42576300  1
  O  O39  1  0.13399000  0.25983200  0.27680800  1
  O  O40  1  0.14671700  0.47274500  0.42483400  1
  O  O41  1  0.17760100  0.24042500  0.82694100  1
  O  O42  1  0.86601000  0.25983200  0.22319200  1
  O  O43  1  0.86601000  0.74016800  0.72319200  1
  O  O44  1  0.17760100  0.75957500  0.32694100  1
  O  O45  1  0.18252750  0.45928850  0.67063400  1
  O  O46  1  0.35086350  0.54327950  0.07423700  1
  O  O47  1  0.31727650  0.48383550  0.33004200  1
  O  O48  1  0.82239900  0.24042500  0.67305900  1
  O  O49  1  0.00000000  0.97697600  0.25000000  1
  O  O50  1  0.00000000  0.44699600  0.75000000  1
  O  O51  1  0.81747250  0.45928850  0.82936600  1
  O  O52  1  0.85328300  0.47274500  0.07516600  1
  O  O53  1  0.18252750  0.54071150  0.17063400  1
  O  O54  1  0.14671700  0.52725500  0.92483400  1
  O  O55  1  0.00000000  0.55300400  0.25000000  1
  O  O56  1  0.13399000  0.74016800  0.77680800  1
  O  O57  1  0.85328300  0.52725500  0.57516600  1
  O  O58  1  0.31727650  0.51616450  0.83004200  1
  O  O59  1  0.82239900  0.75957500  0.17305900  1
  O  O60  1  0.85086350  0.95672050  0.57423700  1
  O  O61  1  0.50000000  0.52302400  0.75000000  1
  O  O62  1  0.31747250  0.04071150  0.32936600  1
  O  O63  1  0.18272350  0.01616450  0.66995800  1
  O  O64  1  0.14913650  0.95672050  0.92576300  1
  O  O65  1  0.18272350  0.98383550  0.16995800  1
  O  O66  1  0.14913650  0.04327950  0.42576300  1
  O  O67  1  0.63399000  0.75983200  0.27680800  1
  O  O68  1  0.64671700  0.97274500  0.42483400  1
  O  O69  1  0.67760100  0.74042500  0.82694100  1
  O  O70  1  0.36601000  0.75983200  0.22319200  1
  O  O71  1  0.36601000  0.24016800  0.72319200  1
  O  O72  1  0.67760100  0.25957500  0.32694100  1
  O  O73  1  0.68252750  0.95928850  0.67063400  1
  O  O74  1  0.85086350  0.04327950  0.07423700  1
  O  O75  1  0.81727650  0.98383550  0.33004200  1
  O  O76  1  0.32239900  0.74042500  0.67305900  1
  O  O77  1  0.50000000  0.47697600  0.25000000  1
  O  O78  1  0.50000000  0.94699600  0.75000000  1
  O  O79  1  0.31747250  0.95928850  0.82936600  1
  O  O80  1  0.35328300  0.97274500  0.07516600  1
  O  O81  1  0.68252750  0.04071150  0.17063400  1
  O  O82  1  0.64671700  0.02725500  0.92483400  1
  O  O83  1  0.50000000  0.05300400  0.25000000  1
  O  O84  1  0.63399000  0.24016800  0.77680800  1
  O  O85  1  0.35328300  0.02725500  0.57516600  1
  O  O86  1  0.81727650  0.01616450  0.83004200  1
  O  O87  1  0.32239900  0.25957500  0.17305900  1
