# generated using pymatgen
data_Li2VO3F
_symmetry_space_group_name_H-M   'P 1'
_cell_length_a   8.03332400
_cell_length_b   8.29828800
_cell_length_c   9.29788523
_cell_angle_alpha   90.00000000
_cell_angle_beta   114.33673739
_cell_angle_gamma   90.00000000
_symmetry_Int_Tables_number   1
_chemical_formula_structural   Li2VO3F
_chemical_formula_sum   'Li16 V8 O24 F8'
_cell_volume   564.74541580
_cell_formula_units_Z   8
loop_
 _symmetry_equiv_pos_site_id
 _symmetry_equiv_pos_as_xyz
  1  'x, y, z'
loop_
 _atom_site_type_symbol
 _atom_site_label
 _atom_site_symmetry_multiplicity
 _atom_site_fract_x
 _atom_site_fract_y
 _atom_site_fract_z
 _atom_site_occupancy
  Li  Li0  1  0.42886700  0.11566100  0.36572300  1
  Li  Li1  1  0.68719450  0.11453750  0.86606800  1
  Li  Li2  1  0.18006500  0.87090600  0.35984100  1
  Li  Li3  1  0.42886700  0.88433900  0.86572300  1
  Li  Li4  1  0.68719450  0.88546250  0.36606800  1
  Li  Li5  1  0.18006500  0.12909400  0.85984100  1
  Li  Li6  1  0.55553400  0.10936900  0.12497000  1
  Li  Li7  1  0.55553400  0.89063100  0.62497000  1
  Li  Li8  1  0.92886700  0.61566100  0.36572300  1
  Li  Li9  1  0.18719450  0.61453750  0.86606800  1
  Li  Li10  1  0.68006500  0.37090600  0.35984100  1
  Li  Li11  1  0.92886700  0.38433900  0.86572300  1
  Li  Li12  1  0.18719450  0.38546250  0.36606800  1
  Li  Li13  1  0.68006500  0.62909400  0.85984100  1
  Li  Li14  1  0.05553400  0.60936900  0.12497000  1
  Li  Li15  1  0.05553400  0.39063100  0.62497000  1
  V  V16  1  0.53705300  0.34409400  0.61331700  1
  V  V17  1  0.53705300  0.65590600  0.11331700  1
  V  V18  1  0.47127800  0.35660700  0.90132600  1
  V  V19  1  0.47127800  0.64339300  0.40132600  1
  V  V20  1  0.03705300  0.84409400  0.61331700  1
  V  V21  1  0.03705300  0.15590600  0.11331700  1
  V  V22  1  0.97127800  0.85660700  0.90132600  1
  V  V23  1  0.97127800  0.14339300  0.40132600  1
  O  O24  1  0.45108900  0.61452100  0.90377100  1
  O  O25  1  0.55570300  0.14087900  0.61702300  1
  O  O26  1  0.45108900  0.38547900  0.40377100  1
  O  O27  1  0.16691550  0.12306150  0.35208500  1
  O  O28  1  0.44758400  0.14847100  0.89224100  1
  O  O29  1  0.16691550  0.87693850  0.85208500  1
  O  O30  1  0.84126200  0.12211500  0.14782300  1
  O  O31  1  0.55570300  0.85912100  0.11702300  1
  O  O32  1  0.84126200  0.87788500  0.64782300  1
  O  O33  1  0.55779200  0.61792000  0.60209300  1
  O  O34  1  0.44758400  0.85152900  0.39224100  1
  O  O35  1  0.55779200  0.38208000  0.10209300  1
  O  O36  1  0.95108900  0.11452100  0.90377100  1
  O  O37  1  0.05570300  0.64087900  0.61702300  1
  O  O38  1  0.95108900  0.88547900  0.40377100  1
  O  O39  1  0.66691550  0.62306150  0.35208500  1
  O  O40  1  0.94758400  0.64847100  0.89224100  1
  O  O41  1  0.66691550  0.37693850  0.85208500  1
  O  O42  1  0.34126200  0.62211500  0.14782300  1
  O  O43  1  0.05570300  0.35912100  0.11702300  1
  O  O44  1  0.34126200  0.37788500  0.64782300  1
  O  O45  1  0.05779200  0.11792000  0.60209300  1
  O  O46  1  0.94758400  0.35152900  0.39224100  1
  O  O47  1  0.05779200  0.88208000  0.10209300  1
  F  F48  1  0.69237400  0.87663400  0.85512100  1
  F  F49  1  0.29989050  0.87721350  0.63578700  1
  F  F50  1  0.69237400  0.12336600  0.35512100  1
  F  F51  1  0.29989050  0.12278650  0.13578700  1
  F  F52  1  0.19237400  0.37663400  0.85512100  1
  F  F53  1  0.79989050  0.37721350  0.63578700  1
  F  F54  1  0.19237400  0.62336600  0.35512100  1
  F  F55  1  0.79989050  0.62278650  0.13578700  1
