# generated using pymatgen
data_Ni3OF5
_symmetry_space_group_name_H-M   'P 1'
_cell_length_a   6.58578184
_cell_length_b   6.67647960
_cell_length_c   9.28347500
_cell_angle_alpha   90.00000000
_cell_angle_beta   90.00000000
_cell_angle_gamma   90.00000000
_symmetry_Int_Tables_number   1
_chemical_formula_structural   Ni3OF5
_chemical_formula_sum   'Ni12 O4 F20'
_cell_volume   408.19289313
_cell_formula_units_Z   4
loop_
 _symmetry_equiv_pos_site_id
 _symmetry_equiv_pos_as_xyz
  1  'x, y, z'
loop_
 _atom_site_type_symbol
 _atom_site_label
 _atom_site_symmetry_multiplicity
 _atom_site_fract_x
 _atom_site_fract_y
 _atom_site_fract_z
 _atom_site_occupancy
  Ni  Ni0  1  0.00789350  0.00000000  0.17020650  1
  Ni  Ni1  1  0.00086050  0.00000000  0.50000000  1
  Ni  Ni2  1  0.00789350  0.00000000  0.82979350  1
  Ni  Ni3  1  0.48843250  0.00000000  0.66690550  1
  Ni  Ni4  1  0.50709700  0.00000000  0.00000000  1
  Ni  Ni5  1  0.48843250  0.00000000  0.33309450  1
  Ni  Ni6  1  0.50789350  0.50000000  0.17020650  1
  Ni  Ni7  1  0.50086050  0.50000000  0.50000000  1
  Ni  Ni8  1  0.50789350  0.50000000  0.82979350  1
  Ni  Ni9  1  0.98843250  0.50000000  0.66690550  1
  Ni  Ni10  1  0.00709700  0.50000000  0.00000000  1
  Ni  Ni11  1  0.98843250  0.50000000  0.33309450  1
  O  O12  1  0.19531600  0.00000000  0.66785550  1
  O  O13  1  0.19531600  0.00000000  0.33214450  1
  O  O14  1  0.69531600  0.50000000  0.66785550  1
  O  O15  1  0.69531600  0.50000000  0.33214450  1
  F  F16  1  0.20237850  0.00000000  0.00000000  1
  F  F17  1  0.50167850  0.80316650  0.83328150  1
  F  F18  1  0.49757300  0.80287400  0.50000000  1
  F  F19  1  0.50167850  0.80316650  0.16671850  1
  F  F20  1  0.50167850  0.19683350  0.83328150  1
  F  F21  1  0.49757300  0.19712600  0.50000000  1
  F  F22  1  0.50167850  0.19683350  0.16671850  1
  F  F23  1  0.81226350  0.00000000  0.00000000  1
  F  F24  1  0.79548550  0.00000000  0.66637950  1
  F  F25  1  0.79548550  0.00000000  0.33362050  1
  F  F26  1  0.70237850  0.50000000  0.00000000  1
  F  F27  1  0.00167850  0.30316650  0.83328150  1
  F  F28  1  0.99757300  0.30287400  0.50000000  1
  F  F29  1  0.00167850  0.30316650  0.16671850  1
  F  F30  1  0.00167850  0.69683350  0.83328150  1
  F  F31  1  0.99757300  0.69712600  0.50000000  1
  F  F32  1  0.00167850  0.69683350  0.16671850  1
  F  F33  1  0.31226350  0.50000000  0.00000000  1
  F  F34  1  0.29548550  0.50000000  0.66637950  1
  F  F35  1  0.29548550  0.50000000  0.33362050  1
