# generated using pymatgen
data_LiV2OF5
_symmetry_space_group_name_H-M   'P 1'
_cell_length_a   8.73840636
_cell_length_b   8.73840636
_cell_length_c   4.57571300
_cell_angle_alpha   90.00000000
_cell_angle_beta   90.00000000
_cell_angle_gamma   120.00000000
_symmetry_Int_Tables_number   1
_chemical_formula_structural   LiV2OF5
_chemical_formula_sum   'Li3 V6 O3 F15'
_cell_volume   302.58951953
_cell_formula_units_Z   3
loop_
 _symmetry_equiv_pos_site_id
 _symmetry_equiv_pos_as_xyz
  1  'x, y, z'
loop_
 _atom_site_type_symbol
 _atom_site_label
 _atom_site_symmetry_multiplicity
 _atom_site_fract_x
 _atom_site_fract_y
 _atom_site_fract_z
 _atom_site_occupancy
  Li  Li0  1  0.33333333  0.66666667  0.49806100  1
  Li  Li1  1  0.00000000  0.00000000  0.97112300  1
  Li  Li2  1  0.66666667  0.33333333  0.48008000  1
  V  V3  1  0.00666333  0.66489167  0.98818700  1
  V  V4  1  0.00738433  0.31358867  0.51784700  1
  V  V5  1  0.33510833  0.34177167  0.98818700  1
  V  V6  1  0.30620433  0.99261567  0.51784700  1
  V  V7  1  0.68641133  0.69379567  0.51784700  1
  V  V8  1  0.65822833  0.99333667  0.98818700  1
  O  O9  1  0.11221133  0.87108367  0.76445700  1
  O  O10  1  0.12891633  0.24112767  0.76445700  1
  O  O11  1  0.75887233  0.88778867  0.76445700  1
  F  F12  1  0.21457533  0.76937167  0.26458900  1
  F  F13  1  0.10844033  0.54327567  0.73828600  1
  F  F14  1  0.43483533  0.89155967  0.73828600  1
  F  F15  1  0.23062833  0.44520367  0.26458900  1
  F  F16  1  0.55479633  0.78542467  0.26458900  1
  F  F17  1  0.22724233  0.11462767  0.23989800  1
  F  F18  1  0.45672433  0.56516467  0.73828600  1
  F  F19  1  0.44319133  0.22702567  0.74079600  1
  F  F20  1  0.55698133  0.45980367  0.26282800  1
  F  F21  1  0.54019633  0.09717767  0.26282800  1
  F  F22  1  0.78383433  0.55680867  0.74079600  1
  F  F23  1  0.88738533  0.77275767  0.23989800  1
  F  F24  1  0.77297433  0.21616567  0.74079600  1
  F  F25  1  0.90282233  0.44301867  0.26282800  1
  F  F26  1  0.88537233  0.11261467  0.23989800  1
