# generated using pymatgen
data_LiCoPO4
_symmetry_space_group_name_H-M   'P 1'
_cell_length_a   8.04472536
_cell_length_b   5.32417900
_cell_length_c   8.40958757
_cell_angle_alpha   90.00000000
_cell_angle_beta   105.02757649
_cell_angle_gamma   90.00000000
_symmetry_Int_Tables_number   1
_chemical_formula_structural   LiCoPO4
_chemical_formula_sum   'Li4 Co4 P4 O16'
_cell_volume   347.87745456
_cell_formula_units_Z   4
loop_
 _symmetry_equiv_pos_site_id
 _symmetry_equiv_pos_as_xyz
  1  'x, y, z'
loop_
 _atom_site_type_symbol
 _atom_site_label
 _atom_site_symmetry_multiplicity
 _atom_site_fract_x
 _atom_site_fract_y
 _atom_site_fract_z
 _atom_site_occupancy
  Li  Li0  1  0.13263400  0.34017550  0.79351400  1
  Li  Li1  1  0.13263400  0.65982450  0.29351400  1
  Li  Li2  1  0.63122100  0.83129450  0.60994100  1
  Li  Li3  1  0.63122100  0.16870550  0.10994100  1
  Co  Co4  1  0.02751000  0.15262650  0.42361000  1
  Co  Co5  1  0.50945300  0.33322350  0.72822200  1
  Co  Co6  1  0.02751000  0.84737350  0.92361000  1
  Co  Co7  1  0.50945300  0.66677650  0.22822200  1
  P  P8  1  0.74909400  0.66705650  0.98803200  1
  P  P9  1  0.74909400  0.33294350  0.48803200  1
  P  P10  1  0.26244300  0.82939050  0.67293000  1
  P  P11  1  0.26244300  0.17060950  0.17293000  1
  O  O12  1  0.12591000  0.17437150  0.00248100  1
  O  O13  1  0.12591000  0.82562850  0.50248100  1
  O  O14  1  0.67837500  0.39612550  0.94499000  1
  O  O15  1  0.67837500  0.60387450  0.44499000  1
  O  O16  1  0.18613000  0.70229750  0.80544300  1
  O  O17  1  0.18613000  0.29770250  0.30544300  1
  O  O18  1  0.30742300  0.11007850  0.72046500  1
  O  O19  1  0.30742300  0.88992150  0.22046500  1
  O  O20  1  0.77286700  0.80294450  0.83033400  1
  O  O21  1  0.77286700  0.19705550  0.33033400  1
  O  O22  1  0.42178900  0.67914250  0.65767500  1
  O  O23  1  0.42178900  0.32085750  0.15767500  1
  O  O24  1  0.62172200  0.18852650  0.56567000  1
  O  O25  1  0.62172200  0.81147350  0.06567000  1
  O  O26  1  0.93514600  0.32709250  0.60311100  1
  O  O27  1  0.93514600  0.67290750  0.10311100  1
