# generated using pymatgen
data_LiVCoO4
_symmetry_space_group_name_H-M   'P 1'
_cell_length_a   5.97496151
_cell_length_b   5.97496151
_cell_length_c   8.23799100
_cell_angle_alpha   90.00000000
_cell_angle_beta   90.00000000
_cell_angle_gamma   90.00000000
_symmetry_Int_Tables_number   1
_chemical_formula_structural   LiVCoO4
_chemical_formula_sum   'Li4 V4 Co4 O16'
_cell_volume   294.09763879
_cell_formula_units_Z   4
loop_
 _symmetry_equiv_pos_site_id
 _symmetry_equiv_pos_as_xyz
  1  'x, y, z'
loop_
 _atom_site_type_symbol
 _atom_site_label
 _atom_site_symmetry_multiplicity
 _atom_site_fract_x
 _atom_site_fract_y
 _atom_site_fract_z
 _atom_site_occupancy
  Li  Li0  1  0.50000000  0.74399600  0.00000000  1
  Li  Li1  1  0.50000000  0.25600400  0.50000000  1
  Li  Li2  1  0.74399600  0.50000000  0.25000000  1
  Li  Li3  1  0.25600400  0.50000000  0.75000000  1
  V  V4  1  0.00000000  0.28034200  0.50000000  1
  V  V5  1  0.28034200  0.00000000  0.75000000  1
  V  V6  1  0.71965800  0.00000000  0.25000000  1
  V  V7  1  0.00000000  0.71965800  0.00000000  1
  Co  Co8  1  0.75846750  0.75846750  0.62500000  1
  Co  Co9  1  0.24153250  0.75846750  0.37500000  1
  Co  Co10  1  0.75846750  0.24153250  0.87500000  1
  Co  Co11  1  0.24153250  0.24153250  0.12500000  1
  O  O12  1  0.52946900  0.77207700  0.25825200  1
  O  O13  1  0.52946900  0.22792300  0.24174800  1
  O  O14  1  0.77207700  0.52946900  0.99174800  1
  O  O15  1  0.77207700  0.47053100  0.50825200  1
  O  O16  1  0.22792300  0.52946900  0.00825200  1
  O  O17  1  0.22792300  0.47053100  0.49174800  1
  O  O18  1  0.47053100  0.77207700  0.74174800  1
  O  O19  1  0.47053100  0.22792300  0.75825200  1
  O  O20  1  0.76909900  0.98510700  0.02275000  1
  O  O21  1  0.76909900  0.01489300  0.47725000  1
  O  O22  1  0.98510700  0.76909900  0.22725000  1
  O  O23  1  0.98510700  0.23090100  0.27275000  1
  O  O24  1  0.01489300  0.76909900  0.77275000  1
  O  O25  1  0.01489300  0.23090100  0.72725000  1
  O  O26  1  0.23090100  0.01489300  0.52275000  1
  O  O27  1  0.23090100  0.98510700  0.97725000  1
