# generated using pymatgen
data_LiFeSiO4
_symmetry_space_group_name_H-M   'P 1'
_cell_length_a   5.42022900
_cell_length_b   6.16756100
_cell_length_c   10.69410099
_cell_angle_alpha   90.00000000
_cell_angle_beta   109.77048024
_cell_angle_gamma   90.00000000
_symmetry_Int_Tables_number   1
_chemical_formula_structural   LiFeSiO4
_chemical_formula_sum   'Li4 Fe4 Si4 O16'
_cell_volume   336.42669874
_cell_formula_units_Z   4
loop_
 _symmetry_equiv_pos_site_id
 _symmetry_equiv_pos_as_xyz
  1  'x, y, z'
loop_
 _atom_site_type_symbol
 _atom_site_label
 _atom_site_symmetry_multiplicity
 _atom_site_fract_x
 _atom_site_fract_y
 _atom_site_fract_z
 _atom_site_occupancy
  Li  Li0  1  0.46510100  0.91972600  0.22093800  1
  Li  Li1  1  0.53489900  0.41972600  0.27906200  1
  Li  Li2  1  0.46510100  0.58027400  0.72093800  1
  Li  Li3  1  0.53489900  0.08027400  0.77906200  1
  Fe  Fe4  1  0.94337100  0.85089000  0.60482200  1
  Fe  Fe5  1  0.05662900  0.35089000  0.89517800  1
  Fe  Fe6  1  0.94337100  0.64911000  0.10482200  1
  Fe  Fe7  1  0.05662900  0.14911000  0.39517800  1
  Si  Si8  1  0.11562800  0.86158500  0.86939000  1
  Si  Si9  1  0.88437200  0.36158500  0.63061000  1
  Si  Si10  1  0.11562800  0.63841500  0.36939000  1
  Si  Si11  1  0.88437200  0.13841500  0.13061000  1
  O  O12  1  0.27551000  0.83990800  0.76034200  1
  O  O13  1  0.18620800  0.37056100  0.74110100  1
  O  O14  1  0.21162200  0.07924100  0.95973800  1
  O  O15  1  0.15214300  0.64644400  0.96843500  1
  O  O16  1  0.84785700  0.14644400  0.53156500  1
  O  O17  1  0.78837800  0.57924100  0.54026200  1
  O  O18  1  0.27551000  0.66009200  0.26034200  1
  O  O19  1  0.18620800  0.12943900  0.24110100  1
  O  O20  1  0.81379200  0.87056100  0.75889900  1
  O  O21  1  0.72449000  0.33990800  0.73965800  1
  O  O22  1  0.21162200  0.42075900  0.45973800  1
  O  O23  1  0.15214300  0.85355600  0.46843500  1
  O  O24  1  0.84785700  0.35355600  0.03156500  1
  O  O25  1  0.78837800  0.92075900  0.04026200  1
  O  O26  1  0.81379200  0.62943900  0.25889900  1
  O  O27  1  0.72449000  0.16009200  0.23965800  1
