# generated using pymatgen
data_Li2Mn(PO4)2
_symmetry_space_group_name_H-M   'P 1'
_cell_length_a   4.66156681
_cell_length_b   4.96179076
_cell_length_c   7.09939942
_cell_angle_alpha   89.58740422
_cell_angle_beta   97.45867404
_cell_angle_gamma   116.54700314
_symmetry_Int_Tables_number   1
_chemical_formula_structural   Li2Mn(PO4)2
_chemical_formula_sum   'Li2 Mn1 P2 O8'
_cell_volume   145.41230630
_cell_formula_units_Z   1
loop_
 _symmetry_equiv_pos_site_id
 _symmetry_equiv_pos_as_xyz
  1  'x, y, z'
loop_
 _atom_site_type_symbol
 _atom_site_label
 _atom_site_symmetry_multiplicity
 _atom_site_fract_x
 _atom_site_fract_y
 _atom_site_fract_z
 _atom_site_occupancy
  Li  Li0  1  0.71170250  0.20818925  0.15098300  1
  Li  Li1  1  0.28829750  0.79181075  0.84901700  1
  Mn  Mn2  1  0.50000000  0.50000000  0.50000000  1
  P  P3  1  0.89245325  0.15745625  0.71162900  1
  P  P4  1  0.10754675  0.84254375  0.28837100  1
  O  O5  1  0.76400150  0.14980775  0.89722500  1
  O  O6  1  0.23599850  0.85019225  0.10277500  1
  O  O7  1  0.71885200  0.26339675  0.54869400  1
  O  O8  1  0.28114800  0.73660325  0.45130600  1
  O  O9  1  0.14831850  0.16601425  0.34380400  1
  O  O10  1  0.85168150  0.83398575  0.65619600  1
  O  O11  1  0.26619825  0.37885275  0.72967400  1
  O  O12  1  0.73380175  0.62114725  0.27032600  1
