# generated using pymatgen
data_Na7(CuO3)2
_symmetry_space_group_name_H-M   'P 1'
_cell_length_a   14.56228200
_cell_length_b   5.76322000
_cell_length_c   10.72614717
_cell_angle_alpha   90.00000000
_cell_angle_beta   104.74710577
_cell_angle_gamma   90.00000000
_symmetry_Int_Tables_number   1
_chemical_formula_structural   Na7(CuO3)2
_chemical_formula_sum   'Na28 Cu8 O24'
_cell_volume   870.54508424
_cell_formula_units_Z   4
loop_
 _symmetry_equiv_pos_site_id
 _symmetry_equiv_pos_as_xyz
  1  'x, y, z'
loop_
 _atom_site_type_symbol
 _atom_site_label
 _atom_site_symmetry_multiplicity
 _atom_site_fract_x
 _atom_site_fract_y
 _atom_site_fract_z
 _atom_site_occupancy
  Na  Na0  1  0.94076900  0.63691400  0.84898500  1
  Na  Na1  1  0.83271000  0.40637400  0.59453700  1
  Na  Na2  1  0.94076900  0.36308600  0.34898500  1
  Na  Na3  1  0.77620400  0.96492800  0.69641800  1
  Na  Na4  1  0.83271000  0.59362600  0.09453700  1
  Na  Na5  1  0.72379600  0.46492800  0.80358200  1
  Na  Na6  1  0.77620400  0.03507200  0.19641800  1
  Na  Na7  1  0.66729000  0.90637400  0.90546300  1
  Na  Na8  1  0.72379600  0.53507200  0.30358200  1
  Na  Na9  1  0.55923100  0.13691400  0.65101500  1
  Na  Na10  1  0.66729000  0.09362600  0.40546300  1
  Na  Na11  1  0.00000000  0.06931900  0.75000000  1
  Na  Na12  1  0.55923100  0.86308600  0.15101500  1
  Na  Na13  1  0.00000000  0.93068100  0.25000000  1
  Na  Na14  1  0.44076900  0.13691400  0.84898500  1
  Na  Na15  1  0.33271000  0.90637400  0.59453700  1
  Na  Na16  1  0.44076900  0.86308600  0.34898500  1
  Na  Na17  1  0.27620400  0.46492800  0.69641800  1
  Na  Na18  1  0.33271000  0.09362600  0.09453700  1
  Na  Na19  1  0.22379600  0.96492800  0.80358200  1
  Na  Na20  1  0.27620400  0.53507200  0.19641800  1
  Na  Na21  1  0.16729000  0.40637400  0.90546300  1
  Na  Na22  1  0.22379600  0.03507200  0.30358200  1
  Na  Na23  1  0.05923100  0.63691400  0.65101500  1
  Na  Na24  1  0.16729000  0.59362600  0.40546300  1
  Na  Na25  1  0.50000000  0.56931900  0.75000000  1
  Na  Na26  1  0.05923100  0.36308600  0.15101500  1
  Na  Na27  1  0.50000000  0.43068100  0.25000000  1
  Cu  Cu28  1  0.87656550  0.12046050  0.96100600  1
  Cu  Cu29  1  0.87656550  0.87953950  0.46100600  1
  Cu  Cu30  1  0.62343450  0.62046050  0.53899400  1
  Cu  Cu31  1  0.62343450  0.37953950  0.03899400  1
  Cu  Cu32  1  0.37656550  0.62046050  0.96100600  1
  Cu  Cu33  1  0.37656550  0.37953950  0.46100600  1
  Cu  Cu34  1  0.12343450  0.12046050  0.53899400  1
  Cu  Cu35  1  0.12343450  0.87953950  0.03899400  1
  O  O36  1  0.90263350  0.77104550  0.62764800  1
  O  O37  1  0.87829650  0.27096750  0.80887700  1
  O  O38  1  0.90263350  0.22895450  0.12764800  1
  O  O39  1  0.82615200  0.82616600  0.91779900  1
  O  O40  1  0.87829650  0.72903250  0.30887700  1
  O  O41  1  0.67384800  0.32616600  0.58220100  1
  O  O42  1  0.82615200  0.17383400  0.41779900  1
  O  O43  1  0.62170350  0.77096750  0.69112300  1
  O  O44  1  0.67384800  0.67383400  0.08220100  1
  O  O45  1  0.59736650  0.27104550  0.87235200  1
  O  O46  1  0.62170350  0.22903250  0.19112300  1
  O  O47  1  0.59736650  0.72895450  0.37235200  1
  O  O48  1  0.40263350  0.27104550  0.62764800  1
  O  O49  1  0.37829650  0.77096750  0.80887700  1
  O  O50  1  0.40263350  0.72895450  0.12764800  1
  O  O51  1  0.32615200  0.32616600  0.91779900  1
  O  O52  1  0.37829650  0.22903250  0.30887700  1
  O  O53  1  0.17384800  0.82616600  0.58220100  1
  O  O54  1  0.32615200  0.67383400  0.41779900  1
  O  O55  1  0.12170350  0.27096750  0.69112300  1
  O  O56  1  0.17384800  0.17383400  0.08220100  1
  O  O57  1  0.09736650  0.77104550  0.87235200  1
  O  O58  1  0.12170350  0.72903250  0.19112300  1
  O  O59  1  0.09736650  0.22895450  0.37235200  1
