# generated using pymatgen
data_Cr(CoO3)2
_symmetry_space_group_name_H-M   'P 1'
_cell_length_a   12.61617200
_cell_length_b   2.84744600
_cell_length_c   5.79993458
_cell_angle_alpha   90.00000000
_cell_angle_beta   103.72364425
_cell_angle_gamma   90.00000000
_symmetry_Int_Tables_number   1
_chemical_formula_structural   Cr(CoO3)2
_chemical_formula_sum   'Cr2 Co4 O12'
_cell_volume   202.40779216
_cell_formula_units_Z   2
loop_
 _symmetry_equiv_pos_site_id
 _symmetry_equiv_pos_as_xyz
  1  'x, y, z'
loop_
 _atom_site_type_symbol
 _atom_site_label
 _atom_site_symmetry_multiplicity
 _atom_site_fract_x
 _atom_site_fract_y
 _atom_site_fract_z
 _atom_site_occupancy
  Cr  Cr0  1  0.00000000  0.00000000  0.50000000  1
  Cr  Cr1  1  0.50000000  0.50000000  0.50000000  1
  Co  Co2  1  0.16771000  0.50000000  0.83833200  1
  Co  Co3  1  0.33229000  0.00000000  0.16166800  1
  Co  Co4  1  0.66771000  0.00000000  0.83833200  1
  Co  Co5  1  0.83229000  0.50000000  0.16166800  1
  O  O6  1  0.15949600  0.00000000  0.62126500  1
  O  O7  1  0.48608800  0.00000000  0.27218200  1
  O  O8  1  0.31991200  0.50000000  0.94755500  1
  O  O9  1  0.01391200  0.50000000  0.72781800  1
  O  O10  1  0.34050400  0.50000000  0.37873500  1
  O  O11  1  0.18008800  0.00000000  0.05244500  1
  O  O12  1  0.65949600  0.50000000  0.62126500  1
  O  O13  1  0.98608800  0.50000000  0.27218200  1
  O  O14  1  0.81991200  0.00000000  0.94755500  1
  O  O15  1  0.51391200  0.00000000  0.72781800  1
  O  O16  1  0.84050400  0.00000000  0.37873500  1
  O  O17  1  0.68008800  0.50000000  0.05244500  1
