# generated using pymatgen
data_Li4V3Cu3(SbO8)2
_symmetry_space_group_name_H-M   'P 1'
_cell_length_a   5.92769524
_cell_length_b   5.96750277
_cell_length_c   9.81626354
_cell_angle_alpha   92.65487833
_cell_angle_beta   90.38818833
_cell_angle_gamma   118.76715451
_symmetry_Int_Tables_number   1
_chemical_formula_structural   Li4V3Cu3(SbO8)2
_chemical_formula_sum   'Li4 V3 Cu3 Sb2 O16'
_cell_volume   303.88678004
_cell_formula_units_Z   1
loop_
 _symmetry_equiv_pos_site_id
 _symmetry_equiv_pos_as_xyz
  1  'x, y, z'
loop_
 _atom_site_type_symbol
 _atom_site_label
 _atom_site_symmetry_multiplicity
 _atom_site_fract_x
 _atom_site_fract_y
 _atom_site_fract_z
 _atom_site_occupancy
  Li  Li0  1  0.32888800  0.66953700  0.91065900  1
  Li  Li1  1  0.00679400  0.01131500  0.99242200  1
  Li  Li2  1  0.99665000  0.99819100  0.47976700  1
  Li  Li3  1  0.65901200  0.30644400  0.40072000  1
  V  V4  1  0.17629500  0.34852800  0.22199500  1
  V  V5  1  0.82647700  0.17557900  0.72006600  1
  V  V6  1  0.33872300  0.18355700  0.71072900  1
  Cu  Cu7  1  0.65849500  0.82933100  0.20819500  1
  Cu  Cu8  1  0.16863000  0.82837300  0.20878600  1
  Cu  Cu9  1  0.82912700  0.66297600  0.70887800  1
  Sb  Sb10  1  0.34140700  0.66827300  0.48488800  1
  Sb  Sb11  1  0.67018700  0.34559900  0.99275600  1
  O  O12  1  0.67942000  0.84154500  0.59127500  1
  O  O13  1  0.47646800  0.94125700  0.34665400  1
  O  O14  1  0.32084000  0.64075600  0.11543200  1
  O  O15  1  0.00436000  0.01124600  0.29065400  1
  O  O16  1  0.99746700  0.01306200  0.79891000  1
  O  O17  1  0.20098200  0.86904200  0.59469800  1
  O  O18  1  0.45472000  0.46840100  0.35972200  1
  O  O19  1  0.02445700  0.47959800  0.36114000  1
  O  O20  1  0.83871700  0.69172000  0.08457100  1
  O  O21  1  0.17110700  0.34174500  0.60767800  1
  O  O22  1  0.95628100  0.47805100  0.84522100  1
  O  O23  1  0.48185200  0.45051400  0.84422000  1
  O  O24  1  0.66807300  0.31504000  0.61006000  1
  O  O25  1  0.85327000  0.19756900  0.08891100  1
  O  O26  1  0.52724200  0.04213000  0.83940600  1
  O  O27  1  0.34435800  0.19062000  0.08942500  1
