# generated using pymatgen
data_LiVP2O7
_symmetry_space_group_name_H-M   'P 1'
_cell_length_a   6.53586813
_cell_length_b   8.40453448
_cell_length_c   9.07597226
_cell_angle_alpha   90.00000000
_cell_angle_beta   102.75037146
_cell_angle_gamma   90.00000000
_symmetry_Int_Tables_number   1
_chemical_formula_structural   LiVP2O7
_chemical_formula_sum   'Li4 V4 P8 O28'
_cell_volume   486.25774969
_cell_formula_units_Z   4
loop_
 _symmetry_equiv_pos_site_id
 _symmetry_equiv_pos_as_xyz
  1  'x, y, z'
loop_
 _atom_site_type_symbol
 _atom_site_label
 _atom_site_symmetry_multiplicity
 _atom_site_fract_x
 _atom_site_fract_y
 _atom_site_fract_z
 _atom_site_occupancy
  Li  Li0  1  0.51613900  0.80214700  0.49255100  1
  Li  Li1  1  0.51613900  0.19785300  0.99255100  1
  Li  Li2  1  0.01613900  0.30214700  0.49255100  1
  Li  Li3  1  0.01613900  0.69785300  0.99255100  1
  V  V4  1  0.49810650  0.82310700  0.00285700  1
  V  V5  1  0.49810650  0.17689300  0.50285700  1
  V  V6  1  0.99810650  0.32310700  0.00285700  1
  V  V7  1  0.99810650  0.67689300  0.50285700  1
  P  P8  1  0.21381800  0.99715500  0.70288150  1
  P  P9  1  0.21381800  0.00284500  0.20288150  1
  P  P10  1  0.77942350  0.00736900  0.79919450  1
  P  P11  1  0.77942350  0.99263100  0.29919450  1
  P  P12  1  0.71381800  0.49715500  0.70288150  1
  P  P13  1  0.71381800  0.50284500  0.20288150  1
  P  P14  1  0.27942350  0.50736900  0.79919450  1
  P  P15  1  0.27942350  0.49263100  0.29919450  1
  O  O16  1  0.19376450  0.84437350  0.60867500  1
  O  O17  1  0.19376450  0.15562650  0.10867500  1
  O  O18  1  0.24510650  0.14387550  0.60916750  1
  O  O19  1  0.24510650  0.85612450  0.10916750  1
  O  O20  1  0.38086850  0.98941350  0.85134550  1
  O  O21  1  0.38086850  0.01058650  0.35134550  1
  O  O22  1  0.50463900  0.52021650  0.75910650  1
  O  O23  1  0.50463900  0.47978350  0.25910650  1
  O  O24  1  0.62802450  0.99928800  0.64313700  1
  O  O25  1  0.62802450  0.00071200  0.14313700  1
  O  O26  1  0.77089350  0.16217950  0.88740850  1
  O  O27  1  0.77089350  0.83782050  0.38740850  1
  O  O28  1  0.76870700  0.85680700  0.89313050  1
  O  O29  1  0.76870700  0.14319300  0.39313050  1
  O  O30  1  0.69376450  0.34437350  0.60867500  1
  O  O31  1  0.69376450  0.65562650  0.10867500  1
  O  O32  1  0.74510650  0.64387550  0.60916750  1
  O  O33  1  0.74510650  0.35612450  0.10916750  1
  O  O34  1  0.88086850  0.48941350  0.85134550  1
  O  O35  1  0.88086850  0.51058650  0.35134550  1
  O  O36  1  0.00463900  0.02021650  0.75910650  1
  O  O37  1  0.00463900  0.97978350  0.25910650  1
  O  O38  1  0.12802450  0.49928800  0.64313700  1
  O  O39  1  0.12802450  0.50071200  0.14313700  1
  O  O40  1  0.27089350  0.66217950  0.88740850  1
  O  O41  1  0.27089350  0.33782050  0.38740850  1
  O  O42  1  0.26870700  0.35680700  0.89313050  1
  O  O43  1  0.26870700  0.64319300  0.39313050  1
