# generated using pymatgen
data_V6O7F5
_symmetry_space_group_name_H-M   'P 1'
_cell_length_a   6.46707400
_cell_length_b   6.97000800
_cell_length_c   9.14497500
_cell_angle_alpha   90.00000000
_cell_angle_beta   90.00000000
_cell_angle_gamma   90.00000000
_symmetry_Int_Tables_number   1
_chemical_formula_structural   V6O7F5
_chemical_formula_sum   'V12 O14 F10'
_cell_volume   412.21484660
_cell_formula_units_Z   2
loop_
 _symmetry_equiv_pos_site_id
 _symmetry_equiv_pos_as_xyz
  1  'x, y, z'
loop_
 _atom_site_type_symbol
 _atom_site_label
 _atom_site_symmetry_multiplicity
 _atom_site_fract_x
 _atom_site_fract_y
 _atom_site_fract_z
 _atom_site_occupancy
  V  V0  1  0.50000000  0.48974400  0.34073700  1
  V  V1  1  0.50000000  0.48974400  0.65926300  1
  V  V2  1  0.50000000  0.49940200  0.00000000  1
  V  V3  1  0.50000000  0.03101100  0.50000000  1
  V  V4  1  0.50000000  0.99681100  0.16779400  1
  V  V5  1  0.50000000  0.99681100  0.83220600  1
  V  V6  1  0.00000000  0.98974400  0.34073700  1
  V  V7  1  0.00000000  0.98974400  0.65926300  1
  V  V8  1  0.00000000  0.99940200  0.00000000  1
  V  V9  1  0.00000000  0.53101100  0.50000000  1
  V  V10  1  0.00000000  0.49681100  0.16779400  1
  V  V11  1  0.00000000  0.49681100  0.83220600  1
  O  O12  1  0.50000000  0.30168200  0.50000000  1
  O  O13  1  0.30284850  0.00317150  0.33911700  1
  O  O14  1  0.30284850  0.00317150  0.66088300  1
  O  O15  1  0.29978900  0.99745900  0.00000000  1
  O  O16  1  0.69715150  0.00317150  0.33911700  1
  O  O17  1  0.69715150  0.00317150  0.66088300  1
  O  O18  1  0.70021100  0.99745900  0.00000000  1
  O  O19  1  0.00000000  0.80168200  0.50000000  1
  O  O20  1  0.80284850  0.50317150  0.33911700  1
  O  O21  1  0.80284850  0.50317150  0.66088300  1
  O  O22  1  0.79978900  0.49745900  0.00000000  1
  O  O23  1  0.19715150  0.50317150  0.33911700  1
  O  O24  1  0.19715150  0.50317150  0.66088300  1
  O  O25  1  0.20021100  0.49745900  0.00000000  1
  F  F26  1  0.50000000  0.30098500  0.83339900  1
  F  F27  1  0.50000000  0.30098500  0.16660100  1
  F  F28  1  0.50000000  0.69824100  0.50000000  1
  F  F29  1  0.50000000  0.69348900  0.16931300  1
  F  F30  1  0.50000000  0.69348900  0.83068700  1
  F  F31  1  0.00000000  0.80098500  0.83339900  1
  F  F32  1  0.00000000  0.80098500  0.16660100  1
  F  F33  1  0.00000000  0.19824100  0.50000000  1
  F  F34  1  0.00000000  0.19348900  0.16931300  1
  F  F35  1  0.00000000  0.19348900  0.83068700  1
