# generated using pymatgen
data_Ti2Mn3Co3O16
_symmetry_space_group_name_H-M   'P 1'
_cell_length_a   9.82141800
_cell_length_b   5.69767000
_cell_length_c   9.02587284
_cell_angle_alpha   90.00000000
_cell_angle_beta   90.80770803
_cell_angle_gamma   90.00000000
_symmetry_Int_Tables_number   1
_chemical_formula_structural   Ti2Mn3Co3O16
_chemical_formula_sum   'Ti4 Mn6 Co6 O32'
_cell_volume   505.03042521
_cell_formula_units_Z   2
loop_
 _symmetry_equiv_pos_site_id
 _symmetry_equiv_pos_as_xyz
  1  'x, y, z'
loop_
 _atom_site_type_symbol
 _atom_site_label
 _atom_site_symmetry_multiplicity
 _atom_site_fract_x
 _atom_site_fract_y
 _atom_site_fract_z
 _atom_site_occupancy
  Ti  Ti0  1  0.33479900  0.00000000  0.50486200  1
  Ti  Ti1  1  0.66674000  0.00000000  0.00318400  1
  Ti  Ti2  1  0.83479900  0.50000000  0.50486200  1
  Ti  Ti3  1  0.16674000  0.50000000  0.00318400  1
  Mn  Mn4  1  0.16720100  0.00000000  0.78654700  1
  Mn  Mn5  1  0.58359000  0.24779000  0.28611600  1
  Mn  Mn6  1  0.58359000  0.75221000  0.28611600  1
  Mn  Mn7  1  0.66720100  0.50000000  0.78654700  1
  Mn  Mn8  1  0.08359000  0.74779000  0.28611600  1
  Mn  Mn9  1  0.08359000  0.25221000  0.28611600  1
  Co  Co10  1  0.41493200  0.24777300  0.78770700  1
  Co  Co11  1  0.41493200  0.75222700  0.78770700  1
  Co  Co12  1  0.83155100  0.00000000  0.28817200  1
  Co  Co13  1  0.91493200  0.74777300  0.78770700  1
  Co  Co14  1  0.91493200  0.25222700  0.78770700  1
  Co  Co15  1  0.33155100  0.50000000  0.28817200  1
  O  O16  1  0.41574950  0.25415450  0.39890200  1
  O  O17  1  0.47998000  0.00000000  0.67213300  1
  O  O18  1  0.33438200  0.00000000  0.89563400  1
  O  O19  1  0.99732500  0.00000000  0.68303800  1
  O  O20  1  0.99857000  0.00000000  0.18144500  1
  O  O21  1  0.41574950  0.74584550  0.39890200  1
  O  O22  1  0.26088850  0.22287750  0.66668000  1
  O  O23  1  0.26088850  0.77712250  0.66668000  1
  O  O24  1  0.83730200  0.00000000  0.89477500  1
  O  O25  1  0.16726400  0.00000000  0.40184900  1
  O  O26  1  0.74296650  0.21934150  0.16737700  1
  O  O27  1  0.74296650  0.78065850  0.16737700  1
  O  O28  1  0.66665800  0.00000000  0.39679300  1
  O  O29  1  0.58199900  0.24926800  0.89954300  1
  O  O30  1  0.51812600  0.00000000  0.16330400  1
  O  O31  1  0.58199900  0.75073200  0.89954300  1
  O  O32  1  0.91574950  0.75415450  0.39890200  1
  O  O33  1  0.97998000  0.50000000  0.67213300  1
  O  O34  1  0.83438200  0.50000000  0.89563400  1
  O  O35  1  0.49732500  0.50000000  0.68303800  1
  O  O36  1  0.49857000  0.50000000  0.18144500  1
  O  O37  1  0.91574950  0.24584550  0.39890200  1
  O  O38  1  0.76088850  0.72287750  0.66668000  1
  O  O39  1  0.76088850  0.27712250  0.66668000  1
  O  O40  1  0.33730200  0.50000000  0.89477500  1
  O  O41  1  0.66726400  0.50000000  0.40184900  1
  O  O42  1  0.24296650  0.71934150  0.16737700  1
  O  O43  1  0.24296650  0.28065850  0.16737700  1
  O  O44  1  0.16665800  0.50000000  0.39679300  1
  O  O45  1  0.08199900  0.74926800  0.89954300  1
  O  O46  1  0.01812600  0.50000000  0.16330400  1
  O  O47  1  0.08199900  0.25073200  0.89954300  1
