# generated using pymatgen
data_Li3Mn2NiO6
_symmetry_space_group_name_H-M   'P 1'
_cell_length_a   12.71954786
_cell_length_b   2.99779840
_cell_length_c   5.98133275
_cell_angle_alpha   90.00000000
_cell_angle_beta   103.86378742
_cell_angle_gamma   90.00000000
_symmetry_Int_Tables_number   1
_chemical_formula_structural   Li3Mn2NiO6
_chemical_formula_sum   'Li6 Mn4 Ni2 O12'
_cell_volume   221.42787925
_cell_formula_units_Z   2
loop_
 _symmetry_equiv_pos_site_id
 _symmetry_equiv_pos_as_xyz
  1  'x, y, z'
loop_
 _atom_site_type_symbol
 _atom_site_label
 _atom_site_symmetry_multiplicity
 _atom_site_fract_x
 _atom_site_fract_y
 _atom_site_fract_z
 _atom_site_occupancy
  Li  Li0  1  0.50000000  0.00000000  0.50000000  1
  Li  Li1  1  0.66362900  0.50000000  0.83493900  1
  Li  Li2  1  0.33637100  0.50000000  0.16506100  1
  Li  Li3  1  0.00000000  0.50000000  0.50000000  1
  Li  Li4  1  0.16362900  0.00000000  0.83493900  1
  Li  Li5  1  0.83637100  0.00000000  0.16506100  1
  Mn  Mn6  1  0.66497800  0.50000000  0.32810000  1
  Mn  Mn7  1  0.33502200  0.50000000  0.67190000  1
  Mn  Mn8  1  0.16497800  0.00000000  0.32810000  1
  Mn  Mn9  1  0.83502200  0.00000000  0.67190000  1
  Ni  Ni10  1  0.50000000  0.00000000  0.00000000  1
  Ni  Ni11  1  0.00000000  0.50000000  0.00000000  1
  O  O12  1  0.16836900  0.50000000  0.10509200  1
  O  O13  1  0.33163100  0.00000000  0.89490800  1
  O  O14  1  0.32526150  0.00000000  0.42959100  1
  O  O15  1  0.17473850  0.50000000  0.57040900  1
  O  O16  1  0.48860750  0.50000000  0.74981100  1
  O  O17  1  0.51139250  0.50000000  0.25018900  1
  O  O18  1  0.66836900  0.00000000  0.10509200  1
  O  O19  1  0.83163100  0.50000000  0.89490800  1
  O  O20  1  0.82526150  0.50000000  0.42959100  1
  O  O21  1  0.67473850  0.00000000  0.57040900  1
  O  O22  1  0.98860750  0.00000000  0.74981100  1
  O  O23  1  0.01139250  0.00000000  0.25018900  1
