# generated using pymatgen
data_CePrO2
_symmetry_space_group_name_H-M   'P 1'
_cell_length_a   5.04815600
_cell_length_b   5.04815600
_cell_length_c   10.08170000
_cell_angle_alpha   90.00000000
_cell_angle_beta   90.00000000
_cell_angle_gamma   90.00000000
_symmetry_Int_Tables_number   1
_chemical_formula_structural   CePrO2
_chemical_formula_sum   'Ce4 Pr4 O8'
_cell_volume   256.92082292
_cell_formula_units_Z   4
loop_
 _symmetry_equiv_pos_site_id
 _symmetry_equiv_pos_as_xyz
  1  'x, y, z'
loop_
 _atom_site_type_symbol
 _atom_site_label
 _atom_site_symmetry_multiplicity
 _atom_site_fract_x
 _atom_site_fract_y
 _atom_site_fract_z
 _atom_site_occupancy
  Ce  Ce0  1  0.50000000  0.50000000  0.00000000  1
  Ce  Ce1  1  0.50000000  0.00000000  0.25000000  1
  Ce  Ce2  1  0.00000000  0.00000000  0.50000000  1
  Ce  Ce3  1  0.00000000  0.50000000  0.75000000  1
  Pr  Pr4  1  0.00000000  0.00000000  0.00000000  1
  Pr  Pr5  1  0.00000000  0.50000000  0.25000000  1
  Pr  Pr6  1  0.50000000  0.50000000  0.50000000  1
  Pr  Pr7  1  0.50000000  0.00000000  0.75000000  1
  O  O8  1  0.00000000  0.00000000  0.25216100  1
  O  O9  1  0.50000000  0.00000000  0.49783900  1
  O  O10  1  0.50000000  0.50000000  0.24783900  1
  O  O11  1  0.50000000  0.00000000  0.00216100  1
  O  O12  1  0.50000000  0.50000000  0.75216100  1
  O  O13  1  0.00000000  0.50000000  0.99783900  1
  O  O14  1  0.00000000  0.00000000  0.74783900  1
  O  O15  1  0.00000000  0.50000000  0.50216100  1
