# generated using pymatgen
data_Li4Cr3Co3(TeO8)2
_symmetry_space_group_name_H-M   'P 1'
_cell_length_a   10.30505800
_cell_length_b   5.94118600
_cell_length_c   9.68325336
_cell_angle_alpha   90.00000000
_cell_angle_beta   90.45128218
_cell_angle_gamma   90.00000000
_symmetry_Int_Tables_number   1
_chemical_formula_structural   Li4Cr3Co3(TeO8)2
_chemical_formula_sum   'Li8 Cr6 Co6 Te4 O32'
_cell_volume   592.83169322
_cell_formula_units_Z   2
loop_
 _symmetry_equiv_pos_site_id
 _symmetry_equiv_pos_as_xyz
  1  'x, y, z'
loop_
 _atom_site_type_symbol
 _atom_site_label
 _atom_site_symmetry_multiplicity
 _atom_site_fract_x
 _atom_site_fract_y
 _atom_site_fract_z
 _atom_site_occupancy
  Li  Li0  1  0.66707000  0.00000000  0.91070900  1
  Li  Li1  1  0.99454600  0.00000000  0.98305900  1
  Li  Li2  1  0.99769100  0.00000000  0.49277300  1
  Li  Li3  1  0.83705400  0.50000000  0.40967300  1
  Li  Li4  1  0.16707000  0.50000000  0.91070900  1
  Li  Li5  1  0.49454600  0.50000000  0.98305900  1
  Li  Li6  1  0.49769100  0.50000000  0.49277300  1
  Li  Li7  1  0.33705400  0.00000000  0.40967300  1
  Cr  Cr8  1  0.58421650  0.24546750  0.21310600  1
  Cr  Cr9  1  0.58421650  0.75453250  0.21310600  1
  Cr  Cr10  1  0.67339500  0.50000000  0.71310500  1
  Cr  Cr11  1  0.08421650  0.74546750  0.21310600  1
  Cr  Cr12  1  0.08421650  0.25453250  0.21310600  1
  Cr  Cr13  1  0.17339500  0.00000000  0.71310500  1
  Co  Co14  1  0.82743700  0.00000000  0.21432100  1
  Co  Co15  1  0.91567650  0.74144650  0.71361900  1
  Co  Co16  1  0.91567650  0.25855350  0.71361900  1
  Co  Co17  1  0.32743700  0.50000000  0.21432100  1
  Co  Co18  1  0.41567650  0.24144650  0.71361900  1
  Co  Co19  1  0.41567650  0.75855350  0.71361900  1
  Te  Te20  1  0.67257900  0.00000000  0.48515200  1
  Te  Te21  1  0.83140100  0.50000000  0.98499900  1
  Te  Te22  1  0.17257900  0.50000000  0.48515200  1
  Te  Te23  1  0.33140100  0.00000000  0.98499900  1
  O  O24  1  0.59215600  0.24710300  0.58461400  1
  O  O25  1  0.52210400  0.00000000  0.34443200  1
  O  O26  1  0.66831100  0.00000000  0.11296800  1
  O  O27  1  0.99578000  0.00000000  0.30383600  1
  O  O28  1  0.50297100  0.50000000  0.79922300  1
  O  O29  1  0.59215600  0.75289700  0.58461400  1
  O  O30  1  0.74471300  0.21729800  0.33749000  1
  O  O31  1  0.74471300  0.78270200  0.33749000  1
  O  O32  1  0.66464700  0.50000000  0.09538000  1
  O  O33  1  0.83187300  0.00000000  0.58401300  1
  O  O34  1  0.75282150  0.71888650  0.85455200  1
  O  O35  1  0.75282150  0.28111350  0.85455200  1
  O  O36  1  0.83323600  0.50000000  0.60792800  1
  O  O37  1  0.91154200  0.75488200  0.09718500  1
  O  O38  1  0.98071700  0.50000000  0.86512600  1
  O  O39  1  0.91154200  0.24511800  0.09718500  1
  O  O40  1  0.09215600  0.74710300  0.58461400  1
  O  O41  1  0.02210400  0.50000000  0.34443200  1
  O  O42  1  0.16831100  0.50000000  0.11296800  1
  O  O43  1  0.49578000  0.50000000  0.30383600  1
  O  O44  1  0.00297100  0.00000000  0.79922300  1
  O  O45  1  0.09215600  0.25289700  0.58461400  1
  O  O46  1  0.24471300  0.71729800  0.33749000  1
  O  O47  1  0.24471300  0.28270200  0.33749000  1
  O  O48  1  0.16464700  0.00000000  0.09538000  1
  O  O49  1  0.33187300  0.50000000  0.58401300  1
  O  O50  1  0.25282150  0.21888650  0.85455200  1
  O  O51  1  0.25282150  0.78111350  0.85455200  1
  O  O52  1  0.33323600  0.00000000  0.60792800  1
  O  O53  1  0.41154200  0.25488200  0.09718500  1
  O  O54  1  0.48071700  0.00000000  0.86512600  1
  O  O55  1  0.41154200  0.74511800  0.09718500  1
