# generated using pymatgen
data_LiV(PO3)4
_symmetry_space_group_name_H-M   'P 1'
_cell_length_a   15.24716800
_cell_length_b   8.12002000
_cell_length_c   9.21905977
_cell_angle_alpha   90.00000000
_cell_angle_beta   119.30614281
_cell_angle_gamma   90.00000000
_symmetry_Int_Tables_number   1
_chemical_formula_structural   LiV(PO3)4
_chemical_formula_sum   'Li4 V4 P16 O48'
_cell_volume   995.30862416
_cell_formula_units_Z   4
loop_
 _symmetry_equiv_pos_site_id
 _symmetry_equiv_pos_as_xyz
  1  'x, y, z'
loop_
 _atom_site_type_symbol
 _atom_site_label
 _atom_site_symmetry_multiplicity
 _atom_site_fract_x
 _atom_site_fract_y
 _atom_site_fract_z
 _atom_site_occupancy
  Li  Li0  1  0.00000000  0.00000000  0.50000000  1
  Li  Li1  1  0.00000000  0.00000000  0.00000000  1
  Li  Li2  1  0.50000000  0.50000000  0.50000000  1
  Li  Li3  1  0.50000000  0.50000000  0.00000000  1
  V  V4  1  0.00000000  0.66686200  0.75000000  1
  V  V5  1  0.00000000  0.33313800  0.25000000  1
  V  V6  1  0.50000000  0.16686200  0.75000000  1
  V  V7  1  0.50000000  0.83313800  0.25000000  1
  P  P8  1  0.14101550  0.55523750  0.14009800  1
  P  P9  1  0.14809600  0.19577400  0.10678300  1
  P  P10  1  0.35190400  0.69577400  0.39321700  1
  P  P11  1  0.35898450  0.05523750  0.35990200  1
  P  P12  1  0.14101550  0.44476250  0.64009800  1
  P  P13  1  0.14809600  0.80422600  0.60678300  1
  P  P14  1  0.35190400  0.30422600  0.89321700  1
  P  P15  1  0.35898450  0.94476250  0.85990200  1
  P  P16  1  0.64101550  0.05523750  0.14009800  1
  P  P17  1  0.64809600  0.69577400  0.10678300  1
  P  P18  1  0.85190400  0.19577400  0.39321700  1
  P  P19  1  0.85898450  0.55523750  0.35990200  1
  P  P20  1  0.64101550  0.94476250  0.64009800  1
  P  P21  1  0.64809600  0.30422600  0.60678300  1
  P  P22  1  0.85190400  0.80422600  0.89321700  1
  P  P23  1  0.85898450  0.44476250  0.85990200  1
  O  O24  1  0.09452900  0.18070400  0.20975600  1
  O  O25  1  0.10605100  0.67639400  0.99818300  1
  O  O26  1  0.24085300  0.62184200  0.29257200  1
  O  O27  1  0.17510950  0.38567850  0.09170000  1
  O  O28  1  0.43062050  0.98023250  0.79647800  1
  O  O29  1  0.32489050  0.88567850  0.40830000  1
  O  O30  1  0.25914700  0.12184200  0.20742800  1
  O  O31  1  0.40589150  0.61216650  0.55708500  1
  O  O32  1  0.39394900  0.17639400  0.50181700  1
  O  O33  1  0.09410850  0.11216650  0.94291500  1
  O  O34  1  0.40547100  0.68070400  0.29024400  1
  O  O35  1  0.06937950  0.48023250  0.70352200  1
  O  O36  1  0.43062050  0.01976750  0.29647800  1
  O  O37  1  0.09452900  0.81929600  0.70975600  1
  O  O38  1  0.40589150  0.38783350  0.05708500  1
  O  O39  1  0.10605100  0.32360600  0.49818300  1
  O  O40  1  0.09410850  0.88783350  0.44291500  1
  O  O41  1  0.24085300  0.37815800  0.79257200  1
  O  O42  1  0.17510950  0.61432150  0.59170000  1
  O  O43  1  0.06937950  0.51976750  0.20352200  1
  O  O44  1  0.32489050  0.11432150  0.90830000  1
  O  O45  1  0.25914700  0.87815800  0.70742800  1
  O  O46  1  0.39394900  0.82360600  0.00181700  1
  O  O47  1  0.40547100  0.31929600  0.79024400  1
  O  O48  1  0.59452900  0.68070400  0.20975600  1
  O  O49  1  0.60605100  0.17639400  0.99818300  1
  O  O50  1  0.74085300  0.12184200  0.29257200  1
  O  O51  1  0.67510950  0.88567850  0.09170000  1
  O  O52  1  0.93062050  0.48023250  0.79647800  1
  O  O53  1  0.82489050  0.38567850  0.40830000  1
  O  O54  1  0.75914700  0.62184200  0.20742800  1
  O  O55  1  0.90589150  0.11216650  0.55708500  1
  O  O56  1  0.89394900  0.67639400  0.50181700  1
  O  O57  1  0.59410850  0.61216650  0.94291500  1
  O  O58  1  0.90547100  0.18070400  0.29024400  1
  O  O59  1  0.56937950  0.98023250  0.70352200  1
  O  O60  1  0.93062050  0.51976750  0.29647800  1
  O  O61  1  0.59452900  0.31929600  0.70975600  1
  O  O62  1  0.90589150  0.88783350  0.05708500  1
  O  O63  1  0.60605100  0.82360600  0.49818300  1
  O  O64  1  0.59410850  0.38783350  0.44291500  1
  O  O65  1  0.74085300  0.87815800  0.79257200  1
  O  O66  1  0.67510950  0.11432150  0.59170000  1
  O  O67  1  0.56937950  0.01976750  0.20352200  1
  O  O68  1  0.82489050  0.61432150  0.90830000  1
  O  O69  1  0.75914700  0.37815800  0.70742800  1
  O  O70  1  0.89394900  0.32360600  0.00181700  1
  O  O71  1  0.90547100  0.81929600  0.79024400  1
