# generated using pymatgen
data_Li4Mn3Fe(PO4)4
_symmetry_space_group_name_H-M   'P 1'
_cell_length_a   21.04280400
_cell_length_b   12.30743800
_cell_length_c   4.78815915
_cell_angle_alpha   90.00000000
_cell_angle_beta   90.24604851
_cell_angle_gamma   90.00000000
_symmetry_Int_Tables_number   1
_chemical_formula_structural   Li4Mn3Fe(PO4)4
_chemical_formula_sum   'Li16 Mn12 Fe4 P16 O64'
_cell_volume   1240.04041374
_cell_formula_units_Z   4
loop_
 _symmetry_equiv_pos_site_id
 _symmetry_equiv_pos_as_xyz
  1  'x, y, z'
loop_
 _atom_site_type_symbol
 _atom_site_label
 _atom_site_symmetry_multiplicity
 _atom_site_fract_x
 _atom_site_fract_y
 _atom_site_fract_z
 _atom_site_occupancy
  Li  Li0  1  0.62536500  0.87567600  0.49995300  1
  Li  Li1  1  0.62536500  0.12432400  0.49995300  1
  Li  Li2  1  0.12521850  0.12496050  0.49983500  1
  Li  Li3  1  0.12521850  0.87503950  0.49983500  1
  Li  Li4  1  0.37550150  0.12462350  0.00029700  1
  Li  Li5  1  0.37550150  0.87537650  0.00029700  1
  Li  Li6  1  0.87508750  0.87524950  0.99978500  1
  Li  Li7  1  0.87508750  0.12475050  0.99978500  1
  Li  Li8  1  0.12536500  0.37567600  0.49995300  1
  Li  Li9  1  0.12536500  0.62432400  0.49995300  1
  Li  Li10  1  0.62521850  0.62496050  0.49983500  1
  Li  Li11  1  0.62521850  0.37503950  0.49983500  1
  Li  Li12  1  0.87550150  0.62462350  0.00029700  1
  Li  Li13  1  0.87550150  0.37537650  0.00029700  1
  Li  Li14  1  0.37508750  0.37524950  0.99978500  1
  Li  Li15  1  0.37508750  0.62475050  0.99978500  1
  Mn  Mn16  1  0.73444800  0.75059500  0.97301600  1
  Mn  Mn17  1  0.73444800  0.24940500  0.97301600  1
  Mn  Mn18  1  0.48458800  0.24936300  0.52670400  1
  Mn  Mn19  1  0.48458800  0.75063700  0.52670400  1
  Mn  Mn20  1  0.26601300  0.00000000  0.47351900  1
  Mn  Mn21  1  0.01581200  0.00000000  0.02663900  1
  Mn  Mn22  1  0.23444800  0.25059500  0.97301600  1
  Mn  Mn23  1  0.23444800  0.74940500  0.97301600  1
  Mn  Mn24  1  0.98458800  0.74936300  0.52670400  1
  Mn  Mn25  1  0.98458800  0.25063700  0.52670400  1
  Mn  Mn26  1  0.76601300  0.50000000  0.47351900  1
  Mn  Mn27  1  0.51581200  0.50000000  0.02663900  1
  Fe  Fe28  1  0.76583000  0.00000000  0.47167000  1
  Fe  Fe29  1  0.51623600  0.00000000  0.02871100  1
  Fe  Fe30  1  0.26583000  0.50000000  0.47167000  1
  Fe  Fe31  1  0.01623600  0.50000000  0.02871100  1
  P  P32  1  0.17137200  0.00000000  0.91123100  1
  P  P33  1  0.67195400  0.00000000  0.91105400  1
  P  P34  1  0.42239700  0.00000000  0.58983300  1
  P  P35  1  0.92096700  0.00000000  0.58740000  1
  P  P36  1  0.32892650  0.74886050  0.41322600  1
  P  P37  1  0.32892650  0.25113950  0.41322600  1
  P  P38  1  0.57893700  0.75072000  0.08711700  1
  P  P39  1  0.57893700  0.24928000  0.08711700  1
  P  P40  1  0.67137200  0.50000000  0.91123100  1
  P  P41  1  0.17195400  0.50000000  0.91105400  1
  P  P42  1  0.92239700  0.50000000  0.58983300  1
  P  P43  1  0.42096700  0.50000000  0.58740000  1
  P  P44  1  0.82892650  0.24886050  0.41322600  1
  P  P45  1  0.82892650  0.75113950  0.41322600  1
  P  P46  1  0.07893700  0.25072000  0.08711700  1
  P  P47  1  0.07893700  0.74928000  0.08711700  1
  O  O48  1  0.10273300  0.00000000  0.78809100  1
  O  O49  1  0.60280300  0.00000000  0.79220000  1
  O  O50  1  0.70640750  0.89943950  0.77462300  1
  O  O51  1  0.20613900  0.89911200  0.77854800  1
  O  O52  1  0.20613900  0.10088800  0.77854800  1
  O  O53  1  0.70640750  0.10056050  0.77462300  1
  O  O54  1  0.57726350  0.74948350  0.76648400  1
  O  O55  1  0.57726350  0.25051650  0.76648400  1
  O  O56  1  0.32750550  0.24972650  0.73387600  1
  O  O57  1  0.32750550  0.75027350  0.73387600  1
  O  O58  1  0.45698400  0.89938100  0.72493200  1
  O  O59  1  0.45698400  0.10061900  0.72493200  1
  O  O60  1  0.45577100  0.39931200  0.72141200  1
  O  O61  1  0.45577100  0.60068800  0.72141200  1
  O  O62  1  0.85226200  0.00000000  0.70793400  1
  O  O63  1  0.35358800  0.00000000  0.70958000  1
  O  O64  1  0.39721700  0.74899900  0.28910800  1
  O  O65  1  0.39721700  0.25100100  0.28910800  1
  O  O66  1  0.29399400  0.15033400  0.27803200  1
  O  O67  1  0.79385100  0.14717200  0.28386100  1
  O  O68  1  0.79385100  0.85282800  0.28386100  1
  O  O69  1  0.29399400  0.84966600  0.27803200  1
  O  O70  1  0.92324400  0.00000000  0.26673200  1
  O  O71  1  0.42400400  0.00000000  0.26854500  1
  O  O72  1  0.17328600  0.00000000  0.23210500  1
  O  O73  1  0.67440600  0.00000000  0.23220800  1
  O  O74  1  0.54397750  0.14731050  0.21581200  1
  O  O75  1  0.54410050  0.65066050  0.22109400  1
  O  O76  1  0.54397750  0.85268950  0.21581200  1
  O  O77  1  0.54410050  0.34933950  0.22109400  1
  O  O78  1  0.64741350  0.75062450  0.21180800  1
  O  O79  1  0.64741350  0.24937550  0.21180800  1
  O  O80  1  0.60273300  0.50000000  0.78809100  1
  O  O81  1  0.10280300  0.50000000  0.79220000  1
  O  O82  1  0.20640750  0.39943950  0.77462300  1
  O  O83  1  0.70613900  0.39911200  0.77854800  1
  O  O84  1  0.70613900  0.60088800  0.77854800  1
  O  O85  1  0.20640750  0.60056050  0.77462300  1
  O  O86  1  0.07726350  0.24948350  0.76648400  1
  O  O87  1  0.07726350  0.75051650  0.76648400  1
  O  O88  1  0.82750550  0.74972650  0.73387600  1
  O  O89  1  0.82750550  0.25027350  0.73387600  1
  O  O90  1  0.95698400  0.39938100  0.72493200  1
  O  O91  1  0.95698400  0.60061900  0.72493200  1
  O  O92  1  0.95577100  0.89931200  0.72141200  1
  O  O93  1  0.95577100  0.10068800  0.72141200  1
  O  O94  1  0.35226200  0.50000000  0.70793400  1
  O  O95  1  0.85358800  0.50000000  0.70958000  1
  O  O96  1  0.89721700  0.24899900  0.28910800  1
  O  O97  1  0.89721700  0.75100100  0.28910800  1
  O  O98  1  0.79399400  0.65033400  0.27803200  1
  O  O99  1  0.29385100  0.64717200  0.28386100  1
  O  O100  1  0.29385100  0.35282800  0.28386100  1
  O  O101  1  0.79399400  0.34966600  0.27803200  1
  O  O102  1  0.42324400  0.50000000  0.26673200  1
  O  O103  1  0.92400400  0.50000000  0.26854500  1
  O  O104  1  0.67328600  0.50000000  0.23210500  1
  O  O105  1  0.17440600  0.50000000  0.23220800  1
  O  O106  1  0.04397750  0.64731050  0.21581200  1
  O  O107  1  0.04410050  0.15066050  0.22109400  1
  O  O108  1  0.04397750  0.35268950  0.21581200  1
  O  O109  1  0.04410050  0.84933950  0.22109400  1
  O  O110  1  0.14741350  0.25062450  0.21180800  1
  O  O111  1  0.14741350  0.74937550  0.21180800  1
