# generated using pymatgen
data_LiMnPO4
_symmetry_space_group_name_H-M   'P 1'
_cell_length_a   5.63696400
_cell_length_b   8.47439400
_cell_length_c   6.40736600
_cell_angle_alpha   90.00000000
_cell_angle_beta   90.00000000
_cell_angle_gamma   90.00000000
_symmetry_Int_Tables_number   1
_chemical_formula_structural   LiMnPO4
_chemical_formula_sum   'Li4 Mn4 P4 O16'
_cell_volume   306.07893770
_cell_formula_units_Z   4
loop_
 _symmetry_equiv_pos_site_id
 _symmetry_equiv_pos_as_xyz
  1  'x, y, z'
loop_
 _atom_site_type_symbol
 _atom_site_label
 _atom_site_symmetry_multiplicity
 _atom_site_fract_x
 _atom_site_fract_y
 _atom_site_fract_z
 _atom_site_occupancy
  Li  Li0  1  0.00000000  0.00000000  0.50000000  1
  Li  Li1  1  0.00000000  0.00000000  0.00000000  1
  Li  Li2  1  0.50000000  0.50000000  0.50000000  1
  Li  Li3  1  0.50000000  0.50000000  0.00000000  1
  Mn  Mn4  1  0.00000000  0.68171350  0.75000000  1
  Mn  Mn5  1  0.00000000  0.31828650  0.25000000  1
  Mn  Mn6  1  0.50000000  0.18171350  0.75000000  1
  Mn  Mn7  1  0.50000000  0.81828650  0.25000000  1
  P  P8  1  0.00000000  0.64886900  0.25000000  1
  P  P9  1  0.00000000  0.35113100  0.75000000  1
  P  P10  1  0.50000000  0.14886900  0.25000000  1
  P  P11  1  0.50000000  0.85113100  0.75000000  1
  O  O12  1  0.72207450  0.96200050  0.75000000  1
  O  O13  1  0.72207450  0.03799950  0.25000000  1
  O  O14  1  0.27792550  0.96200050  0.75000000  1
  O  O15  1  0.27792550  0.03799950  0.25000000  1
  O  O16  1  0.00000000  0.75774150  0.05572400  1
  O  O17  1  0.00000000  0.75774150  0.44427600  1
  O  O18  1  0.00000000  0.24225850  0.55572400  1
  O  O19  1  0.00000000  0.24225850  0.94427600  1
  O  O20  1  0.22207450  0.46200050  0.75000000  1
  O  O21  1  0.22207450  0.53799950  0.25000000  1
  O  O22  1  0.77792550  0.46200050  0.75000000  1
  O  O23  1  0.77792550  0.53799950  0.25000000  1
  O  O24  1  0.50000000  0.25774150  0.05572400  1
  O  O25  1  0.50000000  0.25774150  0.44427600  1
  O  O26  1  0.50000000  0.74225850  0.55572400  1
  O  O27  1  0.50000000  0.74225850  0.94427600  1
