# generated using pymatgen
data_Li3V2FeO6
_symmetry_space_group_name_H-M   'P 1'
_cell_length_a   13.12681084
_cell_length_b   2.97353280
_cell_length_c   5.97842297
_cell_angle_alpha   90.00000000
_cell_angle_beta   103.65912835
_cell_angle_gamma   90.00000000
_symmetry_Int_Tables_number   1
_chemical_formula_structural   Li3V2FeO6
_chemical_formula_sum   'Li6 V4 Fe2 O12'
_cell_volume   226.75598835
_cell_formula_units_Z   2
loop_
 _symmetry_equiv_pos_site_id
 _symmetry_equiv_pos_as_xyz
  1  'x, y, z'
loop_
 _atom_site_type_symbol
 _atom_site_label
 _atom_site_symmetry_multiplicity
 _atom_site_fract_x
 _atom_site_fract_y
 _atom_site_fract_z
 _atom_site_occupancy
  Li  Li0  1  0.00000000  0.00000000  0.00000000  1
  Li  Li1  1  0.16449150  0.50000000  0.33193600  1
  Li  Li2  1  0.83550850  0.50000000  0.66806400  1
  Li  Li3  1  0.50000000  0.50000000  0.00000000  1
  Li  Li4  1  0.66449150  0.00000000  0.33193600  1
  Li  Li5  1  0.33550850  0.00000000  0.66806400  1
  V  V6  1  0.16646400  0.50000000  0.83367700  1
  V  V7  1  0.83353600  0.50000000  0.16632300  1
  V  V8  1  0.66646400  0.00000000  0.83367700  1
  V  V9  1  0.33353600  0.00000000  0.16632300  1
  Fe  Fe10  1  0.00000000  0.00000000  0.50000000  1
  Fe  Fe11  1  0.50000000  0.50000000  0.50000000  1
  O  O12  1  0.16234675  0.00000000  0.59686200  1
  O  O13  1  0.83765325  0.00000000  0.40313800  1
  O  O14  1  0.83008350  0.00000000  0.92949300  1
  O  O15  1  0.66991650  0.50000000  0.07050700  1
  O  O16  1  0.99611575  0.50000000  0.26205000  1
  O  O17  1  0.00388425  0.50000000  0.73795000  1
  O  O18  1  0.66234675  0.50000000  0.59686200  1
  O  O19  1  0.33765325  0.50000000  0.40313800  1
  O  O20  1  0.33008350  0.50000000  0.92949300  1
  O  O21  1  0.16991650  0.00000000  0.07050700  1
  O  O22  1  0.49611575  0.00000000  0.26205000  1
  O  O23  1  0.50388425  0.00000000  0.73795000  1
