# generated using pymatgen
data_CrFe(PO4)2
_symmetry_space_group_name_H-M   'P 1'
_cell_length_a   8.60573000
_cell_length_b   8.60573000
_cell_length_c   20.29747002
_cell_angle_alpha   90.00000000
_cell_angle_beta   90.00000000
_cell_angle_gamma   120.00000000
_symmetry_Int_Tables_number   1
_chemical_formula_structural   CrFe(PO4)2
_chemical_formula_sum   'Cr9 Fe9 P18 O72'
_cell_volume   1301.81110702
_cell_formula_units_Z   9
loop_
 _symmetry_equiv_pos_site_id
 _symmetry_equiv_pos_as_xyz
  1  'x, y, z'
loop_
 _atom_site_type_symbol
 _atom_site_label
 _atom_site_symmetry_multiplicity
 _atom_site_fract_x
 _atom_site_fract_y
 _atom_site_fract_z
 _atom_site_occupancy
  Cr  Cr0  1  0.33333333  0.66666667  0.66555767  1
  Cr  Cr1  1  0.33333333  0.66666667  0.80883967  1
  Cr  Cr2  1  0.33333333  0.66666667  0.16723767  1
  Cr  Cr3  1  0.00000000  0.00000000  0.99889100  1
  Cr  Cr4  1  0.00000000  0.00000000  0.14217300  1
  Cr  Cr5  1  0.00000000  0.00000000  0.50057100  1
  Cr  Cr6  1  0.66666667  0.33333333  0.33222433  1
  Cr  Cr7  1  0.66666667  0.33333333  0.47550633  1
  Cr  Cr8  1  0.66666667  0.33333333  0.83390433  1
  Fe  Fe9  1  0.33333333  0.66666667  0.31364567  1
  Fe  Fe10  1  0.33333333  0.66666667  0.52023467  1
  Fe  Fe11  1  0.33333333  0.66666667  0.01963967  1
  Fe  Fe12  1  0.00000000  0.00000000  0.64697900  1
  Fe  Fe13  1  0.00000000  0.00000000  0.85356800  1
  Fe  Fe14  1  0.00000000  0.00000000  0.35297300  1
  Fe  Fe15  1  0.66666667  0.33333333  0.98031233  1
  Fe  Fe16  1  0.66666667  0.33333333  0.18690133  1
  Fe  Fe17  1  0.66666667  0.33333333  0.68630633  1
  P  P18  1  0.00076333  0.29728767  0.24949667  1
  P  P19  1  0.70271233  0.70347567  0.24949667  1
  P  P20  1  0.29652433  0.99923667  0.24949667  1
  P  P21  1  0.36771700  0.33374600  0.08394800  1
  P  P22  1  0.96602900  0.63228300  0.08394800  1
  P  P23  1  0.66625400  0.03397100  0.08394800  1
  P  P24  1  0.66743000  0.63062100  0.58283000  1
  P  P25  1  0.36937900  0.03680900  0.58283000  1
  P  P26  1  0.96319100  0.33257000  0.58283000  1
  P  P27  1  0.03438367  0.66707933  0.41728133  1
  P  P28  1  0.63269567  0.96561633  0.41728133  1
  P  P29  1  0.33292067  0.36730433  0.41728133  1
  P  P30  1  0.33409667  0.96395433  0.91616333  1
  P  P31  1  0.03604567  0.37014233  0.91616333  1
  P  P32  1  0.62985767  0.66590333  0.91616333  1
  P  P33  1  0.70105033  0.00041267  0.75061467  1
  P  P34  1  0.29936233  0.29894967  0.75061467  1
  P  P35  1  0.99958733  0.70063767  0.75061467  1
  O  O36  1  0.12684500  0.47277000  0.97876100  1
  O  O37  1  0.52723000  0.65407500  0.97876100  1
  O  O38  1  0.34592500  0.87315500  0.97876100  1
  O  O39  1  0.83283633  0.32163267  0.26109167  1
  O  O40  1  0.99221867  0.19478433  0.18769333  1
  O  O41  1  0.16657333  0.49092967  0.23883567  1
  O  O42  1  0.67836733  0.51120367  0.26109167  1
  O  O43  1  0.50907033  0.67564367  0.23883567  1
  O  O44  1  0.46028933  0.32093167  0.14567367  1
  O  O45  1  0.32435633  0.83342667  0.23883567  1
  O  O46  1  0.17537700  0.16556000  0.07255100  1
  O  O47  1  0.86064233  0.53971067  0.14567367  1
  O  O48  1  0.80521567  0.79743433  0.18769333  1
  O  O49  1  0.48879633  0.16716367  0.26109167  1
  O  O50  1  0.34268333  0.50021367  0.09515467  1
  O  O51  1  0.20256567  0.00778133  0.18769333  1
  O  O52  1  0.15753033  0.65731667  0.09515467  1
  O  O53  1  0.99018300  0.82462300  0.07255100  1
  O  O54  1  0.49978633  0.84246967  0.09515467  1
  O  O55  1  0.67906833  0.13935767  0.14567367  1
  O  O56  1  0.83444000  0.00981700  0.07255100  1
  O  O57  1  0.32311100  0.46042600  0.35507200  1
  O  O58  1  0.13731500  0.67688900  0.35507200  1
  O  O59  1  0.53957400  0.86268500  0.35507200  1
  O  O60  1  0.79351167  0.80610333  0.31209433  1
  O  O61  1  0.19389667  0.98740833  0.31209433  1
  O  O62  1  0.01259167  0.20648833  0.31209433  1
  O  O63  1  0.49950300  0.65496600  0.59442500  1
  O  O64  1  0.65888533  0.52811767  0.52102667  1
  O  O65  1  0.83324000  0.82426300  0.57216900  1
  O  O66  1  0.34503400  0.84453700  0.59442500  1
  O  O67  1  0.17573700  0.00897700  0.57216900  1
  O  O68  1  0.12695600  0.65426500  0.47900700  1
  O  O69  1  0.99102300  0.16676000  0.57216900  1
  O  O70  1  0.84204367  0.49889333  0.40588433  1
  O  O71  1  0.52730900  0.87304400  0.47900700  1
  O  O72  1  0.47188233  0.13076767  0.52102667  1
  O  O73  1  0.15546300  0.50049700  0.59442500  1
  O  O74  1  0.00935000  0.83354700  0.42848800  1
  O  O75  1  0.86923233  0.34111467  0.52102667  1
  O  O76  1  0.82419700  0.99065000  0.42848800  1
  O  O77  1  0.65684967  0.15795633  0.40588433  1
  O  O78  1  0.16645300  0.17580300  0.42848800  1
  O  O79  1  0.34573500  0.47269100  0.47900700  1
  O  O80  1  0.50110667  0.34315033  0.40588433  1
  O  O81  1  0.98977767  0.79375933  0.68840533  1
  O  O82  1  0.80398167  0.01022233  0.68840533  1
  O  O83  1  0.20624067  0.19601833  0.68840533  1
  O  O84  1  0.46017833  0.13943667  0.64542767  1
  O  O85  1  0.86056333  0.32074167  0.64542767  1
  O  O86  1  0.67925833  0.53982167  0.64542767  1
  O  O87  1  0.16616967  0.98829933  0.92775833  1
  O  O88  1  0.32555200  0.86145100  0.85436000  1
  O  O89  1  0.49990667  0.15759633  0.90550233  1
  O  O90  1  0.01170067  0.17787033  0.92775833  1
  O  O91  1  0.84240367  0.34231033  0.90550233  1
  O  O92  1  0.79362267  0.98759833  0.81234033  1
  O  O93  1  0.65768967  0.50009333  0.90550233  1
  O  O94  1  0.50871033  0.83222667  0.73921767  1
  O  O95  1  0.19397567  0.20637733  0.81234033  1
  O  O96  1  0.13854900  0.46410100  0.85436000  1
  O  O97  1  0.82212967  0.83383033  0.92775833  1
  O  O98  1  0.67601667  0.16688033  0.76182133  1
  O  O99  1  0.53589900  0.67444800  0.85436000  1
  O  O100  1  0.49086367  0.32398333  0.76182133  1
  O  O101  1  0.32351633  0.49128967  0.73921767  1
  O  O102  1  0.83311967  0.50913633  0.76182133  1
  O  O103  1  0.01240167  0.80602433  0.81234033  1
  O  O104  1  0.16777333  0.67648367  0.73921767  1
  O  O105  1  0.65644433  0.12709267  0.02173867  1
  O  O106  1  0.47064833  0.34355567  0.02173867  1
  O  O107  1  0.87290733  0.52935167  0.02173867  1
