# generated using pymatgen
data_VFe2Ni3(PO4)6
_symmetry_space_group_name_H-M   'P 1'
_cell_length_a   8.64627870
_cell_length_b   8.64627870
_cell_length_c   20.20984769
_cell_angle_alpha   90.00000000
_cell_angle_beta   90.00000000
_cell_angle_gamma   120.00000000
_symmetry_Int_Tables_number   1
_chemical_formula_structural   VFe2Ni3(PO4)6
_chemical_formula_sum   'V3 Fe6 Ni9 P18 O72'
_cell_volume   1308.43493850
_cell_formula_units_Z   3
loop_
 _symmetry_equiv_pos_site_id
 _symmetry_equiv_pos_as_xyz
  1  'x, y, z'
loop_
 _atom_site_type_symbol
 _atom_site_label
 _atom_site_symmetry_multiplicity
 _atom_site_fract_x
 _atom_site_fract_y
 _atom_site_fract_z
 _atom_site_occupancy
  V  V0  1  0.33333333  0.66666667  0.52122567  1
  V  V1  1  0.00000000  0.00000000  0.85455900  1
  V  V2  1  0.66666667  0.33333333  0.18789233  1
  Fe  Fe3  1  0.33333333  0.66666667  0.67086167  1
  Fe  Fe4  1  0.33333333  0.66666667  0.16881567  1
  Fe  Fe5  1  0.00000000  0.00000000  0.00419500  1
  Fe  Fe6  1  0.00000000  0.00000000  0.50214900  1
  Fe  Fe7  1  0.66666667  0.33333333  0.33752833  1
  Fe  Fe8  1  0.66666667  0.33333333  0.83548233  1
  Ni  Ni9  1  0.33333333  0.66666667  0.02402267  1
  Ni  Ni10  1  0.33333333  0.66666667  0.81160467  1
  Ni  Ni11  1  0.33333333  0.66666667  0.30861467  1
  Ni  Ni12  1  0.00000000  0.00000000  0.35735600  1
  Ni  Ni13  1  0.00000000  0.00000000  0.14493800  1
  Ni  Ni14  1  0.00000000  0.00000000  0.64194800  1
  Ni  Ni15  1  0.66666667  0.33333333  0.69068933  1
  Ni  Ni16  1  0.66666667  0.33333333  0.47827133  1
  Ni  Ni17  1  0.66666667  0.33333333  0.97528133  1
  P  P18  1  0.66441033  0.62905767  0.08158067  1
  P  P19  1  0.96464733  0.33558967  0.08158067  1
  P  P20  1  0.37094233  0.03535267  0.08158067  1
  P  P21  1  0.29717467  0.29638733  0.24977233  1
  P  P22  1  0.70361267  0.00078733  0.24977233  1
  P  P23  1  0.99921267  0.70282533  0.24977233  1
  P  P24  1  0.33107700  0.96239100  0.41491400  1
  P  P25  1  0.63131400  0.66892300  0.41491400  1
  P  P26  1  0.03760900  0.36868600  0.41491400  1
  P  P27  1  0.96384133  0.62972067  0.58310567  1
  P  P28  1  0.37027933  0.33412067  0.58310567  1
  P  P29  1  0.66587933  0.03615867  0.58310567  1
  P  P30  1  0.99774367  0.29572433  0.74824733  1
  P  P31  1  0.29798067  0.00225633  0.74824733  1
  P  P32  1  0.70427567  0.70201933  0.74824733  1
  P  P33  1  0.63050800  0.96305400  0.91643900  1
  P  P34  1  0.03694600  0.66745400  0.91643900  1
  P  P35  1  0.33254600  0.36949200  0.91643900  1
  O  O36  1  0.54063800  0.68351600  0.35425500  1
  O  O37  1  0.14287800  0.45936200  0.35425500  1
  O  O38  1  0.31648400  0.85712200  0.35425500  1
  O  O39  1  0.83067300  0.81836200  0.07257700  1
  O  O40  1  0.34924033  0.85637467  0.47690067  1
  O  O41  1  0.50052067  0.64714133  0.09976533  1
  O  O42  1  0.98768900  0.16932700  0.07257700  1
  O  O43  1  0.14662067  0.49947933  0.09976533  1
  O  O44  1  0.21039133  0.19534667  0.18714467  1
  O  O45  1  0.35285867  0.85337933  0.09976533  1
  O  O46  1  0.49679500  0.32617300  0.25810100  1
  O  O47  1  0.80465333  0.01504467  0.18714467  1
  O  O48  1  0.50713433  0.65075967  0.47690067  1
  O  O49  1  0.18163800  0.01231100  0.07257700  1
  O  O50  1  0.32789700  0.48894700  0.23826900  1
  O  O51  1  0.14362533  0.49286567  0.47690067  1
  O  O52  1  0.51105300  0.83895000  0.23826900  1
  O  O53  1  0.67382700  0.17062200  0.25810100  1
  O  O54  1  0.16105000  0.67210300  0.23826900  1
  O  O55  1  0.98495533  0.78960867  0.18714467  1
  O  O56  1  0.82937800  0.50320500  0.25810100  1
  O  O57  1  0.33327733  0.46098567  0.97992067  1
  O  O58  1  0.53901433  0.87229167  0.97992067  1
  O  O59  1  0.12770833  0.66672267  0.97992067  1
  O  O60  1  0.20730467  0.01684933  0.68758833  1
  O  O61  1  0.80954467  0.79269533  0.68758833  1
  O  O62  1  0.98315067  0.19045533  0.68758833  1
  O  O63  1  0.49733967  0.15169533  0.40591033  1
  O  O64  1  0.01590700  0.18970800  0.81023400  1
  O  O65  1  0.16718733  0.98047467  0.43309867  1
  O  O66  1  0.65435567  0.50266033  0.40591033  1
  O  O67  1  0.81328733  0.83281267  0.43309867  1
  O  O68  1  0.87705800  0.52868000  0.52047800  1
  O  O69  1  0.01952533  0.18671267  0.43309867  1
  O  O70  1  0.16346167  0.65950633  0.59143433  1
  O  O71  1  0.47132000  0.34837800  0.52047800  1
  O  O72  1  0.17380100  0.98409300  0.81023400  1
  O  O73  1  0.84830467  0.34564433  0.40591033  1
  O  O74  1  0.99456367  0.82228033  0.57160233  1
  O  O75  1  0.81029200  0.82619900  0.81023400  1
  O  O76  1  0.17771967  0.17228333  0.57160233  1
  O  O77  1  0.34049367  0.50395533  0.59143433  1
  O  O78  1  0.82771667  0.00543633  0.57160233  1
  O  O79  1  0.65162200  0.12294200  0.52047800  1
  O  O80  1  0.49604467  0.83653833  0.59143433  1
  O  O81  1  0.99994400  0.79431900  0.31325400  1
  O  O82  1  0.20568100  0.20562500  0.31325400  1
  O  O83  1  0.79437500  0.00005600  0.31325400  1
  O  O84  1  0.87397133  0.35018267  0.02092167  1
  O  O85  1  0.47621133  0.12602867  0.02092167  1
  O  O86  1  0.64981733  0.52378867  0.02092167  1
  O  O87  1  0.16400633  0.48502867  0.73924367  1
  O  O88  1  0.68257367  0.52304133  0.14356733  1
  O  O89  1  0.83385400  0.31380800  0.76643200  1
  O  O90  1  0.32102233  0.83599367  0.73924367  1
  O  O91  1  0.47995400  0.16614600  0.76643200  1
  O  O92  1  0.54372467  0.86201333  0.85381133  1
  O  O93  1  0.68619200  0.52004600  0.76643200  1
  O  O94  1  0.83012833  0.99283967  0.92476767  1
  O  O95  1  0.13798667  0.68171133  0.85381133  1
  O  O96  1  0.84046767  0.31742633  0.14356733  1
  O  O97  1  0.51497133  0.67897767  0.73924367  1
  O  O98  1  0.66123033  0.15561367  0.90493567  1
  O  O99  1  0.47695867  0.15953233  0.14356733  1
  O  O100  1  0.84438633  0.50561667  0.90493567  1
  O  O101  1  0.00716033  0.83728867  0.92476767  1
  O  O102  1  0.49438333  0.33876967  0.90493567  1
  O  O103  1  0.31828867  0.45627533  0.85381133  1
  O  O104  1  0.16271133  0.16987167  0.92476767  1
  O  O105  1  0.66661067  0.12765233  0.64658733  1
  O  O106  1  0.87234767  0.53895833  0.64658733  1
  O  O107  1  0.46104167  0.33338933  0.64658733  1
