# generated using pymatgen
data_Mn4NiO8
_symmetry_space_group_name_H-M   'P 1'
_cell_length_a   10.33852000
_cell_length_b   5.80491800
_cell_length_c   5.94482125
_cell_angle_alpha   90.00000000
_cell_angle_beta   123.25927504
_cell_angle_gamma   90.00000000
_symmetry_Int_Tables_number   1
_chemical_formula_structural   Mn4NiO8
_chemical_formula_sum   'Mn8 Ni2 O16'
_cell_volume   298.33353127
_cell_formula_units_Z   2
loop_
 _symmetry_equiv_pos_site_id
 _symmetry_equiv_pos_as_xyz
  1  'x, y, z'
loop_
 _atom_site_type_symbol
 _atom_site_label
 _atom_site_symmetry_multiplicity
 _atom_site_fract_x
 _atom_site_fract_y
 _atom_site_fract_z
 _atom_site_occupancy
  Mn  Mn0  1  0.00000000  0.50000000  0.50000000  1
  Mn  Mn1  1  0.00000000  0.00000000  0.00000000  1
  Mn  Mn2  1  0.25000000  0.75000000  0.00000000  1
  Mn  Mn3  1  0.25000000  0.25000000  0.00000000  1
  Mn  Mn4  1  0.50000000  0.00000000  0.50000000  1
  Mn  Mn5  1  0.50000000  0.50000000  0.00000000  1
  Mn  Mn6  1  0.75000000  0.25000000  0.00000000  1
  Mn  Mn7  1  0.75000000  0.75000000  0.00000000  1
  Ni  Ni8  1  0.00000000  0.50000000  0.00000000  1
  Ni  Ni9  1  0.50000000  0.00000000  0.00000000  1
  O  O10  1  0.26948300  0.00000000  0.80598300  1
  O  O11  1  0.02757100  0.24651500  0.79451900  1
  O  O12  1  0.02757100  0.75348500  0.79451900  1
  O  O13  1  0.24396200  0.50000000  0.77551700  1
  O  O14  1  0.25603800  0.00000000  0.22448300  1
  O  O15  1  0.47242900  0.74651500  0.20548100  1
  O  O16  1  0.47242900  0.25348500  0.20548100  1
  O  O17  1  0.23051700  0.50000000  0.19401700  1
  O  O18  1  0.76948300  0.50000000  0.80598300  1
  O  O19  1  0.52757100  0.74651500  0.79451900  1
  O  O20  1  0.52757100  0.25348500  0.79451900  1
  O  O21  1  0.74396200  0.00000000  0.77551700  1
  O  O22  1  0.75603800  0.50000000  0.22448300  1
  O  O23  1  0.97242900  0.24651500  0.20548100  1
  O  O24  1  0.97242900  0.75348500  0.20548100  1
  O  O25  1  0.73051700  0.00000000  0.19401700  1
