# generated using pymatgen
data_Mn3Cu2Ni(PO4)6
_symmetry_space_group_name_H-M   'P 1'
_cell_length_a   8.52899783
_cell_length_b   8.52899783
_cell_length_c   20.82046052
_cell_angle_alpha   90.00000000
_cell_angle_beta   90.00000000
_cell_angle_gamma   120.00000000
_symmetry_Int_Tables_number   1
_chemical_formula_structural   Mn3Cu2Ni(PO4)6
_chemical_formula_sum   'Mn9 Cu6 Ni3 P18 O72'
_cell_volume   1311.64700193
_cell_formula_units_Z   3
loop_
 _symmetry_equiv_pos_site_id
 _symmetry_equiv_pos_as_xyz
  1  'x, y, z'
loop_
 _atom_site_type_symbol
 _atom_site_label
 _atom_site_symmetry_multiplicity
 _atom_site_fract_x
 _atom_site_fract_y
 _atom_site_fract_z
 _atom_site_occupancy
  Mn  Mn0  1  0.33333333  0.66666667  0.52473267  1
  Mn  Mn1  1  0.33333333  0.66666667  0.30882567  1
  Mn  Mn2  1  0.33333333  0.66666667  0.02447467  1
  Mn  Mn3  1  0.00000000  0.00000000  0.85806600  1
  Mn  Mn4  1  0.00000000  0.00000000  0.64215900  1
  Mn  Mn5  1  0.00000000  0.00000000  0.35780800  1
  Mn  Mn6  1  0.66666667  0.33333333  0.19139933  1
  Mn  Mn7  1  0.66666667  0.33333333  0.97549233  1
  Mn  Mn8  1  0.66666667  0.33333333  0.69114133  1
  Cu  Cu9  1  0.33333333  0.66666667  0.66899867  1
  Cu  Cu10  1  0.33333333  0.66666667  0.16748167  1
  Cu  Cu11  1  0.00000000  0.00000000  0.00233200  1
  Cu  Cu12  1  0.00000000  0.00000000  0.50081500  1
  Cu  Cu13  1  0.66666667  0.33333333  0.33566533  1
  Cu  Cu14  1  0.66666667  0.33333333  0.83414833  1
  Ni  Ni15  1  0.33333333  0.66666667  0.80859667  1
  Ni  Ni16  1  0.00000000  0.00000000  0.14193000  1
  Ni  Ni17  1  0.66666667  0.33333333  0.47526333  1
  P  P18  1  0.70997333  0.70881867  0.25008067  1
  P  P19  1  0.29118133  0.00115467  0.25008067  1
  P  P20  1  0.99884533  0.29002667  0.25008067  1
  P  P21  1  0.66726700  0.04455100  0.08209900  1
  P  P22  1  0.37728400  0.33273300  0.08209900  1
  P  P23  1  0.95544900  0.62271600  0.08209900  1
  P  P24  1  0.37664000  0.04215200  0.58341400  1
  P  P25  1  0.95784800  0.33448800  0.58341400  1
  P  P26  1  0.66551200  0.62336000  0.58341400  1
  P  P27  1  0.33393367  0.37788433  0.41543233  1
  P  P28  1  0.04395067  0.66606633  0.41543233  1
  P  P29  1  0.62211567  0.95604933  0.41543233  1
  P  P30  1  0.04330667  0.37548533  0.91674733  1
  P  P31  1  0.62451467  0.66782133  0.91674733  1
  P  P32  1  0.33217867  0.95669333  0.91674733  1
  P  P33  1  0.00060033  0.71121767  0.74876567  1
  P  P34  1  0.71061733  0.99939967  0.74876567  1
  P  P35  1  0.28878233  0.28938267  0.74876567  1
  O  O36  1  0.52210033  0.85679967  0.35418667  1
  O  O37  1  0.33469933  0.47789967  0.35418667  1
  O  O38  1  0.68828067  0.51444733  0.25689733  1
  O  O39  1  0.14320033  0.66530067  0.35418667  1
  O  O40  1  0.79614400  0.80086700  0.18823600  1
  O  O41  1  0.51346433  0.68481067  0.24687267  1
  O  O42  1  0.48555267  0.17383333  0.25689733  1
  O  O43  1  0.31518933  0.82865367  0.24687267  1
  O  O44  1  0.66003700  0.13660000  0.14464300  1
  O  O45  1  0.17134633  0.48653567  0.24687267  1
  O  O46  1  0.83443400  0.02175900  0.07553100  1
  O  O47  1  0.47656300  0.33996300  0.14464300  1
  O  O48  1  0.19913300  0.99527700  0.18823600  1
  O  O49  1  0.82616667  0.31171933  0.25689733  1
  O  O50  1  0.49044233  0.85269267  0.08810867  1
  O  O51  1  0.00472300  0.20385600  0.18823600  1
  O  O52  1  0.36225033  0.50955767  0.08810867  1
  O  O53  1  0.18732500  0.16556600  0.07553100  1
  O  O54  1  0.14730733  0.63774967  0.08810867  1
  O  O55  1  0.86340000  0.52343700  0.14464300  1
  O  O56  1  0.53167733  0.67480267  0.97897467  1
  O  O57  1  0.97824100  0.81267500  0.07553100  1
  O  O58  1  0.32519733  0.85687467  0.97897467  1
  O  O59  1  0.14312533  0.46832267  0.97897467  1
  O  O60  1  0.18876700  0.19013300  0.68752000  1
  O  O61  1  0.00136600  0.81123300  0.68752000  1
  O  O62  1  0.35494733  0.84778067  0.59023067  1
  O  O63  1  0.80986700  0.99863400  0.68752000  1
  O  O64  1  0.46281067  0.13420033  0.52156933  1
  O  O65  1  0.18013100  0.01814400  0.58020600  1
  O  O66  1  0.15221933  0.50716667  0.59023067  1
  O  O67  1  0.98185600  0.16198700  0.58020600  1
  O  O68  1  0.32670367  0.46993333  0.47797633  1
  O  O69  1  0.83801300  0.81986900  0.58020600  1
  O  O70  1  0.50110067  0.35509233  0.40886433  1
  O  O71  1  0.14322967  0.67329633  0.47797633  1
  O  O72  1  0.86579967  0.32861033  0.52156933  1
  O  O73  1  0.49283333  0.64505267  0.59023067  1
  O  O74  1  0.15710900  0.18602600  0.42144200  1
  O  O75  1  0.67138967  0.53718933  0.52156933  1
  O  O76  1  0.02891700  0.84289100  0.42144200  1
  O  O77  1  0.85399167  0.49889933  0.40886433  1
  O  O78  1  0.81397400  0.97108300  0.42144200  1
  O  O79  1  0.53006667  0.85677033  0.47797633  1
  O  O80  1  0.19834400  0.00813600  0.31230800  1
  O  O81  1  0.64490767  0.14600833  0.40886433  1
  O  O82  1  0.99186400  0.19020800  0.31230800  1
  O  O83  1  0.80979200  0.80165600  0.31230800  1
  O  O84  1  0.85543367  0.52346633  0.02085333  1
  O  O85  1  0.66803267  0.14456633  0.02085333  1
  O  O86  1  0.02161400  0.18111400  0.92356400  1
  O  O87  1  0.47653367  0.33196733  0.02085333  1
  O  O88  1  0.12947733  0.46753367  0.85490267  1
  O  O89  1  0.84679767  0.35147733  0.91353933  1
  O  O90  1  0.81888600  0.84050000  0.92356400  1
  O  O91  1  0.64852267  0.49532033  0.91353933  1
  O  O92  1  0.99337033  0.80326667  0.81130967  1
  O  O93  1  0.50467967  0.15320233  0.91353933  1
  O  O94  1  0.16776733  0.68842567  0.74219767  1
  O  O95  1  0.80989633  0.00662967  0.81130967  1
  O  O96  1  0.53246633  0.66194367  0.85490267  1
  O  O97  1  0.15950000  0.97838600  0.92356400  1
  O  O98  1  0.82377567  0.51935933  0.75477533  1
  O  O99  1  0.33805633  0.87052267  0.85490267  1
  O  O100  1  0.69558367  0.17622433  0.75477533  1
  O  O101  1  0.52065833  0.83223267  0.74219767  1
  O  O102  1  0.48064067  0.30441633  0.75477533  1
  O  O103  1  0.19673333  0.19010367  0.81130967  1
  O  O104  1  0.86501067  0.34146933  0.64564133  1
  O  O105  1  0.31157433  0.47934167  0.74219767  1
  O  O106  1  0.65853067  0.52354133  0.64564133  1
  O  O107  1  0.47645867  0.13498933  0.64564133  1
