# generated using pymatgen
data_Li2VCrO4
_symmetry_space_group_name_H-M   'P 1'
_cell_length_a   9.91881562
_cell_length_b   2.96773701
_cell_length_c   5.14394077
_cell_angle_alpha   90.00000000
_cell_angle_beta   99.33411177
_cell_angle_gamma   90.00000000
_symmetry_Int_Tables_number   1
_chemical_formula_structural   Li2VCrO4
_chemical_formula_sum   'Li4 V2 Cr2 O8'
_cell_volume   149.41439148
_cell_formula_units_Z   2
loop_
 _symmetry_equiv_pos_site_id
 _symmetry_equiv_pos_as_xyz
  1  'x, y, z'
loop_
 _atom_site_type_symbol
 _atom_site_label
 _atom_site_symmetry_multiplicity
 _atom_site_fract_x
 _atom_site_fract_y
 _atom_site_fract_z
 _atom_site_occupancy
  Li  Li0  1  0.24894100  0.50000000  0.74258700  1
  Li  Li1  1  0.75105900  0.50000000  0.25741300  1
  Li  Li2  1  0.74894100  0.00000000  0.74258700  1
  Li  Li3  1  0.25105900  0.00000000  0.25741300  1
  V  V4  1  0.00000000  0.50000000  0.00000000  1
  V  V5  1  0.50000000  0.00000000  0.00000000  1
  Cr  Cr6  1  0.00000000  0.00000000  0.50000000  1
  Cr  Cr7  1  0.50000000  0.50000000  0.50000000  1
  O  O8  1  0.11366400  0.00000000  0.86893800  1
  O  O9  1  0.88633600  0.00000000  0.13106200  1
  O  O10  1  0.11442900  0.50000000  0.37606100  1
  O  O11  1  0.88557100  0.50000000  0.62393900  1
  O  O12  1  0.61366400  0.50000000  0.86893800  1
  O  O13  1  0.38633600  0.50000000  0.13106200  1
  O  O14  1  0.61442900  0.00000000  0.37606100  1
  O  O15  1  0.38557100  0.00000000  0.62393900  1
