# generated using pymatgen
data_Li3MnV3O8
_symmetry_space_group_name_H-M   'P 1'
_cell_length_a   5.96968172
_cell_length_b   5.96968172
_cell_length_c   14.69948380
_cell_angle_alpha   90.00000000
_cell_angle_beta   90.00000000
_cell_angle_gamma   120.00000000
_symmetry_Int_Tables_number   1
_chemical_formula_structural   Li3MnV3O8
_chemical_formula_sum   'Li9 Mn3 V9 O24'
_cell_volume   453.66478598
_cell_formula_units_Z   3
loop_
 _symmetry_equiv_pos_site_id
 _symmetry_equiv_pos_as_xyz
  1  'x, y, z'
loop_
 _atom_site_type_symbol
 _atom_site_label
 _atom_site_symmetry_multiplicity
 _atom_site_fract_x
 _atom_site_fract_y
 _atom_site_fract_z
 _atom_site_occupancy
  Li  Li0  1  0.33333333  0.16666667  0.16666667  1
  Li  Li1  1  0.83333333  0.16666667  0.16666667  1
  Li  Li2  1  0.83333333  0.66666667  0.16666667  1
  Li  Li3  1  0.00000000  0.50000000  0.50000000  1
  Li  Li4  1  0.50000000  0.50000000  0.50000000  1
  Li  Li5  1  0.50000000  0.00000000  0.50000000  1
  Li  Li6  1  0.66666667  0.83333333  0.83333333  1
  Li  Li7  1  0.16666667  0.83333333  0.83333333  1
  Li  Li8  1  0.16666667  0.33333333  0.83333333  1
  Mn  Mn9  1  0.00000000  0.00000000  0.00000000  1
  Mn  Mn10  1  0.66666667  0.33333333  0.33333333  1
  Mn  Mn11  1  0.33333333  0.66666667  0.66666667  1
  V  V12  1  0.66666667  0.83333333  0.33333333  1
  V  V13  1  0.16666667  0.83333333  0.33333333  1
  V  V14  1  0.16666667  0.33333333  0.33333333  1
  V  V15  1  0.33333333  0.16666667  0.66666667  1
  V  V16  1  0.83333333  0.16666667  0.66666667  1
  V  V17  1  0.83333333  0.66666667  0.66666667  1
  V  V18  1  0.00000000  0.50000000  0.00000000  1
  V  V19  1  0.50000000  0.50000000  0.00000000  1
  V  V20  1  0.50000000  0.00000000  0.00000000  1
  O  O21  1  0.66666667  0.33333333  0.07531733  1
  O  O22  1  0.68377533  0.84188767  0.07191667  1
  O  O23  1  0.15811233  0.84188767  0.07191667  1
  O  O24  1  0.00000000  0.00000000  0.25801600  1
  O  O25  1  0.15811233  0.31622467  0.07191667  1
  O  O26  1  0.98289133  0.49144567  0.26141667  1
  O  O27  1  0.50855433  0.49144567  0.26141667  1
  O  O28  1  0.50855433  0.01710867  0.26141667  1
  O  O29  1  0.33333333  0.66666667  0.40865067  1
  O  O30  1  0.35044200  0.17522100  0.40525000  1
  O  O31  1  0.82477900  0.17522100  0.40525000  1
  O  O32  1  0.66666667  0.33333333  0.59134933  1
  O  O33  1  0.82477900  0.64955800  0.40525000  1
  O  O34  1  0.64955800  0.82477900  0.59475000  1
  O  O35  1  0.17522100  0.82477900  0.59475000  1
  O  O36  1  0.17522100  0.35044200  0.59475000  1
  O  O37  1  0.00000000  0.00000000  0.74198400  1
  O  O38  1  0.01710867  0.50855433  0.73858333  1
  O  O39  1  0.49144567  0.50855433  0.73858333  1
  O  O40  1  0.33333333  0.66666667  0.92468267  1
  O  O41  1  0.49144567  0.98289133  0.73858333  1
  O  O42  1  0.31622467  0.15811233  0.92808333  1
  O  O43  1  0.84188767  0.15811233  0.92808333  1
  O  O44  1  0.84188767  0.68377533  0.92808333  1
