# generated using pymatgen
data_LiV(CO3)2
_symmetry_space_group_name_H-M   'P 1'
_cell_length_a   8.58925865
_cell_length_b   8.76222565
_cell_length_c   5.78628988
_cell_angle_alpha   90.00000000
_cell_angle_beta   107.60960651
_cell_angle_gamma   90.00000000
_symmetry_Int_Tables_number   1
_chemical_formula_structural   LiV(CO3)2
_chemical_formula_sum   'Li4 V4 C8 O24'
_cell_volume   415.07538299
_cell_formula_units_Z   4
loop_
 _symmetry_equiv_pos_site_id
 _symmetry_equiv_pos_as_xyz
  1  'x, y, z'
loop_
 _atom_site_type_symbol
 _atom_site_label
 _atom_site_symmetry_multiplicity
 _atom_site_fract_x
 _atom_site_fract_y
 _atom_site_fract_z
 _atom_site_occupancy
  Li  Li0  1  0.50000000  0.12033900  0.25000000  1
  Li  Li1  1  0.50000000  0.87966100  0.75000000  1
  Li  Li2  1  0.00000000  0.62033900  0.25000000  1
  Li  Li3  1  0.00000000  0.37966100  0.75000000  1
  V  V4  1  0.50000000  0.69196525  0.25000000  1
  V  V5  1  0.50000000  0.30803475  0.75000000  1
  V  V6  1  0.00000000  0.19196525  0.25000000  1
  V  V7  1  0.00000000  0.80803475  0.75000000  1
  C  C8  1  0.78446650  0.90426350  0.27766450  1
  C  C9  1  0.78446650  0.09573650  0.77766450  1
  C  C10  1  0.21553350  0.90426350  0.22233550  1
  C  C11  1  0.21553350  0.09573650  0.72233550  1
  C  C12  1  0.28446650  0.40426350  0.27766450  1
  C  C13  1  0.28446650  0.59573650  0.77766450  1
  C  C14  1  0.71553350  0.40426350  0.22233550  1
  C  C15  1  0.71553350  0.59573650  0.72233550  1
  O  O16  1  0.83287700  0.04235900  0.28302550  1
  O  O17  1  0.83287700  0.95764100  0.78302550  1
  O  O18  1  0.16712300  0.04235900  0.21697450  1
  O  O19  1  0.16712300  0.95764100  0.71697450  1
  O  O20  1  0.61937725  0.29537325  0.11086750  1
  O  O21  1  0.61937725  0.70462675  0.61086750  1
  O  O22  1  0.38062275  0.29537325  0.38913250  1
  O  O23  1  0.38062275  0.70462675  0.88913250  1
  O  O24  1  0.63208525  0.87438625  0.16356650  1
  O  O25  1  0.63208525  0.12561375  0.66356650  1
  O  O26  1  0.36791475  0.87438625  0.33643350  1
  O  O27  1  0.36791475  0.12561375  0.83643350  1
  O  O28  1  0.33287700  0.54235900  0.28302550  1
  O  O29  1  0.33287700  0.45764100  0.78302550  1
  O  O30  1  0.66712300  0.54235900  0.21697450  1
  O  O31  1  0.66712300  0.45764100  0.71697450  1
  O  O32  1  0.11937725  0.79537325  0.11086750  1
  O  O33  1  0.11937725  0.20462675  0.61086750  1
  O  O34  1  0.88062275  0.79537325  0.38913250  1
  O  O35  1  0.88062275  0.20462675  0.88913250  1
  O  O36  1  0.13208525  0.37438625  0.16356650  1
  O  O37  1  0.13208525  0.62561375  0.66356650  1
  O  O38  1  0.86791475  0.37438625  0.33643350  1
  O  O39  1  0.86791475  0.62561375  0.83643350  1
