# generated using pymatgen
data_LiCo2C2O7
_symmetry_space_group_name_H-M   'P 1'
_cell_length_a   14.24576400
_cell_length_b   8.31218600
_cell_length_c   7.88591293
_cell_angle_alpha   90.00000000
_cell_angle_beta   91.21462815
_cell_angle_gamma   90.00000000
_symmetry_Int_Tables_number   1
_chemical_formula_structural   LiCo2C2O7
_chemical_formula_sum   'Li6 Co12 C12 O42'
_cell_volume   933.58825789
_cell_formula_units_Z   6
loop_
 _symmetry_equiv_pos_site_id
 _symmetry_equiv_pos_as_xyz
  1  'x, y, z'
loop_
 _atom_site_type_symbol
 _atom_site_label
 _atom_site_symmetry_multiplicity
 _atom_site_fract_x
 _atom_site_fract_y
 _atom_site_fract_z
 _atom_site_occupancy
  Li  Li0  1  0.32059900  0.68200100  0.49937000  1
  Li  Li1  1  0.50000000  0.15222600  0.50000000  1
  Li  Li2  1  0.67940100  0.68200100  0.50063000  1
  Li  Li3  1  0.82059900  0.18200100  0.49937000  1
  Li  Li4  1  0.00000000  0.65222600  0.50000000  1
  Li  Li5  1  0.17940100  0.18200100  0.50063000  1
  Co  Co6  1  0.49735500  0.50441900  0.27352900  1
  Co  Co7  1  0.50264500  0.50441900  0.72647100  1
  Co  Co8  1  0.67374850  0.00613750  0.81020200  1
  Co  Co9  1  0.66200450  0.00132750  0.26079700  1
  Co  Co10  1  0.32625150  0.00613750  0.18979800  1
  Co  Co11  1  0.33799550  0.00132750  0.73920300  1
  Co  Co12  1  0.99735500  0.00441900  0.27352900  1
  Co  Co13  1  0.00264500  0.00441900  0.72647100  1
  Co  Co14  1  0.17374850  0.50613750  0.81020200  1
  Co  Co15  1  0.16200450  0.50132750  0.26079700  1
  Co  Co16  1  0.82625150  0.50613750  0.18979800  1
  Co  Co17  1  0.83799550  0.50132750  0.73920300  1
  C  C18  1  0.66916650  0.33059850  0.29362400  1
  C  C19  1  0.82981650  0.83382350  0.29158600  1
  C  C20  1  0.49851950  0.83867050  0.28860800  1
  C  C21  1  0.33083350  0.33059850  0.70637600  1
  C  C22  1  0.17018350  0.83382350  0.70841400  1
  C  C23  1  0.50148050  0.83867050  0.71139200  1
  C  C24  1  0.16916650  0.83059850  0.29362400  1
  C  C25  1  0.32981650  0.33382350  0.29158600  1
  C  C26  1  0.99851950  0.33867050  0.28860800  1
  C  C27  1  0.83083350  0.83059850  0.70637600  1
  C  C28  1  0.67018350  0.33382350  0.70841400  1
  C  C29  1  0.00148050  0.33867050  0.71139200  1
  O  O30  1  0.50000000  0.47518500  0.50000000  1
  O  O31  1  0.59168250  0.33028050  0.78496000  1
  O  O32  1  0.61990400  0.20937100  0.34865800  1
  O  O33  1  0.71682450  0.19946250  0.68772700  1
  O  O34  1  0.66667750  0.98321650  0.02622200  1
  O  O35  1  0.79456300  0.96674200  0.34995900  1
  O  O36  1  0.54385350  0.97649450  0.69941800  1
  O  O37  1  0.86968550  0.95481450  0.77313700  1
  O  O38  1  0.40831750  0.33028050  0.21504000  1
  O  O39  1  0.73936200  0.82407900  0.69262700  1
  O  O40  1  0.58401550  0.82499650  0.35254300  1
  O  O41  1  0.54191650  0.71953050  0.78623400  1
  O  O42  1  0.38009600  0.20937100  0.65134200  1
  O  O43  1  0.28317550  0.19946250  0.31227300  1
  O  O44  1  0.33332250  0.98321650  0.97377800  1
  O  O45  1  0.20543700  0.96674200  0.65004100  1
  O  O46  1  0.45614650  0.97649450  0.30058200  1
  O  O47  1  0.13031450  0.95481450  0.22686300  1
  O  O48  1  0.26063800  0.82407900  0.30737300  1
  O  O49  1  0.41598450  0.82499650  0.64745700  1
  O  O50  1  0.45808350  0.71953050  0.21376600  1
  O  O51  1  0.00000000  0.97518500  0.50000000  1
  O  O52  1  0.09168250  0.83028050  0.78496000  1
  O  O53  1  0.11990400  0.70937100  0.34865800  1
  O  O54  1  0.21682450  0.69946250  0.68772700  1
  O  O55  1  0.16667750  0.48321650  0.02622200  1
  O  O56  1  0.29456300  0.46674200  0.34995900  1
  O  O57  1  0.04385350  0.47649450  0.69941800  1
  O  O58  1  0.36968550  0.45481450  0.77313700  1
  O  O59  1  0.90831750  0.83028050  0.21504000  1
  O  O60  1  0.23936200  0.32407900  0.69262700  1
  O  O61  1  0.08401550  0.32499650  0.35254300  1
  O  O62  1  0.04191650  0.21953050  0.78623400  1
  O  O63  1  0.88009600  0.70937100  0.65134200  1
  O  O64  1  0.78317550  0.69946250  0.31227300  1
  O  O65  1  0.83332250  0.48321650  0.97377800  1
  O  O66  1  0.70543700  0.46674200  0.65004100  1
  O  O67  1  0.95614650  0.47649450  0.30058200  1
  O  O68  1  0.63031450  0.45481450  0.22686300  1
  O  O69  1  0.76063800  0.32407900  0.30737300  1
  O  O70  1  0.91598450  0.32499650  0.64745700  1
  O  O71  1  0.95808350  0.21953050  0.21376600  1
