# generated using pymatgen
data_Na2VO3
_symmetry_space_group_name_H-M   'P 1'
_cell_length_a   5.30397633
_cell_length_b   9.42263200
_cell_length_c   5.69011126
_cell_angle_alpha   90.00000000
_cell_angle_beta   107.76026858
_cell_angle_gamma   90.00000000
_symmetry_Int_Tables_number   1
_chemical_formula_structural   Na2VO3
_chemical_formula_sum   'Na8 V4 O12'
_cell_volume   270.82397926
_cell_formula_units_Z   4
loop_
 _symmetry_equiv_pos_site_id
 _symmetry_equiv_pos_as_xyz
  1  'x, y, z'
loop_
 _atom_site_type_symbol
 _atom_site_label
 _atom_site_symmetry_multiplicity
 _atom_site_fract_x
 _atom_site_fract_y
 _atom_site_fract_z
 _atom_site_occupancy
  Na  Na0  1  0.00000000  0.84072850  0.50000000  1
  Na  Na1  1  0.50000000  0.65927150  0.50000000  1
  Na  Na2  1  0.00000000  0.50000000  0.50000000  1
  Na  Na3  1  0.00000000  0.00000000  0.00000000  1
  Na  Na4  1  0.50000000  0.34072850  0.50000000  1
  Na  Na5  1  0.00000000  0.15927150  0.50000000  1
  Na  Na6  1  0.50000000  0.00000000  0.50000000  1
  Na  Na7  1  0.50000000  0.50000000  0.00000000  1
  V  V8  1  0.50000000  0.83867300  0.00000000  1
  V  V9  1  0.00000000  0.66132700  0.00000000  1
  V  V10  1  0.00000000  0.33867300  0.00000000  1
  V  V11  1  0.50000000  0.16132700  0.00000000  1
  O  O12  1  0.19634300  0.50000000  0.20359200  1
  O  O13  1  0.22620600  0.68509200  0.79933400  1
  O  O14  1  0.72620600  0.81490800  0.79933400  1
  O  O15  1  0.27379400  0.81490800  0.20066600  1
  O  O16  1  0.77379400  0.68509200  0.20066600  1
  O  O17  1  0.80365700  0.50000000  0.79640800  1
  O  O18  1  0.69634300  0.00000000  0.20359200  1
  O  O19  1  0.72620600  0.18509200  0.79933400  1
  O  O20  1  0.22620600  0.31490800  0.79933400  1
  O  O21  1  0.77379400  0.31490800  0.20066600  1
  O  O22  1  0.27379400  0.18509200  0.20066600  1
  O  O23  1  0.30365700  0.00000000  0.79640800  1
