# generated using pymatgen
data_Li2TiMnO4
_symmetry_space_group_name_H-M   'P 1'
_cell_length_a   5.99744383
_cell_length_b   6.03957809
_cell_length_c   8.73058266
_cell_angle_alpha   90.00000000
_cell_angle_beta   90.00000000
_cell_angle_gamma   90.00000000
_symmetry_Int_Tables_number   1
_chemical_formula_structural   Li2TiMnO4
_chemical_formula_sum   'Li8 Ti4 Mn4 O16'
_cell_volume   316.23943025
_cell_formula_units_Z   4
loop_
 _symmetry_equiv_pos_site_id
 _symmetry_equiv_pos_as_xyz
  1  'x, y, z'
loop_
 _atom_site_type_symbol
 _atom_site_label
 _atom_site_symmetry_multiplicity
 _atom_site_fract_x
 _atom_site_fract_y
 _atom_site_fract_z
 _atom_site_occupancy
  Li  Li0  1  0.50000000  0.50000000  0.50000000  1
  Li  Li1  1  0.50000000  0.00000000  0.50000000  1
  Li  Li2  1  0.25000000  0.75000000  0.25000000  1
  Li  Li3  1  0.75000000  0.75000000  0.25000000  1
  Li  Li4  1  0.00000000  0.00000000  0.00000000  1
  Li  Li5  1  0.00000000  0.50000000  0.00000000  1
  Li  Li6  1  0.75000000  0.25000000  0.75000000  1
  Li  Li7  1  0.25000000  0.25000000  0.75000000  1
  Ti  Ti8  1  0.75000000  0.25000000  0.25000000  1
  Ti  Ti9  1  0.25000000  0.25000000  0.25000000  1
  Ti  Ti10  1  0.25000000  0.75000000  0.75000000  1
  Ti  Ti11  1  0.75000000  0.75000000  0.75000000  1
  Mn  Mn12  1  0.00000000  0.50000000  0.50000000  1
  Mn  Mn13  1  0.00000000  0.00000000  0.50000000  1
  Mn  Mn14  1  0.50000000  0.00000000  0.00000000  1
  Mn  Mn15  1  0.50000000  0.50000000  0.00000000  1
  O  O16  1  0.74967000  0.75000000  0.52547550  1
  O  O17  1  0.25033000  0.75000000  0.52547550  1
  O  O18  1  0.74967000  0.25000000  0.47452450  1
  O  O19  1  0.25033000  0.25000000  0.47452450  1
  O  O20  1  0.50000000  0.47747175  0.25305350  1
  O  O21  1  0.50000000  0.02252825  0.25305350  1
  O  O22  1  0.50000000  0.97747175  0.74694650  1
  O  O23  1  0.50000000  0.52252825  0.74694650  1
  O  O24  1  0.24967000  0.25000000  0.02547550  1
  O  O25  1  0.75033000  0.25000000  0.02547550  1
  O  O26  1  0.24967000  0.75000000  0.97452450  1
  O  O27  1  0.75033000  0.75000000  0.97452450  1
  O  O28  1  0.00000000  0.97747175  0.75305350  1
  O  O29  1  0.00000000  0.52252825  0.75305350  1
  O  O30  1  0.00000000  0.47747175  0.24694650  1
  O  O31  1  0.00000000  0.02252825  0.24694650  1
