# generated using pymatgen
data_Li4Mn3Nb3(SbO8)2
_symmetry_space_group_name_H-M   'P 1'
_cell_length_a   11.09827400
_cell_length_b   6.15990600
_cell_length_c   10.54201424
_cell_angle_alpha   90.00000000
_cell_angle_beta   90.35839668
_cell_angle_gamma   90.00000000
_symmetry_Int_Tables_number   1
_chemical_formula_structural   Li4Mn3Nb3(SbO8)2
_chemical_formula_sum   'Li8 Mn6 Nb6 Sb4 O32'
_cell_volume   720.68358401
_cell_formula_units_Z   2
loop_
 _symmetry_equiv_pos_site_id
 _symmetry_equiv_pos_as_xyz
  1  'x, y, z'
loop_
 _atom_site_type_symbol
 _atom_site_label
 _atom_site_symmetry_multiplicity
 _atom_site_fract_x
 _atom_site_fract_y
 _atom_site_fract_z
 _atom_site_occupancy
  Li  Li0  1  0.66812600  0.00000000  0.90123200  1
  Li  Li1  1  0.99675400  0.00000000  0.00243800  1
  Li  Li2  1  0.50042500  0.50000000  0.48735200  1
  Li  Li3  1  0.84476500  0.50000000  0.39130000  1
  Li  Li4  1  0.16812600  0.50000000  0.90123200  1
  Li  Li5  1  0.49675400  0.50000000  0.00243800  1
  Li  Li6  1  0.00042500  0.00000000  0.48735200  1
  Li  Li7  1  0.34476500  0.00000000  0.39130000  1
  Mn  Mn8  1  0.58169200  0.24592700  0.21669600  1
  Mn  Mn9  1  0.58169200  0.75407300  0.21669600  1
  Mn  Mn10  1  0.66372000  0.50000000  0.70726900  1
  Mn  Mn11  1  0.08169200  0.74592700  0.21669600  1
  Mn  Mn12  1  0.08169200  0.25407300  0.21669600  1
  Mn  Mn13  1  0.16372000  0.00000000  0.70726900  1
  Nb  Nb14  1  0.82384900  0.00000000  0.23103900  1
  Nb  Nb15  1  0.91026850  0.74870050  0.71824700  1
  Nb  Nb16  1  0.91026850  0.25129950  0.71824700  1
  Nb  Nb17  1  0.32384900  0.50000000  0.23103900  1
  Nb  Nb18  1  0.41026850  0.24870050  0.71824700  1
  Nb  Nb19  1  0.41026850  0.75129950  0.71824700  1
  Sb  Sb20  1  0.64249800  0.00000000  0.49763600  1
  Sb  Sb21  1  0.82265500  0.50000000  0.02353600  1
  Sb  Sb22  1  0.14249800  0.50000000  0.49763600  1
  Sb  Sb23  1  0.32265500  0.00000000  0.02353600  1
  O  O24  1  0.56411250  0.25781250  0.59469900  1
  O  O25  1  0.52410300  0.00000000  0.34570300  1
  O  O26  1  0.67349300  0.00000000  0.11539100  1
  O  O27  1  0.99579700  0.00000000  0.30511400  1
  O  O28  1  0.99425500  0.00000000  0.81690800  1
  O  O29  1  0.56411250  0.74218750  0.59469900  1
  O  O30  1  0.76248550  0.22992250  0.33018600  1
  O  O31  1  0.76248550  0.77007750  0.33018600  1
  O  O32  1  0.65577800  0.50000000  0.10796200  1
  O  O33  1  0.86165200  0.00000000  0.60757400  1
  O  O34  1  0.76502950  0.75289550  0.80932900  1
  O  O35  1  0.76502950  0.24710450  0.80932900  1
  O  O36  1  0.84895900  0.50000000  0.60669400  1
  O  O37  1  0.91095750  0.75912350  0.10313400  1
  O  O38  1  0.98965500  0.50000000  0.81683800  1
  O  O39  1  0.91095750  0.24087650  0.10313400  1
  O  O40  1  0.06411250  0.75781250  0.59469900  1
  O  O41  1  0.02410300  0.50000000  0.34570300  1
  O  O42  1  0.17349300  0.50000000  0.11539100  1
  O  O43  1  0.49579700  0.50000000  0.30511400  1
  O  O44  1  0.49425500  0.50000000  0.81690800  1
  O  O45  1  0.06411250  0.24218750  0.59469900  1
  O  O46  1  0.26248550  0.72992250  0.33018600  1
  O  O47  1  0.26248550  0.27007750  0.33018600  1
  O  O48  1  0.15577800  0.00000000  0.10796200  1
  O  O49  1  0.36165200  0.50000000  0.60757400  1
  O  O50  1  0.26502950  0.25289550  0.80932900  1
  O  O51  1  0.26502950  0.74710450  0.80932900  1
  O  O52  1  0.34895900  0.00000000  0.60669400  1
  O  O53  1  0.41095750  0.25912350  0.10313400  1
  O  O54  1  0.48965500  0.00000000  0.81683800  1
  O  O55  1  0.41095750  0.74087650  0.10313400  1
