# generated using pymatgen
data_Fe3CoNi2(PO4)6
_symmetry_space_group_name_H-M   'P 1'
_cell_length_a   8.56384157
_cell_length_b   8.56384157
_cell_length_c   20.49525053
_cell_angle_alpha   90.00000000
_cell_angle_beta   90.00000000
_cell_angle_gamma   120.00000000
_symmetry_Int_Tables_number   1
_chemical_formula_structural   Fe3CoNi2(PO4)6
_chemical_formula_sum   'Fe9 Co3 Ni6 P18 O72'
_cell_volume   1301.73059384
_cell_formula_units_Z   3
loop_
 _symmetry_equiv_pos_site_id
 _symmetry_equiv_pos_as_xyz
  1  'x, y, z'
loop_
 _atom_site_type_symbol
 _atom_site_label
 _atom_site_symmetry_multiplicity
 _atom_site_fract_x
 _atom_site_fract_y
 _atom_site_fract_z
 _atom_site_occupancy
  Fe  Fe0  1  0.33333333  0.66666667  0.80953767  1
  Fe  Fe1  1  0.33333333  0.66666667  0.02266767  1
  Fe  Fe2  1  0.33333333  0.66666667  0.30971767  1
  Fe  Fe3  1  0.00000000  0.00000000  0.14287100  1
  Fe  Fe4  1  0.00000000  0.00000000  0.35600100  1
  Fe  Fe5  1  0.00000000  0.00000000  0.64305100  1
  Fe  Fe6  1  0.66666667  0.33333333  0.47620433  1
  Fe  Fe7  1  0.66666667  0.33333333  0.68933433  1
  Fe  Fe8  1  0.66666667  0.33333333  0.97638433  1
  Co  Co9  1  0.33333333  0.66666667  0.52497467  1
  Co  Co10  1  0.00000000  0.00000000  0.85830800  1
  Co  Co11  1  0.66666667  0.33333333  0.19164133  1
  Ni  Ni12  1  0.33333333  0.66666667  0.66690067  1
  Ni  Ni13  1  0.33333333  0.66666667  0.16710967  1
  Ni  Ni14  1  0.00000000  0.00000000  0.00023400  1
  Ni  Ni15  1  0.00000000  0.00000000  0.50044300  1
  Ni  Ni16  1  0.66666667  0.33333333  0.33356733  1
  Ni  Ni17  1  0.66666667  0.33333333  0.83377633  1
  P  P18  1  0.95832133  0.33327267  0.08382867  1
  P  P19  1  0.37495133  0.04167867  0.08382867  1
  P  P20  1  0.66672733  0.62504867  0.08382867  1
  P  P21  1  0.99918933  0.70219967  0.24816867  1
  P  P22  1  0.29780033  0.29698967  0.24816867  1
  P  P23  1  0.70301033  0.00081067  0.24816867  1
  P  P24  1  0.62498800  0.66660600  0.41716200  1
  P  P25  1  0.04161800  0.37501200  0.41716200  1
  P  P26  1  0.33339400  0.95838200  0.41716200  1
  P  P27  1  0.66585600  0.03553300  0.58150200  1
  P  P28  1  0.96446700  0.63032300  0.58150200  1
  P  P29  1  0.36967700  0.33414400  0.58150200  1
  P  P30  1  0.29165467  0.99993933  0.75049533  1
  P  P31  1  0.70828467  0.70834533  0.75049533  1
  P  P32  1  0.00006067  0.29171533  0.75049533  1
  P  P33  1  0.33252267  0.36886633  0.91483533  1
  P  P34  1  0.63113367  0.96365633  0.91483533  1
  P  P35  1  0.03634367  0.66747733  0.91483533  1
  O  O36  1  0.13182633  0.66598767  0.97747167  1
  O  O37  1  0.33401233  0.46583867  0.97747167  1
  O  O38  1  0.98181000  0.16617600  0.07533100  1
  O  O39  1  0.53416133  0.86817367  0.97747167  1
  O  O40  1  0.85683933  0.32798067  0.14785867  1
  O  O41  1  0.14846800  0.50130300  0.09393200  1
  O  O42  1  0.18436600  0.01819000  0.07533100  1
  O  O43  1  0.35283500  0.85153200  0.09393200  1
  O  O44  1  0.99062633  0.79704667  0.18712267  1
  O  O45  1  0.49869700  0.64716500  0.09393200  1
  O  O46  1  0.82569100  0.50845200  0.25621900  1
  O  O47  1  0.20295333  0.19357967  0.18712267  1
  O  O48  1  0.47114133  0.14316067  0.14785867  1
  O  O49  1  0.83382400  0.81563400  0.07533100  1
  O  O50  1  0.16468600  0.67679000  0.24040200  1
  O  O51  1  0.67201933  0.52885867  0.14785867  1
  O  O52  1  0.32321000  0.48789600  0.24040200  1
  O  O53  1  0.49154800  0.31723900  0.25621900  1
  O  O54  1  0.51210400  0.83531400  0.24040200  1
  O  O55  1  0.80642033  0.00937367  0.18712267  1
  O  O56  1  0.14412467  0.46782933  0.35602933  1
  O  O57  1  0.68276100  0.17430900  0.25621900  1
  O  O58  1  0.32370467  0.85587533  0.35602933  1
  O  O59  1  0.53217067  0.67629533  0.35602933  1
  O  O60  1  0.79849300  0.99932100  0.31080500  1
  O  O61  1  0.00067900  0.79917200  0.31080500  1
  O  O62  1  0.64847667  0.49950933  0.40866433  1
  O  O63  1  0.20082800  0.20150700  0.31080500  1
  O  O64  1  0.52350600  0.66131400  0.48119200  1
  O  O65  1  0.81513467  0.83463633  0.42726533  1
  O  O66  1  0.85103267  0.35152333  0.40866433  1
  O  O67  1  0.01950167  0.18486533  0.42726533  1
  O  O68  1  0.65729300  0.13038000  0.52045600  1
  O  O69  1  0.16536367  0.98049833  0.42726533  1
  O  O70  1  0.49235767  0.84178533  0.58955233  1
  O  O71  1  0.86962000  0.52691300  0.52045600  1
  O  O72  1  0.13780800  0.47649400  0.48119200  1
  O  O73  1  0.50049067  0.14896733  0.40866433  1
  O  O74  1  0.83135267  0.01012333  0.57373533  1
  O  O75  1  0.33868600  0.86219200  0.48119200  1
  O  O76  1  0.98987667  0.82122933  0.57373533  1
  O  O77  1  0.15821467  0.65057233  0.58955233  1
  O  O78  1  0.17877067  0.16864733  0.57373533  1
  O  O79  1  0.47308700  0.34270700  0.52045600  1
  O  O80  1  0.81079133  0.80116267  0.68936267  1
  O  O81  1  0.34942767  0.50764233  0.58955233  1
  O  O82  1  0.99037133  0.18920867  0.68936267  1
  O  O83  1  0.19883733  0.00962867  0.68936267  1
  O  O84  1  0.46515967  0.33265433  0.64413833  1
  O  O85  1  0.66734567  0.13250533  0.64413833  1
  O  O86  1  0.31514333  0.83284267  0.74199767  1
  O  O87  1  0.86749467  0.53484033  0.64413833  1
  O  O88  1  0.19017267  0.99464733  0.81452533  1
  O  O89  1  0.48180133  0.16796967  0.76059867  1
  O  O90  1  0.51769933  0.68485667  0.74199767  1
  O  O91  1  0.68616833  0.51819867  0.76059867  1
  O  O92  1  0.32395967  0.46371333  0.85378933  1
  O  O93  1  0.83203033  0.31383167  0.76059867  1
  O  O94  1  0.15902433  0.17511867  0.92288567  1
  O  O95  1  0.53628667  0.86024633  0.85378933  1
  O  O96  1  0.80447467  0.80982733  0.81452533  1
  O  O97  1  0.16715733  0.48230067  0.74199767  1
  O  O98  1  0.49801933  0.34345667  0.90706867  1
  O  O99  1  0.00535267  0.19552533  0.81452533  1
  O  O100  1  0.65654333  0.15456267  0.90706867  1
  O  O101  1  0.82488133  0.98390567  0.92288567  1
  O  O102  1  0.84543733  0.50198067  0.90706867  1
  O  O103  1  0.13975367  0.67604033  0.85378933  1
  O  O104  1  0.47745800  0.13449600  0.02269600  1
  O  O105  1  0.01609433  0.84097567  0.92288567  1
  O  O106  1  0.65703800  0.52254200  0.02269600  1
  O  O107  1  0.86550400  0.34296200  0.02269600  1
