# generated using pymatgen
data_Li2VF6
_symmetry_space_group_name_H-M   'P 1'
_cell_length_a   5.55098800
_cell_length_b   15.87419800
_cell_length_c   5.61415600
_cell_angle_alpha   90.00000000
_cell_angle_beta   90.00000000
_cell_angle_gamma   90.00000000
_symmetry_Int_Tables_number   1
_chemical_formula_structural   Li2VF6
_chemical_formula_sum   'Li8 V4 F24'
_cell_volume   494.70529369
_cell_formula_units_Z   4
loop_
 _symmetry_equiv_pos_site_id
 _symmetry_equiv_pos_as_xyz
  1  'x, y, z'
loop_
 _atom_site_type_symbol
 _atom_site_label
 _atom_site_symmetry_multiplicity
 _atom_site_fract_x
 _atom_site_fract_y
 _atom_site_fract_z
 _atom_site_occupancy
  Li  Li0  1  0.50000000  0.63488000  0.75000000  1
  Li  Li1  1  0.00000000  0.83394100  0.75000000  1
  Li  Li2  1  0.50000000  0.66605900  0.25000000  1
  Li  Li3  1  0.00000000  0.86512000  0.25000000  1
  Li  Li4  1  0.00000000  0.13488000  0.75000000  1
  Li  Li5  1  0.50000000  0.33394100  0.75000000  1
  Li  Li6  1  0.00000000  0.16605900  0.25000000  1
  Li  Li7  1  0.50000000  0.36512000  0.25000000  1
  V  V8  1  0.00000000  0.62152500  0.25000000  1
  V  V9  1  0.50000000  0.87847500  0.75000000  1
  V  V10  1  0.50000000  0.12152500  0.25000000  1
  V  V11  1  0.00000000  0.37847500  0.75000000  1
  F  F12  1  0.50000000  0.98937000  0.75000000  1
  F  F13  1  0.25742550  0.62874250  0.02048300  1
  F  F14  1  0.25742550  0.62874250  0.47951700  1
  F  F15  1  0.74257450  0.62874250  0.02048300  1
  F  F16  1  0.74257450  0.62874250  0.47951700  1
  F  F17  1  0.00000000  0.73985200  0.25000000  1
  F  F18  1  0.50000000  0.76014800  0.75000000  1
  F  F19  1  0.24257450  0.87125750  0.97951700  1
  F  F20  1  0.75742550  0.87125750  0.52048300  1
  F  F21  1  0.75742550  0.87125750  0.97951700  1
  F  F22  1  0.24257450  0.87125750  0.52048300  1
  F  F23  1  0.00000000  0.51063000  0.25000000  1
  F  F24  1  0.00000000  0.48937000  0.75000000  1
  F  F25  1  0.75742550  0.12874250  0.02048300  1
  F  F26  1  0.75742550  0.12874250  0.47951700  1
  F  F27  1  0.24257450  0.12874250  0.02048300  1
  F  F28  1  0.24257450  0.12874250  0.47951700  1
  F  F29  1  0.50000000  0.23985200  0.25000000  1
  F  F30  1  0.00000000  0.26014800  0.75000000  1
  F  F31  1  0.74257450  0.37125750  0.97951700  1
  F  F32  1  0.25742550  0.37125750  0.52048300  1
  F  F33  1  0.25742550  0.37125750  0.97951700  1
  F  F34  1  0.74257450  0.37125750  0.52048300  1
  F  F35  1  0.50000000  0.01063000  0.25000000  1
