# generated using pymatgen
data_Mn2Ni(PO4)3
_symmetry_space_group_name_H-M   'P 1'
_cell_length_a   8.55363019
_cell_length_b   8.55363019
_cell_length_c   20.53095636
_cell_angle_alpha   90.00000000
_cell_angle_beta   90.00000000
_cell_angle_gamma   120.00000000
_symmetry_Int_Tables_number   1
_chemical_formula_structural   Mn2Ni(PO4)3
_chemical_formula_sum   'Mn12 Ni6 P18 O72'
_cell_volume   1300.89052708
_cell_formula_units_Z   6
loop_
 _symmetry_equiv_pos_site_id
 _symmetry_equiv_pos_as_xyz
  1  'x, y, z'
loop_
 _atom_site_type_symbol
 _atom_site_label
 _atom_site_symmetry_multiplicity
 _atom_site_fract_x
 _atom_site_fract_y
 _atom_site_fract_z
 _atom_site_occupancy
  Mn  Mn0  1  0.33333333  0.66666667  0.80862067  1
  Mn  Mn1  1  0.33333333  0.66666667  0.02471267  1
  Mn  Mn2  1  0.33333333  0.66666667  0.30862067  1
  Mn  Mn3  1  0.33333333  0.66666667  0.52471267  1
  Mn  Mn4  1  0.00000000  0.00000000  0.14195400  1
  Mn  Mn5  1  1.00000000  0.00000000  0.35804600  1
  Mn  Mn6  1  0.00000000  0.00000000  0.64195400  1
  Mn  Mn7  1  0.00000000  0.00000000  0.85804600  1
  Mn  Mn8  1  0.66666667  0.33333333  0.47528733  1
  Mn  Mn9  1  0.66666667  0.33333333  0.69137933  1
  Mn  Mn10  1  0.66666667  0.33333333  0.97528733  1
  Mn  Mn11  1  0.66666667  0.33333333  0.19137933  1
  Ni  Ni12  1  0.00000000  0.00000000  0.00000000  1
  Ni  Ni13  1  0.33333333  0.66666667  0.16666667  1
  Ni  Ni14  1  0.66666667  0.33333333  0.33333333  1
  Ni  Ni15  1  0.00000000  0.00000000  0.50000000  1
  Ni  Ni16  1  0.33333333  0.66666667  0.66666667  1
  Ni  Ni17  1  0.66666667  0.33333333  0.83333333  1
  P  P18  1  0.66666667  0.62607433  0.08333333  1
  P  P19  1  0.95940767  0.33333333  0.08333333  1
  P  P20  1  0.37392567  0.04059233  0.08333333  1
  P  P21  1  0.29274100  0.29274100  0.25000000  1
  P  P22  1  0.70725900  0.00000000  0.25000000  1
  P  P23  1  0.00000000  0.70725900  0.25000000  1
  P  P24  1  0.33333333  0.95940767  0.41666667  1
  P  P25  1  0.62607433  0.66666667  0.41666667  1
  P  P26  1  0.04059233  0.37392567  0.41666667  1
  P  P27  1  0.95940767  0.62607433  0.58333333  1
  P  P28  1  0.37392567  0.33333333  0.58333333  1
  P  P29  1  0.66666667  0.04059233  0.58333333  1
  P  P30  1  0.00000000  0.29274100  0.75000000  1
  P  P31  1  0.29274100  0.00000000  0.75000000  1
  P  P32  1  0.70725900  0.70725900  0.75000000  1
  P  P33  1  0.62607433  0.95940767  0.91666667  1
  P  P34  1  0.04059233  0.66666667  0.91666667  1
  P  P35  1  0.33333333  0.37392567  0.91666667  1
  O  O36  1  0.33469933  0.47045667  0.97916867  1
  O  O37  1  0.52954333  0.86424267  0.97916867  1
  O  O38  1  0.83604867  0.81827733  0.07514933  1
  O  O39  1  0.13575733  0.66530067  0.97916867  1
  O  O40  1  0.66803267  0.53090933  0.14583533  1
  O  O41  1  0.49728467  0.64889533  0.09151733  1
  O  O42  1  0.98222867  0.16395133  0.07514933  1
  O  O43  1  0.15161067  0.50271533  0.09151733  1
  O  O44  1  0.19757600  0.19621000  0.18749800  1
  O  O45  1  0.35110467  0.84838933  0.09151733  1
  O  O46  1  0.48494400  0.31556200  0.25818400  1
  O  O47  1  0.80379000  0.00136600  0.18749800  1
  O  O48  1  0.86287667  0.33196733  0.14583533  1
  O  O49  1  0.18172267  0.01777133  0.07514933  1
  O  O50  1  0.31556200  0.48494400  0.24181600  1
  O  O51  1  0.46909067  0.13712333  0.14583533  1
  O  O52  1  0.51505600  0.83061800  0.24181600  1
  O  O53  1  0.68443800  0.16938200  0.25818400  1
  O  O54  1  0.16938200  0.68443800  0.24181600  1
  O  O55  1  0.99863400  0.80242400  0.18749800  1
  O  O56  1  0.53090933  0.66803267  0.35416467  1
  O  O57  1  0.83061800  0.51505600  0.25818400  1
  O  O58  1  0.13712333  0.46909067  0.35416467  1
  O  O59  1  0.33196733  0.86287667  0.35416467  1
  O  O60  1  0.00136600  0.80379000  0.31250200  1
  O  O61  1  0.19621000  0.19757600  0.31250200  1
  O  O62  1  0.50271533  0.15161067  0.40848267  1
  O  O63  1  0.80242400  0.99863400  0.31250200  1
  O  O64  1  0.33469933  0.86424267  0.47916867  1
  O  O65  1  0.16395133  0.98222867  0.42485067  1
  O  O66  1  0.64889533  0.49728467  0.40848267  1
  O  O67  1  0.81827733  0.83604867  0.42485067  1
  O  O68  1  0.86424267  0.52954333  0.52083133  1
  O  O69  1  0.01777133  0.18172267  0.42485067  1
  O  O70  1  0.15161067  0.64889533  0.59151733  1
  O  O71  1  0.47045667  0.33469933  0.52083133  1
  O  O72  1  0.52954333  0.66530067  0.47916867  1
  O  O73  1  0.84838933  0.35110467  0.40848267  1
  O  O74  1  0.98222867  0.81827733  0.57514933  1
  O  O75  1  0.13575733  0.47045667  0.47916867  1
  O  O76  1  0.18172267  0.16395133  0.57514933  1
  O  O77  1  0.35110467  0.50271533  0.59151733  1
  O  O78  1  0.83604867  0.01777133  0.57514933  1
  O  O79  1  0.66530067  0.13575733  0.52083133  1
  O  O80  1  0.19757600  0.00136600  0.68749800  1
  O  O81  1  0.49728467  0.84838933  0.59151733  1
  O  O82  1  0.80379000  0.80242400  0.68749800  1
  O  O83  1  0.99863400  0.19621000  0.68749800  1
  O  O84  1  0.66803267  0.13712333  0.64583533  1
  O  O85  1  0.86287667  0.53090933  0.64583533  1
  O  O86  1  0.16938200  0.48494400  0.74181600  1
  O  O87  1  0.46909067  0.33196733  0.64583533  1
  O  O88  1  0.00136600  0.19757600  0.81250200  1
  O  O89  1  0.83061800  0.31556200  0.75818400  1
  O  O90  1  0.31556200  0.83061800  0.74181600  1
  O  O91  1  0.48494400  0.16938200  0.75818400  1
  O  O92  1  0.53090933  0.86287667  0.85416467  1
  O  O93  1  0.68443800  0.51505600  0.75818400  1
  O  O94  1  0.81827733  0.98222867  0.92485067  1
  O  O95  1  0.13712333  0.66803267  0.85416467  1
  O  O96  1  0.19621000  0.99863400  0.81250200  1
  O  O97  1  0.51505600  0.68443800  0.74181600  1
  O  O98  1  0.64889533  0.15161067  0.90848267  1
  O  O99  1  0.80242400  0.80379000  0.81250200  1
  O  O100  1  0.84838933  0.49728467  0.90848267  1
  O  O101  1  0.01777133  0.83604867  0.92485067  1
  O  O102  1  0.50271533  0.35110467  0.90848267  1
  O  O103  1  0.33196733  0.46909067  0.85416467  1
  O  O104  1  0.86424267  0.33469933  0.02083133  1
  O  O105  1  0.16395133  0.18172267  0.92485067  1
  O  O106  1  0.47045667  0.13575733  0.02083133  1
  O  O107  1  0.66530067  0.52954333  0.02083133  1
