# generated using pymatgen
data_Li4CrFe3O8
_symmetry_space_group_name_H-M   'P 1'
_cell_length_a   5.19603164
_cell_length_b   5.96928957
_cell_length_c   10.75608966
_cell_angle_alpha   106.06307915
_cell_angle_beta   94.58705191
_cell_angle_gamma   106.80644407
_symmetry_Int_Tables_number   1
_chemical_formula_structural   Li4CrFe3O8
_chemical_formula_sum   'Li8 Cr2 Fe6 O16'
_cell_volume   302.22245726
_cell_formula_units_Z   2
loop_
 _symmetry_equiv_pos_site_id
 _symmetry_equiv_pos_as_xyz
  1  'x, y, z'
loop_
 _atom_site_type_symbol
 _atom_site_label
 _atom_site_symmetry_multiplicity
 _atom_site_fract_x
 _atom_site_fract_y
 _atom_site_fract_z
 _atom_site_occupancy
  Li  Li0  1  0.49914630  0.74972884  0.99983765  1
  Li  Li1  1  0.50022844  0.12587605  0.74958965  1
  Li  Li2  1  0.50294098  0.37625375  0.24980411  1
  Li  Li3  1  0.50000000  0.00000000  0.50000000  1
  Li  Li4  1  0.50085371  0.25027116  0.00016235  1
  Li  Li5  1  0.49705902  0.62374625  0.75019589  1
  Li  Li6  1  0.49977155  0.87412395  0.25041035  1
  Li  Li7  1  0.50000000  0.50000000  0.50000000  1
  Cr  Cr8  1  0.00118594  0.68660069  0.37620630  1
  Cr  Cr9  1  0.99881406  0.31339931  0.62379370  1
  Fe  Fe10  1  0.99898895  0.93810605  0.87408919  1
  Fe  Fe11  1  1.00000000  0.56229270  0.12575410  1
  Fe  Fe12  1  0.00110605  0.18671565  0.37562141  1
  Fe  Fe13  1  0.00000000  0.43770730  0.87424590  1
  Fe  Fe14  1  0.99889396  0.81328435  0.62437859  1
  Fe  Fe15  1  0.00101105  0.06189395  0.12591081  1
  O  O16  1  0.77345347  0.34953818  0.43965355  1
  O  O17  1  0.22723792  0.52722188  0.31177657  1
  O  O18  1  0.77065784  0.59826927  0.93839809  1
  O  O19  1  0.22885245  0.77767968  0.81014927  1
  O  O20  1  0.22631505  0.15326723  0.56084391  1
  O  O21  1  0.77040990  0.97528928  0.68739142  1
  O  O22  1  0.77114755  0.22232032  0.18985073  1
  O  O23  1  0.22934216  0.40173073  0.06160191  1
  O  O24  1  0.77368496  0.84673277  0.43915609  1
  O  O25  1  0.22959010  0.02471072  0.31260858  1
  O  O26  1  0.77136279  0.09801344  0.93953449  1
  O  O27  1  0.22598084  0.27757083  0.80857248  1
  O  O28  1  0.77276208  0.47277812  0.68822343  1
  O  O29  1  0.77401916  0.72242917  0.19142752  1
  O  O30  1  0.22654653  0.65046182  0.56034645  1
  O  O31  1  0.22863721  0.90198656  0.06046551  1
