# generated using pymatgen
data_Li4MnOF5
_symmetry_space_group_name_H-M   'P 1'
_cell_length_a   10.07903036
_cell_length_b   3.76303270
_cell_length_c   6.44396193
_cell_angle_alpha   90.00000000
_cell_angle_beta   112.80784936
_cell_angle_gamma   90.00000000
_symmetry_Int_Tables_number   1
_chemical_formula_structural   Li4MnOF5
_chemical_formula_sum   'Li8 Mn2 O2 F10'
_cell_volume   225.29479156
_cell_formula_units_Z   2
loop_
 _symmetry_equiv_pos_site_id
 _symmetry_equiv_pos_as_xyz
  1  'x, y, z'
loop_
 _atom_site_type_symbol
 _atom_site_label
 _atom_site_symmetry_multiplicity
 _atom_site_fract_x
 _atom_site_fract_y
 _atom_site_fract_z
 _atom_site_occupancy
  Li  Li0  1  0.15681875  0.50000000  0.80009450  1
  Li  Li1  1  0.34318125  0.00000000  0.19990550  1
  Li  Li2  1  0.14365175  0.50000000  0.37844200  1
  Li  Li3  1  0.35634825  0.00000000  0.62155800  1
  Li  Li4  1  0.65681875  0.00000000  0.80009450  1
  Li  Li5  1  0.84318125  0.50000000  0.19990550  1
  Li  Li6  1  0.64365175  0.00000000  0.37844200  1
  Li  Li7  1  0.85634825  0.50000000  0.62155800  1
  Mn  Mn8  1  0.00000000  0.00000000  0.00000000  1
  Mn  Mn9  1  0.50000000  0.50000000  0.00000000  1
  O  O10  1  0.00000000  0.50000000  0.00000000  1
  O  O11  1  0.50000000  0.00000000  0.00000000  1
  F  F12  1  0.00000000  0.50000000  0.50000000  1
  F  F13  1  0.18888325  0.00000000  0.32540350  1
  F  F14  1  0.31111675  0.50000000  0.67459650  1
  F  F15  1  0.14895825  0.00000000  0.87717200  1
  F  F16  1  0.35104175  0.50000000  0.12282800  1
  F  F17  1  0.50000000  0.00000000  0.50000000  1
  F  F18  1  0.68888325  0.50000000  0.32540350  1
  F  F19  1  0.81111675  0.00000000  0.67459650  1
  F  F20  1  0.64895825  0.50000000  0.87717200  1
  F  F21  1  0.85104175  0.00000000  0.12282800  1
