# generated using pymatgen
data_Li4Nb3Fe5O16
_symmetry_space_group_name_H-M   'P 1'
_cell_length_a   10.61771800
_cell_length_b   6.10472200
_cell_length_c   9.84656547
_cell_angle_alpha   90.00000000
_cell_angle_beta   90.48547906
_cell_angle_gamma   90.00000000
_symmetry_Int_Tables_number   1
_chemical_formula_structural   Li4Nb3Fe5O16
_chemical_formula_sum   'Li8 Nb6 Fe10 O32'
_cell_volume   638.21390274
_cell_formula_units_Z   2
loop_
 _symmetry_equiv_pos_site_id
 _symmetry_equiv_pos_as_xyz
  1  'x, y, z'
loop_
 _atom_site_type_symbol
 _atom_site_label
 _atom_site_symmetry_multiplicity
 _atom_site_fract_x
 _atom_site_fract_y
 _atom_site_fract_z
 _atom_site_occupancy
  Li  Li0  1  0.67147800  0.00000000  0.09999600  1
  Li  Li1  1  0.50526100  0.50000000  0.99820400  1
  Li  Li2  1  0.51246300  0.50000000  0.50823400  1
  Li  Li3  1  0.83606100  0.50000000  0.61721700  1
  Li  Li4  1  0.17147800  0.50000000  0.09999600  1
  Li  Li5  1  0.00526100  0.00000000  0.99820400  1
  Li  Li6  1  0.01246300  0.00000000  0.50823400  1
  Li  Li7  1  0.33606100  0.00000000  0.61721700  1
  Nb  Nb8  1  0.82724900  0.00000000  0.78219600  1
  Nb  Nb9  1  0.91610150  0.25256550  0.28458200  1
  Nb  Nb10  1  0.91610150  0.74743450  0.28458200  1
  Nb  Nb11  1  0.32724900  0.50000000  0.78219600  1
  Nb  Nb12  1  0.41610150  0.75256550  0.28458200  1
  Nb  Nb13  1  0.41610150  0.24743450  0.28458200  1
  Fe  Fe14  1  0.58230850  0.75814350  0.78685700  1
  Fe  Fe15  1  0.65476100  0.00000000  0.51337400  1
  Fe  Fe16  1  0.58230850  0.24185650  0.78685700  1
  Fe  Fe17  1  0.67073800  0.50000000  0.28109700  1
  Fe  Fe18  1  0.82323800  0.50000000  0.99725900  1
  Fe  Fe19  1  0.08230850  0.25814350  0.78685700  1
  Fe  Fe20  1  0.15476100  0.50000000  0.51337400  1
  Fe  Fe21  1  0.08230850  0.74185650  0.78685700  1
  Fe  Fe22  1  0.17073800  0.00000000  0.28109700  1
  Fe  Fe23  1  0.32323800  0.00000000  0.99725900  1
  O  O24  1  0.57158100  0.74153200  0.39532500  1
  O  O25  1  0.51562500  0.00000000  0.67289000  1
  O  O26  1  0.67078000  0.00000000  0.89876700  1
  O  O27  1  0.99727400  0.00000000  0.69157200  1
  O  O28  1  0.98976900  0.00000000  0.18040900  1
  O  O29  1  0.57158100  0.25846800  0.39532500  1
  O  O30  1  0.74398300  0.77728900  0.66762000  1
  O  O31  1  0.74398300  0.22271100  0.66762000  1
  O  O32  1  0.66084900  0.50000000  0.89981400  1
  O  O33  1  0.83911800  0.00000000  0.39506600  1
  O  O34  1  0.76925450  0.27846750  0.15514000  1
  O  O35  1  0.76925450  0.72153250  0.15514000  1
  O  O36  1  0.84625200  0.50000000  0.40119000  1
  O  O37  1  0.91318000  0.24326700  0.90256700  1
  O  O38  1  0.98658100  0.50000000  0.16928400  1
  O  O39  1  0.91318000  0.75673300  0.90256700  1
  O  O40  1  0.07158100  0.24153200  0.39532500  1
  O  O41  1  0.01562500  0.50000000  0.67289000  1
  O  O42  1  0.17078000  0.50000000  0.89876700  1
  O  O43  1  0.49727400  0.50000000  0.69157200  1
  O  O44  1  0.48976900  0.50000000  0.18040900  1
  O  O45  1  0.07158100  0.75846800  0.39532500  1
  O  O46  1  0.24398300  0.27728900  0.66762000  1
  O  O47  1  0.24398300  0.72271100  0.66762000  1
  O  O48  1  0.16084900  0.00000000  0.89981400  1
  O  O49  1  0.33911800  0.50000000  0.39506600  1
  O  O50  1  0.26925450  0.77846750  0.15514000  1
  O  O51  1  0.26925450  0.22153250  0.15514000  1
  O  O52  1  0.34625200  0.00000000  0.40119000  1
  O  O53  1  0.41318000  0.74326700  0.90256700  1
  O  O54  1  0.48658100  0.00000000  0.16928400  1
  O  O55  1  0.41318000  0.25673300  0.90256700  1
