# generated using pymatgen
data_Cu3OF5
_symmetry_space_group_name_H-M   'P 1'
_cell_length_a   4.60509854
_cell_length_b   5.96593000
_cell_length_c   7.55532583
_cell_angle_alpha   91.27746013
_cell_angle_beta   90.88273913
_cell_angle_gamma   92.59953352
_symmetry_Int_Tables_number   1
_chemical_formula_structural   Cu3OF5
_chemical_formula_sum   'Cu6 O2 F10'
_cell_volume   207.27956799
_cell_formula_units_Z   2
loop_
 _symmetry_equiv_pos_site_id
 _symmetry_equiv_pos_as_xyz
  1  'x, y, z'
loop_
 _atom_site_type_symbol
 _atom_site_label
 _atom_site_symmetry_multiplicity
 _atom_site_fract_x
 _atom_site_fract_y
 _atom_site_fract_z
 _atom_site_occupancy
  Cu  Cu0  1  0.97371500  0.80628650  0.66676050  1
  Cu  Cu1  1  0.52285000  0.34299850  0.67744350  1
  Cu  Cu2  1  0.02628500  0.19371350  0.33323950  1
  Cu  Cu3  1  0.50000000  0.00000000  0.00000000  1
  Cu  Cu4  1  0.47715000  0.65700150  0.32255650  1
  Cu  Cu5  1  0.00000000  0.50000000  0.00000000  1
  O  O6  1  0.18740800  0.47105450  0.22029950  1
  O  O7  1  0.81259200  0.52894550  0.77970050  1
  F  F8  1  0.78417200  0.85123150  0.43406850  1
  F  F9  1  0.21582800  0.14876850  0.56593150  1
  F  F10  1  0.29484900  0.98754350  0.21979250  1
  F  F11  1  0.71488000  0.35034350  0.45297250  1
  F  F12  1  0.28512000  0.64965650  0.54702750  1
  F  F13  1  0.79717200  0.18340950  0.11008950  1
  F  F14  1  0.70515100  0.01245650  0.78020750  1
  F  F15  1  0.30553700  0.32319450  0.89262150  1
  F  F16  1  0.69446300  0.67680550  0.10737850  1
  F  F17  1  0.20282800  0.81659050  0.88991050  1
