# generated using pymatgen
data_Li2Mn2Si3O10
_symmetry_space_group_name_H-M   'P 1'
_cell_length_a   9.49873800
_cell_length_b   5.60033400
_cell_length_c   16.20171025
_cell_angle_alpha   90.00000000
_cell_angle_beta   94.98752186
_cell_angle_gamma   90.00000000
_symmetry_Int_Tables_number   1
_chemical_formula_structural   Li2Mn2Si3O10
_chemical_formula_sum   'Li8 Mn8 Si12 O40'
_cell_volume   858.60455739
_cell_formula_units_Z   4
loop_
 _symmetry_equiv_pos_site_id
 _symmetry_equiv_pos_as_xyz
  1  'x, y, z'
loop_
 _atom_site_type_symbol
 _atom_site_label
 _atom_site_symmetry_multiplicity
 _atom_site_fract_x
 _atom_site_fract_y
 _atom_site_fract_z
 _atom_site_occupancy
  Li  Li0  1  0.30849650  0.10216450  0.77428000  1
  Li  Li1  1  0.30849650  0.89783550  0.27428000  1
  Li  Li2  1  0.74202800  0.89517700  0.55068200  1
  Li  Li3  1  0.74202800  0.10482300  0.05068200  1
  Li  Li4  1  0.80849650  0.60216450  0.77428000  1
  Li  Li5  1  0.80849650  0.39783550  0.27428000  1
  Li  Li6  1  0.24202800  0.39517700  0.55068200  1
  Li  Li7  1  0.24202800  0.60482300  0.05068200  1
  Mn  Mn8  1  0.59074300  0.39763300  0.57716100  1
  Mn  Mn9  1  0.59074300  0.60236700  0.07716100  1
  Mn  Mn10  1  0.41100750  0.38238550  0.91967800  1
  Mn  Mn11  1  0.41100750  0.61761450  0.41967800  1
  Mn  Mn12  1  0.09074300  0.89763300  0.57716100  1
  Mn  Mn13  1  0.09074300  0.10236700  0.07716100  1
  Mn  Mn14  1  0.91100750  0.88238550  0.91967800  1
  Mn  Mn15  1  0.91100750  0.11761450  0.41967800  1
  Si  Si16  1  0.49920750  0.61440350  0.74980600  1
  Si  Si17  1  0.42147900  0.91064700  0.59908500  1
  Si  Si18  1  0.58211200  0.88801500  0.90206800  1
  Si  Si19  1  0.42147900  0.08935300  0.09908500  1
  Si  Si20  1  0.58211200  0.11198500  0.40206800  1
  Si  Si21  1  0.49920750  0.38559650  0.24980600  1
  Si  Si22  1  0.99920750  0.11440350  0.74980600  1
  Si  Si23  1  0.92147900  0.41064700  0.59908500  1
  Si  Si24  1  0.08211200  0.38801500  0.90206800  1
  Si  Si25  1  0.92147900  0.58935300  0.09908500  1
  Si  Si26  1  0.08211200  0.61198500  0.40206800  1
  Si  Si27  1  0.99920750  0.88559650  0.24980600  1
  O  O28  1  0.09876050  0.97163250  0.69066600  1
  O  O29  1  0.09876050  0.02836750  0.19066600  1
  O  O30  1  0.40348750  0.82057650  0.69651100  1
  O  O31  1  0.44064300  0.05223000  0.88966100  1
  O  O32  1  0.43100000  0.65796700  0.54453300  1
  O  O33  1  0.55093550  0.65067450  0.95941600  1
  O  O34  1  0.28065600  0.06271800  0.57059400  1
  O  O35  1  0.28065600  0.93728200  0.07059400  1
  O  O36  1  0.44064300  0.94777000  0.38966100  1
  O  O37  1  0.61467300  0.75914500  0.81316400  1
  O  O38  1  0.40348750  0.17942350  0.19651100  1
  O  O39  1  0.57010100  0.05349100  0.59416700  1
  O  O40  1  0.72362300  0.02703500  0.93628200  1
  O  O41  1  0.72362300  0.97296500  0.43628200  1
  O  O42  1  0.43100000  0.34203300  0.04453300  1
  O  O43  1  0.55093550  0.34932550  0.45941600  1
  O  O44  1  0.57010100  0.94650900  0.09416700  1
  O  O45  1  0.61467300  0.24085500  0.31316400  1
  O  O46  1  0.89998800  0.94524400  0.80224000  1
  O  O47  1  0.89998800  0.05475600  0.30224000  1
  O  O48  1  0.59876050  0.47163250  0.69066600  1
  O  O49  1  0.59876050  0.52836750  0.19066600  1
  O  O50  1  0.90348750  0.32057650  0.69651100  1
  O  O51  1  0.94064300  0.55223000  0.88966100  1
  O  O52  1  0.93100000  0.15796700  0.54453300  1
  O  O53  1  0.05093550  0.15067450  0.95941600  1
  O  O54  1  0.78065600  0.56271800  0.57059400  1
  O  O55  1  0.78065600  0.43728200  0.07059400  1
  O  O56  1  0.94064300  0.44777000  0.38966100  1
  O  O57  1  0.11467300  0.25914500  0.81316400  1
  O  O58  1  0.90348750  0.67942350  0.19651100  1
  O  O59  1  0.07010100  0.55349100  0.59416700  1
  O  O60  1  0.22362300  0.52703500  0.93628200  1
  O  O61  1  0.22362300  0.47296500  0.43628200  1
  O  O62  1  0.93100000  0.84203300  0.04453300  1
  O  O63  1  0.05093550  0.84932550  0.45941600  1
  O  O64  1  0.07010100  0.44650900  0.09416700  1
  O  O65  1  0.11467300  0.74085500  0.31316400  1
  O  O66  1  0.39998800  0.44524400  0.80224000  1
  O  O67  1  0.39998800  0.55475600  0.30224000  1
