# generated using pymatgen
data_Li4Mn3Co2Sn3O16
_symmetry_space_group_name_H-M   'P 1'
_cell_length_a   10.53819000
_cell_length_b   6.08904400
_cell_length_c   9.76504512
_cell_angle_alpha   90.00000000
_cell_angle_beta   90.44166390
_cell_angle_gamma   90.00000000
_symmetry_Int_Tables_number   1
_chemical_formula_structural   Li4Mn3Co2Sn3O16
_chemical_formula_sum   'Li8 Mn6 Co4 Sn6 O32'
_cell_volume   626.57994176
_cell_formula_units_Z   2
loop_
 _symmetry_equiv_pos_site_id
 _symmetry_equiv_pos_as_xyz
  1  'x, y, z'
loop_
 _atom_site_type_symbol
 _atom_site_label
 _atom_site_symmetry_multiplicity
 _atom_site_fract_x
 _atom_site_fract_y
 _atom_site_fract_z
 _atom_site_occupancy
  Li  Li0  1  0.32692200  0.00000000  0.88263900  1
  Li  Li1  1  0.01338700  0.00000000  0.99504100  1
  Li  Li2  1  0.01050400  0.00000000  0.50205100  1
  Li  Li3  1  0.66198900  0.00000000  0.39125800  1
  Li  Li4  1  0.82692200  0.50000000  0.88263900  1
  Li  Li5  1  0.51338700  0.50000000  0.99504100  1
  Li  Li6  1  0.51050400  0.50000000  0.50205100  1
  Li  Li7  1  0.16198900  0.50000000  0.39125800  1
  Mn  Mn8  1  0.16831200  0.00000000  0.21629700  1
  Mn  Mn9  1  0.58360250  0.75391050  0.71524000  1
  Mn  Mn10  1  0.58360250  0.24608950  0.71524000  1
  Mn  Mn11  1  0.66831200  0.50000000  0.21629700  1
  Mn  Mn12  1  0.08360250  0.25391050  0.71524000  1
  Mn  Mn13  1  0.08360250  0.74608950  0.71524000  1
  Co  Co14  1  0.33143600  0.00000000  0.49745100  1
  Co  Co15  1  0.66343400  0.00000000  0.99039300  1
  Co  Co16  1  0.83143600  0.50000000  0.49745100  1
  Co  Co17  1  0.16343400  0.50000000  0.99039300  1
  Sn  Sn18  1  0.41428550  0.75351550  0.21463000  1
  Sn  Sn19  1  0.41428550  0.24648450  0.21463000  1
  Sn  Sn20  1  0.83012300  0.00000000  0.71457100  1
  Sn  Sn21  1  0.91428550  0.25351550  0.21463000  1
  Sn  Sn22  1  0.91428550  0.74648450  0.21463000  1
  Sn  Sn23  1  0.33012300  0.50000000  0.71457100  1
  O  O24  1  0.42632300  0.74044100  0.60253900  1
  O  O25  1  0.48229400  0.00000000  0.34100000  1
  O  O26  1  0.32120200  0.00000000  0.09968700  1
  O  O27  1  0.01001600  0.00000000  0.31805100  1
  O  O28  1  0.01034400  0.00000000  0.81111900  1
  O  O29  1  0.42632300  0.25955900  0.60253900  1
  O  O30  1  0.25145750  0.78124050  0.33505000  1
  O  O31  1  0.25145750  0.21875950  0.33505000  1
  O  O32  1  0.84349300  0.00000000  0.09263000  1
  O  O33  1  0.16000000  0.00000000  0.61193100  1
  O  O34  1  0.73342450  0.77165950  0.83294100  1
  O  O35  1  0.73342450  0.22834050  0.83294100  1
  O  O36  1  0.65438000  0.00000000  0.60659900  1
  O  O37  1  0.58488050  0.73437750  0.10452100  1
  O  O38  1  0.51743800  0.00000000  0.82710200  1
  O  O39  1  0.58488050  0.26562250  0.10452100  1
  O  O40  1  0.92632300  0.24044100  0.60253900  1
  O  O41  1  0.98229400  0.50000000  0.34100000  1
  O  O42  1  0.82120200  0.50000000  0.09968700  1
  O  O43  1  0.51001600  0.50000000  0.31805100  1
  O  O44  1  0.51034400  0.50000000  0.81111900  1
  O  O45  1  0.92632300  0.75955900  0.60253900  1
  O  O46  1  0.75145750  0.28124050  0.33505000  1
  O  O47  1  0.75145750  0.71875950  0.33505000  1
  O  O48  1  0.34349300  0.50000000  0.09263000  1
  O  O49  1  0.66000000  0.50000000  0.61193100  1
  O  O50  1  0.23342450  0.27165950  0.83294100  1
  O  O51  1  0.23342450  0.72834050  0.83294100  1
  O  O52  1  0.15438000  0.50000000  0.60659900  1
  O  O53  1  0.08488050  0.23437750  0.10452100  1
  O  O54  1  0.01743800  0.50000000  0.82710200  1
  O  O55  1  0.08488050  0.76562250  0.10452100  1
