# generated using pymatgen
data_Li4Co3OF8
_symmetry_space_group_name_H-M   'P 1'
_cell_length_a   9.78160600
_cell_length_b   2.86592800
_cell_length_c   11.51812734
_cell_angle_alpha   90.00000000
_cell_angle_beta   101.87201051
_cell_angle_gamma   90.00000000
_symmetry_Int_Tables_number   1
_chemical_formula_structural   Li4Co3OF8
_chemical_formula_sum   'Li8 Co6 O2 F16'
_cell_volume   315.98523434
_cell_formula_units_Z   2
loop_
 _symmetry_equiv_pos_site_id
 _symmetry_equiv_pos_as_xyz
  1  'x, y, z'
loop_
 _atom_site_type_symbol
 _atom_site_label
 _atom_site_symmetry_multiplicity
 _atom_site_fract_x
 _atom_site_fract_y
 _atom_site_fract_z
 _atom_site_occupancy
  Li  Li0  1  0.63370700  0.50000000  0.55812200  1
  Li  Li1  1  0.72951400  0.50000000  0.87343900  1
  Li  Li2  1  0.85211500  0.00000000  0.44491300  1
  Li  Li3  1  0.50666400  0.50000000  0.99391200  1
  Li  Li4  1  0.13370700  0.00000000  0.55812200  1
  Li  Li5  1  0.22951400  0.00000000  0.87343900  1
  Li  Li6  1  0.35211500  0.50000000  0.44491300  1
  Li  Li7  1  0.00666400  0.00000000  0.99391200  1
  Co  Co8  1  0.57622500  0.00000000  0.27034800  1
  Co  Co9  1  0.76060300  0.00000000  0.12281100  1
  Co  Co10  1  0.93018700  0.50000000  0.70170000  1
  Co  Co11  1  0.07622500  0.50000000  0.27034800  1
  Co  Co12  1  0.26060300  0.50000000  0.12281100  1
  Co  Co13  1  0.43018700  0.00000000  0.70170000  1
  O  O14  1  0.63520700  0.50000000  0.16489200  1
  O  O15  1  0.13520700  0.00000000  0.16489200  1
  F  F16  1  0.63215900  0.00000000  0.94827400  1
  F  F17  1  0.58626200  0.50000000  0.72558100  1
  F  F18  1  0.68945100  0.50000000  0.40071300  1
  F  F19  1  0.79011200  0.00000000  0.60679300  1
  F  F20  1  0.87143300  0.00000000  0.83096300  1
  F  F21  1  0.91689800  0.00000000  0.28687500  1
  F  F22  1  0.87564700  0.50000000  0.04786600  1
  F  F23  1  0.98645600  0.50000000  0.52327700  1
  F  F24  1  0.13215900  0.50000000  0.94827400  1
  F  F25  1  0.08626200  0.00000000  0.72558100  1
  F  F26  1  0.18945100  0.00000000  0.40071300  1
  F  F27  1  0.29011200  0.50000000  0.60679300  1
  F  F28  1  0.37143300  0.50000000  0.83096300  1
  F  F29  1  0.41689800  0.50000000  0.28687500  1
  F  F30  1  0.37564700  0.00000000  0.04786600  1
  F  F31  1  0.48645600  0.00000000  0.52327700  1
