# generated using pymatgen
data_LiMnCuO4
_symmetry_space_group_name_H-M   'P 1'
_cell_length_a   5.77066600
_cell_length_b   5.85149600
_cell_length_c   8.44745800
_cell_angle_alpha   90.00000000
_cell_angle_beta   90.00000000
_cell_angle_gamma   90.00000000
_symmetry_Int_Tables_number   1
_chemical_formula_structural   LiMnCuO4
_chemical_formula_sum   'Li4 Mn4 Cu4 O16'
_cell_volume   285.24555940
_cell_formula_units_Z   4
loop_
 _symmetry_equiv_pos_site_id
 _symmetry_equiv_pos_as_xyz
  1  'x, y, z'
loop_
 _atom_site_type_symbol
 _atom_site_label
 _atom_site_symmetry_multiplicity
 _atom_site_fract_x
 _atom_site_fract_y
 _atom_site_fract_z
 _atom_site_occupancy
  Li  Li0  1  0.50000000  0.75000000  0.87930800  1
  Li  Li1  1  0.00000000  0.75000000  0.62069200  1
  Li  Li2  1  0.00000000  0.25000000  0.37930800  1
  Li  Li3  1  0.50000000  0.25000000  0.12069200  1
  Mn  Mn4  1  0.25000000  0.25000000  0.75000000  1
  Mn  Mn5  1  0.75000000  0.25000000  0.75000000  1
  Mn  Mn6  1  0.75000000  0.75000000  0.25000000  1
  Mn  Mn7  1  0.25000000  0.75000000  0.25000000  1
  Cu  Cu8  1  0.00000000  0.50000000  0.00000000  1
  Cu  Cu9  1  0.00000000  0.00000000  0.00000000  1
  Cu  Cu10  1  0.50000000  0.00000000  0.50000000  1
  Cu  Cu11  1  0.50000000  0.50000000  0.50000000  1
  O  O12  1  0.27293100  0.25000000  0.52210700  1
  O  O13  1  0.50000000  0.03067200  0.75084200  1
  O  O14  1  0.50000000  0.46932800  0.75084200  1
  O  O15  1  0.72706900  0.25000000  0.52210700  1
  O  O16  1  0.77293100  0.25000000  0.97789300  1
  O  O17  1  0.00000000  0.46932800  0.74915800  1
  O  O18  1  0.00000000  0.03067200  0.74915800  1
  O  O19  1  0.22706900  0.25000000  0.97789300  1
  O  O20  1  0.77293100  0.75000000  0.02210700  1
  O  O21  1  0.00000000  0.53067200  0.25084200  1
  O  O22  1  0.00000000  0.96932800  0.25084200  1
  O  O23  1  0.22706900  0.75000000  0.02210700  1
  O  O24  1  0.27293100  0.75000000  0.47789300  1
  O  O25  1  0.50000000  0.96932800  0.24915800  1
  O  O26  1  0.50000000  0.53067200  0.24915800  1
  O  O27  1  0.72706900  0.75000000  0.47789300  1
