# generated using pymatgen
data_LiFe(CO3)2
_symmetry_space_group_name_H-M   'P 1'
_cell_length_a   4.69911044
_cell_length_b   4.69911044
_cell_length_c   15.29624148
_cell_angle_alpha   90.00000000
_cell_angle_beta   90.00000000
_cell_angle_gamma   120.00000000
_symmetry_Int_Tables_number   1
_chemical_formula_structural   LiFe(CO3)2
_chemical_formula_sum   'Li3 Fe3 C6 O18'
_cell_volume   292.51400644
_cell_formula_units_Z   3
loop_
 _symmetry_equiv_pos_site_id
 _symmetry_equiv_pos_as_xyz
  1  'x, y, z'
loop_
 _atom_site_type_symbol
 _atom_site_label
 _atom_site_symmetry_multiplicity
 _atom_site_fract_x
 _atom_site_fract_y
 _atom_site_fract_z
 _atom_site_occupancy
  Li  Li0  1  0.00000000  0.00000000  0.00000000  1
  Li  Li1  1  0.66666667  0.33333333  0.33333333  1
  Li  Li2  1  0.33333333  0.66666667  0.66666667  1
  Fe  Fe3  1  0.33333333  0.66666667  0.16666667  1
  Fe  Fe4  1  1.00000000  0.00000000  0.50000000  1
  Fe  Fe5  1  0.66666667  0.33333333  0.83333333  1
  C  C6  1  0.00000000  0.00000000  0.24415658  1
  C  C7  1  0.66666667  0.33333333  0.08917675  1
  C  C8  1  0.66666667  0.33333333  0.57748992  1
  C  C9  1  0.33333333  0.66666667  0.42251008  1
  C  C10  1  0.33333333  0.66666667  0.91082325  1
  C  C11  1  0.00000000  0.00000000  0.75584342  1
  O  O12  1  0.40014167  0.35119633  0.08847408  1
  O  O13  1  0.01786300  0.28438800  0.24485925  1
  O  O14  1  0.71561200  0.73347500  0.24485925  1
  O  O15  1  0.95105467  0.59985833  0.08847408  1
  O  O16  1  0.64880367  0.04894533  0.08847408  1
  O  O17  1  0.26652500  0.98213700  0.24485925  1
  O  O18  1  0.06680833  0.68452967  0.42180742  1
  O  O19  1  0.68452967  0.61772133  0.57819258  1
  O  O20  1  0.38227867  0.06680833  0.57819258  1
  O  O21  1  0.61772133  0.93319167  0.42180742  1
  O  O22  1  0.31547033  0.38227867  0.42180742  1
  O  O23  1  0.93319167  0.31547033  0.57819258  1
  O  O24  1  0.73347500  0.01786300  0.75514075  1
  O  O25  1  0.35119633  0.95105467  0.91152592  1
  O  O26  1  0.04894533  0.40014167  0.91152592  1
  O  O27  1  0.28438800  0.26652500  0.75514075  1
  O  O28  1  0.98213700  0.71561200  0.75514075  1
  O  O29  1  0.59985833  0.64880367  0.91152592  1
