# generated using pymatgen
data_Li8Sb7S19
_symmetry_space_group_name_H-M   'P 1'
_cell_length_a   12.87992400
_cell_length_b   10.31825400
_cell_length_c   22.40933081
_cell_angle_alpha   90.00000000
_cell_angle_beta   95.17139917
_cell_angle_gamma   90.00000000
_symmetry_Int_Tables_number   1
_chemical_formula_structural   Li8Sb7S19
_chemical_formula_sum   'Li32 Sb28 S76'
_cell_volume   2966.04001982
_cell_formula_units_Z   4
loop_
 _symmetry_equiv_pos_site_id
 _symmetry_equiv_pos_as_xyz
  1  'x, y, z'
loop_
 _atom_site_type_symbol
 _atom_site_label
 _atom_site_symmetry_multiplicity
 _atom_site_fract_x
 _atom_site_fract_y
 _atom_site_fract_z
 _atom_site_occupancy
  Li  Li0  1  0.38595650  0.61991350  0.49472800  1
  Li  Li1  1  0.38595650  0.38008650  0.99472800  1
  Li  Li2  1  0.65395200  0.10038400  0.59727700  1
  Li  Li3  1  0.65395200  0.89961600  0.09727700  1
  Li  Li4  1  0.61214600  0.99781500  0.93710300  1
  Li  Li5  1  0.61214600  0.00218500  0.43710300  1
  Li  Li6  1  0.57948550  0.71862150  0.86103000  1
  Li  Li7  1  0.57948550  0.28137850  0.36103000  1
  Li  Li8  1  0.42051450  0.71862150  0.63897000  1
  Li  Li9  1  0.42051450  0.28137850  0.13897000  1
  Li  Li10  1  0.38785400  0.99781500  0.56289700  1
  Li  Li11  1  0.38785400  0.00218500  0.06289700  1
  Li  Li12  1  0.34604800  0.10038400  0.90272300  1
  Li  Li13  1  0.34604800  0.89961600  0.40272300  1
  Li  Li14  1  0.61404350  0.61991350  0.00527200  1
  Li  Li15  1  0.61404350  0.38008650  0.50527200  1
  Li  Li16  1  0.88595650  0.11991350  0.49472800  1
  Li  Li17  1  0.88595650  0.88008650  0.99472800  1
  Li  Li18  1  0.15395200  0.60038400  0.59727700  1
  Li  Li19  1  0.15395200  0.39961600  0.09727700  1
  Li  Li20  1  0.11214600  0.49781500  0.93710300  1
  Li  Li21  1  0.11214600  0.50218500  0.43710300  1
  Li  Li22  1  0.07948550  0.21862150  0.86103000  1
  Li  Li23  1  0.07948550  0.78137850  0.36103000  1
  Li  Li24  1  0.92051450  0.21862150  0.63897000  1
  Li  Li25  1  0.92051450  0.78137850  0.13897000  1
  Li  Li26  1  0.88785400  0.49781500  0.56289700  1
  Li  Li27  1  0.88785400  0.50218500  0.06289700  1
  Li  Li28  1  0.84604800  0.60038400  0.90272300  1
  Li  Li29  1  0.84604800  0.39961600  0.40272300  1
  Li  Li30  1  0.11404350  0.11991350  0.00527200  1
  Li  Li31  1  0.11404350  0.88008650  0.50527200  1
  Sb  Sb32  1  0.78921800  0.91207500  0.83775000  1
  Sb  Sb33  1  0.78921800  0.08792500  0.33775000  1
  Sb  Sb34  1  0.64368100  0.75082700  0.56783100  1
  Sb  Sb35  1  0.64368100  0.24917300  0.06783100  1
  Sb  Sb36  1  0.56860150  0.32881750  0.88728300  1
  Sb  Sb37  1  0.56860150  0.67118250  0.38728300  1
  Sb  Sb38  1  0.50000000  0.95779600  0.75000000  1
  Sb  Sb39  1  0.50000000  0.04220400  0.25000000  1
  Sb  Sb40  1  0.43139850  0.32881750  0.61271700  1
  Sb  Sb41  1  0.43139850  0.67118250  0.11271700  1
  Sb  Sb42  1  0.35631900  0.75082700  0.93216900  1
  Sb  Sb43  1  0.35631900  0.24917300  0.43216900  1
  Sb  Sb44  1  0.21078200  0.91207500  0.66225000  1
  Sb  Sb45  1  0.21078200  0.08792500  0.16225000  1
  Sb  Sb46  1  0.28921800  0.41207500  0.83775000  1
  Sb  Sb47  1  0.28921800  0.58792500  0.33775000  1
  Sb  Sb48  1  0.14368100  0.25082700  0.56783100  1
  Sb  Sb49  1  0.14368100  0.74917300  0.06783100  1
  Sb  Sb50  1  0.06860150  0.82881750  0.88728300  1
  Sb  Sb51  1  0.06860150  0.17118250  0.38728300  1
  Sb  Sb52  1  0.00000000  0.45779600  0.75000000  1
  Sb  Sb53  1  0.00000000  0.54220400  0.25000000  1
  Sb  Sb54  1  0.93139850  0.82881750  0.61271700  1
  Sb  Sb55  1  0.93139850  0.17118250  0.11271700  1
  Sb  Sb56  1  0.85631900  0.25082700  0.93216900  1
  Sb  Sb57  1  0.85631900  0.74917300  0.43216900  1
  Sb  Sb58  1  0.71078200  0.41207500  0.66225000  1
  Sb  Sb59  1  0.71078200  0.58792500  0.16225000  1
  S  S60  1  0.47387700  0.53532800  0.91659400  1
  S  S61  1  0.47387700  0.46467200  0.41659400  1
  S  S62  1  0.87726100  0.96526000  0.71112300  1
  S  S63  1  0.76657750  0.92287950  0.53765000  1
  S  S64  1  0.87726100  0.03474000  0.21112300  1
  S  S65  1  0.76657750  0.07712050  0.03765000  1
  S  S66  1  0.73113500  0.80473300  0.92732300  1
  S  S67  1  0.73113500  0.19526700  0.42732300  1
  S  S68  1  0.69075450  0.15542350  0.85746400  1
  S  S69  1  0.69075450  0.84457650  0.35746400  1
  S  S70  1  0.64792300  0.80388000  0.76789300  1
  S  S71  1  0.64792300  0.19612000  0.26789300  1
  S  S72  1  0.58295500  0.23298100  0.67898400  1
  S  S73  1  0.58295500  0.76701900  0.17898400  1
  S  S74  1  0.54347900  0.90896700  0.62739600  1
  S  S75  1  0.54347900  0.09103300  0.12739600  1
  S  S76  1  0.50853100  0.19455700  0.97450400  1
  S  S77  1  0.50000000  0.56835300  0.75000000  1
  S  S78  1  0.49146900  0.19455700  0.52549600  1
  S  S79  1  0.50853100  0.80544300  0.47450400  1
  S  S80  1  0.50000000  0.43164700  0.25000000  1
  S  S81  1  0.49146900  0.80544300  0.02549600  1
  S  S82  1  0.45652100  0.90896700  0.87260400  1
  S  S83  1  0.45652100  0.09103300  0.37260400  1
  S  S84  1  0.41704500  0.23298100  0.82101600  1
  S  S85  1  0.41704500  0.76701900  0.32101600  1
  S  S86  1  0.35207700  0.80388000  0.73210700  1
  S  S87  1  0.35207700  0.19612000  0.23210700  1
  S  S88  1  0.30924550  0.15542350  0.64253600  1
  S  S89  1  0.30924550  0.84457650  0.14253600  1
  S  S90  1  0.26886500  0.80473300  0.57267700  1
  S  S91  1  0.26886500  0.19526700  0.07267700  1
  S  S92  1  0.23342250  0.92287950  0.96235000  1
  S  S93  1  0.12273900  0.96526000  0.78887700  1
  S  S94  1  0.23342250  0.07712050  0.46235000  1
  S  S95  1  0.12273900  0.03474000  0.28887700  1
  S  S96  1  0.52612300  0.53532800  0.58340600  1
  S  S97  1  0.52612300  0.46467200  0.08340600  1
  S  S98  1  0.97387700  0.03532800  0.91659400  1
  S  S99  1  0.97387700  0.96467200  0.41659400  1
  S  S100  1  0.37726100  0.46526000  0.71112300  1
  S  S101  1  0.26657750  0.42287950  0.53765000  1
  S  S102  1  0.37726100  0.53474000  0.21112300  1
  S  S103  1  0.26657750  0.57712050  0.03765000  1
  S  S104  1  0.23113500  0.30473300  0.92732300  1
  S  S105  1  0.23113500  0.69526700  0.42732300  1
  S  S106  1  0.19075450  0.65542350  0.85746400  1
  S  S107  1  0.19075450  0.34457650  0.35746400  1
  S  S108  1  0.14792300  0.30388000  0.76789300  1
  S  S109  1  0.14792300  0.69612000  0.26789300  1
  S  S110  1  0.08295500  0.73298100  0.67898400  1
  S  S111  1  0.08295500  0.26701900  0.17898400  1
  S  S112  1  0.04347900  0.40896700  0.62739600  1
  S  S113  1  0.04347900  0.59103300  0.12739600  1
  S  S114  1  0.00853100  0.69455700  0.97450400  1
  S  S115  1  0.00000000  0.06835300  0.75000000  1
  S  S116  1  0.99146900  0.69455700  0.52549600  1
  S  S117  1  0.00853100  0.30544300  0.47450400  1
  S  S118  1  0.00000000  0.93164700  0.25000000  1
  S  S119  1  0.99146900  0.30544300  0.02549600  1
  S  S120  1  0.95652100  0.40896700  0.87260400  1
  S  S121  1  0.95652100  0.59103300  0.37260400  1
  S  S122  1  0.91704500  0.73298100  0.82101600  1
  S  S123  1  0.91704500  0.26701900  0.32101600  1
  S  S124  1  0.85207700  0.30388000  0.73210700  1
  S  S125  1  0.85207700  0.69612000  0.23210700  1
  S  S126  1  0.80924550  0.65542350  0.64253600  1
  S  S127  1  0.80924550  0.34457650  0.14253600  1
  S  S128  1  0.76886500  0.30473300  0.57267700  1
  S  S129  1  0.76886500  0.69526700  0.07267700  1
  S  S130  1  0.73342250  0.42287950  0.96235000  1
  S  S131  1  0.62273900  0.46526000  0.78887700  1
  S  S132  1  0.73342250  0.57712050  0.46235000  1
  S  S133  1  0.62273900  0.53474000  0.28887700  1
  S  S134  1  0.02612300  0.03532800  0.58340600  1
  S  S135  1  0.02612300  0.96467200  0.08340600  1
