# generated using pymatgen
data_Mg(Fe5O8)2
_symmetry_space_group_name_H-M   'P 1'
_cell_length_a   5.96837975
_cell_length_b   5.96837975
_cell_length_c   28.84530600
_cell_angle_alpha   90.00000000
_cell_angle_beta   90.00000000
_cell_angle_gamma   120.00000000
_symmetry_Int_Tables_number   1
_chemical_formula_structural   Mg(Fe5O8)2
_chemical_formula_sum   'Mg3 Fe30 O48'
_cell_volume   889.85383798
_cell_formula_units_Z   3
loop_
 _symmetry_equiv_pos_site_id
 _symmetry_equiv_pos_as_xyz
  1  'x, y, z'
loop_
 _atom_site_type_symbol
 _atom_site_label
 _atom_site_symmetry_multiplicity
 _atom_site_fract_x
 _atom_site_fract_y
 _atom_site_fract_z
 _atom_site_occupancy
  Mg  Mg0  1  0.00000000  0.00000000  0.19090100  1
  Mg  Mg1  1  0.66666667  0.33333333  0.52423433  1
  Mg  Mg2  1  0.33333333  0.66666667  0.85756767  1
  Fe  Fe3  1  0.33333333  0.66666667  0.16937667  1
  Fe  Fe4  1  0.50066633  0.49933367  0.25149467  1
  Fe  Fe5  1  0.99866733  0.49933367  0.25149467  1
  Fe  Fe6  1  0.66666667  0.33333333  0.02091833  1
  Fe  Fe7  1  0.50066633  0.00133267  0.25149467  1
  Fe  Fe8  1  0.00000000  0.00000000  0.30718800  1
  Fe  Fe9  1  0.67546400  0.83773200  0.08018900  1
  Fe  Fe10  1  0.16226800  0.83773200  0.08018900  1
  Fe  Fe11  1  0.16226800  0.32453600  0.08018900  1
  Fe  Fe12  1  0.66666667  0.33333333  0.14592733  1
  Fe  Fe13  1  0.00000000  0.00000000  0.50271000  1
  Fe  Fe14  1  0.16733300  0.83266700  0.58482800  1
  Fe  Fe15  1  0.66533400  0.83266700  0.58482800  1
  Fe  Fe16  1  0.33333333  0.66666667  0.35425167  1
  Fe  Fe17  1  0.16733300  0.33466600  0.58482800  1
  Fe  Fe18  1  0.66666667  0.33333333  0.64052133  1
  Fe  Fe19  1  0.34213067  0.17106533  0.41352233  1
  Fe  Fe20  1  0.82893467  0.17106533  0.41352233  1
  Fe  Fe21  1  0.82893467  0.65786933  0.41352233  1
  Fe  Fe22  1  0.33333333  0.66666667  0.47926067  1
  Fe  Fe23  1  0.66666667  0.33333333  0.83604333  1
  Fe  Fe24  1  0.83399967  0.16600033  0.91816133  1
  Fe  Fe25  1  0.33200067  0.16600033  0.91816133  1
  Fe  Fe26  1  0.00000000  0.00000000  0.68758500  1
  Fe  Fe27  1  0.83399967  0.66799933  0.91816133  1
  Fe  Fe28  1  0.33333333  0.66666667  0.97385467  1
  Fe  Fe29  1  0.00879733  0.50439867  0.74685567  1
  Fe  Fe30  1  0.49560133  0.50439867  0.74685567  1
  Fe  Fe31  1  0.49560133  0.99120267  0.74685567  1
  Fe  Fe32  1  0.00000000  0.00000000  0.81259400  1
  O  O33  1  0.18339467  0.81660533  0.21297533  1
  O  O34  1  0.63321067  0.81660533  0.21297533  1
  O  O35  1  0.33333333  0.66666667  0.28714667  1
  O  O36  1  0.18339467  0.36678933  0.21297533  1
  O  O37  1  0.82793100  0.65586200  0.28394100  1
  O  O38  1  0.66666667  0.33333333  0.21258533  1
  O  O39  1  0.34413800  0.17206900  0.28394100  1
  O  O40  1  0.82793100  0.17206900  0.28394100  1
  O  O41  1  0.83247533  0.16752467  0.04689967  1
  O  O42  1  0.33504933  0.16752467  0.04689967  1
  O  O43  1  0.00000000  0.00000000  0.12058000  1
  O  O44  1  0.83247533  0.66495067  0.04689967  1
  O  O45  1  0.33333333  0.66666667  0.04361767  1
  O  O46  1  0.48807967  0.97615933  0.12508633  1
  O  O47  1  0.48807967  0.51192033  0.12508633  1
  O  O48  1  0.02384067  0.51192033  0.12508633  1
  O  O49  1  0.85006133  0.14993867  0.54630867  1
  O  O50  1  0.29987733  0.14993867  0.54630867  1
  O  O51  1  0.00000000  0.00000000  0.62048000  1
  O  O52  1  0.85006133  0.70012267  0.54630867  1
  O  O53  1  0.49459767  0.98919533  0.61727433  1
  O  O54  1  0.33333333  0.66666667  0.54591867  1
  O  O55  1  0.01080467  0.50540233  0.61727433  1
  O  O56  1  0.49459767  0.50540233  0.61727433  1
  O  O57  1  0.49914200  0.50085800  0.38023300  1
  O  O58  1  0.00171600  0.50085800  0.38023300  1
  O  O59  1  0.66666667  0.33333333  0.45391333  1
  O  O60  1  0.49914200  0.99828400  0.38023300  1
  O  O61  1  0.00000000  0.00000000  0.37695100  1
  O  O62  1  0.15474633  0.30949267  0.45841967  1
  O  O63  1  0.15474633  0.84525367  0.45841967  1
  O  O64  1  0.69050733  0.84525367  0.45841967  1
  O  O65  1  0.51672800  0.48327200  0.87964200  1
  O  O66  1  0.96654400  0.48327200  0.87964200  1
  O  O67  1  0.66666667  0.33333333  0.95381333  1
  O  O68  1  0.51672800  0.03345600  0.87964200  1
  O  O69  1  0.16126433  0.32252867  0.95060767  1
  O  O70  1  0.00000000  0.00000000  0.87925200  1
  O  O71  1  0.67747133  0.83873567  0.95060767  1
  O  O72  1  0.16126433  0.83873567  0.95060767  1
  O  O73  1  0.16580867  0.83419133  0.71356633  1
  O  O74  1  0.66838267  0.83419133  0.71356633  1
  O  O75  1  0.33333333  0.66666667  0.78724667  1
  O  O76  1  0.16580867  0.33161733  0.71356633  1
  O  O77  1  0.66666667  0.33333333  0.71028433  1
  O  O78  1  0.82141300  0.64282600  0.79175300  1
  O  O79  1  0.82141300  0.17858700  0.79175300  1
  O  O80  1  0.35717400  0.17858700  0.79175300  1
