# generated using pymatgen
data_Na12NbO7
_symmetry_space_group_name_H-M   'P 1'
_cell_length_a   12.02438492
_cell_length_b   12.02438492
_cell_length_c   8.67889657
_cell_angle_alpha   90.00000000
_cell_angle_beta   90.00000000
_cell_angle_gamma   120.00000000
_symmetry_Int_Tables_number   1
_chemical_formula_structural   Na12NbO7
_chemical_formula_sum   'Na36 Nb3 O21'
_cell_volume   1086.72806946
_cell_formula_units_Z   3
loop_
 _symmetry_equiv_pos_site_id
 _symmetry_equiv_pos_as_xyz
  1  'x, y, z'
loop_
 _atom_site_type_symbol
 _atom_site_label
 _atom_site_symmetry_multiplicity
 _atom_site_fract_x
 _atom_site_fract_y
 _atom_site_fract_z
 _atom_site_occupancy
  Na  Na0  1  0.36015467  0.11212033  0.31668233  1
  Na  Na1  1  0.11212033  0.75196567  0.68331767  1
  Na  Na2  1  0.15484567  0.04622333  0.67875833  1
  Na  Na3  1  0.04622333  0.89137767  0.32124167  1
  Na  Na4  1  0.24803433  0.36015467  0.68331767  1
  Na  Na5  1  0.10862233  0.15484567  0.32124167  1
  Na  Na6  1  0.89137767  0.84515433  0.67875833  1
  Na  Na7  1  0.75196567  0.63984533  0.31668233  1
  Na  Na8  1  0.95377667  0.10862233  0.67875833  1
  Na  Na9  1  0.84515433  0.95377667  0.32124167  1
  Na  Na10  1  0.88787967  0.24803433  0.31668233  1
  Na  Na11  1  0.63984533  0.88787967  0.68331767  1
  Na  Na12  1  0.02682133  0.44545367  0.65001567  1
  Na  Na13  1  0.77878700  0.08529900  0.01665100  1
  Na  Na14  1  0.82151233  0.37955667  0.01209167  1
  Na  Na15  1  0.71289000  0.22471100  0.65457500  1
  Na  Na16  1  0.91470100  0.69348800  0.01665100  1
  Na  Na17  1  0.77528900  0.48817900  0.65457500  1
  Na  Na18  1  0.55804433  0.17848767  0.01209167  1
  Na  Na19  1  0.41863233  0.97317867  0.65001567  1
  Na  Na20  1  0.62044333  0.44195567  0.01209167  1
  Na  Na21  1  0.51182100  0.28711000  0.65457500  1
  Na  Na22  1  0.55454633  0.58136767  0.65001567  1
  Na  Na23  1  0.30651200  0.22121300  0.01665100  1
  Na  Na24  1  0.69348800  0.77878700  0.98334900  1
  Na  Na25  1  0.44545367  0.41863233  0.34998433  1
  Na  Na26  1  0.48817900  0.71289000  0.34542500  1
  Na  Na27  1  0.37955667  0.55804433  0.98790833  1
  Na  Na28  1  0.58136767  0.02682133  0.34998433  1
  Na  Na29  1  0.44195567  0.82151233  0.98790833  1
  Na  Na30  1  0.22471100  0.51182100  0.34542500  1
  Na  Na31  1  0.08529900  0.30651200  0.98334900  1
  Na  Na32  1  0.28711000  0.77528900  0.34542500  1
  Na  Na33  1  0.17848767  0.62044333  0.98790833  1
  Na  Na34  1  0.22121300  0.91470100  0.98334900  1
  Na  Na35  1  0.97317867  0.55454633  0.34998433  1
  Nb  Nb36  1  0.00000000  0.00000000  0.00000000  1
  Nb  Nb37  1  0.66666667  0.33333333  0.33333333  1
  Nb  Nb38  1  0.33333333  0.66666667  0.66666667  1
  O  O39  1  0.15848533  0.04065967  0.13582567  1
  O  O40  1  0.04065967  0.88217433  0.86417433  1
  O  O41  1  0.11782567  0.15848533  0.86417433  1
  O  O42  1  0.00000000  0.00000000  0.50000000  1
  O  O43  1  0.88217433  0.84151467  0.13582567  1
  O  O44  1  0.95934033  0.11782567  0.13582567  1
  O  O45  1  0.84151467  0.95934033  0.86417433  1
  O  O46  1  0.82515200  0.37399300  0.46915900  1
  O  O47  1  0.70732633  0.21550767  0.19750767  1
  O  O48  1  0.78449233  0.49181867  0.19750767  1
  O  O49  1  0.66666667  0.33333333  0.83333333  1
  O  O50  1  0.54884100  0.17484800  0.46915900  1
  O  O51  1  0.62600700  0.45115900  0.46915900  1
  O  O52  1  0.50818133  0.29267367  0.19750767  1
  O  O53  1  0.49181867  0.70732633  0.80249233  1
  O  O54  1  0.37399300  0.54884100  0.53084100  1
  O  O55  1  0.45115900  0.82515200  0.53084100  1
  O  O56  1  0.33333333  0.66666667  0.16666667  1
  O  O57  1  0.21550767  0.50818133  0.80249233  1
  O  O58  1  0.29267367  0.78449233  0.80249233  1
  O  O59  1  0.17484800  0.62600700  0.53084100  1
