# generated using pymatgen
data_LiV3O8
_symmetry_space_group_name_H-M   'P 1'
_cell_length_a   6.96986100
_cell_length_b   3.62309500
_cell_length_c   12.47283023
_cell_angle_alpha   90.00000000
_cell_angle_beta   104.92783971
_cell_angle_gamma   90.00000000
_symmetry_Int_Tables_number   1
_chemical_formula_structural   LiV3O8
_chemical_formula_sum   'Li2 V6 O16'
_cell_volume   304.33984681
_cell_formula_units_Z   2
loop_
 _symmetry_equiv_pos_site_id
 _symmetry_equiv_pos_as_xyz
  1  'x, y, z'
loop_
 _atom_site_type_symbol
 _atom_site_label
 _atom_site_symmetry_multiplicity
 _atom_site_fract_x
 _atom_site_fract_y
 _atom_site_fract_z
 _atom_site_occupancy
  Li  Li0  1  0.45748500  0.50000000  0.04050100  1
  Li  Li1  1  0.64517500  0.50000000  0.30171200  1
  V  V2  1  0.74039400  0.50000000  0.80027300  1
  V  V3  1  0.30619300  0.00000000  0.46275800  1
  V  V4  1  0.86042900  0.50000000  0.07280900  1
  V  V5  1  0.12275500  0.00000000  0.92242400  1
  V  V6  1  0.68433300  0.50000000  0.54778400  1
  V  V7  1  0.23693000  0.00000000  0.20262000  1
  O  O8  1  0.82079500  0.00000000  0.82998300  1
  O  O9  1  0.67080600  0.50000000  0.95115400  1
  O  O10  1  0.39527600  0.50000000  0.45573200  1
  O  O11  1  0.51239200  0.50000000  0.72748700  1
  O  O12  1  0.13308600  0.00000000  0.32377700  1
  O  O13  1  0.94384500  0.00000000  0.07829400  1
  O  O14  1  0.17299800  0.00000000  0.54915100  1
  O  O15  1  0.24671900  0.00000000  0.83036000  1
  O  O16  1  0.72286900  0.50000000  0.16419100  1
  O  O17  1  0.80961200  0.50000000  0.45344800  1
  O  O18  1  0.04767300  0.50000000  0.93504900  1
  O  O19  1  0.85793300  0.50000000  0.67876400  1
  O  O20  1  0.47761800  0.00000000  0.27132700  1
  O  O21  1  0.59428800  0.00000000  0.54899100  1
  O  O22  1  0.31882700  0.00000000  0.05149200  1
  O  O23  1  0.16973500  0.50000000  0.17201400  1
