# generated using pymatgen
data_Zr6BI12
_symmetry_space_group_name_H-M   'P 1'
_cell_length_a   14.92821070
_cell_length_b   14.92821070
_cell_length_c   10.34121839
_cell_angle_alpha   90.00000000
_cell_angle_beta   90.00000000
_cell_angle_gamma   120.00000000
_symmetry_Int_Tables_number   1
_chemical_formula_structural   Zr6BI12
_chemical_formula_sum   'Zr18 B3 I36'
_cell_volume   1995.80384048
_cell_formula_units_Z   3
loop_
 _symmetry_equiv_pos_site_id
 _symmetry_equiv_pos_as_xyz
  1  'x, y, z'
loop_
 _atom_site_type_symbol
 _atom_site_label
 _atom_site_symmetry_multiplicity
 _atom_site_fract_x
 _atom_site_fract_y
 _atom_site_fract_z
 _atom_site_occupancy
  Zr  Zr0  1  0.85739333  0.89767367  0.86997867  1
  Zr  Zr1  1  0.95971967  0.85739333  0.13002133  1
  Zr  Zr2  1  0.89767367  0.04028033  0.13002133  1
  Zr  Zr3  1  0.10232633  0.95971967  0.86997867  1
  Zr  Zr4  1  0.04028033  0.14260667  0.86997867  1
  Zr  Zr5  1  0.14260667  0.10232633  0.13002133  1
  Zr  Zr6  1  0.52406000  0.23100700  0.20331200  1
  Zr  Zr7  1  0.62638633  0.19072667  0.46335467  1
  Zr  Zr8  1  0.56434033  0.37361367  0.46335467  1
  Zr  Zr9  1  0.76899300  0.29305300  0.20331200  1
  Zr  Zr10  1  0.70694700  0.47594000  0.20331200  1
  Zr  Zr11  1  0.80927333  0.43565967  0.46335467  1
  Zr  Zr12  1  0.19072667  0.56434033  0.53664533  1
  Zr  Zr13  1  0.29305300  0.52406000  0.79668800  1
  Zr  Zr14  1  0.23100700  0.70694700  0.79668800  1
  Zr  Zr15  1  0.43565967  0.62638633  0.53664533  1
  Zr  Zr16  1  0.37361367  0.80927333  0.53664533  1
  Zr  Zr17  1  0.47594000  0.76899300  0.79668800  1
  B  B18  1  0.00000000  0.00000000  0.00000000  1
  B  B19  1  0.66666667  0.33333333  0.33333333  1
  B  B20  1  0.33333333  0.66666667  0.66666667  1
  I  I21  1  0.63905767  0.74629833  0.66832733  1
  I  I22  1  0.89275933  0.63905767  0.33167267  1
  I  I23  1  0.82600200  0.87595200  0.31880100  1
  I  I24  1  0.95005000  0.82600200  0.68119900  1
  I  I25  1  0.74629833  0.10724067  0.33167267  1
  I  I26  1  0.87595200  0.04995000  0.68119900  1
  I  I27  1  0.12404800  0.95005000  0.31880100  1
  I  I28  1  0.25370167  0.89275933  0.66832733  1
  I  I29  1  0.04995000  0.17399800  0.31880100  1
  I  I30  1  0.17399800  0.12404800  0.68119900  1
  I  I31  1  0.10724067  0.36094233  0.66832733  1
  I  I32  1  0.36094233  0.25370167  0.33167267  1
  I  I33  1  0.30572433  0.07963167  0.00166067  1
  I  I34  1  0.55942600  0.97239100  0.66500600  1
  I  I35  1  0.49266867  0.20928533  0.65213433  1
  I  I36  1  0.61671667  0.15933533  0.01453233  1
  I  I37  1  0.41296500  0.44057400  0.66500600  1
  I  I38  1  0.54261867  0.38328333  0.01453233  1
  I  I39  1  0.79071467  0.28338333  0.65213433  1
  I  I40  1  0.92036833  0.22609267  0.00166067  1
  I  I41  1  0.71661667  0.50733133  0.65213433  1
  I  I42  1  0.84066467  0.45738133  0.01453233  1
  I  I43  1  0.77390733  0.69427567  0.00166067  1
  I  I44  1  0.02760900  0.58703500  0.66500600  1
  I  I45  1  0.97239100  0.41296500  0.33499400  1
  I  I46  1  0.22609267  0.30572433  0.99833933  1
  I  I47  1  0.15933533  0.54261867  0.98546767  1
  I  I48  1  0.28338333  0.49266867  0.34786567  1
  I  I49  1  0.07963167  0.77390733  0.99833933  1
  I  I50  1  0.20928533  0.71661667  0.34786567  1
  I  I51  1  0.45738133  0.61671667  0.98546767  1
  I  I52  1  0.58703500  0.55942600  0.33499400  1
  I  I53  1  0.38328333  0.84066467  0.98546767  1
  I  I54  1  0.50733133  0.79071467  0.34786567  1
  I  I55  1  0.44057400  0.02760900  0.33499400  1
  I  I56  1  0.69427567  0.92036833  0.99833933  1
