# generated using pymatgen
data_LiMnPO4
_symmetry_space_group_name_H-M   'P 1'
_cell_length_a   8.37619164
_cell_length_b   6.01410823
_cell_length_c   16.16193496
_cell_angle_alpha   90.00000000
_cell_angle_beta   93.24037780
_cell_angle_gamma   90.00000000
_symmetry_Int_Tables_number   1
_chemical_formula_structural   LiMnPO4
_chemical_formula_sum   'Li8 Mn8 P8 O32'
_cell_volume   812.86099358
_cell_formula_units_Z   8
loop_
 _symmetry_equiv_pos_site_id
 _symmetry_equiv_pos_as_xyz
  1  'x, y, z'
loop_
 _atom_site_type_symbol
 _atom_site_label
 _atom_site_symmetry_multiplicity
 _atom_site_fract_x
 _atom_site_fract_y
 _atom_site_fract_z
 _atom_site_occupancy
  Li  Li0  1  0.74460550  0.97316250  0.25142750  1
  Li  Li1  1  0.74460550  0.02683750  0.75142750  1
  Li  Li2  1  0.25539450  0.97316250  0.24857250  1
  Li  Li3  1  0.25539450  0.02683750  0.74857250  1
  Li  Li4  1  0.24460550  0.47316250  0.25142750  1
  Li  Li5  1  0.24460550  0.52683750  0.75142750  1
  Li  Li6  1  0.75539450  0.47316250  0.24857250  1
  Li  Li7  1  0.75539450  0.52683750  0.74857250  1
  Mn  Mn8  1  0.35337450  0.72658150  0.41598750  1
  Mn  Mn9  1  0.64662550  0.27341850  0.58401250  1
  Mn  Mn10  1  0.64662550  0.72658150  0.08401250  1
  Mn  Mn11  1  0.35337450  0.27341850  0.91598750  1
  Mn  Mn12  1  0.85337450  0.22658150  0.41598750  1
  Mn  Mn13  1  0.14662550  0.77341850  0.58401250  1
  Mn  Mn14  1  0.14662550  0.22658150  0.08401250  1
  Mn  Mn15  1  0.85337450  0.77341850  0.91598750  1
  P  P16  1  0.51555800  0.22671800  0.36898850  1
  P  P17  1  0.48444200  0.22671800  0.13101150  1
  P  P18  1  0.51555800  0.77328200  0.86898850  1
  P  P19  1  0.48444200  0.77328200  0.63101150  1
  P  P20  1  0.01555800  0.72671800  0.36898850  1
  P  P21  1  0.98444200  0.72671800  0.13101150  1
  P  P22  1  0.01555800  0.27328200  0.86898850  1
  P  P23  1  0.98444200  0.27328200  0.63101150  1
  O  O24  1  0.65864400  0.23114700  0.31123550  1
  O  O25  1  0.65864400  0.76885300  0.81123550  1
  O  O26  1  0.34135600  0.23114700  0.18876450  1
  O  O27  1  0.34135600  0.76885300  0.68876450  1
  O  O28  1  0.09260500  0.93408400  0.14470150  1
  O  O29  1  0.09260500  0.06591600  0.64470150  1
  O  O30  1  0.90739500  0.93408400  0.35529850  1
  O  O31  1  0.90739500  0.06591600  0.85529850  1
  O  O32  1  0.58381650  0.01263250  0.14696250  1
  O  O33  1  0.58381650  0.98736750  0.64696250  1
  O  O34  1  0.41618350  0.01263250  0.35303750  1
  O  O35  1  0.41618350  0.98736750  0.85303750  1
  O  O36  1  0.59805900  0.22885100  0.45831550  1
  O  O37  1  0.59805900  0.77114900  0.95831550  1
  O  O38  1  0.40194100  0.22885100  0.04168450  1
  O  O39  1  0.40194100  0.77114900  0.54168450  1
  O  O40  1  0.15864400  0.73114700  0.31123550  1
  O  O41  1  0.15864400  0.26885300  0.81123550  1
  O  O42  1  0.84135600  0.73114700  0.18876450  1
  O  O43  1  0.84135600  0.26885300  0.68876450  1
  O  O44  1  0.59260500  0.43408400  0.14470150  1
  O  O45  1  0.59260500  0.56591600  0.64470150  1
  O  O46  1  0.40739500  0.43408400  0.35529850  1
  O  O47  1  0.40739500  0.56591600  0.85529850  1
  O  O48  1  0.08381650  0.51263250  0.14696250  1
  O  O49  1  0.08381650  0.48736750  0.64696250  1
  O  O50  1  0.91618350  0.51263250  0.35303750  1
  O  O51  1  0.91618350  0.48736750  0.85303750  1
  O  O52  1  0.09805900  0.72885100  0.45831550  1
  O  O53  1  0.09805900  0.27114900  0.95831550  1
  O  O54  1  0.90194100  0.72885100  0.04168450  1
  O  O55  1  0.90194100  0.27114900  0.54168450  1
