# generated using pymatgen
data_Li3Mn(OF)2
_symmetry_space_group_name_H-M   'P 1'
_cell_length_a   5.05947213
_cell_length_b   6.00720150
_cell_length_c   5.07377201
_cell_angle_alpha   90.00000000
_cell_angle_beta   106.80672903
_cell_angle_gamma   90.00000000
_symmetry_Int_Tables_number   1
_chemical_formula_structural   Li3Mn(OF)2
_chemical_formula_sum   'Li6 Mn2 O4 F4'
_cell_volume   147.62158282
_cell_formula_units_Z   2
loop_
 _symmetry_equiv_pos_site_id
 _symmetry_equiv_pos_as_xyz
  1  'x, y, z'
loop_
 _atom_site_type_symbol
 _atom_site_label
 _atom_site_symmetry_multiplicity
 _atom_site_fract_x
 _atom_site_fract_y
 _atom_site_fract_z
 _atom_site_occupancy
  Li  Li0  1  0.75000000  0.11197300  0.00000000  1
  Li  Li1  1  0.25000000  0.88802700  0.00000000  1
  Li  Li2  1  0.75000000  0.63980100  0.00000000  1
  Li  Li3  1  0.25000000  0.36019900  0.00000000  1
  Li  Li4  1  0.75000000  0.36901000  0.50000000  1
  Li  Li5  1  0.25000000  0.63099000  0.50000000  1
  Mn  Mn6  1  0.75000000  0.89115400  0.50000000  1
  Mn  Mn7  1  0.25000000  0.10884600  0.50000000  1
  O  O8  1  0.51472450  0.88089300  0.73339500  1
  O  O9  1  0.98527550  0.88089300  0.26660500  1
  O  O10  1  0.01472450  0.11910700  0.73339500  1
  O  O11  1  0.48527550  0.11910700  0.26660500  1
  F  F12  1  0.50493250  0.61900300  0.25199300  1
  F  F13  1  0.00493250  0.38099700  0.25199300  1
  F  F14  1  0.99506750  0.61900300  0.74800700  1
  F  F15  1  0.49506750  0.38099700  0.74800700  1
