# generated using pymatgen
data_Li2MnCuO4
_symmetry_space_group_name_H-M   'P 1'
_cell_length_a   7.95053045
_cell_length_b   7.95374869
_cell_length_c   6.26352796
_cell_angle_alpha   90.00000000
_cell_angle_beta   128.57273681
_cell_angle_gamma   90.00000000
_symmetry_Int_Tables_number   1
_chemical_formula_structural   Li2MnCuO4
_chemical_formula_sum   'Li8 Mn4 Cu4 O16'
_cell_volume   309.66508203
_cell_formula_units_Z   4
loop_
 _symmetry_equiv_pos_site_id
 _symmetry_equiv_pos_as_xyz
  1  'x, y, z'
loop_
 _atom_site_type_symbol
 _atom_site_label
 _atom_site_symmetry_multiplicity
 _atom_site_fract_x
 _atom_site_fract_y
 _atom_site_fract_z
 _atom_site_occupancy
  Li  Li0  1  0.00000000  0.00000000  0.50000000  1
  Li  Li1  1  0.00000000  0.00000000  0.00000000  1
  Li  Li2  1  0.25000000  0.75000000  0.00000000  1
  Li  Li3  1  0.25000000  0.25000000  0.50000000  1
  Li  Li4  1  0.50000000  0.50000000  0.50000000  1
  Li  Li5  1  0.50000000  0.50000000  0.00000000  1
  Li  Li6  1  0.75000000  0.25000000  0.00000000  1
  Li  Li7  1  0.75000000  0.75000000  0.50000000  1
  Mn  Mn8  1  0.00000000  0.50000000  0.50000000  1
  Mn  Mn9  1  0.00000000  0.50000000  0.00000000  1
  Mn  Mn10  1  0.50000000  0.00000000  0.50000000  1
  Mn  Mn11  1  0.50000000  0.00000000  0.00000000  1
  Cu  Cu12  1  0.25000000  0.25000000  0.00000000  1
  Cu  Cu13  1  0.75000000  0.25000000  0.50000000  1
  Cu  Cu14  1  0.75000000  0.75000000  0.00000000  1
  Cu  Cu15  1  0.25000000  0.75000000  0.50000000  1
  O  O16  1  0.26599150  0.98474250  0.52175450  1
  O  O17  1  0.23400850  0.48474250  0.97824550  1
  O  O18  1  0.26599150  0.01525750  0.02175450  1
  O  O19  1  0.23400850  0.51525750  0.47824550  1
  O  O20  1  0.95590400  0.25780000  0.44476350  1
  O  O21  1  0.04409600  0.25780000  0.05523650  1
  O  O22  1  0.45590400  0.24220000  0.94476350  1
  O  O23  1  0.54409600  0.24220000  0.55523650  1
  O  O24  1  0.76599150  0.48474250  0.52175450  1
  O  O25  1  0.73400850  0.98474250  0.97824550  1
  O  O26  1  0.76599150  0.51525750  0.02175450  1
  O  O27  1  0.73400850  0.01525750  0.47824550  1
  O  O28  1  0.45590400  0.75780000  0.44476350  1
  O  O29  1  0.54409600  0.75780000  0.05523650  1
  O  O30  1  0.95590400  0.74220000  0.94476350  1
  O  O31  1  0.04409600  0.74220000  0.55523650  1
