# generated using pymatgen
data_Co2RuO4
_symmetry_space_group_name_H-M   'P 1'
_cell_length_a   10.56417649
_cell_length_b   6.14215838
_cell_length_c   10.07395555
_cell_angle_alpha   90.00000000
_cell_angle_beta   107.18101399
_cell_angle_gamma   90.00000000
_symmetry_Int_Tables_number   1
_chemical_formula_structural   Co2RuO4
_chemical_formula_sum   'Co16 Ru8 O32'
_cell_volume   624.49814423
_cell_formula_units_Z   8
loop_
 _symmetry_equiv_pos_site_id
 _symmetry_equiv_pos_as_xyz
  1  'x, y, z'
loop_
 _atom_site_type_symbol
 _atom_site_label
 _atom_site_symmetry_multiplicity
 _atom_site_fract_x
 _atom_site_fract_y
 _atom_site_fract_z
 _atom_site_occupancy
  Co  Co0  1  0.31725050  0.27777450  0.18960800  1
  Co  Co1  1  0.00000000  0.00000000  0.00000000  1
  Co  Co2  1  0.18274950  0.77777450  0.31039200  1
  Co  Co3  1  0.75000000  0.25000000  0.00000000  1
  Co  Co4  1  0.81725050  0.22222550  0.68960800  1
  Co  Co5  1  0.18274950  0.22222550  0.81039200  1
  Co  Co6  1  0.00000000  0.00000000  0.50000000  1
  Co  Co7  1  0.25000000  0.25000000  0.50000000  1
  Co  Co8  1  0.81725050  0.77777450  0.18960800  1
  Co  Co9  1  0.50000000  0.50000000  0.00000000  1
  Co  Co10  1  0.68274950  0.27777450  0.31039200  1
  Co  Co11  1  0.25000000  0.75000000  0.00000000  1
  Co  Co12  1  0.31725050  0.72222550  0.68960800  1
  Co  Co13  1  0.68274950  0.72222550  0.81039200  1
  Co  Co14  1  0.50000000  0.50000000  0.50000000  1
  Co  Co15  1  0.75000000  0.75000000  0.50000000  1
  Ru  Ru16  1  0.00000000  0.28067200  0.25000000  1
  Ru  Ru17  1  0.00000000  0.50000000  0.00000000  1
  Ru  Ru18  1  0.50000000  0.21932800  0.75000000  1
  Ru  Ru19  1  0.00000000  0.50000000  0.50000000  1
  Ru  Ru20  1  0.50000000  0.78067200  0.25000000  1
  Ru  Ru21  1  0.50000000  0.00000000  0.00000000  1
  Ru  Ru22  1  0.00000000  0.71932800  0.75000000  1
  Ru  Ru23  1  0.50000000  0.00000000  0.50000000  1
  O  O24  1  0.11906800  0.26487300  0.12041800  1
  O  O25  1  0.38700000  0.54694800  0.12819400  1
  O  O26  1  0.37347150  0.00182150  0.12062300  1
  O  O27  1  0.89271900  0.25646300  0.89230600  1
  O  O28  1  0.60728100  0.24353700  0.10769400  1
  O  O29  1  0.12652850  0.49817850  0.87937700  1
  O  O30  1  0.38093200  0.23512700  0.87958200  1
  O  O31  1  0.11300000  0.95305200  0.87180600  1
  O  O32  1  0.61906800  0.23512700  0.62041800  1
  O  O33  1  0.37347150  0.99817850  0.62062300  1
  O  O34  1  0.38700000  0.45305200  0.62819400  1
  O  O35  1  0.39271900  0.24353700  0.39230600  1
  O  O36  1  0.10728100  0.25646300  0.60769400  1
  O  O37  1  0.11300000  0.04694800  0.37180600  1
  O  O38  1  0.88093200  0.26487300  0.37958200  1
  O  O39  1  0.12652850  0.50182150  0.37937700  1
  O  O40  1  0.61906800  0.76487300  0.12041800  1
  O  O41  1  0.88700000  0.04694800  0.12819400  1
  O  O42  1  0.87347150  0.50182150  0.12062300  1
  O  O43  1  0.39271900  0.75646300  0.89230600  1
  O  O44  1  0.10728100  0.74353700  0.10769400  1
  O  O45  1  0.62652850  0.99817850  0.87937700  1
  O  O46  1  0.88093200  0.73512700  0.87958200  1
  O  O47  1  0.61300000  0.45305200  0.87180600  1
  O  O48  1  0.11906800  0.73512700  0.62041800  1
  O  O49  1  0.87347150  0.49817850  0.62062300  1
  O  O50  1  0.88700000  0.95305200  0.62819400  1
  O  O51  1  0.89271900  0.74353700  0.39230600  1
  O  O52  1  0.60728100  0.75646300  0.60769400  1
  O  O53  1  0.61300000  0.54694800  0.37180600  1
  O  O54  1  0.38093200  0.76487300  0.37958200  1
  O  O55  1  0.62652850  0.00182150  0.37937700  1
