# generated using pymatgen
data_LiFePO4
_symmetry_space_group_name_H-M   'P 1'
_cell_length_a   8.61207611
_cell_length_b   5.09888327
_cell_length_c   8.59102992
_cell_angle_alpha   90.00000000
_cell_angle_beta   107.73421300
_cell_angle_gamma   90.00000000
_symmetry_Int_Tables_number   1
_chemical_formula_structural   LiFePO4
_chemical_formula_sum   'Li4 Fe4 P4 O16'
_cell_volume   359.32209116
_cell_formula_units_Z   4
loop_
 _symmetry_equiv_pos_site_id
 _symmetry_equiv_pos_as_xyz
  1  'x, y, z'
loop_
 _atom_site_type_symbol
 _atom_site_label
 _atom_site_symmetry_multiplicity
 _atom_site_fract_x
 _atom_site_fract_y
 _atom_site_fract_z
 _atom_site_occupancy
  Li  Li0  1  0.24508825  0.30543875  0.49492850  1
  Li  Li1  1  0.24508825  0.69456125  0.99492850  1
  Li  Li2  1  0.74508825  0.80543875  0.49492850  1
  Li  Li3  1  0.74508825  0.19456125  0.99492850  1
  Fe  Fe4  1  0.00032400  0.19740650  0.75087650  1
  Fe  Fe5  1  0.50032400  0.30259350  0.25087650  1
  Fe  Fe6  1  0.50032400  0.69740650  0.75087650  1
  Fe  Fe7  1  0.00032400  0.80259350  0.25087650  1
  P  P8  1  0.37365525  0.20598075  0.87365950  1
  P  P9  1  0.87365525  0.29401925  0.37365950  1
  P  P10  1  0.87365525  0.70598075  0.87365950  1
  P  P11  1  0.37365525  0.79401925  0.37365950  1
  O  O12  1  0.34888650  0.90482750  0.85038600  1
  O  O13  1  0.34888650  0.09517250  0.35038600  1
  O  O14  1  0.21901550  0.32702600  0.90325350  1
  O  O15  1  0.21901550  0.67297400  0.40325350  1
  O  O16  1  0.40241975  0.32815175  0.71867100  1
  O  O17  1  0.90241975  0.17184825  0.21867100  1
  O  O18  1  0.02474150  0.22737800  0.52227750  1
  O  O19  1  0.52474150  0.27262200  0.02227750  1
  O  O20  1  0.84888650  0.40482750  0.85038600  1
  O  O21  1  0.84888650  0.59517250  0.35038600  1
  O  O22  1  0.71901550  0.82702600  0.90325350  1
  O  O23  1  0.71901550  0.17297400  0.40325350  1
  O  O24  1  0.90241975  0.82815175  0.71867100  1
  O  O25  1  0.40241975  0.67184825  0.21867100  1
  O  O26  1  0.52474150  0.72737800  0.52227750  1
  O  O27  1  0.02474150  0.77262200  0.02227750  1
