# generated using pymatgen
data_Li3Mn2(SiO4)2
_symmetry_space_group_name_H-M   'P 1'
_cell_length_a   5.10222700
_cell_length_b   10.61572800
_cell_length_c   6.68814854
_cell_angle_alpha   90.00000000
_cell_angle_beta   90.16442210
_cell_angle_gamma   90.00000000
_symmetry_Int_Tables_number   1
_chemical_formula_structural   Li3Mn2(SiO4)2
_chemical_formula_sum   'Li6 Mn4 Si4 O16'
_cell_volume   362.25440955
_cell_formula_units_Z   2
loop_
 _symmetry_equiv_pos_site_id
 _symmetry_equiv_pos_as_xyz
  1  'x, y, z'
loop_
 _atom_site_type_symbol
 _atom_site_label
 _atom_site_symmetry_multiplicity
 _atom_site_fract_x
 _atom_site_fract_y
 _atom_site_fract_z
 _atom_site_occupancy
  Li  Li0  1  0.43503300  0.15909300  0.75603300  1
  Li  Li1  1  0.56496700  0.65909300  0.24396700  1
  Li  Li2  1  0.93428000  0.34121400  0.24773400  1
  Li  Li3  1  0.95523100  0.57677700  0.48401100  1
  Li  Li4  1  0.04476900  0.07677700  0.51598900  1
  Li  Li5  1  0.06572000  0.84121400  0.75226600  1
  Mn  Mn6  1  0.55229700  0.65946800  0.75316100  1
  Mn  Mn7  1  0.44770300  0.15946800  0.24683900  1
  Mn  Mn8  1  0.07060300  0.84261000  0.23778500  1
  Mn  Mn9  1  0.92939700  0.34261000  0.76221500  1
  Si  Si10  1  0.93287700  0.08921300  0.99532800  1
  Si  Si11  1  0.06712300  0.58921300  0.00467200  1
  Si  Si12  1  0.43894000  0.40865400  0.50146300  1
  Si  Si13  1  0.56106000  0.90865400  0.49853700  1
  O  O14  1  0.95184100  0.65389000  0.79417500  1
  O  O15  1  0.04726400  0.15813800  0.79090800  1
  O  O16  1  0.61337700  0.11116700  0.99642700  1
  O  O17  1  0.00475100  0.94010000  0.99001100  1
  O  O18  1  0.38662300  0.61116700  0.00357300  1
  O  O19  1  0.99524900  0.44010000  0.00998900  1
  O  O20  1  0.95273600  0.65813800  0.20909200  1
  O  O21  1  0.04815900  0.15389000  0.20582500  1
  O  O22  1  0.45341500  0.83412600  0.29923500  1
  O  O23  1  0.55368400  0.33419800  0.30534600  1
  O  O24  1  0.55154200  0.55606700  0.49878500  1
  O  O25  1  0.11407900  0.40854600  0.50377100  1
  O  O26  1  0.44845800  0.05606700  0.50121500  1
  O  O27  1  0.88592100  0.90854600  0.49622900  1
  O  O28  1  0.44631600  0.83419800  0.69465400  1
  O  O29  1  0.54658500  0.33412600  0.70076500  1
