# generated using pymatgen
data_Mn6O5F7
_symmetry_space_group_name_H-M   'P 1'
_cell_length_a   4.72270300
_cell_length_b   5.70037100
_cell_length_c   15.63992112
_cell_angle_alpha   90.00000000
_cell_angle_beta   90.20806139
_cell_angle_gamma   90.00000000
_symmetry_Int_Tables_number   1
_chemical_formula_structural   Mn6O5F7
_chemical_formula_sum   'Mn12 O10 F14'
_cell_volume   421.04203059
_cell_formula_units_Z   2
loop_
 _symmetry_equiv_pos_site_id
 _symmetry_equiv_pos_as_xyz
  1  'x, y, z'
loop_
 _atom_site_type_symbol
 _atom_site_label
 _atom_site_symmetry_multiplicity
 _atom_site_fract_x
 _atom_site_fract_y
 _atom_site_fract_z
 _atom_site_occupancy
  Mn  Mn0  1  0.05105400  0.83027100  0.58410300  1
  Mn  Mn1  1  0.97197600  0.14796900  0.75085800  1
  Mn  Mn2  1  0.04358800  0.83995600  0.92167300  1
  Mn  Mn3  1  0.97197600  0.85203100  0.25085800  1
  Mn  Mn4  1  0.04358800  0.16004400  0.42167300  1
  Mn  Mn5  1  0.05105400  0.16972900  0.08410300  1
  Mn  Mn6  1  0.51482800  0.63578600  0.41177600  1
  Mn  Mn7  1  0.47603500  0.65250800  0.07751400  1
  Mn  Mn8  1  0.47224700  0.65052500  0.75391100  1
  Mn  Mn9  1  0.51482800  0.36421400  0.91177600  1
  Mn  Mn10  1  0.47603500  0.34749200  0.57751400  1
  Mn  Mn11  1  0.47224700  0.34947500  0.25391100  1
  O  O12  1  0.20697600  0.88958100  0.70191000  1
  O  O13  1  0.23910600  0.88541300  0.02429600  1
  O  O14  1  0.23910600  0.11458700  0.52429600  1
  O  O15  1  0.20697600  0.11041900  0.20191000  1
  O  O16  1  0.28960400  0.61691100  0.86169800  1
  O  O17  1  0.30417500  0.60057500  0.51903900  1
  O  O18  1  0.28960400  0.38308900  0.36169800  1
  O  O19  1  0.30417500  0.39942500  0.01903900  1
  O  O20  1  0.70729700  0.38332700  0.80146900  1
  O  O21  1  0.70729700  0.61667300  0.30146900  1
  F  F22  1  0.23336000  0.88351500  0.35925000  1
  F  F23  1  0.23336000  0.11648500  0.85925000  1
  F  F24  1  0.21820000  0.38677200  0.68848200  1
  F  F25  1  0.21820000  0.61322800  0.18848200  1
  F  F26  1  0.77067700  0.62160400  0.97695900  1
  F  F27  1  0.70037500  0.61352400  0.64247200  1
  F  F28  1  0.77067700  0.37839600  0.47695900  1
  F  F29  1  0.70037500  0.38647600  0.14247200  1
  F  F30  1  0.78037600  0.88330800  0.81913300  1
  F  F31  1  0.78671500  0.86755900  0.46981200  1
  F  F32  1  0.73340900  0.11650400  0.63564500  1
  F  F33  1  0.78671500  0.13244100  0.96981200  1
  F  F34  1  0.73340900  0.88349600  0.13564500  1
  F  F35  1  0.78037600  0.11669200  0.31913300  1
