# generated using pymatgen
data_CrBiO4
_symmetry_space_group_name_H-M   'P 1'
_cell_length_a   7.01386107
_cell_length_b   7.30234300
_cell_length_c   8.36182570
_cell_angle_alpha   90.00000000
_cell_angle_beta   126.32057774
_cell_angle_gamma   90.00000000
_symmetry_Int_Tables_number   1
_chemical_formula_structural   CrBiO4
_chemical_formula_sum   'Cr4 Bi4 O16'
_cell_volume   345.06608434
_cell_formula_units_Z   4
loop_
 _symmetry_equiv_pos_site_id
 _symmetry_equiv_pos_as_xyz
  1  'x, y, z'
loop_
 _atom_site_type_symbol
 _atom_site_label
 _atom_site_symmetry_multiplicity
 _atom_site_fract_x
 _atom_site_fract_y
 _atom_site_fract_z
 _atom_site_occupancy
  Cr  Cr0  1  0.69445350  0.33613600  0.29793900  1
  Cr  Cr1  1  0.69445350  0.16386400  0.79793900  1
  Cr  Cr2  1  0.30554650  0.83613600  0.20206100  1
  Cr  Cr3  1  0.30554650  0.66386400  0.70206100  1
  Bi  Bi4  1  0.76219450  0.84833800  0.20318600  1
  Bi  Bi5  1  0.23780550  0.34833800  0.29681400  1
  Bi  Bi6  1  0.76219450  0.65166200  0.70318600  1
  Bi  Bi7  1  0.23780550  0.15166200  0.79681400  1
  O  O8  1  0.37079350  0.89524000  0.03150200  1
  O  O9  1  0.62920650  0.39524000  0.46849800  1
  O  O10  1  0.37079350  0.60476000  0.53150200  1
  O  O11  1  0.62920650  0.10476000  0.96849800  1
  O  O12  1  0.13665150  0.64744000  0.11666000  1
  O  O13  1  0.86334850  0.14744000  0.38334000  1
  O  O14  1  0.13665150  0.85256000  0.61666000  1
  O  O15  1  0.86334850  0.35256000  0.88334000  1
  O  O16  1  0.39013550  0.28764900  0.11226300  1
  O  O17  1  0.60986450  0.78764900  0.38773700  1
  O  O18  1  0.39013550  0.21235100  0.61226300  1
  O  O19  1  0.60986450  0.71235100  0.88773700  1
  O  O20  1  0.80626850  0.51489200  0.25100900  1
  O  O21  1  0.19373150  0.01489200  0.24899100  1
  O  O22  1  0.80626850  0.98510800  0.75100900  1
  O  O23  1  0.19373150  0.48510800  0.74899100  1
