# generated using pymatgen
data_Li2MnPCO7
_symmetry_space_group_name_H-M   'P 1'
_cell_length_a   5.28468394
_cell_length_b   6.34063820
_cell_length_c   8.45773579
_cell_angle_alpha   91.28465359
_cell_angle_beta   92.31929075
_cell_angle_gamma   91.52631372
_symmetry_Int_Tables_number   1
_chemical_formula_structural   Li2MnPCO7
_chemical_formula_sum   'Li4 Mn2 P2 C2 O14'
_cell_volume   282.99311666
_cell_formula_units_Z   2
loop_
 _symmetry_equiv_pos_site_id
 _symmetry_equiv_pos_as_xyz
  1  'x, y, z'
loop_
 _atom_site_type_symbol
 _atom_site_label
 _atom_site_symmetry_multiplicity
 _atom_site_fract_x
 _atom_site_fract_y
 _atom_site_fract_z
 _atom_site_occupancy
  Li  Li0  1  0.77778650  0.43059650  0.19197400  1
  Li  Li1  1  0.22221350  0.56940350  0.80802600  1
  Li  Li2  1  0.79934350  0.93401150  0.26768300  1
  Li  Li3  1  0.20065650  0.06598850  0.73231700  1
  Mn  Mn4  1  0.77369750  0.75888350  0.65411100  1
  Mn  Mn5  1  0.22630250  0.24111650  0.34588900  1
  P  P6  1  0.29131850  0.75279950  0.43494800  1
  P  P7  1  0.70868150  0.24720050  0.56505200  1
  C  C8  1  0.27075450  0.26274150  0.04879000  1
  C  C9  1  0.72924550  0.73725850  0.95121000  1
  O  O10  1  0.74374950  0.71703550  0.10016000  1
  O  O11  1  0.25625050  0.28296450  0.89984000  1
  O  O12  1  0.06054250  0.24510150  0.13048900  1
  O  O13  1  0.93945750  0.75489850  0.86951100  1
  O  O14  1  0.47644050  0.25746650  0.13543800  1
  O  O15  1  0.52355950  0.74253350  0.86456200  1
  O  O16  1  0.20023950  0.54754350  0.34844700  1
  O  O17  1  0.79976050  0.45245650  0.65155300  1
  O  O18  1  0.18895850  0.93165950  0.32895500  1
  O  O19  1  0.81104150  0.06834050  0.67104500  1
  O  O20  1  0.59013350  0.76994750  0.44777700  1
  O  O21  1  0.40986650  0.23005250  0.55222300  1
  O  O22  1  0.81025950  0.22834650  0.39648600  1
  O  O23  1  0.18974050  0.77165350  0.60351400  1
