# generated using pymatgen
data_Li2MnO2F
_symmetry_space_group_name_H-M   'P 1'
_cell_length_a   5.11558620
_cell_length_b   5.20220067
_cell_length_c   9.91557908
_cell_angle_alpha   84.48811108
_cell_angle_beta   101.76731164
_cell_angle_gamma   119.12799937
_symmetry_Int_Tables_number   1
_chemical_formula_structural   Li2MnO2F
_chemical_formula_sum   'Li8 Mn4 O8 F4'
_cell_volume   225.65923274
_cell_formula_units_Z   4
loop_
 _symmetry_equiv_pos_site_id
 _symmetry_equiv_pos_as_xyz
  1  'x, y, z'
loop_
 _atom_site_type_symbol
 _atom_site_label
 _atom_site_symmetry_multiplicity
 _atom_site_fract_x
 _atom_site_fract_y
 _atom_site_fract_z
 _atom_site_occupancy
  Li  Li0  1  0.00000000  0.50000000  0.00000000  1
  Li  Li1  1  0.50000000  0.50000000  0.50000000  1
  Li  Li2  1  0.13478300  0.81856600  0.49516300  1
  Li  Li3  1  0.86521700  0.18143400  0.50483700  1
  Li  Li4  1  0.29931100  0.12791600  0.00267400  1
  Li  Li5  1  0.70068900  0.87208400  0.99732600  1
  Li  Li6  1  0.05506300  0.14579500  0.25266000  1
  Li  Li7  1  0.94493700  0.85420500  0.74734000  1
  Mn  Mn8  1  0.76351000  0.50403600  0.24765900  1
  Mn  Mn9  1  0.41023200  0.83256000  0.25038000  1
  Mn  Mn10  1  0.23649000  0.49596400  0.75234100  1
  Mn  Mn11  1  0.58976800  0.16744000  0.74962000  1
  O  O12  1  0.06076300  0.82647700  0.12790800  1
  O  O13  1  0.93923700  0.17352300  0.87209200  1
  O  O14  1  0.31588200  0.83565600  0.85393800  1
  O  O15  1  0.68411800  0.16434400  0.14606200  1
  O  O16  1  0.12865700  0.52307600  0.36258600  1
  O  O17  1  0.87134300  0.47692400  0.63741400  1
  O  O18  1  0.23893300  0.20218400  0.64178900  1
  O  O19  1  0.76106700  0.79781600  0.35821100  1
  F  F20  1  0.55378200  0.83340800  0.61313800  1
  F  F21  1  0.44621800  0.16659200  0.38686200  1
  F  F22  1  0.62085200  0.51505200  0.88006600  1
  F  F23  1  0.37914800  0.48494800  0.11993400  1
