# generated using pymatgen
data_NaCr4O8
_symmetry_space_group_name_H-M   'P 1'
_cell_length_a   9.85396836
_cell_length_b   9.85396836
_cell_length_c   2.98833200
_cell_angle_alpha   90.00000000
_cell_angle_beta   90.00000000
_cell_angle_gamma   90.00000000
_symmetry_Int_Tables_number   1
_chemical_formula_structural   NaCr4O8
_chemical_formula_sum   'Na2 Cr8 O16'
_cell_volume   290.16910663
_cell_formula_units_Z   2
loop_
 _symmetry_equiv_pos_site_id
 _symmetry_equiv_pos_as_xyz
  1  'x, y, z'
loop_
 _atom_site_type_symbol
 _atom_site_label
 _atom_site_symmetry_multiplicity
 _atom_site_fract_x
 _atom_site_fract_y
 _atom_site_fract_z
 _atom_site_occupancy
  Na  Na0  1  0.00000000  0.00000000  0.50000000  1
  Na  Na1  1  0.50000000  0.50000000  0.00000000  1
  Cr  Cr2  1  0.66548800  0.84787500  0.50000000  1
  Cr  Cr3  1  0.34787500  0.83451200  0.00000000  1
  Cr  Cr4  1  0.65212500  0.16548800  0.00000000  1
  Cr  Cr5  1  0.33451200  0.15212500  0.50000000  1
  Cr  Cr6  1  0.16548800  0.34787500  0.00000000  1
  Cr  Cr7  1  0.84787500  0.33451200  0.50000000  1
  Cr  Cr8  1  0.15212500  0.66548800  0.50000000  1
  Cr  Cr9  1  0.83451200  0.65212500  0.00000000  1
  O  O10  1  0.80118550  0.84814050  0.00000000  1
  O  O11  1  0.54007150  0.83713250  0.00000000  1
  O  O12  1  0.34814050  0.69881450  0.50000000  1
  O  O13  1  0.66286750  0.04007150  0.50000000  1
  O  O14  1  0.33713250  0.95992850  0.50000000  1
  O  O15  1  0.65185950  0.30118550  0.50000000  1
  O  O16  1  0.45992850  0.16286750  0.00000000  1
  O  O17  1  0.19881450  0.15185950  0.00000000  1
  O  O18  1  0.30118550  0.34814050  0.50000000  1
  O  O19  1  0.04007150  0.33713250  0.50000000  1
  O  O20  1  0.84814050  0.19881450  0.00000000  1
  O  O21  1  0.16286750  0.54007150  0.00000000  1
  O  O22  1  0.83713250  0.45992850  0.00000000  1
  O  O23  1  0.15185950  0.80118550  0.00000000  1
  O  O24  1  0.95992850  0.66286750  0.50000000  1
  O  O25  1  0.69881450  0.65185950  0.50000000  1
