# generated using pymatgen
data_Na5VO5
_symmetry_space_group_name_H-M   'P 1'
_cell_length_a   6.23251000
_cell_length_b   10.08166200
_cell_length_c   9.97080510
_cell_angle_alpha   90.00000000
_cell_angle_beta   107.14180841
_cell_angle_gamma   90.00000000
_symmetry_Int_Tables_number   1
_chemical_formula_structural   Na5VO5
_chemical_formula_sum   'Na20 V4 O20'
_cell_volume   598.67562761
_cell_formula_units_Z   4
loop_
 _symmetry_equiv_pos_site_id
 _symmetry_equiv_pos_as_xyz
  1  'x, y, z'
loop_
 _atom_site_type_symbol
 _atom_site_label
 _atom_site_symmetry_multiplicity
 _atom_site_fract_x
 _atom_site_fract_y
 _atom_site_fract_z
 _atom_site_occupancy
  Na  Na0  1  0.17174750  0.15440550  0.58024700  1
  Na  Na1  1  0.32822000  0.11315400  0.94764800  1
  Na  Na2  1  0.50000000  0.83412300  0.75000000  1
  Na  Na3  1  0.17174750  0.84559450  0.08024700  1
  Na  Na4  1  0.32822000  0.88684600  0.44764800  1
  Na  Na5  1  0.67178000  0.11315400  0.55235200  1
  Na  Na6  1  0.82825250  0.15440550  0.91975300  1
  Na  Na7  1  0.50000000  0.16587700  0.25000000  1
  Na  Na8  1  0.67178000  0.88684600  0.05235200  1
  Na  Na9  1  0.82825250  0.84559450  0.41975300  1
  Na  Na10  1  0.67174750  0.65440550  0.58024700  1
  Na  Na11  1  0.82822000  0.61315400  0.94764800  1
  Na  Na12  1  0.00000000  0.33412300  0.75000000  1
  Na  Na13  1  0.67174750  0.34559450  0.08024700  1
  Na  Na14  1  0.82822000  0.38684600  0.44764800  1
  Na  Na15  1  0.17178000  0.61315400  0.55235200  1
  Na  Na16  1  0.32825250  0.65440550  0.91975300  1
  Na  Na17  1  0.00000000  0.66587700  0.25000000  1
  Na  Na18  1  0.17178000  0.38684600  0.05235200  1
  Na  Na19  1  0.32825250  0.34559450  0.41975300  1
  V  V20  1  0.50000000  0.40690000  0.75000000  1
  V  V21  1  0.50000000  0.59310000  0.25000000  1
  V  V22  1  0.00000000  0.90690000  0.75000000  1
  V  V23  1  0.00000000  0.09310000  0.25000000  1
  O  O24  1  0.37523900  0.33050000  0.87579200  1
  O  O25  1  0.70834900  0.89347800  0.60854400  1
  O  O26  1  0.37523900  0.66950000  0.37579200  1
  O  O27  1  0.70834900  0.10652200  0.10854400  1
  O  O28  1  0.50000000  0.58487700  0.75000000  1
  O  O29  1  0.50000000  0.41512300  0.25000000  1
  O  O30  1  0.29165100  0.89347800  0.89145600  1
  O  O31  1  0.62476100  0.33050000  0.62420800  1
  O  O32  1  0.29165100  0.10652200  0.39145600  1
  O  O33  1  0.62476100  0.66950000  0.12420800  1
  O  O34  1  0.87523900  0.83050000  0.87579200  1
  O  O35  1  0.20834900  0.39347800  0.60854400  1
  O  O36  1  0.87523900  0.16950000  0.37579200  1
  O  O37  1  0.20834900  0.60652200  0.10854400  1
  O  O38  1  0.00000000  0.08487700  0.75000000  1
  O  O39  1  0.00000000  0.91512300  0.25000000  1
  O  O40  1  0.79165100  0.39347800  0.89145600  1
  O  O41  1  0.12476100  0.83050000  0.62420800  1
  O  O42  1  0.79165100  0.60652200  0.39145600  1
  O  O43  1  0.12476100  0.16950000  0.12420800  1
