# generated using pymatgen
data_Li3Ti6Zn3O16
_symmetry_space_group_name_H-M   'P 1'
_cell_length_a   8.47176100
_cell_length_b   8.47041300
_cell_length_c   8.47411948
_cell_angle_alpha   90.00000000
_cell_angle_beta   90.07083105
_cell_angle_gamma   90.00000000
_symmetry_Int_Tables_number   1
_chemical_formula_structural   Li3Ti6Zn3O16
_chemical_formula_sum   'Li6 Ti12 Zn6 O32'
_cell_volume   608.09653994
_cell_formula_units_Z   2
loop_
 _symmetry_equiv_pos_site_id
 _symmetry_equiv_pos_as_xyz
  1  'x, y, z'
loop_
 _atom_site_type_symbol
 _atom_site_label
 _atom_site_symmetry_multiplicity
 _atom_site_fract_x
 _atom_site_fract_y
 _atom_site_fract_z
 _atom_site_occupancy
  Li  Li0  1  0.87470100  0.37504000  0.62450300  1
  Li  Li1  1  0.12529900  0.87504000  0.37549700  1
  Li  Li2  1  0.25196400  0.49791500  0.49824700  1
  Li  Li3  1  0.37483500  0.62472400  0.87496600  1
  Li  Li4  1  0.62516500  0.12472400  0.12503400  1
  Li  Li5  1  0.74803600  0.99791500  0.50175300  1
  Ti  Ti6  1  0.86916000  0.13043600  0.87223800  1
  Ti  Ti7  1  0.87391400  0.88112200  0.13556500  1
  Ti  Ti8  1  0.88493200  0.62678500  0.38322000  1
  Ti  Ti9  1  0.11506800  0.12678500  0.61678000  1
  Ti  Ti10  1  0.12608600  0.38112200  0.86443500  1
  Ti  Ti11  1  0.13084000  0.63043600  0.12776200  1
  Ti  Ti12  1  0.37177400  0.86633400  0.62353300  1
  Ti  Ti13  1  0.37964400  0.12215600  0.37047400  1
  Ti  Ti14  1  0.38029600  0.37524600  0.12284500  1
  Ti  Ti15  1  0.61970400  0.87524600  0.87715500  1
  Ti  Ti16  1  0.62035600  0.62215600  0.62952600  1
  Ti  Ti17  1  0.62822600  0.36633400  0.37646700  1
  Zn  Zn18  1  0.75094200  0.50088000  0.00143000  1
  Zn  Zn19  1  0.99940700  0.75214300  0.75072900  1
  Zn  Zn20  1  0.00059300  0.25214300  0.24927100  1
  Zn  Zn21  1  0.24905800  0.00088000  0.99857000  1
  Zn  Zn22  1  0.49777000  0.24926100  0.74778700  1
  Zn  Zn23  1  0.50223000  0.74926100  0.25221300  1
  O  O24  1  0.85676000  0.39098100  0.37243200  1
  O  O25  1  0.86108200  0.62719200  0.60719900  1
  O  O26  1  0.86315100  0.88706800  0.88707100  1
  O  O27  1  0.87325400  0.85732200  0.35559100  1
  O  O28  1  0.87797700  0.10741800  0.11010800  1
  O  O29  1  0.88653100  0.63724500  0.13625600  1
  O  O30  1  0.88950100  0.35772600  0.87812000  1
  O  O31  1  0.89494100  0.12303200  0.64233300  1
  O  O32  1  0.10505900  0.62303200  0.35766700  1
  O  O33  1  0.11049900  0.85772600  0.12188000  1
  O  O34  1  0.11346900  0.13724500  0.86374400  1
  O  O35  1  0.12202300  0.60741800  0.88989200  1
  O  O36  1  0.12674600  0.35732200  0.64440900  1
  O  O37  1  0.13684900  0.38706800  0.11292900  1
  O  O38  1  0.13891800  0.12719200  0.39280100  1
  O  O39  1  0.14324000  0.89098100  0.62756800  1
  O  O40  1  0.35805100  0.61151900  0.12763000  1
  O  O41  1  0.36016000  0.37249500  0.89283400  1
  O  O42  1  0.36212100  0.11243300  0.61245000  1
  O  O43  1  0.37260100  0.13876900  0.14219600  1
  O  O44  1  0.37644400  0.89240300  0.38911300  1
  O  O45  1  0.38905900  0.36166100  0.36119500  1
  O  O46  1  0.39190700  0.64414900  0.62367600  1
  O  O47  1  0.39203500  0.87655300  0.86160700  1
  O  O48  1  0.60796500  0.37655300  0.13839300  1
  O  O49  1  0.60809300  0.14414900  0.37632400  1
  O  O50  1  0.61094100  0.86166100  0.63880500  1
  O  O51  1  0.62355600  0.39240300  0.61088700  1
  O  O52  1  0.62739900  0.63876900  0.85780400  1
  O  O53  1  0.63787900  0.61243300  0.38755000  1
  O  O54  1  0.63984000  0.87249500  0.10716600  1
  O  O55  1  0.64194900  0.11151900  0.87237000  1
