# generated using pymatgen
data_Li3VF7
_symmetry_space_group_name_H-M   'P 1'
_cell_length_a   6.13430630
_cell_length_b   6.13430630
_cell_length_c   13.80707206
_cell_angle_alpha   90.00000000
_cell_angle_beta   90.00000000
_cell_angle_gamma   120.00000000
_symmetry_Int_Tables_number   1
_chemical_formula_structural   Li3VF7
_chemical_formula_sum   'Li9 V3 F21'
_cell_volume   449.94884103
_cell_formula_units_Z   3
loop_
 _symmetry_equiv_pos_site_id
 _symmetry_equiv_pos_as_xyz
  1  'x, y, z'
loop_
 _atom_site_type_symbol
 _atom_site_label
 _atom_site_symmetry_multiplicity
 _atom_site_fract_x
 _atom_site_fract_y
 _atom_site_fract_z
 _atom_site_occupancy
  Li  Li0  1  0.16209000  0.83791000  0.21445200  1
  Li  Li1  1  0.16209000  0.32418000  0.21445200  1
  Li  Li2  1  0.67582000  0.83791000  0.21445200  1
  Li  Li3  1  0.82875667  0.17124333  0.54778533  1
  Li  Li4  1  0.82875667  0.65751333  0.54778533  1
  Li  Li5  1  0.34248667  0.17124333  0.54778533  1
  Li  Li6  1  0.49542333  0.50457667  0.88111867  1
  Li  Li7  1  0.49542333  0.99084667  0.88111867  1
  Li  Li8  1  0.00915333  0.50457667  0.88111867  1
  V  V9  1  0.33333333  0.66666667  0.66839767  1
  V  V10  1  0.00000000  0.00000000  0.00173100  1
  V  V11  1  0.66666667  0.33333333  0.33506433  1
  F  F12  1  0.14631733  0.85368267  0.07373467  1
  F  F13  1  0.14631733  0.29263467  0.07373467  1
  F  F14  1  0.96832533  0.48416267  0.25425467  1
  F  F15  1  0.33333333  0.66666667  0.91401267  1
  F  F16  1  0.51583733  0.03167467  0.25425467  1
  F  F17  1  0.51583733  0.48416267  0.25425467  1
  F  F18  1  0.70736533  0.85368267  0.07373467  1
  F  F19  1  0.81298400  0.18701600  0.40706800  1
  F  F20  1  0.81298400  0.62596800  0.40706800  1
  F  F21  1  0.63499200  0.81749600  0.58758800  1
  F  F22  1  0.00000000  0.00000000  0.24734600  1
  F  F23  1  0.18250400  0.36500800  0.58758800  1
  F  F24  1  0.18250400  0.81749600  0.58758800  1
  F  F25  1  0.37403200  0.18701600  0.40706800  1
  F  F26  1  0.47965067  0.52034933  0.74040133  1
  F  F27  1  0.47965067  0.95930133  0.74040133  1
  F  F28  1  0.30165867  0.15082933  0.92092133  1
  F  F29  1  0.66666667  0.33333333  0.58067933  1
  F  F30  1  0.84917067  0.69834133  0.92092133  1
  F  F31  1  0.84917067  0.15082933  0.92092133  1
  F  F32  1  0.04069867  0.52034933  0.74040133  1
