# generated using pymatgen
data_LiMn2O2F3
_symmetry_space_group_name_H-M   'P 1'
_cell_length_a   10.25004121
_cell_length_b   5.46754700
_cell_length_c   7.14564643
_cell_angle_alpha   90.00000000
_cell_angle_beta   113.08784311
_cell_angle_gamma   90.00000000
_symmetry_Int_Tables_number   1
_chemical_formula_structural   LiMn2O2F3
_chemical_formula_sum   'Li4 Mn8 O8 F12'
_cell_volume   368.38548354
_cell_formula_units_Z   4
loop_
 _symmetry_equiv_pos_site_id
 _symmetry_equiv_pos_as_xyz
  1  'x, y, z'
loop_
 _atom_site_type_symbol
 _atom_site_label
 _atom_site_symmetry_multiplicity
 _atom_site_fract_x
 _atom_site_fract_y
 _atom_site_fract_z
 _atom_site_occupancy
  Li  Li0  1  0.50000000  0.50000000  0.50000000  1
  Li  Li1  1  0.50000000  0.50000000  0.00000000  1
  Li  Li2  1  0.00000000  0.00000000  0.50000000  1
  Li  Li3  1  0.00000000  0.00000000  0.00000000  1
  Mn  Mn4  1  0.11562850  0.49177950  0.20194100  1
  Mn  Mn5  1  0.11562850  0.50822050  0.70194100  1
  Mn  Mn6  1  0.38437150  0.99177950  0.29805900  1
  Mn  Mn7  1  0.38437150  0.00822050  0.79805900  1
  Mn  Mn8  1  0.61562850  0.99177950  0.20194100  1
  Mn  Mn9  1  0.61562850  0.00822050  0.70194100  1
  Mn  Mn10  1  0.88437150  0.49177950  0.29805900  1
  Mn  Mn11  1  0.88437150  0.50822050  0.79805900  1
  O  O12  1  0.42055250  0.87051250  0.06253400  1
  O  O13  1  0.42055250  0.12948750  0.56253400  1
  O  O14  1  0.07944750  0.37051250  0.43746600  1
  O  O15  1  0.07944750  0.62948750  0.93746600  1
  O  O16  1  0.92055250  0.37051250  0.06253400  1
  O  O17  1  0.92055250  0.62948750  0.56253400  1
  O  O18  1  0.57944750  0.87051250  0.43746600  1
  O  O19  1  0.57944750  0.12948750  0.93746600  1
  F  F20  1  0.50000000  0.31996600  0.25000000  1
  F  F21  1  0.50000000  0.68003400  0.75000000  1
  F  F22  1  0.30125650  0.63609150  0.33755200  1
  F  F23  1  0.19874350  0.13609150  0.16244800  1
  F  F24  1  0.30125650  0.36390850  0.83755200  1
  F  F25  1  0.19874350  0.86390850  0.66244800  1
  F  F26  1  0.00000000  0.81996600  0.25000000  1
  F  F27  1  0.00000000  0.18003400  0.75000000  1
  F  F28  1  0.80125650  0.13609150  0.33755200  1
  F  F29  1  0.69874350  0.63609150  0.16244800  1
  F  F30  1  0.80125650  0.86390850  0.83755200  1
  F  F31  1  0.69874350  0.36390850  0.66244800  1
