# generated using pymatgen
data_Li4Mn3Cr3O12
_symmetry_space_group_name_H-M   'P 1'
_cell_length_a   5.67122200
_cell_length_b   8.92162400
_cell_length_c   16.99025200
_cell_angle_alpha   90.00000000
_cell_angle_beta   90.00000000
_cell_angle_gamma   90.00000000
_symmetry_Int_Tables_number   1
_chemical_formula_structural   Li4Mn3Cr3O12
_chemical_formula_sum   'Li16 Mn12 Cr12 O48'
_cell_volume   859.64746039
_cell_formula_units_Z   4
loop_
 _symmetry_equiv_pos_site_id
 _symmetry_equiv_pos_as_xyz
  1  'x, y, z'
loop_
 _atom_site_type_symbol
 _atom_site_label
 _atom_site_symmetry_multiplicity
 _atom_site_fract_x
 _atom_site_fract_y
 _atom_site_fract_z
 _atom_site_occupancy
  Li  Li0  1  0.50000000  0.00000000  0.32928400  1
  Li  Li1  1  0.00000000  0.00000000  0.17071600  1
  Li  Li2  1  0.75000000  0.25000000  0.42037300  1
  Li  Li3  1  0.75000000  0.25000000  0.07962700  1
  Li  Li4  1  0.50000000  0.50000000  0.82928400  1
  Li  Li5  1  0.00000000  0.50000000  0.67071600  1
  Li  Li6  1  0.75000000  0.75000000  0.92037300  1
  Li  Li7  1  0.75000000  0.75000000  0.57962700  1
  Li  Li8  1  0.00000000  0.00000000  0.82928400  1
  Li  Li9  1  0.50000000  0.00000000  0.67071600  1
  Li  Li10  1  0.25000000  0.25000000  0.92037300  1
  Li  Li11  1  0.25000000  0.25000000  0.57962700  1
  Li  Li12  1  0.00000000  0.50000000  0.32928400  1
  Li  Li13  1  0.50000000  0.50000000  0.17071600  1
  Li  Li14  1  0.25000000  0.75000000  0.42037300  1
  Li  Li15  1  0.25000000  0.75000000  0.07962700  1
  Mn  Mn16  1  0.00000000  0.00000000  0.00000000  1
  Mn  Mn17  1  0.50000000  0.00000000  0.16443000  1
  Mn  Mn18  1  0.00000000  0.00000000  0.33557000  1
  Mn  Mn19  1  0.00000000  0.50000000  0.50000000  1
  Mn  Mn20  1  0.50000000  0.50000000  0.66443000  1
  Mn  Mn21  1  0.00000000  0.50000000  0.83557000  1
  Mn  Mn22  1  0.50000000  0.00000000  0.50000000  1
  Mn  Mn23  1  0.00000000  0.00000000  0.66443000  1
  Mn  Mn24  1  0.50000000  0.00000000  0.83557000  1
  Mn  Mn25  1  0.50000000  0.50000000  0.00000000  1
  Mn  Mn26  1  0.00000000  0.50000000  0.16443000  1
  Mn  Mn27  1  0.50000000  0.50000000  0.33557000  1
  Cr  Cr28  1  0.75000000  0.75000000  0.41433500  1
  Cr  Cr29  1  0.75000000  0.75000000  0.08566500  1
  Cr  Cr30  1  0.75000000  0.25000000  0.25000000  1
  Cr  Cr31  1  0.75000000  0.25000000  0.91433500  1
  Cr  Cr32  1  0.75000000  0.25000000  0.58566500  1
  Cr  Cr33  1  0.75000000  0.75000000  0.75000000  1
  Cr  Cr34  1  0.25000000  0.75000000  0.91433500  1
  Cr  Cr35  1  0.25000000  0.75000000  0.58566500  1
  Cr  Cr36  1  0.25000000  0.25000000  0.75000000  1
  Cr  Cr37  1  0.25000000  0.25000000  0.41433500  1
  Cr  Cr38  1  0.25000000  0.25000000  0.08566500  1
  Cr  Cr39  1  0.25000000  0.75000000  0.25000000  1
  O  O40  1  0.50000000  0.71670400  0.00000000  1
  O  O41  1  0.48870650  0.78189250  0.16295500  1
  O  O42  1  0.23974700  0.02542700  0.08738900  1
  O  O43  1  0.01129350  0.78189250  0.33704500  1
  O  O44  1  0.73974700  0.97457300  0.41261100  1
  O  O45  1  0.76025300  0.97457300  0.08738900  1
  O  O46  1  0.75000000  0.02698300  0.25000000  1
  O  O47  1  0.51129350  0.21810750  0.16295500  1
  O  O48  1  0.50000000  0.28329600  0.00000000  1
  O  O49  1  0.26025300  0.02542700  0.41261100  1
  O  O50  1  0.98870650  0.21810750  0.33704500  1
  O  O51  1  0.75000000  0.47301700  0.25000000  1
  O  O52  1  0.50000000  0.21670400  0.50000000  1
  O  O53  1  0.48870650  0.28189250  0.66295500  1
  O  O54  1  0.23974700  0.52542700  0.58738900  1
  O  O55  1  0.01129350  0.28189250  0.83704500  1
  O  O56  1  0.73974700  0.47457300  0.91261100  1
  O  O57  1  0.76025300  0.47457300  0.58738900  1
  O  O58  1  0.75000000  0.52698300  0.75000000  1
  O  O59  1  0.51129350  0.71810750  0.66295500  1
  O  O60  1  0.50000000  0.78329600  0.50000000  1
  O  O61  1  0.26025300  0.52542700  0.91261100  1
  O  O62  1  0.98870650  0.71810750  0.83704500  1
  O  O63  1  0.75000000  0.97301700  0.75000000  1
  O  O64  1  0.00000000  0.71670400  0.50000000  1
  O  O65  1  0.98870650  0.78189250  0.66295500  1
  O  O66  1  0.73974700  0.02542700  0.58738900  1
  O  O67  1  0.51129350  0.78189250  0.83704500  1
  O  O68  1  0.23974700  0.97457300  0.91261100  1
  O  O69  1  0.26025300  0.97457300  0.58738900  1
  O  O70  1  0.25000000  0.02698300  0.75000000  1
  O  O71  1  0.01129350  0.21810750  0.66295500  1
  O  O72  1  0.00000000  0.28329600  0.50000000  1
  O  O73  1  0.76025300  0.02542700  0.91261100  1
  O  O74  1  0.48870650  0.21810750  0.83704500  1
  O  O75  1  0.25000000  0.47301700  0.75000000  1
  O  O76  1  0.00000000  0.21670400  0.00000000  1
  O  O77  1  0.98870650  0.28189250  0.16295500  1
  O  O78  1  0.73974700  0.52542700  0.08738900  1
  O  O79  1  0.51129350  0.28189250  0.33704500  1
  O  O80  1  0.23974700  0.47457300  0.41261100  1
  O  O81  1  0.26025300  0.47457300  0.08738900  1
  O  O82  1  0.25000000  0.52698300  0.25000000  1
  O  O83  1  0.01129350  0.71810750  0.16295500  1
  O  O84  1  0.00000000  0.78329600  0.00000000  1
  O  O85  1  0.76025300  0.52542700  0.41261100  1
  O  O86  1  0.48870650  0.71810750  0.33704500  1
  O  O87  1  0.25000000  0.97301700  0.25000000  1
