# generated using pymatgen
data_Li5Mn5(CoO6)2
_symmetry_space_group_name_H-M   'P 1'
_cell_length_a   5.22918400
_cell_length_b   8.89877200
_cell_length_c   9.84258444
_cell_angle_alpha   90.00000000
_cell_angle_beta   99.07149603
_cell_angle_gamma   90.00000000
_symmetry_Int_Tables_number   1
_chemical_formula_structural   Li5Mn5(CoO6)2
_chemical_formula_sum   'Li10 Mn10 Co4 O24'
_cell_volume   452.27949617
_cell_formula_units_Z   2
loop_
 _symmetry_equiv_pos_site_id
 _symmetry_equiv_pos_as_xyz
  1  'x, y, z'
loop_
 _atom_site_type_symbol
 _atom_site_label
 _atom_site_symmetry_multiplicity
 _atom_site_fract_x
 _atom_site_fract_y
 _atom_site_fract_z
 _atom_site_occupancy
  Li  Li0  1  0.23866200  0.08487000  0.74176000  1
  Li  Li1  1  0.76133800  0.08487000  0.25824000  1
  Li  Li2  1  0.25483600  0.91194500  0.25589800  1
  Li  Li3  1  0.74516400  0.91194500  0.74410200  1
  Li  Li4  1  0.50000000  0.41866600  0.50000000  1
  Li  Li5  1  0.73866200  0.58487000  0.74176000  1
  Li  Li6  1  0.26133800  0.58487000  0.25824000  1
  Li  Li7  1  0.75483600  0.41194500  0.25589800  1
  Li  Li8  1  0.24516400  0.41194500  0.74410200  1
  Li  Li9  1  0.00000000  0.91866600  0.50000000  1
  Mn  Mn10  1  0.25870250  0.25449650  0.25761200  1
  Mn  Mn11  1  0.74129750  0.25449650  0.74238800  1
  Mn  Mn12  1  0.50000000  0.57745000  0.00000000  1
  Mn  Mn13  1  0.50000000  0.08185900  0.50000000  1
  Mn  Mn14  1  0.50000000  0.91788600  0.00000000  1
  Mn  Mn15  1  0.75870250  0.75449650  0.25761200  1
  Mn  Mn16  1  0.24129750  0.75449650  0.74238800  1
  Mn  Mn17  1  0.00000000  0.07745000  0.00000000  1
  Mn  Mn18  1  0.00000000  0.58185900  0.50000000  1
  Mn  Mn19  1  0.00000000  0.41788600  0.00000000  1
  Co  Co20  1  0.50000000  0.75473900  0.50000000  1
  Co  Co21  1  0.50000000  0.24887400  0.00000000  1
  Co  Co22  1  0.00000000  0.25473900  0.50000000  1
  Co  Co23  1  0.00000000  0.74887400  0.00000000  1
  O  O24  1  0.14856550  0.09909450  0.38741000  1
  O  O25  1  0.38061850  0.07721450  0.11559300  1
  O  O26  1  0.40881400  0.75798300  0.12993800  1
  O  O27  1  0.39651150  0.23942350  0.62425400  1
  O  O28  1  0.11357750  0.90685650  0.86686200  1
  O  O29  1  0.38613150  0.91927650  0.61137200  1
  O  O30  1  0.61938150  0.07721450  0.88440700  1
  O  O31  1  0.85143450  0.09909450  0.61259000  1
  O  O32  1  0.59118600  0.75798300  0.87006200  1
  O  O33  1  0.60348850  0.23942350  0.37574600  1
  O  O34  1  0.61386850  0.91927650  0.38862800  1
  O  O35  1  0.88642250  0.90685650  0.13313800  1
  O  O36  1  0.64856550  0.59909450  0.38741000  1
  O  O37  1  0.88061850  0.57721450  0.11559300  1
  O  O38  1  0.90881400  0.25798300  0.12993800  1
  O  O39  1  0.89651150  0.73942350  0.62425400  1
  O  O40  1  0.61357750  0.40685650  0.86686200  1
  O  O41  1  0.88613150  0.41927650  0.61137200  1
  O  O42  1  0.11938150  0.57721450  0.88440700  1
  O  O43  1  0.35143450  0.59909450  0.61259000  1
  O  O44  1  0.09118600  0.25798300  0.87006200  1
  O  O45  1  0.10348850  0.73942350  0.37574600  1
  O  O46  1  0.11386850  0.41927650  0.38862800  1
  O  O47  1  0.38642250  0.40685650  0.13313800  1
