# generated using pymatgen
data_Li7FeO6
_symmetry_space_group_name_H-M   'P 1'
_cell_length_a   5.56399184
_cell_length_b   5.56399184
_cell_length_c   13.93009418
_cell_angle_alpha   90.00000000
_cell_angle_beta   90.00000000
_cell_angle_gamma   120.00000000
_symmetry_Int_Tables_number   1
_chemical_formula_structural   Li7FeO6
_chemical_formula_sum   'Li21 Fe3 O18'
_cell_volume   373.47166071
_cell_formula_units_Z   3
loop_
 _symmetry_equiv_pos_site_id
 _symmetry_equiv_pos_as_xyz
  1  'x, y, z'
loop_
 _atom_site_type_symbol
 _atom_site_label
 _atom_site_symmetry_multiplicity
 _atom_site_fract_x
 _atom_site_fract_y
 _atom_site_fract_z
 _atom_site_occupancy
  Li  Li0  1  0.39548167  0.34020433  0.10954233  1
  Li  Li1  1  0.05431967  0.34443333  0.22852733  1
  Li  Li2  1  0.65556667  0.70988633  0.22852733  1
  Li  Li3  1  0.33333333  0.66666667  0.01301433  1
  Li  Li4  1  0.94472267  0.60451833  0.10954233  1
  Li  Li5  1  0.65979567  0.05527733  0.10954233  1
  Li  Li6  1  0.29011367  0.94568033  0.22852733  1
  Li  Li7  1  0.06214833  0.67353767  0.44287567  1
  Li  Li8  1  0.72098633  0.67776667  0.56186067  1
  Li  Li9  1  0.32223333  0.04321967  0.56186067  1
  Li  Li10  1  0.00000000  0.00000000  0.34634767  1
  Li  Li11  1  0.61138933  0.93785167  0.44287567  1
  Li  Li12  1  0.32646233  0.38861067  0.44287567  1
  Li  Li13  1  0.95678033  0.27901367  0.56186067  1
  Li  Li14  1  0.72881500  0.00687100  0.77620900  1
  Li  Li15  1  0.38765300  0.01110000  0.89519400  1
  Li  Li16  1  0.98890000  0.37655300  0.89519400  1
  Li  Li17  1  0.66666667  0.33333333  0.67968100  1
  Li  Li18  1  0.27805600  0.27118500  0.77620900  1
  Li  Li19  1  0.99312900  0.72194400  0.77620900  1
  Li  Li20  1  0.62344700  0.61234700  0.89519400  1
  Fe  Fe21  1  0.66666667  0.33333333  0.33273033  1
  Fe  Fe22  1  0.33333333  0.66666667  0.66606367  1
  Fe  Fe23  1  0.00000000  0.00000000  0.99939700  1
  O  O24  1  0.38329133  0.33014267  0.25452167  1
  O  O25  1  0.03966300  0.30791400  0.08032000  1
  O  O26  1  0.69208600  0.73174900  0.08032000  1
  O  O27  1  0.94685133  0.61670867  0.25452167  1
  O  O28  1  0.66985733  0.05314867  0.25452167  1
  O  O29  1  0.26825100  0.96033700  0.08032000  1
  O  O30  1  0.04995800  0.66347600  0.58785500  1
  O  O31  1  0.70632967  0.64124733  0.41365333  1
  O  O32  1  0.35875267  0.06508233  0.41365333  1
  O  O33  1  0.61351800  0.95004200  0.58785500  1
  O  O34  1  0.33652400  0.38648200  0.58785500  1
  O  O35  1  0.93491767  0.29367033  0.41365333  1
  O  O36  1  0.71662467  0.99680933  0.92118833  1
  O  O37  1  0.37299633  0.97458067  0.74698667  1
  O  O38  1  0.02541933  0.39841567  0.74698667  1
  O  O39  1  0.28018467  0.28337533  0.92118833  1
  O  O40  1  0.00319067  0.71981533  0.92118833  1
  O  O41  1  0.60158433  0.62700367  0.74698667  1
