# generated using pymatgen
data_Fe3(O2F)2
_symmetry_space_group_name_H-M   'P 1'
_cell_length_a   7.00104000
_cell_length_b   6.38780800
_cell_length_c   9.04199641
_cell_angle_alpha   90.00000000
_cell_angle_beta   90.58195971
_cell_angle_gamma   90.00000000
_symmetry_Int_Tables_number   1
_chemical_formula_structural   Fe3(O2F)2
_chemical_formula_sum   'Fe12 O16 F8'
_cell_volume   404.34896944
_cell_formula_units_Z   4
loop_
 _symmetry_equiv_pos_site_id
 _symmetry_equiv_pos_as_xyz
  1  'x, y, z'
loop_
 _atom_site_type_symbol
 _atom_site_label
 _atom_site_symmetry_multiplicity
 _atom_site_fract_x
 _atom_site_fract_y
 _atom_site_fract_z
 _atom_site_occupancy
  Fe  Fe0  1  0.99269700  0.00000000  0.67297200  1
  Fe  Fe1  1  0.00000000  0.00000000  0.00000000  1
  Fe  Fe2  1  0.00730300  0.00000000  0.32702800  1
  Fe  Fe3  1  0.53567500  0.00000000  0.83387600  1
  Fe  Fe4  1  0.50000000  0.00000000  0.50000000  1
  Fe  Fe5  1  0.46432500  0.00000000  0.16612400  1
  Fe  Fe6  1  0.49269700  0.50000000  0.67297200  1
  Fe  Fe7  1  0.50000000  0.50000000  0.00000000  1
  Fe  Fe8  1  0.50730300  0.50000000  0.32702800  1
  Fe  Fe9  1  0.03567500  0.50000000  0.83387600  1
  Fe  Fe10  1  0.00000000  0.50000000  0.50000000  1
  Fe  Fe11  1  0.96432500  0.50000000  0.16612400  1
  O  O12  1  0.18040900  0.00000000  0.16269200  1
  O  O13  1  0.50678800  0.80674700  0.66014100  1
  O  O14  1  0.50000000  0.80353800  0.00000000  1
  O  O15  1  0.49321200  0.80674700  0.33985900  1
  O  O16  1  0.50678800  0.19325300  0.66014100  1
  O  O17  1  0.50000000  0.19646200  0.00000000  1
  O  O18  1  0.49321200  0.19325300  0.33985900  1
  O  O19  1  0.81959100  0.00000000  0.83730800  1
  O  O20  1  0.68040900  0.50000000  0.16269200  1
  O  O21  1  0.00678800  0.30674700  0.66014100  1
  O  O22  1  0.00000000  0.30353800  0.00000000  1
  O  O23  1  0.99321200  0.30674700  0.33985900  1
  O  O24  1  0.00678800  0.69325300  0.66014100  1
  O  O25  1  0.00000000  0.69646200  0.00000000  1
  O  O26  1  0.99321200  0.69325300  0.33985900  1
  O  O27  1  0.31959100  0.50000000  0.83730800  1
  F  F28  1  0.19745000  0.00000000  0.83070200  1
  F  F29  1  0.19006500  0.00000000  0.50208800  1
  F  F30  1  0.80993500  0.00000000  0.49791200  1
  F  F31  1  0.80255000  0.00000000  0.16929800  1
  F  F32  1  0.69745000  0.50000000  0.83070200  1
  F  F33  1  0.69006500  0.50000000  0.50208800  1
  F  F34  1  0.30993500  0.50000000  0.49791200  1
  F  F35  1  0.30255000  0.50000000  0.16929800  1
