# generated using pymatgen
data_Li15(FeO4)4
_symmetry_space_group_name_H-M   'P 1'
_cell_length_a   9.16738700
_cell_length_b   9.27088700
_cell_length_c   9.38559811
_cell_angle_alpha   90.00000000
_cell_angle_beta   90.46801199
_cell_angle_gamma   90.00000000
_symmetry_Int_Tables_number   1
_chemical_formula_structural   Li15(FeO4)4
_chemical_formula_sum   'Li30 Fe8 O32'
_cell_volume   797.65357921
_cell_formula_units_Z   2
loop_
 _symmetry_equiv_pos_site_id
 _symmetry_equiv_pos_as_xyz
  1  'x, y, z'
loop_
 _atom_site_type_symbol
 _atom_site_label
 _atom_site_symmetry_multiplicity
 _atom_site_fract_x
 _atom_site_fract_y
 _atom_site_fract_z
 _atom_site_occupancy
  Li  Li0  1  0.89563700  0.36490300  0.85649600  1
  Li  Li1  1  0.89563700  0.63509700  0.35649600  1
  Li  Li2  1  0.87553400  0.59840300  0.63629000  1
  Li  Li3  1  0.87553400  0.40159700  0.13629000  1
  Li  Li4  1  0.64254300  0.87955400  0.14152300  1
  Li  Li5  1  0.64254300  0.12044600  0.64152300  1
  Li  Li6  1  0.61085300  0.37078900  0.15660300  1
  Li  Li7  1  0.61085300  0.62921100  0.65660300  1
  Li  Li8  1  0.59959100  0.87283000  0.86417200  1
  Li  Li9  1  0.59959100  0.12717000  0.36417200  1
  Li  Li10  1  0.40837100  0.36948900  0.62762900  1
  Li  Li11  1  0.40837100  0.63051100  0.12762900  1
  Li  Li12  1  0.39296200  0.86557300  0.34829700  1
  Li  Li13  1  0.39296200  0.13442700  0.84829700  1
  Li  Li14  1  0.38003900  0.39782200  0.36888400  1
  Li  Li15  1  0.38003900  0.60217800  0.86888400  1
  Li  Li16  1  0.34221300  0.36292700  0.10673100  1
  Li  Li17  1  0.34221300  0.63707300  0.60673100  1
  Li  Li18  1  0.33231100  0.86453700  0.89572000  1
  Li  Li19  1  0.33231100  0.13546300  0.39572000  1
  Li  Li20  1  0.17234400  0.36412100  0.89500800  1
  Li  Li21  1  0.17234400  0.63587900  0.39500800  1
  Li  Li22  1  0.13841800  0.13296400  0.60553200  1
  Li  Li23  1  0.13841800  0.86703600  0.10553200  1
  Li  Li24  1  0.12170100  0.89322200  0.36194300  1
  Li  Li25  1  0.12170100  0.10677800  0.86194300  1
  Li  Li26  1  0.10560800  0.36835700  0.35251400  1
  Li  Li27  1  0.10560800  0.63164300  0.85251400  1
  Li  Li28  1  0.09484000  0.86810600  0.63376800  1
  Li  Li29  1  0.09484000  0.13189400  0.13376800  1
  Fe  Fe30  1  0.88027400  0.88608200  0.87740700  1
  Fe  Fe31  1  0.88027400  0.11391800  0.37740700  1
  Fe  Fe32  1  0.61775800  0.39008300  0.87491700  1
  Fe  Fe33  1  0.61775800  0.60991700  0.37491700  1
  Fe  Fe34  1  0.38251800  0.90471900  0.62163300  1
  Fe  Fe35  1  0.38251800  0.09528100  0.12163300  1
  Fe  Fe36  1  0.12002400  0.40294200  0.62191600  1
  Fe  Fe37  1  0.12002400  0.59705800  0.12191600  1
  O  O38  1  0.00682500  0.01930800  0.47777700  1
  O  O39  1  0.00682500  0.98069200  0.97777700  1
  O  O40  1  0.97060100  0.76605400  0.76665500  1
  O  O41  1  0.97060100  0.23394600  0.26665500  1
  O  O42  1  0.76469700  0.79638500  0.98367800  1
  O  O43  1  0.76469700  0.20361500  0.48367800  1
  O  O44  1  0.76566000  0.98850900  0.77867600  1
  O  O45  1  0.76566000  0.01149100  0.27867600  1
  O  O46  1  0.73879400  0.48860900  0.76200400  1
  O  O47  1  0.73879400  0.51139100  0.26200400  1
  O  O48  1  0.74383200  0.31881300  0.99985600  1
  O  O49  1  0.74383200  0.68118700  0.49985600  1
  O  O50  1  0.52479300  0.26488900  0.75749600  1
  O  O51  1  0.52479300  0.73511100  0.25749600  1
  O  O52  1  0.48260600  0.52928500  0.49675400  1
  O  O53  1  0.48260600  0.47071500  0.99675400  1
  O  O54  1  0.48350000  0.97576800  0.99984200  1
  O  O55  1  0.48350000  0.02423200  0.49984200  1
  O  O56  1  0.46292900  0.75968800  0.74573200  1
  O  O57  1  0.46292900  0.24031200  0.24573200  1
  O  O58  1  0.25214200  0.79591500  0.50204400  1
  O  O59  1  0.25214200  0.20408500  0.00204400  1
  O  O60  1  0.24786600  0.00126900  0.73889500  1
  O  O61  1  0.24786600  0.99873100  0.23889500  1
  O  O62  1  0.24272900  0.50842700  0.74058400  1
  O  O63  1  0.24272900  0.49157300  0.24058400  1
  O  O64  1  0.24036100  0.29089300  0.50133800  1
  O  O65  1  0.24036100  0.70910700  0.00133800  1
  O  O66  1  0.05127000  0.73124900  0.24653300  1
  O  O67  1  0.05127000  0.26875100  0.74653300  1
  O  O68  1  0.02737400  0.47682900  0.99823200  1
  O  O69  1  0.02737400  0.52317100  0.49823200  1
