# generated using pymatgen
data_LiCu2(CO3)2
_symmetry_space_group_name_H-M   'P 1'
_cell_length_a   5.02693671
_cell_length_b   5.03109801
_cell_length_c   6.53184215
_cell_angle_alpha   68.51672186
_cell_angle_beta   68.25143249
_cell_angle_gamma   60.14253332
_symmetry_Int_Tables_number   1
_chemical_formula_structural   LiCu2(CO3)2
_chemical_formula_sum   'Li1 Cu2 C2 O6'
_cell_volume   129.63978305
_cell_formula_units_Z   1
loop_
 _symmetry_equiv_pos_site_id
 _symmetry_equiv_pos_as_xyz
  1  'x, y, z'
loop_
 _atom_site_type_symbol
 _atom_site_label
 _atom_site_symmetry_multiplicity
 _atom_site_fract_x
 _atom_site_fract_y
 _atom_site_fract_z
 _atom_site_occupancy
  Li  Li0  1  0.36447700  0.05951300  0.34992700  1
  Cu  Cu1  1  0.25112000  0.59126200  0.77293100  1
  Cu  Cu2  1  0.74284900  0.42383700  0.22068300  1
  C  C3  1  0.92699900  0.25573700  0.74555300  1
  C  C4  1  0.07090300  0.74353700  0.25256700  1
  O  O5  1  0.67218000  0.26519700  0.73355500  1
  O  O6  1  0.92027100  0.46958400  0.81555900  1
  O  O7  1  0.19627500  0.02758800  0.68365400  1
  O  O8  1  0.80192400  0.98292800  0.26329300  1
  O  O9  1  0.10827100  0.48913800  0.21271600  1
  O  O10  1  0.30926200  0.75141200  0.27904800  1
