# generated using pymatgen
data_Mn3(PO4)4
_symmetry_space_group_name_H-M   'P 1'
_cell_length_a   5.92825003
_cell_length_b   13.37008000
_cell_length_c   8.24182411
_cell_angle_alpha   90.00000000
_cell_angle_beta   99.08842163
_cell_angle_gamma   90.00000000
_symmetry_Int_Tables_number   1
_chemical_formula_structural   Mn3(PO4)4
_chemical_formula_sum   'Mn6 P8 O32'
_cell_volume   645.05553182
_cell_formula_units_Z   2
loop_
 _symmetry_equiv_pos_site_id
 _symmetry_equiv_pos_as_xyz
  1  'x, y, z'
loop_
 _atom_site_type_symbol
 _atom_site_label
 _atom_site_symmetry_multiplicity
 _atom_site_fract_x
 _atom_site_fract_y
 _atom_site_fract_z
 _atom_site_occupancy
  Mn  Mn0  1  0.05853000  0.56260700  0.71372100  1
  Mn  Mn1  1  0.94147000  0.06260700  0.28627900  1
  Mn  Mn2  1  0.37797500  0.79439500  0.31442700  1
  Mn  Mn3  1  0.40203400  0.42931000  0.27392000  1
  Mn  Mn4  1  0.59796600  0.92931000  0.72608000  1
  Mn  Mn5  1  0.62202500  0.29439500  0.68557300  1
  P  P6  1  0.89494300  0.12181800  0.91027700  1
  P  P7  1  0.51959000  0.59677000  0.57231500  1
  P  P8  1  0.62932800  0.87276500  0.11309300  1
  P  P9  1  0.48041000  0.09677000  0.42768500  1
  P  P10  1  0.92333400  0.40893700  0.41807100  1
  P  P11  1  0.10505700  0.62181800  0.08972300  1
  P  P12  1  0.37067200  0.37276500  0.88690700  1
  P  P13  1  0.07666600  0.90893700  0.58192900  1
  O  O14  1  0.87185100  0.86903700  0.65816500  1
  O  O15  1  0.83493500  0.94265500  0.16947100  1
  O  O16  1  0.00529100  0.01297500  0.50461700  1
  O  O17  1  0.65438700  0.11322800  0.30842300  1
  O  O18  1  0.30731200  0.55363800  0.15289800  1
  O  O19  1  0.12814900  0.36903700  0.34183500  1
  O  O20  1  0.12781600  0.07826200  0.89198400  1
  O  O21  1  0.48040600  0.49399100  0.48806700  1
  O  O22  1  0.51959400  0.99399100  0.51193300  1
  O  O23  1  0.49292100  0.18771300  0.54085100  1
  O  O24  1  0.99470900  0.51297500  0.49538300  1
  O  O25  1  0.50707900  0.68771300  0.45914900  1
  O  O26  1  0.89544900  0.14713400  0.09394400  1
  O  O27  1  0.62899000  0.85022800  0.93026300  1
  O  O28  1  0.84854300  0.33721500  0.54503800  1
  O  O29  1  0.39987900  0.90961700  0.16607400  1
  O  O30  1  0.16506500  0.44265500  0.83052900  1
  O  O31  1  0.35228000  0.27266300  0.78569500  1
  O  O32  1  0.75255000  0.60252600  0.68912700  1
  O  O33  1  0.69268800  0.05363800  0.84710200  1
  O  O34  1  0.87218400  0.57826200  0.10801600  1
  O  O35  1  0.37101000  0.35022800  0.06973700  1
  O  O36  1  0.10455100  0.64713400  0.90605600  1
  O  O37  1  0.87549800  0.22204600  0.81444100  1
  O  O38  1  0.64772000  0.77266300  0.21430500  1
  O  O39  1  0.15145700  0.83721500  0.45496200  1
  O  O40  1  0.72440800  0.42002200  0.27151500  1
  O  O41  1  0.24745000  0.10252600  0.31087300  1
  O  O42  1  0.34561300  0.61322800  0.69157700  1
  O  O43  1  0.60012100  0.40961700  0.83392600  1
  O  O44  1  0.27559200  0.92002200  0.72848500  1
  O  O45  1  0.12450200  0.72204600  0.18555900  1
