# generated using pymatgen
data_LiCoPO4
_symmetry_space_group_name_H-M   'P 1'
_cell_length_a   5.45344238
_cell_length_b   6.15318403
_cell_length_c   10.69775206
_cell_angle_alpha   90.00000000
_cell_angle_beta   105.53494240
_cell_angle_gamma   90.00000000
_symmetry_Int_Tables_number   1
_chemical_formula_structural   LiCoPO4
_chemical_formula_sum   'Li4 Co4 P4 O16'
_cell_volume   345.85984198
_cell_formula_units_Z   4
loop_
 _symmetry_equiv_pos_site_id
 _symmetry_equiv_pos_as_xyz
  1  'x, y, z'
loop_
 _atom_site_type_symbol
 _atom_site_label
 _atom_site_symmetry_multiplicity
 _atom_site_fract_x
 _atom_site_fract_y
 _atom_site_fract_z
 _atom_site_occupancy
  Li  Li0  1  0.93097900  0.53265300  0.20137750  1
  Li  Li1  1  0.06902100  0.03265300  0.29862250  1
  Li  Li2  1  0.93097900  0.96734700  0.70137750  1
  Li  Li3  1  0.06902100  0.46734700  0.79862250  1
  Co  Co4  1  0.53507900  0.16792600  0.90065550  1
  Co  Co5  1  0.46492100  0.83207400  0.09934450  1
  Co  Co6  1  0.46492100  0.66792600  0.59934450  1
  Co  Co7  1  0.53507900  0.33207400  0.40065550  1
  P  P8  1  0.62341000  0.65709900  0.85926850  1
  P  P9  1  0.37659000  0.15709900  0.64073150  1
  P  P10  1  0.62341000  0.84290100  0.35926850  1
  P  P11  1  0.37659000  0.34290100  0.14073150  1
  O  O12  1  0.78753700  0.68979300  0.75990450  1
  O  O13  1  0.78753700  0.81020700  0.25990450  1
  O  O14  1  0.21246300  0.18979300  0.74009550  1
  O  O15  1  0.21246300  0.31020700  0.24009550  1
  O  O16  1  0.65053000  0.14454300  0.72445450  1
  O  O17  1  0.65053000  0.35545700  0.22445450  1
  O  O18  1  0.34947000  0.64454300  0.77554550  1
  O  O19  1  0.34947000  0.85545700  0.27554550  1
  O  O20  1  0.71388800  0.45287100  0.94261950  1
  O  O21  1  0.28611200  0.95287100  0.55738050  1
  O  O22  1  0.71388800  0.04712900  0.44261950  1
  O  O23  1  0.28611200  0.54712900  0.05738050  1
  O  O24  1  0.65055900  0.85659500  0.95398750  1
  O  O25  1  0.34944100  0.35659500  0.54601250  1
  O  O26  1  0.65055900  0.64340500  0.45398750  1
  O  O27  1  0.34944100  0.14340500  0.04601250  1
