# generated using pymatgen
data_Mn3FeO8
_symmetry_space_group_name_H-M   'P 1'
_cell_length_a   11.73584400
_cell_length_b   11.75348800
_cell_length_c   8.31155474
_cell_angle_alpha   90.00000000
_cell_angle_beta   90.06120059
_cell_angle_gamma   90.00000000
_symmetry_Int_Tables_number   1
_chemical_formula_structural   Mn3FeO8
_chemical_formula_sum   'Mn24 Fe8 O64'
_cell_volume   1146.47111700
_cell_formula_units_Z   8
loop_
 _symmetry_equiv_pos_site_id
 _symmetry_equiv_pos_as_xyz
  1  'x, y, z'
loop_
 _atom_site_type_symbol
 _atom_site_label
 _atom_site_symmetry_multiplicity
 _atom_site_fract_x
 _atom_site_fract_y
 _atom_site_fract_z
 _atom_site_occupancy
  Mn  Mn0  1  0.87325000  0.99851100  0.75263900  1
  Mn  Mn1  1  0.74922750  0.12548650  0.99690300  1
  Mn  Mn2  1  0.62416600  0.25134900  0.24669600  1
  Mn  Mn3  1  0.37222850  0.74927650  0.74902300  1
  Mn  Mn4  1  0.25184050  0.87490450  0.49870200  1
  Mn  Mn5  1  0.12675000  0.99851100  0.24736100  1
  Mn  Mn6  1  0.50000000  0.87407700  0.50000000  1
  Mn  Mn7  1  0.62777150  0.74927650  0.25097700  1
  Mn  Mn8  1  0.25077250  0.12548650  0.00309700  1
  Mn  Mn9  1  0.74815950  0.87490450  0.50129800  1
  Mn  Mn10  1  0.37583400  0.25134900  0.75330400  1
  Mn  Mn11  1  0.50000000  0.12758000  0.00000000  1
  Mn  Mn12  1  0.37325000  0.49851100  0.75263900  1
  Mn  Mn13  1  0.24922750  0.62548650  0.99690300  1
  Mn  Mn14  1  0.12416600  0.75134900  0.24669600  1
  Mn  Mn15  1  0.87222850  0.24927650  0.74902300  1
  Mn  Mn16  1  0.75184050  0.37490450  0.49870200  1
  Mn  Mn17  1  0.62675000  0.49851100  0.24736100  1
  Mn  Mn18  1  0.00000000  0.37407700  0.50000000  1
  Mn  Mn19  1  0.12777150  0.24927650  0.25097700  1
  Mn  Mn20  1  0.75077250  0.62548650  0.00309700  1
  Mn  Mn21  1  0.24815950  0.37490450  0.50129800  1
  Mn  Mn22  1  0.87583400  0.75134900  0.75330400  1
  Mn  Mn23  1  0.00000000  0.62758000  0.00000000  1
  Fe  Fe24  1  0.50000000  0.37482600  0.50000000  1
  Fe  Fe25  1  0.50000000  0.62449700  0.00000000  1
  Fe  Fe26  1  0.37521800  0.00096600  0.75150100  1
  Fe  Fe27  1  0.62478200  0.00096600  0.24849900  1
  Fe  Fe28  1  0.00000000  0.87482600  0.50000000  1
  Fe  Fe29  1  0.00000000  0.12449700  0.00000000  1
  Fe  Fe30  1  0.87521800  0.50096600  0.75150100  1
  Fe  Fe31  1  0.12478200  0.50096600  0.24849900  1
  O  O32  1  0.87615650  0.98255950  0.51653600  1
  O  O33  1  0.48199600  0.37533000  0.74457800  1
  O  O34  1  0.62531200  0.23590200  0.01512200  1
  O  O35  1  0.86923100  0.01354400  0.98352500  1
  O  O36  1  0.73289450  0.12329450  0.23380200  1
  O  O37  1  0.76447600  0.12506400  0.76358100  1
  O  O38  1  0.62322800  0.26726700  0.48285500  1
  O  O39  1  0.51800400  0.37533000  0.25542200  1
  O  O40  1  0.48411200  0.62433800  0.76958100  1
  O  O41  1  0.36997450  0.73629950  0.98191900  1
  O  O42  1  0.23594350  0.87431050  0.26468800  1
  O  O43  1  0.26234400  0.87068900  0.73003500  1
  O  O44  1  0.12384350  0.98255950  0.48346400  1
  O  O45  1  0.37565150  0.76409850  0.51433300  1
  O  O46  1  0.51588800  0.62433800  0.23041900  1
  O  O47  1  0.13076900  0.01354400  0.01647500  1
  O  O48  1  0.48241600  0.87510500  0.73415700  1
  O  O49  1  0.37496600  0.98190200  0.50860300  1
  O  O50  1  0.23552400  0.12506400  0.23641900  1
  O  O51  1  0.51758400  0.87510500  0.26584300  1
  O  O52  1  0.63002550  0.73629950  0.01808100  1
  O  O53  1  0.62434850  0.76409850  0.48566700  1
  O  O54  1  0.26710550  0.12329450  0.76619800  1
  O  O55  1  0.37676550  0.01827050  0.99186400  1
  O  O56  1  0.62503400  0.98190200  0.49139700  1
  O  O57  1  0.73765600  0.87068900  0.26996500  1
  O  O58  1  0.37468800  0.23590200  0.98487800  1
  O  O59  1  0.37677200  0.26726700  0.51714500  1
  O  O60  1  0.48690350  0.13037150  0.76888500  1
  O  O61  1  0.76405650  0.87431050  0.73531200  1
  O  O62  1  0.62323450  0.01827050  0.00813600  1
  O  O63  1  0.51309650  0.13037150  0.23111500  1
  O  O64  1  0.37615650  0.48255950  0.51653600  1
  O  O65  1  0.98199600  0.87533000  0.74457800  1
  O  O66  1  0.12531200  0.73590200  0.01512200  1
  O  O67  1  0.36923100  0.51354400  0.98352500  1
  O  O68  1  0.23289450  0.62329450  0.23380200  1
  O  O69  1  0.26447600  0.62506400  0.76358100  1
  O  O70  1  0.12322800  0.76726700  0.48285500  1
  O  O71  1  0.01800400  0.87533000  0.25542200  1
  O  O72  1  0.98411200  0.12433800  0.76958100  1
  O  O73  1  0.86997450  0.23629950  0.98191900  1
  O  O74  1  0.73594350  0.37431050  0.26468800  1
  O  O75  1  0.76234400  0.37068900  0.73003500  1
  O  O76  1  0.62384350  0.48255950  0.48346400  1
  O  O77  1  0.87565150  0.26409850  0.51433300  1
  O  O78  1  0.01588800  0.12433800  0.23041900  1
  O  O79  1  0.63076900  0.51354400  0.01647500  1
  O  O80  1  0.98241600  0.37510500  0.73415700  1
  O  O81  1  0.87496600  0.48190200  0.50860300  1
  O  O82  1  0.73552400  0.62506400  0.23641900  1
  O  O83  1  0.01758400  0.37510500  0.26584300  1
  O  O84  1  0.13002550  0.23629950  0.01808100  1
  O  O85  1  0.12434850  0.26409850  0.48566700  1
  O  O86  1  0.76710550  0.62329450  0.76619800  1
  O  O87  1  0.87676550  0.51827050  0.99186400  1
  O  O88  1  0.12503400  0.48190200  0.49139700  1
  O  O89  1  0.23765600  0.37068900  0.26996500  1
  O  O90  1  0.87468800  0.73590200  0.98487800  1
  O  O91  1  0.87677200  0.76726700  0.51714500  1
  O  O92  1  0.98690350  0.63037150  0.76888500  1
  O  O93  1  0.26405650  0.37431050  0.73531200  1
  O  O94  1  0.12323450  0.51827050  0.00813600  1
  O  O95  1  0.01309650  0.63037150  0.23111500  1
