# generated using pymatgen
data_Li4V2Co3Cu3O16
_symmetry_space_group_name_H-M   'P 1'
_cell_length_a   10.04855200
_cell_length_b   5.75961200
_cell_length_c   9.30106179
_cell_angle_alpha   90.00000000
_cell_angle_beta   91.55716535
_cell_angle_gamma   90.00000000
_symmetry_Int_Tables_number   1
_chemical_formula_structural   Li4V2Co3Cu3O16
_chemical_formula_sum   'Li8 V4 Co6 Cu6 O32'
_cell_volume   538.10723516
_cell_formula_units_Z   2
loop_
 _symmetry_equiv_pos_site_id
 _symmetry_equiv_pos_as_xyz
  1  'x, y, z'
loop_
 _atom_site_type_symbol
 _atom_site_label
 _atom_site_symmetry_multiplicity
 _atom_site_fract_x
 _atom_site_fract_y
 _atom_site_fract_z
 _atom_site_occupancy
  Li  Li0  1  0.66703800  0.00000000  0.10348000  1
  Li  Li1  1  0.99650900  0.00000000  0.00574900  1
  Li  Li2  1  0.99690900  0.00000000  0.50440600  1
  Li  Li3  1  0.83713800  0.50000000  0.60039800  1
  Li  Li4  1  0.16703800  0.50000000  0.10348000  1
  Li  Li5  1  0.49650900  0.50000000  0.00574900  1
  Li  Li6  1  0.49690900  0.50000000  0.50440600  1
  Li  Li7  1  0.33713800  0.00000000  0.60039800  1
  V  V8  1  0.66749600  0.00000000  0.49741700  1
  V  V9  1  0.83406600  0.50000000  0.00248500  1
  V  V10  1  0.16749600  0.50000000  0.49741700  1
  V  V11  1  0.33406600  0.00000000  0.00248500  1
  Co  Co12  1  0.82708400  0.00000000  0.78370300  1
  Co  Co13  1  0.91333200  0.25682100  0.28476000  1
  Co  Co14  1  0.91333200  0.74317900  0.28476000  1
  Co  Co15  1  0.32708400  0.50000000  0.78370300  1
  Co  Co16  1  0.41333200  0.75682100  0.28476000  1
  Co  Co17  1  0.41333200  0.24317900  0.28476000  1
  Cu  Cu18  1  0.58601200  0.75557900  0.78379500  1
  Cu  Cu19  1  0.58601200  0.24442100  0.78379500  1
  Cu  Cu20  1  0.66997800  0.50000000  0.28283900  1
  Cu  Cu21  1  0.08601200  0.25557900  0.78379500  1
  Cu  Cu22  1  0.08601200  0.74442100  0.78379500  1
  Cu  Cu23  1  0.16997800  0.00000000  0.28283900  1
  O  O24  1  0.58204450  0.76193350  0.41052600  1
  O  O25  1  0.52579800  0.00000000  0.64746200  1
  O  O26  1  0.67176400  0.00000000  0.88911100  1
  O  O27  1  0.99329000  0.00000000  0.69657800  1
  O  O28  1  0.99394300  0.00000000  0.19684400  1
  O  O29  1  0.58204450  0.23806650  0.41052600  1
  O  O30  1  0.74699800  0.78769200  0.65630400  1
  O  O31  1  0.74699800  0.21230800  0.65630400  1
  O  O32  1  0.67166800  0.50000000  0.92158300  1
  O  O33  1  0.82689700  0.00000000  0.40030000  1
  O  O34  1  0.76802900  0.27600600  0.15812700  1
  O  O35  1  0.76802900  0.72399400  0.15812700  1
  O  O36  1  0.83747700  0.50000000  0.38856900  1
  O  O37  1  0.90751350  0.25663850  0.90861700  1
  O  O38  1  0.97851000  0.50000000  0.16594600  1
  O  O39  1  0.90751350  0.74336150  0.90861700  1
  O  O40  1  0.08204450  0.26193350  0.41052600  1
  O  O41  1  0.02579800  0.50000000  0.64746200  1
  O  O42  1  0.17176400  0.50000000  0.88911100  1
  O  O43  1  0.49329000  0.50000000  0.69657800  1
  O  O44  1  0.49394300  0.50000000  0.19684400  1
  O  O45  1  0.08204450  0.73806650  0.41052600  1
  O  O46  1  0.24699800  0.28769200  0.65630400  1
  O  O47  1  0.24699800  0.71230800  0.65630400  1
  O  O48  1  0.17166800  0.00000000  0.92158300  1
  O  O49  1  0.32689700  0.50000000  0.40030000  1
  O  O50  1  0.26802900  0.77600600  0.15812700  1
  O  O51  1  0.26802900  0.22399400  0.15812700  1
  O  O52  1  0.33747700  0.00000000  0.38856900  1
  O  O53  1  0.40751350  0.75663850  0.90861700  1
  O  O54  1  0.47851000  0.00000000  0.16594600  1
  O  O55  1  0.40751350  0.24336150  0.90861700  1
