# generated using pymatgen
data_Li2VO2F
_symmetry_space_group_name_H-M   'P 1'
_cell_length_a   9.65956123
_cell_length_b   4.12498027
_cell_length_c   6.02656842
_cell_angle_alpha   90.00000000
_cell_angle_beta   112.42716274
_cell_angle_gamma   90.00000000
_symmetry_Int_Tables_number   1
_chemical_formula_structural   Li2VO2F
_chemical_formula_sum   'Li8 V4 O8 F4'
_cell_volume   221.96933884
_cell_formula_units_Z   4
loop_
 _symmetry_equiv_pos_site_id
 _symmetry_equiv_pos_as_xyz
  1  'x, y, z'
loop_
 _atom_site_type_symbol
 _atom_site_label
 _atom_site_symmetry_multiplicity
 _atom_site_fract_x
 _atom_site_fract_y
 _atom_site_fract_z
 _atom_site_occupancy
  Li  Li0  1  0.83971650  0.50000000  0.67847400  1
  Li  Li1  1  0.99772475  0.00000000  0.99216700  1
  Li  Li2  1  0.64789475  0.00000000  0.86163750  1
  Li  Li3  1  0.66830100  0.00000000  0.31743850  1
  Li  Li4  1  0.33971650  0.00000000  0.67847400  1
  Li  Li5  1  0.49772475  0.50000000  0.99216700  1
  Li  Li6  1  0.14789475  0.50000000  0.86163750  1
  Li  Li7  1  0.16830100  0.50000000  0.31743850  1
  V  V8  1  0.50763750  0.50000000  0.50977750  1
  V  V9  1  0.84451925  0.50000000  0.13818350  1
  V  V10  1  0.00763750  0.00000000  0.50977750  1
  V  V11  1  0.34451925  0.00000000  0.13818350  1
  O  O12  1  0.66632700  0.50000000  0.83234150  1
  O  O13  1  0.99422125  0.50000000  0.48843500  1
  O  O14  1  0.99279025  0.50000000  0.00725200  1
  O  O15  1  0.84043475  0.00000000  0.17943550  1
  O  O16  1  0.16632700  0.00000000  0.83234150  1
  O  O17  1  0.49422125  0.00000000  0.48843500  1
  O  O18  1  0.49279025  0.00000000  0.00725200  1
  O  O19  1  0.34043475  0.50000000  0.17943550  1
  F  F20  1  0.67052725  0.50000000  0.34619000  1
  F  F21  1  0.84157675  0.00000000  0.64867200  1
  F  F22  1  0.17052725  0.00000000  0.34619000  1
  F  F23  1  0.34157675  0.50000000  0.64867200  1
