# generated using pymatgen
data_LiMn4O8
_symmetry_space_group_name_H-M   'P 1'
_cell_length_a   13.65104800
_cell_length_b   2.98659200
_cell_length_c   9.68311127
_cell_angle_alpha   90.00000000
_cell_angle_beta   133.79343063
_cell_angle_gamma   90.00000000
_symmetry_Int_Tables_number   1
_chemical_formula_structural   LiMn4O8
_chemical_formula_sum   'Li2 Mn8 O16'
_cell_volume   284.96892690
_cell_formula_units_Z   2
loop_
 _symmetry_equiv_pos_site_id
 _symmetry_equiv_pos_as_xyz
  1  'x, y, z'
loop_
 _atom_site_type_symbol
 _atom_site_label
 _atom_site_symmetry_multiplicity
 _atom_site_fract_x
 _atom_site_fract_y
 _atom_site_fract_z
 _atom_site_occupancy
  Li  Li0  1  0.00000000  0.47590800  0.00000000  1
  Li  Li1  1  0.50000000  0.97590800  0.00000000  1
  Mn  Mn2  1  0.33216700  0.49531700  0.18153300  1
  Mn  Mn3  1  0.35282100  0.99603400  0.52372300  1
  Mn  Mn4  1  0.64717900  0.99603400  0.47627700  1
  Mn  Mn5  1  0.66783300  0.49531700  0.81846700  1
  Mn  Mn6  1  0.83216700  0.99531700  0.18153300  1
  Mn  Mn7  1  0.85282100  0.49603400  0.52372300  1
  Mn  Mn8  1  0.14717900  0.49603400  0.47627700  1
  Mn  Mn9  1  0.16783300  0.99531700  0.81846700  1
  O  O10  1  0.19864050  0.99561450  0.05322900  1
  O  O11  1  0.34624000  0.49583700  0.39069100  1
  O  O12  1  0.34489650  0.49623850  0.65315200  1
  O  O13  1  0.45392550  0.99522250  0.27519300  1
  O  O14  1  0.54607450  0.99522250  0.72480700  1
  O  O15  1  0.65510350  0.49623850  0.34684800  1
  O  O16  1  0.65376000  0.49583700  0.60930900  1
  O  O17  1  0.80135950  0.99561450  0.94677100  1
  O  O18  1  0.69864050  0.49561450  0.05322900  1
  O  O19  1  0.84624000  0.99583700  0.39069100  1
  O  O20  1  0.84489650  0.99623850  0.65315200  1
  O  O21  1  0.95392550  0.49522250  0.27519300  1
  O  O22  1  0.04607450  0.49522250  0.72480700  1
  O  O23  1  0.15510350  0.99623850  0.34684800  1
  O  O24  1  0.15376000  0.99583700  0.60930900  1
  O  O25  1  0.30135950  0.49561450  0.94677100  1
