# generated using pymatgen
data_Mn3(OF2)2
_symmetry_space_group_name_H-M   'P 1'
_cell_length_a   4.79540325
_cell_length_b   4.68357000
_cell_length_c   10.74867815
_cell_angle_alpha   90.00000000
_cell_angle_beta   115.20214942
_cell_angle_gamma   90.00000000
_symmetry_Int_Tables_number   1
_chemical_formula_structural   Mn3(OF2)2
_chemical_formula_sum   'Mn6 O4 F8'
_cell_volume   218.43142417
_cell_formula_units_Z   2
loop_
 _symmetry_equiv_pos_site_id
 _symmetry_equiv_pos_as_xyz
  1  'x, y, z'
loop_
 _atom_site_type_symbol
 _atom_site_label
 _atom_site_symmetry_multiplicity
 _atom_site_fract_x
 _atom_site_fract_y
 _atom_site_fract_z
 _atom_site_occupancy
  Mn  Mn0  1  0.85987700  0.52275400  0.32516950  1
  Mn  Mn1  1  0.50000000  0.50000000  0.00000000  1
  Mn  Mn2  1  0.14012300  0.47724600  0.67483050  1
  Mn  Mn3  1  0.50000000  0.00000000  0.50000000  1
  Mn  Mn4  1  0.14012300  0.02275400  0.17483050  1
  Mn  Mn5  1  0.85987700  0.97724600  0.82516950  1
  O  O6  1  0.13993500  0.67145900  0.83334550  1
  O  O7  1  0.86006500  0.17145900  0.66665450  1
  O  O8  1  0.13993500  0.82854100  0.33334550  1
  O  O9  1  0.86006500  0.32854100  0.16665450  1
  F  F10  1  0.44513200  0.72860300  0.16310450  1
  F  F11  1  0.80259100  0.69418700  0.48777750  1
  F  F12  1  0.55486800  0.22860300  0.33689550  1
  F  F13  1  0.19740900  0.19418700  0.01222250  1
  F  F14  1  0.80259100  0.80581300  0.98777750  1
  F  F15  1  0.44513200  0.77139700  0.66310450  1
  F  F16  1  0.55486800  0.27139700  0.83689550  1
  F  F17  1  0.19740900  0.30581300  0.51222250  1
