# generated using pymatgen
data_Li2TiMn3O8
_symmetry_space_group_name_H-M   'P 1'
_cell_length_a   6.00633626
_cell_length_b   6.00633626
_cell_length_c   14.42815392
_cell_angle_alpha   90.00000000
_cell_angle_beta   90.00000000
_cell_angle_gamma   120.00000000
_symmetry_Int_Tables_number   1
_chemical_formula_structural   Li2TiMn3O8
_chemical_formula_sum   'Li6 Ti3 Mn9 O24'
_cell_volume   450.77589307
_cell_formula_units_Z   3
loop_
 _symmetry_equiv_pos_site_id
 _symmetry_equiv_pos_as_xyz
  1  'x, y, z'
loop_
 _atom_site_type_symbol
 _atom_site_label
 _atom_site_symmetry_multiplicity
 _atom_site_fract_x
 _atom_site_fract_y
 _atom_site_fract_z
 _atom_site_occupancy
  Li  Li0  1  0.33333333  0.66666667  0.54261067  1
  Li  Li1  1  0.33333333  0.66666667  0.79072267  1
  Li  Li2  1  0.00000000  0.00000000  0.87594400  1
  Li  Li3  1  0.00000000  0.00000000  0.12405600  1
  Li  Li4  1  0.66666667  0.33333333  0.20927733  1
  Li  Li5  1  0.66666667  0.33333333  0.45738933  1
  Ti  Ti6  1  0.33333333  0.66666667  0.16666667  1
  Ti  Ti7  1  1.00000000  1.00000000  0.50000000  1
  Ti  Ti8  1  0.66666667  0.33333333  0.83333333  1
  Mn  Mn9  1  0.50000000  0.50000000  0.00000000  1
  Mn  Mn10  1  0.00000000  0.50000000  0.00000000  1
  Mn  Mn11  1  0.16666667  0.33333333  0.33333333  1
  Mn  Mn12  1  0.16666667  0.83333333  0.33333333  1
  Mn  Mn13  1  0.66666667  0.83333333  0.33333333  1
  Mn  Mn14  1  0.83333333  0.66666667  0.66666667  1
  Mn  Mn15  1  0.83333333  0.16666667  0.66666667  1
  Mn  Mn16  1  0.33333333  0.16666667  0.66666667  1
  Mn  Mn17  1  0.50000000  0.00000000  0.00000000  1
  O  O18  1  0.62874667  0.81437333  0.07948433  1
  O  O19  1  0.18562667  0.37125333  0.07948433  1
  O  O20  1  0.18562667  0.81437333  0.07948433  1
  O  O21  1  0.33333333  0.66666667  0.92632667  1
  O  O22  1  0.33333333  0.66666667  0.40700667  1
  O  O23  1  0.48104000  0.51896000  0.25384900  1
  O  O24  1  0.03792000  0.51896000  0.25384900  1
  O  O25  1  0.48104000  0.96208000  0.25384900  1
  O  O26  1  0.29541333  0.14770667  0.41281767  1
  O  O27  1  0.85229333  0.70458667  0.41281767  1
  O  O28  1  0.85229333  0.14770667  0.41281767  1
  O  O29  1  0.00000000  0.00000000  0.25966000  1
  O  O30  1  0.00000000  0.00000000  0.74034000  1
  O  O31  1  0.14770667  0.85229333  0.58718233  1
  O  O32  1  0.70458667  0.85229333  0.58718233  1
  O  O33  1  0.14770667  0.29541333  0.58718233  1
  O  O34  1  0.96208000  0.48104000  0.74615100  1
  O  O35  1  0.51896000  0.03792000  0.74615100  1
  O  O36  1  0.51896000  0.48104000  0.74615100  1
  O  O37  1  0.66666667  0.33333333  0.59299333  1
  O  O38  1  0.66666667  0.33333333  0.07367333  1
  O  O39  1  0.81437333  0.18562667  0.92051567  1
  O  O40  1  0.37125333  0.18562667  0.92051567  1
  O  O41  1  0.81437333  0.62874667  0.92051567  1
