# generated using pymatgen
data_Mn2O3F
_symmetry_space_group_name_H-M   'P 1'
_cell_length_a   9.15751200
_cell_length_b   6.01965400
_cell_length_c   10.04876397
_cell_angle_alpha   90.00000000
_cell_angle_beta   114.68905773
_cell_angle_gamma   90.00000000
_symmetry_Int_Tables_number   1
_chemical_formula_structural   Mn2O3F
_chemical_formula_sum   'Mn16 O24 F8'
_cell_volume   503.30199391
_cell_formula_units_Z   8
loop_
 _symmetry_equiv_pos_site_id
 _symmetry_equiv_pos_as_xyz
  1  'x, y, z'
loop_
 _atom_site_type_symbol
 _atom_site_label
 _atom_site_symmetry_multiplicity
 _atom_site_fract_x
 _atom_site_fract_y
 _atom_site_fract_z
 _atom_site_occupancy
  Mn  Mn0  1  0.62505150  0.74462650  0.24835500  1
  Mn  Mn1  1  0.50000000  0.00000000  0.50000000  1
  Mn  Mn2  1  0.22917300  0.50000000  0.98570500  1
  Mn  Mn3  1  0.62505150  0.25537350  0.24835500  1
  Mn  Mn4  1  0.87494850  0.24462650  0.75164500  1
  Mn  Mn5  1  0.87494850  0.75537350  0.75164500  1
  Mn  Mn6  1  0.00000000  0.00000000  0.50000000  1
  Mn  Mn7  1  0.27082700  0.00000000  0.01429500  1
  Mn  Mn8  1  0.12505150  0.24462650  0.24835500  1
  Mn  Mn9  1  0.00000000  0.50000000  0.50000000  1
  Mn  Mn10  1  0.72917300  0.00000000  0.98570500  1
  Mn  Mn11  1  0.12505150  0.75537350  0.24835500  1
  Mn  Mn12  1  0.37494850  0.74462650  0.75164500  1
  Mn  Mn13  1  0.37494850  0.25537350  0.75164500  1
  Mn  Mn14  1  0.50000000  0.50000000  0.50000000  1
  Mn  Mn15  1  0.77082700  0.50000000  0.01429500  1
  O  O16  1  0.73344900  0.00000000  0.65462000  1
  O  O17  1  0.54733000  0.74704000  0.40294500  1
  O  O18  1  0.95267000  0.75296000  0.59705500  1
  O  O19  1  0.45267000  0.74704000  0.59705500  1
  O  O20  1  0.70467850  0.24985150  0.09639200  1
  O  O21  1  0.01221100  0.50000000  0.84442100  1
  O  O22  1  0.76655100  0.50000000  0.34538000  1
  O  O23  1  0.48778900  0.00000000  0.15557900  1
  O  O24  1  0.79532150  0.25014850  0.90360800  1
  O  O25  1  0.04733000  0.75296000  0.40294500  1
  O  O26  1  0.79532150  0.74985150  0.90360800  1
  O  O27  1  0.70467850  0.75014850  0.09639200  1
  O  O28  1  0.23344900  0.50000000  0.65462000  1
  O  O29  1  0.04733000  0.24704000  0.40294500  1
  O  O30  1  0.45267000  0.25296000  0.59705500  1
  O  O31  1  0.95267000  0.24704000  0.59705500  1
  O  O32  1  0.20467850  0.74985150  0.09639200  1
  O  O33  1  0.51221100  0.00000000  0.84442100  1
  O  O34  1  0.26655100  0.00000000  0.34538000  1
  O  O35  1  0.98778900  0.50000000  0.15557900  1
  O  O36  1  0.29532150  0.75014850  0.90360800  1
  O  O37  1  0.54733000  0.25296000  0.40294500  1
  O  O38  1  0.29532150  0.24985150  0.90360800  1
  O  O39  1  0.20467850  0.25014850  0.09639200  1
  F  F40  1  0.78577200  0.00000000  0.35796300  1
  F  F41  1  0.71422800  0.50000000  0.64203700  1
  F  F42  1  0.95796400  0.00000000  0.13735600  1
  F  F43  1  0.54203600  0.50000000  0.86264400  1
  F  F44  1  0.28577200  0.50000000  0.35796300  1
  F  F45  1  0.21422800  0.00000000  0.64203700  1
  F  F46  1  0.45796400  0.50000000  0.13735600  1
  F  F47  1  0.04203600  0.00000000  0.86264400  1
