# generated using pymatgen
data_Mn3(OF2)2
_symmetry_space_group_name_H-M   'P 1'
_cell_length_a   6.71384000
_cell_length_b   6.68949400
_cell_length_c   9.69982939
_cell_angle_alpha   90.00000000
_cell_angle_beta   90.91998966
_cell_angle_gamma   90.00000000
_symmetry_Int_Tables_number   1
_chemical_formula_structural   Mn3(OF2)2
_chemical_formula_sum   'Mn12 O8 F16'
_cell_volume   435.58444603
_cell_formula_units_Z   4
loop_
 _symmetry_equiv_pos_site_id
 _symmetry_equiv_pos_as_xyz
  1  'x, y, z'
loop_
 _atom_site_type_symbol
 _atom_site_label
 _atom_site_symmetry_multiplicity
 _atom_site_fract_x
 _atom_site_fract_y
 _atom_site_fract_z
 _atom_site_occupancy
  Mn  Mn0  1  0.02948100  0.98444200  0.17427400  1
  Mn  Mn1  1  0.97051900  0.98444200  0.82572600  1
  Mn  Mn2  1  0.50000000  0.48442700  0.50000000  1
  Mn  Mn3  1  0.49418950  0.01905850  0.32524000  1
  Mn  Mn4  1  0.50000000  0.98766900  0.00000000  1
  Mn  Mn5  1  0.50581050  0.01905850  0.67476000  1
  Mn  Mn6  1  0.52948100  0.48444200  0.17427400  1
  Mn  Mn7  1  0.47051900  0.48444200  0.82572600  1
  Mn  Mn8  1  0.00000000  0.98442700  0.50000000  1
  Mn  Mn9  1  0.99418950  0.51905850  0.32524000  1
  Mn  Mn10  1  0.00000000  0.48766900  0.00000000  1
  Mn  Mn11  1  0.00581050  0.51905850  0.67476000  1
  O  O12  1  0.48913450  0.30682250  0.66749300  1
  O  O13  1  0.51086550  0.30682250  0.33250700  1
  O  O14  1  0.68073550  0.99858650  0.83406300  1
  O  O15  1  0.31926450  0.99858650  0.16593700  1
  O  O16  1  0.98913450  0.80682250  0.66749300  1
  O  O17  1  0.01086550  0.80682250  0.33250700  1
  O  O18  1  0.18073550  0.49858650  0.83406300  1
  O  O19  1  0.81926450  0.49858650  0.16593700  1
  F  F20  1  0.50000000  0.29254300  0.00000000  1
  F  F21  1  0.72387250  0.99505650  0.16277100  1
  F  F22  1  0.68870100  0.01160600  0.48771000  1
  F  F23  1  0.27612750  0.99505650  0.83722900  1
  F  F24  1  0.31129900  0.01160600  0.51229000  1
  F  F25  1  0.50000000  0.67649100  0.00000000  1
  F  F26  1  0.49466850  0.71386350  0.65866800  1
  F  F27  1  0.50533150  0.71386350  0.34133200  1
  F  F28  1  0.00000000  0.79254300  0.00000000  1
  F  F29  1  0.22387250  0.49505650  0.16277100  1
  F  F30  1  0.18870100  0.51160600  0.48771000  1
  F  F31  1  0.77612750  0.49505650  0.83722900  1
  F  F32  1  0.81129900  0.51160600  0.51229000  1
  F  F33  1  0.00000000  0.17649100  0.00000000  1
  F  F34  1  0.99466850  0.21386350  0.65866800  1
  F  F35  1  0.00533150  0.21386350  0.34133200  1
