# generated using pymatgen
data_Li2Cr3FeO8
_symmetry_space_group_name_H-M   'P 1'
_cell_length_a   10.18178693
_cell_length_b   5.85785237
_cell_length_c   5.96412958
_cell_angle_alpha   90.00000000
_cell_angle_beta   124.39644065
_cell_angle_gamma   90.00000000
_symmetry_Int_Tables_number   1
_chemical_formula_structural   Li2Cr3FeO8
_chemical_formula_sum   'Li4 Cr6 Fe2 O16'
_cell_volume   293.52267821
_cell_formula_units_Z   2
loop_
 _symmetry_equiv_pos_site_id
 _symmetry_equiv_pos_as_xyz
  1  'x, y, z'
loop_
 _atom_site_type_symbol
 _atom_site_label
 _atom_site_symmetry_multiplicity
 _atom_site_fract_x
 _atom_site_fract_y
 _atom_site_fract_z
 _atom_site_occupancy
  Li  Li0  1  0.25000000  0.25000000  0.00000000  1
  Li  Li1  1  0.25000000  0.75000000  0.00000000  1
  Li  Li2  1  0.75000000  0.75000000  0.00000000  1
  Li  Li3  1  0.75000000  0.25000000  0.00000000  1
  Cr  Cr4  1  0.25000000  0.25000000  0.50000000  1
  Cr  Cr5  1  0.25000000  0.75000000  0.50000000  1
  Cr  Cr6  1  0.50000000  0.00000000  0.50000000  1
  Cr  Cr7  1  0.75000000  0.75000000  0.50000000  1
  Cr  Cr8  1  0.75000000  0.25000000  0.50000000  1
  Cr  Cr9  1  0.00000000  0.50000000  0.50000000  1
  Fe  Fe10  1  0.00000000  0.00000000  0.50000000  1
  Fe  Fe11  1  0.50000000  0.50000000  0.50000000  1
  O  O12  1  0.27044600  0.50000000  0.28752700  1
  O  O13  1  0.00861050  0.75072950  0.29698200  1
  O  O14  1  0.00861050  0.24927050  0.29698200  1
  O  O15  1  0.27184500  0.00000000  0.28932900  1
  O  O16  1  0.22815500  0.50000000  0.71067100  1
  O  O17  1  0.49138950  0.25072950  0.70301800  1
  O  O18  1  0.49138950  0.74927050  0.70301800  1
  O  O19  1  0.22955400  0.00000000  0.71247300  1
  O  O20  1  0.77044600  0.00000000  0.28752700  1
  O  O21  1  0.50861050  0.25072950  0.29698200  1
  O  O22  1  0.50861050  0.74927050  0.29698200  1
  O  O23  1  0.77184500  0.50000000  0.28932900  1
  O  O24  1  0.72815500  0.00000000  0.71067100  1
  O  O25  1  0.99138950  0.75072950  0.70301800  1
  O  O26  1  0.99138950  0.24927050  0.70301800  1
  O  O27  1  0.72955400  0.50000000  0.71247300  1
