# generated using pymatgen
data_Co2NiO6
_symmetry_space_group_name_H-M   'P 1'
_cell_length_a   12.58068963
_cell_length_b   2.82703338
_cell_length_c   5.74264524
_cell_angle_alpha   90.00000000
_cell_angle_beta   105.00235667
_cell_angle_gamma   90.00000000
_symmetry_Int_Tables_number   1
_chemical_formula_structural   Co2NiO6
_chemical_formula_sum   'Co4 Ni2 O12'
_cell_volume   197.28150100
_cell_formula_units_Z   2
loop_
 _symmetry_equiv_pos_site_id
 _symmetry_equiv_pos_as_xyz
  1  'x, y, z'
loop_
 _atom_site_type_symbol
 _atom_site_label
 _atom_site_symmetry_multiplicity
 _atom_site_fract_x
 _atom_site_fract_y
 _atom_site_fract_z
 _atom_site_occupancy
  Co  Co0  1  0.66627650  0.50000000  0.33364000  1
  Co  Co1  1  0.83372350  0.00000000  0.66636000  1
  Co  Co2  1  0.16627650  0.00000000  0.33364000  1
  Co  Co3  1  0.33372350  0.50000000  0.66636000  1
  Ni  Ni4  1  0.00000000  0.50000000  0.00000000  1
  Ni  Ni5  1  0.50000000  0.00000000  0.00000000  1
  O  O6  1  0.15369075  0.50000000  0.11111200  1
  O  O7  1  0.84630925  0.50000000  0.88888800  1
  O  O8  1  0.98867850  0.00000000  0.77850600  1
  O  O9  1  0.01132150  0.00000000  0.22149400  1
  O  O10  1  0.82119875  0.50000000  0.44355800  1
  O  O11  1  0.67880125  0.00000000  0.55644200  1
  O  O12  1  0.65369075  0.00000000  0.11111200  1
  O  O13  1  0.34630925  0.00000000  0.88888800  1
  O  O14  1  0.48867850  0.50000000  0.77850600  1
  O  O15  1  0.51132150  0.50000000  0.22149400  1
  O  O16  1  0.32119875  0.00000000  0.44355800  1
  O  O17  1  0.17880125  0.50000000  0.55644200  1
