# generated using pymatgen
data_LiMn2OF3
_symmetry_space_group_name_H-M   'P 1'
_cell_length_a   6.27617903
_cell_length_b   6.27617903
_cell_length_c   5.27760478
_cell_angle_alpha   90.00000000
_cell_angle_beta   90.00000000
_cell_angle_gamma   120.00000000
_symmetry_Int_Tables_number   1
_chemical_formula_structural   LiMn2OF3
_chemical_formula_sum   'Li2 Mn4 O2 F6'
_cell_volume   180.03549720
_cell_formula_units_Z   2
loop_
 _symmetry_equiv_pos_site_id
 _symmetry_equiv_pos_as_xyz
  1  'x, y, z'
loop_
 _atom_site_type_symbol
 _atom_site_label
 _atom_site_symmetry_multiplicity
 _atom_site_fract_x
 _atom_site_fract_y
 _atom_site_fract_z
 _atom_site_occupancy
  Li  Li0  1  0.66666667  0.33333333  0.02207050  1
  Li  Li1  1  0.33333333  0.66666667  0.97792950  1
  Mn  Mn2  1  0.50000000  0.00000000  0.50000000  1
  Mn  Mn3  1  0.00000000  0.50000000  0.50000000  1
  Mn  Mn4  1  0.50000000  0.50000000  0.50000000  1
  Mn  Mn5  1  0.00000000  0.00000000  0.00000000  1
  O  O6  1  0.66666667  0.33333333  0.66724550  1
  O  O7  1  0.33333333  0.66666667  0.33275450  1
  F  F8  1  0.34586950  0.17293475  0.21384050  1
  F  F9  1  0.82706525  0.65413050  0.21384050  1
  F  F10  1  0.17293475  0.82706525  0.78615950  1
  F  F11  1  0.82706525  0.17293475  0.21384050  1
  F  F12  1  0.65413050  0.82706525  0.78615950  1
  F  F13  1  0.17293475  0.34586950  0.78615950  1
