# generated using pymatgen
data_LiMnSiO4
_symmetry_space_group_name_H-M   'P 1'
_cell_length_a   5.72072450
_cell_length_b   5.95125900
_cell_length_c   7.79958034
_cell_angle_alpha   90.00000000
_cell_angle_beta   90.00000000
_cell_angle_gamma   90.00000000
_symmetry_Int_Tables_number   1
_chemical_formula_structural   LiMnSiO4
_chemical_formula_sum   'Li4 Mn4 Si4 O16'
_cell_volume   265.54071499
_cell_formula_units_Z   4
loop_
 _symmetry_equiv_pos_site_id
 _symmetry_equiv_pos_as_xyz
  1  'x, y, z'
loop_
 _atom_site_type_symbol
 _atom_site_label
 _atom_site_symmetry_multiplicity
 _atom_site_fract_x
 _atom_site_fract_y
 _atom_site_fract_z
 _atom_site_occupancy
  Li  Li0  1  0.25000000  0.75000000  0.75000000  1
  Li  Li1  1  0.25000000  0.25000000  0.25000000  1
  Li  Li2  1  0.75000000  0.25000000  0.25000000  1
  Li  Li3  1  0.75000000  0.75000000  0.75000000  1
  Mn  Mn4  1  0.00000000  0.00000000  0.50000000  1
  Mn  Mn5  1  0.50000000  0.00000000  0.00000000  1
  Mn  Mn6  1  0.50000000  0.50000000  0.00000000  1
  Mn  Mn7  1  0.00000000  0.50000000  0.50000000  1
  Si  Si8  1  0.50000000  0.25000000  0.63413200  1
  Si  Si9  1  0.00000000  0.25000000  0.86586800  1
  Si  Si10  1  0.00000000  0.75000000  0.13413200  1
  Si  Si11  1  0.50000000  0.75000000  0.36586800  1
  O  O12  1  0.26486250  0.25000000  0.50746125  1
  O  O13  1  0.76486250  0.25000000  0.99253875  1
  O  O14  1  0.73513750  0.25000000  0.50746125  1
  O  O15  1  0.23513750  0.25000000  0.99253875  1
  O  O16  1  0.50000000  0.01753575  0.75407175  1
  O  O17  1  0.50000000  0.48246425  0.75407175  1
  O  O18  1  0.00000000  0.01753575  0.74592825  1
  O  O19  1  0.00000000  0.48246425  0.74592825  1
  O  O20  1  0.76486250  0.75000000  0.00746125  1
  O  O21  1  0.26486250  0.75000000  0.49253875  1
  O  O22  1  0.23513750  0.75000000  0.00746125  1
  O  O23  1  0.73513750  0.75000000  0.49253875  1
  O  O24  1  0.00000000  0.51753575  0.25407175  1
  O  O25  1  0.00000000  0.98246425  0.25407175  1
  O  O26  1  0.50000000  0.51753575  0.24592825  1
  O  O27  1  0.50000000  0.98246425  0.24592825  1
