# generated using pymatgen
data_K3CoPCO7
_symmetry_space_group_name_H-M   'P 1'
_cell_length_a   5.65573432
_cell_length_b   6.94641351
_cell_length_c   9.59152230
_cell_angle_alpha   90.00000000
_cell_angle_beta   90.05332053
_cell_angle_gamma   90.00000000
_symmetry_Int_Tables_number   1
_chemical_formula_structural   K3CoPCO7
_chemical_formula_sum   'K6 Co2 P2 C2 O14'
_cell_volume   376.82263815
_cell_formula_units_Z   2
loop_
 _symmetry_equiv_pos_site_id
 _symmetry_equiv_pos_as_xyz
  1  'x, y, z'
loop_
 _atom_site_type_symbol
 _atom_site_label
 _atom_site_symmetry_multiplicity
 _atom_site_fract_x
 _atom_site_fract_y
 _atom_site_fract_z
 _atom_site_occupancy
  K  K0  1  0.25532050  0.25000000  0.07099350  1
  K  K1  1  0.74467950  0.75000000  0.92900650  1
  K  K2  1  0.75606750  0.01137000  0.28989050  1
  K  K3  1  0.75606750  0.48863000  0.28989050  1
  K  K4  1  0.24393250  0.51137000  0.71010950  1
  K  K5  1  0.24393250  0.98863000  0.71010950  1
  Co  Co6  1  0.74017350  0.25000000  0.64884550  1
  Co  Co7  1  0.25982650  0.75000000  0.35115450  1
  P  P8  1  0.23524050  0.25000000  0.42065150  1
  P  P9  1  0.76475950  0.75000000  0.57934850  1
  C  C10  1  0.24386450  0.75000000  0.08390850  1
  C  C11  1  0.75613550  0.25000000  0.91609150  1
  O  O12  1  0.75925950  0.25000000  0.05127950  1
  O  O13  1  0.24074050  0.75000000  0.94872050  1
  O  O14  1  0.44334450  0.75000000  0.15351750  1
  O  O15  1  0.55665550  0.25000000  0.84648250  1
  O  O16  1  0.04932650  0.75000000  0.15829850  1
  O  O17  1  0.95067350  0.25000000  0.84170150  1
  O  O18  1  0.98584450  0.25000000  0.49025250  1
  O  O19  1  0.01415550  0.75000000  0.50974750  1
  O  O20  1  0.57295950  0.75000000  0.46495050  1
  O  O21  1  0.42704050  0.25000000  0.53504950  1
  O  O22  1  0.25685150  0.06767300  0.32608950  1
  O  O23  1  0.25685150  0.43232700  0.32608950  1
  O  O24  1  0.74314850  0.56767300  0.67391050  1
  O  O25  1  0.74314850  0.93232700  0.67391050  1
