# generated using pymatgen
data_Na6CuO4
_symmetry_space_group_name_H-M   'P 1'
_cell_length_a   7.64771000
_cell_length_b   13.35700400
_cell_length_c   5.85500275
_cell_angle_alpha   90.00000000
_cell_angle_beta   91.95434515
_cell_angle_gamma   90.00000000
_symmetry_Int_Tables_number   1
_chemical_formula_structural   Na6CuO4
_chemical_formula_sum   'Na24 Cu4 O16'
_cell_volume   597.74351874
_cell_formula_units_Z   4
loop_
 _symmetry_equiv_pos_site_id
 _symmetry_equiv_pos_as_xyz
  1  'x, y, z'
loop_
 _atom_site_type_symbol
 _atom_site_label
 _atom_site_symmetry_multiplicity
 _atom_site_fract_x
 _atom_site_fract_y
 _atom_site_fract_z
 _atom_site_occupancy
  Na  Na0  1  0.21406800  0.92921900  0.46355500  1
  Na  Na1  1  0.71406800  0.57078100  0.96355500  1
  Na  Na2  1  0.69911300  0.76826500  0.12993600  1
  Na  Na3  1  0.19911300  0.73173500  0.62993600  1
  Na  Na4  1  0.00397000  0.53686100  0.63100900  1
  Na  Na5  1  0.50397000  0.96313900  0.13100900  1
  Na  Na6  1  0.00224550  0.85839750  0.96411700  1
  Na  Na7  1  0.50224550  0.64160250  0.46411700  1
  Na  Na8  1  0.30850750  0.76826450  0.12370100  1
  Na  Na9  1  0.80850750  0.73173550  0.62370100  1
  Na  Na10  1  0.78977300  0.92902000  0.46484700  1
  Na  Na11  1  0.28977300  0.57098000  0.96484700  1
  Na  Na12  1  0.71406800  0.42921900  0.46355500  1
  Na  Na13  1  0.21406800  0.07078100  0.96355500  1
  Na  Na14  1  0.19911300  0.26826500  0.12993600  1
  Na  Na15  1  0.69911300  0.23173500  0.62993600  1
  Na  Na16  1  0.50397000  0.03686100  0.63100900  1
  Na  Na17  1  0.00397000  0.46313900  0.13100900  1
  Na  Na18  1  0.50224550  0.35839750  0.96411700  1
  Na  Na19  1  0.00224550  0.14160250  0.46411700  1
  Na  Na20  1  0.80850750  0.26826450  0.12370100  1
  Na  Na21  1  0.30850750  0.23173550  0.62370100  1
  Na  Na22  1  0.28977300  0.42902000  0.46484700  1
  Na  Na23  1  0.78977300  0.07098000  0.96484700  1
  Cu  Cu24  1  0.50581000  0.83394800  0.73642000  1
  Cu  Cu25  1  0.00581000  0.66605200  0.23642000  1
  Cu  Cu26  1  0.00581000  0.33394800  0.73642000  1
  Cu  Cu27  1  0.50581000  0.16605200  0.23642000  1
  O  O28  1  0.71806350  0.90990050  0.84833900  1
  O  O29  1  0.21806350  0.59009950  0.34833900  1
  O  O30  1  0.51105050  0.83081750  0.40064400  1
  O  O31  1  0.01105050  0.66918250  0.90064400  1
  O  O32  1  0.99544250  0.81232250  0.34899900  1
  O  O33  1  0.49544250  0.68767750  0.84899900  1
  O  O34  1  0.78570350  0.59465850  0.35947900  1
  O  O35  1  0.28570350  0.90534150  0.85947900  1
  O  O36  1  0.21806350  0.40990050  0.84833900  1
  O  O37  1  0.71806350  0.09009950  0.34833900  1
  O  O38  1  0.01105050  0.33081750  0.40064400  1
  O  O39  1  0.51105050  0.16918250  0.90064400  1
  O  O40  1  0.49544250  0.31232250  0.34899900  1
  O  O41  1  0.99544250  0.18767750  0.84899900  1
  O  O42  1  0.28570350  0.09465850  0.35947900  1
  O  O43  1  0.78570350  0.40534150  0.85947900  1
