# generated using pymatgen
data_Li7Ti3(SiO6)2
_symmetry_space_group_name_H-M   'P 1'
_cell_length_a   4.91465800
_cell_length_b   8.51281800
_cell_length_c   9.93841723
_cell_angle_alpha   90.00000000
_cell_angle_beta   99.48971855
_cell_angle_gamma   90.00000000
_symmetry_Int_Tables_number   1
_chemical_formula_structural   Li7Ti3(SiO6)2
_chemical_formula_sum   'Li14 Ti6 Si4 O24'
_cell_volume   410.10928531
_cell_formula_units_Z   2
loop_
 _symmetry_equiv_pos_site_id
 _symmetry_equiv_pos_as_xyz
  1  'x, y, z'
loop_
 _atom_site_type_symbol
 _atom_site_label
 _atom_site_symmetry_multiplicity
 _atom_site_fract_x
 _atom_site_fract_y
 _atom_site_fract_z
 _atom_site_occupancy
  Li  Li0  1  0.75297600  0.00000000  0.24175400  1
  Li  Li1  1  0.00000000  0.00000000  0.00000000  1
  Li  Li2  1  0.75558200  0.83615800  0.75816200  1
  Li  Li3  1  0.24441800  0.83615800  0.24183800  1
  Li  Li4  1  0.24702400  0.00000000  0.75824600  1
  Li  Li5  1  0.25558200  0.66384200  0.75816200  1
  Li  Li6  1  0.74441800  0.66384200  0.24183800  1
  Li  Li7  1  0.25297600  0.50000000  0.24175400  1
  Li  Li8  1  0.50000000  0.50000000  0.00000000  1
  Li  Li9  1  0.25558200  0.33615800  0.75816200  1
  Li  Li10  1  0.74441800  0.33615800  0.24183800  1
  Li  Li11  1  0.74702400  0.50000000  0.75824600  1
  Li  Li12  1  0.75558200  0.16384200  0.75816200  1
  Li  Li13  1  0.24441800  0.16384200  0.24183800  1
  Ti  Ti14  1  0.50000000  0.00000000  0.50000000  1
  Ti  Ti15  1  0.50000000  0.66626400  0.50000000  1
  Ti  Ti16  1  0.00000000  0.83373600  0.50000000  1
  Ti  Ti17  1  0.00000000  0.50000000  0.50000000  1
  Ti  Ti18  1  0.00000000  0.16626400  0.50000000  1
  Ti  Ti19  1  0.50000000  0.33373600  0.50000000  1
  Si  Si20  1  0.50000000  0.83332200  0.00000000  1
  Si  Si21  1  0.00000000  0.66667800  0.00000000  1
  Si  Si22  1  0.00000000  0.33332200  0.00000000  1
  Si  Si23  1  0.50000000  0.16667800  0.00000000  1
  O  O24  1  0.87472600  0.00000000  0.62632000  1
  O  O25  1  0.84727000  0.81333500  0.10184000  1
  O  O26  1  0.62528350  0.83303150  0.37672400  1
  O  O27  1  0.59268200  0.00000000  0.89816800  1
  O  O28  1  0.37471650  0.83303150  0.62327600  1
  O  O29  1  0.65273000  0.68666500  0.89816000  1
  O  O30  1  0.40731800  0.00000000  0.10183200  1
  O  O31  1  0.12527400  0.00000000  0.37368000  1
  O  O32  1  0.34727000  0.68666500  0.10184000  1
  O  O33  1  0.12528350  0.66696850  0.37672400  1
  O  O34  1  0.15273000  0.81333500  0.89816000  1
  O  O35  1  0.87471650  0.66696850  0.62327600  1
  O  O36  1  0.37472600  0.50000000  0.62632000  1
  O  O37  1  0.34727000  0.31333500  0.10184000  1
  O  O38  1  0.12528350  0.33303150  0.37672400  1
  O  O39  1  0.09268200  0.50000000  0.89816800  1
  O  O40  1  0.87471650  0.33303150  0.62327600  1
  O  O41  1  0.15273000  0.18666500  0.89816000  1
  O  O42  1  0.90731800  0.50000000  0.10183200  1
  O  O43  1  0.62527400  0.50000000  0.37368000  1
  O  O44  1  0.84727000  0.18666500  0.10184000  1
  O  O45  1  0.62528350  0.16696850  0.37672400  1
  O  O46  1  0.65273000  0.31333500  0.89816000  1
  O  O47  1  0.37471650  0.16696850  0.62327600  1
