# generated using pymatgen
data_Li9Cr3(WO4)7
_symmetry_space_group_name_H-M   'P 1'
_cell_length_a   11.98100442
_cell_length_b   11.98100442
_cell_length_c   14.81921721
_cell_angle_alpha   90.00000000
_cell_angle_beta   90.00000000
_cell_angle_gamma   120.00000000
_symmetry_Int_Tables_number   1
_chemical_formula_structural   Li9Cr3(WO4)7
_chemical_formula_sum   'Li27 Cr9 W21 O84'
_cell_volume   1842.22364563
_cell_formula_units_Z   3
loop_
 _symmetry_equiv_pos_site_id
 _symmetry_equiv_pos_as_xyz
  1  'x, y, z'
loop_
 _atom_site_type_symbol
 _atom_site_label
 _atom_site_symmetry_multiplicity
 _atom_site_fract_x
 _atom_site_fract_y
 _atom_site_fract_z
 _atom_site_occupancy
  Li  Li0  1  0.04855333  0.39280667  0.30029467  1
  Li  Li1  1  0.34425333  0.39280667  0.30029467  1
  Li  Li2  1  0.04855333  0.65574667  0.30029467  1
  Li  Li3  1  0.60719333  0.65574667  0.30029467  1
  Li  Li4  1  0.15650733  0.57825367  0.93678967  1
  Li  Li5  1  0.42174633  0.57825367  0.93678967  1
  Li  Li6  1  0.34425333  0.95144667  0.30029467  1
  Li  Li7  1  0.60719333  0.95144667  0.30029467  1
  Li  Li8  1  0.42174633  0.84349267  0.93678967  1
  Li  Li9  1  0.71522000  0.72614000  0.63362800  1
  Li  Li10  1  0.01092000  0.72614000  0.63362800  1
  Li  Li11  1  0.71522000  0.98908000  0.63362800  1
  Li  Li12  1  0.27386000  0.98908000  0.63362800  1
  Li  Li13  1  0.82317400  0.91158700  0.27012300  1
  Li  Li14  1  0.08841300  0.91158700  0.27012300  1
  Li  Li15  1  0.01092000  0.28478000  0.63362800  1
  Li  Li16  1  0.27386000  0.28478000  0.63362800  1
  Li  Li17  1  0.08841300  0.17682600  0.27012300  1
  Li  Li18  1  0.38188667  0.05947333  0.96696133  1
  Li  Li19  1  0.67758667  0.05947333  0.96696133  1
  Li  Li20  1  0.38188667  0.32241333  0.96696133  1
  Li  Li21  1  0.94052667  0.32241333  0.96696133  1
  Li  Li22  1  0.48984067  0.24492033  0.60345633  1
  Li  Li23  1  0.75507967  0.24492033  0.60345633  1
  Li  Li24  1  0.67758667  0.61811333  0.96696133  1
  Li  Li25  1  0.94052667  0.61811333  0.96696133  1
  Li  Li26  1  0.75507967  0.51015933  0.60345633  1
  Cr  Cr27  1  0.98690267  0.49345133  0.11895333  1
  Cr  Cr28  1  0.50654867  0.49345133  0.11895333  1
  Cr  Cr29  1  0.50654867  0.01309733  0.11895333  1
  Cr  Cr30  1  0.65356933  0.82678467  0.45228667  1
  Cr  Cr31  1  0.17321533  0.82678467  0.45228667  1
  Cr  Cr32  1  0.17321533  0.34643067  0.45228667  1
  Cr  Cr33  1  0.32023600  0.16011800  0.78562000  1
  Cr  Cr34  1  0.83988200  0.16011800  0.78562000  1
  Cr  Cr35  1  0.83988200  0.67976400  0.78562000  1
  W  W36  1  0.23780067  0.47560133  0.12376733  1
  W  W37  1  0.33333333  0.66666667  0.30927067  1
  W  W38  1  0.23780067  0.76219933  0.12376733  1
  W  W39  1  0.52439867  0.76219933  0.12376733  1
  W  W40  1  0.49973333  0.50026667  0.49852667  1
  W  W41  1  0.00053333  0.50026667  0.49852667  1
  W  W42  1  0.49973333  0.99946667  0.49852667  1
  W  W43  1  0.90446733  0.80893467  0.45710067  1
  W  W44  1  0.00000000  0.00000000  0.64260400  1
  W  W45  1  0.90446733  0.09553267  0.45710067  1
  W  W46  1  0.19106533  0.09553267  0.45710067  1
  W  W47  1  0.16640000  0.83360000  0.83186000  1
  W  W48  1  0.66720000  0.83360000  0.83186000  1
  W  W49  1  0.16640000  0.33280000  0.83186000  1
  W  W50  1  0.57113400  0.14226800  0.79043400  1
  W  W51  1  0.66666667  0.33333333  0.97593733  1
  W  W52  1  0.57113400  0.42886600  0.79043400  1
  W  W53  1  0.85773200  0.42886600  0.79043400  1
  W  W54  1  0.83306667  0.16693333  0.16519333  1
  W  W55  1  0.33386667  0.16693333  0.16519333  1
  W  W56  1  0.83306667  0.66613333  0.16519333  1
  O  O57  1  0.17504100  0.35008200  0.20925500  1
  O  O58  1  0.25426567  0.50853133  0.36543633  1
  O  O59  1  0.91545833  0.33574967  0.20206767  1
  O  O60  1  0.42029133  0.33574967  0.20206767  1
  O  O61  1  0.99581200  0.49790600  0.37766700  1
  O  O62  1  0.50209400  0.49790600  0.37766700  1
  O  O63  1  0.91545833  0.57970867  0.20206767  1
  O  O64  1  0.66425033  0.57970867  0.20206767  1
  O  O65  1  0.17869733  0.58934867  0.20737967  1
  O  O66  1  0.41065133  0.58934867  0.20737967  1
  O  O67  1  0.08670433  0.43006067  0.04933367  1
  O  O68  1  0.34335633  0.43006067  0.04933367  1
  O  O69  1  0.25426567  0.74573433  0.36543633  1
  O  O70  1  0.49146867  0.74573433  0.36543633  1
  O  O71  1  0.08670433  0.65664367  0.04933367  1
  O  O72  1  0.56993933  0.65664367  0.04933367  1
  O  O73  1  0.17504100  0.82495900  0.20925500  1
  O  O74  1  0.64991800  0.82495900  0.20925500  1
  O  O75  1  0.33333333  0.66666667  0.06662867  1
  O  O76  1  0.41065133  0.82130267  0.20737967  1
  O  O77  1  0.24647367  0.49294733  0.87797833  1
  O  O78  1  0.50209400  0.00418800  0.37766700  1
  O  O79  1  0.24647367  0.75352633  0.87797833  1
  O  O80  1  0.50705267  0.75352633  0.87797833  1
  O  O81  1  0.42029133  0.08454167  0.20206767  1
  O  O82  1  0.66425033  0.08454167  0.20206767  1
  O  O83  1  0.34335633  0.91329567  0.04933367  1
  O  O84  1  0.56993933  0.91329567  0.04933367  1
  O  O85  1  0.84170767  0.68341533  0.54258833  1
  O  O86  1  0.92093233  0.84186467  0.69876967  1
  O  O87  1  0.58212500  0.66908300  0.53540100  1
  O  O88  1  0.08695800  0.66908300  0.53540100  1
  O  O89  1  0.66247867  0.83123933  0.71100033  1
  O  O90  1  0.16876067  0.83123933  0.71100033  1
  O  O91  1  0.58212500  0.91304200  0.53540100  1
  O  O92  1  0.33091700  0.91304200  0.53540100  1
  O  O93  1  0.84536400  0.92268200  0.54071300  1
  O  O94  1  0.07731800  0.92268200  0.54071300  1
  O  O95  1  0.75337100  0.76339400  0.38266700  1
  O  O96  1  0.01002300  0.76339400  0.38266700  1
  O  O97  1  0.92093233  0.07906767  0.69876967  1
  O  O98  1  0.15813533  0.07906767  0.69876967  1
  O  O99  1  0.75337100  0.98997700  0.38266700  1
  O  O100  1  0.23660600  0.98997700  0.38266700  1
  O  O101  1  0.84170767  0.15829233  0.54258833  1
  O  O102  1  0.31658467  0.15829233  0.54258833  1
  O  O103  1  0.00000000  0.00000000  0.39996200  1
  O  O104  1  0.07731800  0.15463600  0.54071300  1
  O  O105  1  0.91314033  0.82628067  0.21131167  1
  O  O106  1  0.16876067  0.33752133  0.71100033  1
  O  O107  1  0.91314033  0.08685967  0.21131167  1
  O  O108  1  0.17371933  0.08685967  0.21131167  1
  O  O109  1  0.08695800  0.41787500  0.53540100  1
  O  O110  1  0.33091700  0.41787500  0.53540100  1
  O  O111  1  0.01002300  0.24662900  0.38266700  1
  O  O112  1  0.23660600  0.24662900  0.38266700  1
  O  O113  1  0.50837433  0.01674867  0.87592167  1
  O  O114  1  0.58759900  0.17519800  0.03210300  1
  O  O115  1  0.24879167  0.00241633  0.86873433  1
  O  O116  1  0.75362467  0.00241633  0.86873433  1
  O  O117  1  0.32914533  0.16457267  0.04433367  1
  O  O118  1  0.83542733  0.16457267  0.04433367  1
  O  O119  1  0.24879167  0.24637533  0.86873433  1
  O  O120  1  0.99758367  0.24637533  0.86873433  1
  O  O121  1  0.51203067  0.25601533  0.87404633  1
  O  O122  1  0.74398467  0.25601533  0.87404633  1
  O  O123  1  0.42003767  0.09672733  0.71600033  1
  O  O124  1  0.67668967  0.09672733  0.71600033  1
  O  O125  1  0.58759900  0.41240100  0.03210300  1
  O  O126  1  0.82480200  0.41240100  0.03210300  1
  O  O127  1  0.42003767  0.32331033  0.71600033  1
  O  O128  1  0.90327267  0.32331033  0.71600033  1
  O  O129  1  0.50837433  0.49162567  0.87592167  1
  O  O130  1  0.98325133  0.49162567  0.87592167  1
  O  O131  1  0.66666667  0.33333333  0.73329533  1
  O  O132  1  0.74398467  0.48796933  0.87404633  1
  O  O133  1  0.57980700  0.15961400  0.54464500  1
  O  O134  1  0.83542733  0.67085467  0.04433367  1
  O  O135  1  0.57980700  0.42019300  0.54464500  1
  O  O136  1  0.84038600  0.42019300  0.54464500  1
  O  O137  1  0.75362467  0.75120833  0.86873433  1
  O  O138  1  0.99758367  0.75120833  0.86873433  1
  O  O139  1  0.67668967  0.57996233  0.71600033  1
  O  O140  1  0.90327267  0.57996233  0.71600033  1
