# generated using pymatgen
data_Li3Ni3OF7
_symmetry_space_group_name_H-M   'P 1'
_cell_length_a   6.01984955
_cell_length_b   6.01984955
_cell_length_c   14.59921750
_cell_angle_alpha   90.00000000
_cell_angle_beta   90.00000000
_cell_angle_gamma   120.00000000
_symmetry_Int_Tables_number   1
_chemical_formula_structural   Li3Ni3OF7
_chemical_formula_sum   'Li9 Ni9 O3 F21'
_cell_volume   458.17510250
_cell_formula_units_Z   3
loop_
 _symmetry_equiv_pos_site_id
 _symmetry_equiv_pos_as_xyz
  1  'x, y, z'
loop_
 _atom_site_type_symbol
 _atom_site_label
 _atom_site_symmetry_multiplicity
 _atom_site_fract_x
 _atom_site_fract_y
 _atom_site_fract_z
 _atom_site_occupancy
  Li  Li0  1  0.33333333  0.66666667  0.66766217  1
  Li  Li1  1  0.33333333  0.66666667  0.92430150  1
  Li  Li2  1  0.33333333  0.66666667  0.29110350  1
  Li  Li3  1  0.00000000  0.00000000  0.00099550  1
  Li  Li4  1  0.00000000  0.00000000  0.25763483  1
  Li  Li5  1  0.00000000  0.00000000  0.62443683  1
  Li  Li6  1  0.66666667  0.33333333  0.33432883  1
  Li  Li7  1  0.66666667  0.33333333  0.59096817  1
  Li  Li8  1  0.66666667  0.33333333  0.95777017  1
  Ni  Ni9  1  0.49382408  0.98764817  0.12150117  1
  Ni  Ni10  1  0.01235183  0.50617592  0.12150117  1
  Ni  Ni11  1  0.49382408  0.50617592  0.12150117  1
  Ni  Ni12  1  0.16049075  0.32098150  0.45483450  1
  Ni  Ni13  1  0.67901850  0.83950925  0.45483450  1
  Ni  Ni14  1  0.16049075  0.83950925  0.45483450  1
  Ni  Ni15  1  0.82715742  0.65431483  0.78816783  1
  Ni  Ni16  1  0.34568517  0.17284258  0.78816783  1
  Ni  Ni17  1  0.82715742  0.17284258  0.78816783  1
  O  O18  1  0.33333333  0.66666667  0.05344717  1
  O  O19  1  0.00000000  0.00000000  0.38678050  1
  O  O20  1  0.66666667  0.33333333  0.72011383  1
  F  F21  1  0.33333333  0.66666667  0.53091850  1
  F  F22  1  0.17526225  0.82473775  0.20705350  1
  F  F23  1  0.17526225  0.35052450  0.20705350  1
  F  F24  1  0.64947550  0.82473775  0.20705350  1
  F  F25  1  0.01938000  0.50969000  0.37791450  1
  F  F26  1  0.49031000  0.98062000  0.37791450  1
  F  F27  1  0.49031000  0.50969000  0.37791450  1
  F  F28  1  0.00000000  0.00000000  0.86425183  1
  F  F29  1  0.84192892  0.15807108  0.54038683  1
  F  F30  1  0.84192892  0.68385783  0.54038683  1
  F  F31  1  0.31614217  0.15807108  0.54038683  1
  F  F32  1  0.68604667  0.84302333  0.71124783  1
  F  F33  1  0.15697667  0.31395333  0.71124783  1
  F  F34  1  0.15697667  0.84302333  0.71124783  1
  F  F35  1  0.66666667  0.33333333  0.19758517  1
  F  F36  1  0.50859558  0.49140442  0.87372017  1
  F  F37  1  0.50859558  0.01719117  0.87372017  1
  F  F38  1  0.98280883  0.49140442  0.87372017  1
  F  F39  1  0.35271333  0.17635667  0.04458117  1
  F  F40  1  0.82364333  0.64728667  0.04458117  1
  F  F41  1  0.82364333  0.17635667  0.04458117  1
