# generated using pymatgen
data_Mn3(OF2)2
_symmetry_space_group_name_H-M   'P 1'
_cell_length_a   9.58217800
_cell_length_b   6.47638000
_cell_length_c   7.83902715
_cell_angle_alpha   90.00000000
_cell_angle_beta   114.56386795
_cell_angle_gamma   90.00000000
_symmetry_Int_Tables_number   1
_chemical_formula_structural   Mn3(OF2)2
_chemical_formula_sum   'Mn12 O8 F16'
_cell_volume   442.44642095
_cell_formula_units_Z   4
loop_
 _symmetry_equiv_pos_site_id
 _symmetry_equiv_pos_as_xyz
  1  'x, y, z'
loop_
 _atom_site_type_symbol
 _atom_site_label
 _atom_site_symmetry_multiplicity
 _atom_site_fract_x
 _atom_site_fract_y
 _atom_site_fract_z
 _atom_site_occupancy
  Mn  Mn0  1  0.15679150  0.48785550  0.15766100  1
  Mn  Mn1  1  0.82989200  0.51953300  0.32909900  1
  Mn  Mn2  1  0.17010800  0.51953300  0.67090100  1
  Mn  Mn3  1  0.84320850  0.48785550  0.84233900  1
  Mn  Mn4  1  0.00000000  0.98419500  0.50000000  1
  Mn  Mn5  1  0.00000000  0.98823200  0.00000000  1
  Mn  Mn6  1  0.65679150  0.98785550  0.15766100  1
  Mn  Mn7  1  0.32989200  0.01953300  0.32909900  1
  Mn  Mn8  1  0.67010800  0.01953300  0.67090100  1
  Mn  Mn9  1  0.34320850  0.98785550  0.84233900  1
  Mn  Mn10  1  0.50000000  0.48419500  0.50000000  1
  Mn  Mn11  1  0.50000000  0.48823200  0.00000000  1
  O  O12  1  0.17636300  0.80989800  0.67599300  1
  O  O13  1  0.82363700  0.80989800  0.32400700  1
  O  O14  1  0.00000000  0.29188200  0.00000000  1
  O  O15  1  0.00000000  0.68453100  0.00000000  1
  O  O16  1  0.67636300  0.30989800  0.67599300  1
  O  O17  1  0.32363700  0.30989800  0.32400700  1
  O  O18  1  0.50000000  0.79188200  0.00000000  1
  O  O19  1  0.50000000  0.18453100  0.00000000  1
  F  F20  1  0.82717400  0.20585500  0.32657800  1
  F  F21  1  0.17282600  0.20585500  0.67342200  1
  F  F22  1  0.39778800  0.50018900  0.70114900  1
  F  F23  1  0.06418950  0.50422350  0.37804800  1
  F  F24  1  0.72913950  0.49802650  0.04003000  1
  F  F25  1  0.60221200  0.50018900  0.29885100  1
  F  F26  1  0.27086050  0.49802650  0.95997000  1
  F  F27  1  0.93581050  0.50422350  0.62195200  1
  F  F28  1  0.32717400  0.70585500  0.32657800  1
  F  F29  1  0.67282600  0.70585500  0.67342200  1
  F  F30  1  0.89778800  0.00018900  0.70114900  1
  F  F31  1  0.56418950  0.00422350  0.37804800  1
  F  F32  1  0.22913950  0.99802650  0.04003000  1
  F  F33  1  0.10221200  0.00018900  0.29885100  1
  F  F34  1  0.77086050  0.99802650  0.95997000  1
  F  F35  1  0.43581050  0.00422350  0.62195200  1
