# generated using pymatgen
data_NaNi3P4H8NO16
_symmetry_space_group_name_H-M   'P 1'
_cell_length_a   19.19655000
_cell_length_b   8.06209400
_cell_length_c   9.19743386
_cell_angle_alpha   90.00000000
_cell_angle_beta   108.59224980
_cell_angle_gamma   90.00000000
_symmetry_Int_Tables_number   1
_chemical_formula_structural   NaNi3P4H8NO16
_chemical_formula_sum   'Na4 Ni12 P16 H32 N4 O64'
_cell_volume   1349.14836039
_cell_formula_units_Z   4
loop_
 _symmetry_equiv_pos_site_id
 _symmetry_equiv_pos_as_xyz
  1  'x, y, z'
loop_
 _atom_site_type_symbol
 _atom_site_label
 _atom_site_symmetry_multiplicity
 _atom_site_fract_x
 _atom_site_fract_y
 _atom_site_fract_z
 _atom_site_occupancy
  Na  Na0  1  0.00000000  0.46086900  0.75000000  1
  Na  Na1  1  0.00000000  0.53913100  0.25000000  1
  Na  Na2  1  0.50000000  0.96086900  0.75000000  1
  Na  Na3  1  0.50000000  0.03913100  0.25000000  1
  Ni  Ni4  1  0.31498650  0.11147050  0.56796100  1
  Ni  Ni5  1  0.31498650  0.88852950  0.06796100  1
  Ni  Ni6  1  0.25000000  0.25000000  0.00000000  1
  Ni  Ni7  1  0.18501350  0.61147050  0.93203900  1
  Ni  Ni8  1  0.25000000  0.75000000  0.50000000  1
  Ni  Ni9  1  0.18501350  0.38852950  0.43203900  1
  Ni  Ni10  1  0.81498650  0.61147050  0.56796100  1
  Ni  Ni11  1  0.81498650  0.38852950  0.06796100  1
  Ni  Ni12  1  0.75000000  0.75000000  0.00000000  1
  Ni  Ni13  1  0.68501350  0.11147050  0.93203900  1
  Ni  Ni14  1  0.75000000  0.25000000  0.50000000  1
  Ni  Ni15  1  0.68501350  0.88852950  0.43203900  1
  P  P16  1  0.39966700  0.18534100  0.91369300  1
  P  P17  1  0.30033950  0.45256750  0.75797400  1
  P  P18  1  0.39966700  0.81465900  0.41369300  1
  P  P19  1  0.30033950  0.54743250  0.25797400  1
  P  P20  1  0.19966050  0.95256750  0.74202600  1
  P  P21  1  0.10033300  0.68534100  0.58630700  1
  P  P22  1  0.19966050  0.04743250  0.24202600  1
  P  P23  1  0.10033300  0.31465900  0.08630700  1
  P  P24  1  0.89966700  0.68534100  0.91369300  1
  P  P25  1  0.80033950  0.95256750  0.75797400  1
  P  P26  1  0.89966700  0.31465900  0.41369300  1
  P  P27  1  0.80033950  0.04743250  0.25797400  1
  P  P28  1  0.69966050  0.45256750  0.74202600  1
  P  P29  1  0.60033300  0.18534100  0.58630700  1
  P  P30  1  0.69966050  0.54743250  0.24202600  1
  P  P31  1  0.60033300  0.81465900  0.08630700  1
  H  H32  1  0.49639250  0.61006850  0.65661500  1
  H  H33  1  0.45360400  0.45963900  0.72457200  1
  H  H34  1  0.49639250  0.38993150  0.15661500  1
  H  H35  1  0.43616250  0.78925850  0.99320500  1
  H  H36  1  0.45360400  0.54036100  0.22457200  1
  H  H37  1  0.36082000  0.72165100  0.87773100  1
  H  H38  1  0.43616250  0.21074150  0.49320500  1
  H  H39  1  0.36082000  0.27834900  0.37773100  1
  H  H40  1  0.13918000  0.22165100  0.62226900  1
  H  H41  1  0.06383750  0.28925850  0.50679500  1
  H  H42  1  0.13918000  0.77834900  0.12226900  1
  H  H43  1  0.04639600  0.95963900  0.77542800  1
  H  H44  1  0.06383750  0.71074150  0.00679500  1
  H  H45  1  0.00360750  0.11006850  0.84338500  1
  H  H46  1  0.04639600  0.04036100  0.27542800  1
  H  H47  1  0.00360750  0.88993150  0.34338500  1
  H  H48  1  0.99639250  0.11006850  0.65661500  1
  H  H49  1  0.95360400  0.95963900  0.72457200  1
  H  H50  1  0.99639250  0.88993150  0.15661500  1
  H  H51  1  0.93616250  0.28925850  0.99320500  1
  H  H52  1  0.95360400  0.04036100  0.22457200  1
  H  H53  1  0.86082000  0.22165100  0.87773100  1
  H  H54  1  0.93616250  0.71074150  0.49320500  1
  H  H55  1  0.86082000  0.77834900  0.37773100  1
  H  H56  1  0.63918000  0.72165100  0.62226900  1
  H  H57  1  0.56383750  0.78925850  0.50679500  1
  H  H58  1  0.63918000  0.27834900  0.12226900  1
  H  H59  1  0.54639600  0.45963900  0.77542800  1
  H  H60  1  0.56383750  0.21074150  0.00679500  1
  H  H61  1  0.50360750  0.61006850  0.84338500  1
  H  H62  1  0.54639600  0.54036100  0.27542800  1
  H  H63  1  0.50360750  0.38993150  0.34338500  1
  N  N64  1  0.00000000  0.03249200  0.75000000  1
  N  N65  1  0.00000000  0.96750800  0.25000000  1
  N  N66  1  0.50000000  0.53249200  0.75000000  1
  N  N67  1  0.50000000  0.46750800  0.25000000  1
  O  O68  1  0.47573750  0.80174850  0.53342200  1
  O  O69  1  0.47573750  0.19825150  0.03342200  1
  O  O70  1  0.39984000  0.09019700  0.77036500  1
  O  O71  1  0.38048600  0.37886000  0.86034300  1
  O  O72  1  0.38590400  0.75402800  0.98688700  1
  O  O73  1  0.31744550  0.62202750  0.70525100  1
  O  O74  1  0.39984000  0.90980300  0.27036500  1
  O  O75  1  0.34006450  0.12436450  0.98030200  1
  O  O76  1  0.26988600  0.32735300  0.62830900  1
  O  O77  1  0.38048600  0.62114000  0.36034300  1
  O  O78  1  0.38590400  0.24597200  0.48688700  1
  O  O79  1  0.24499650  0.95477850  0.63175400  1
  O  O80  1  0.31744550  0.37797250  0.20525100  1
  O  O81  1  0.25500350  0.45477850  0.86824600  1
  O  O82  1  0.34006450  0.87563550  0.48030200  1
  O  O83  1  0.26988600  0.67264700  0.12830900  1
  O  O84  1  0.23011400  0.82735300  0.87169100  1
  O  O85  1  0.15993550  0.62436450  0.51969800  1
  O  O86  1  0.24499650  0.04522150  0.13175400  1
  O  O87  1  0.18255450  0.12202750  0.79474900  1
  O  O88  1  0.25500350  0.54522150  0.36824600  1
  O  O89  1  0.11409600  0.25402800  0.51311300  1
  O  O90  1  0.11951400  0.87886000  0.63965700  1
  O  O91  1  0.23011400  0.17264700  0.37169100  1
  O  O92  1  0.15993550  0.37563550  0.01969800  1
  O  O93  1  0.10016000  0.59019700  0.72963500  1
  O  O94  1  0.18255450  0.87797250  0.29474900  1
  O  O95  1  0.11409600  0.74597200  0.01311300  1
  O  O96  1  0.11951400  0.12114000  0.13965700  1
  O  O97  1  0.10016000  0.40980300  0.22963500  1
  O  O98  1  0.02426250  0.30174850  0.96657800  1
  O  O99  1  0.02426250  0.69825150  0.46657800  1
  O  O100  1  0.97573750  0.30174850  0.53342200  1
  O  O101  1  0.97573750  0.69825150  0.03342200  1
  O  O102  1  0.89984000  0.59019700  0.77036500  1
  O  O103  1  0.88048600  0.87886000  0.86034300  1
  O  O104  1  0.88590400  0.25402800  0.98688700  1
  O  O105  1  0.81744550  0.12202750  0.70525100  1
  O  O106  1  0.89984000  0.40980300  0.27036500  1
  O  O107  1  0.84006450  0.62436450  0.98030200  1
  O  O108  1  0.76988600  0.82735300  0.62830900  1
  O  O109  1  0.88048600  0.12114000  0.36034300  1
  O  O110  1  0.88590400  0.74597200  0.48688700  1
  O  O111  1  0.74499650  0.45477850  0.63175400  1
  O  O112  1  0.81744550  0.87797250  0.20525100  1
  O  O113  1  0.75500350  0.95477850  0.86824600  1
  O  O114  1  0.84006450  0.37563550  0.48030200  1
  O  O115  1  0.76988600  0.17264700  0.12830900  1
  O  O116  1  0.73011400  0.32735300  0.87169100  1
  O  O117  1  0.65993550  0.12436450  0.51969800  1
  O  O118  1  0.74499650  0.54522150  0.13175400  1
  O  O119  1  0.68255450  0.62202750  0.79474900  1
  O  O120  1  0.75500350  0.04522150  0.36824600  1
  O  O121  1  0.61409600  0.75402800  0.51311300  1
  O  O122  1  0.61951400  0.37886000  0.63965700  1
  O  O123  1  0.73011400  0.67264700  0.37169100  1
  O  O124  1  0.65993550  0.87563550  0.01969800  1
  O  O125  1  0.60016000  0.09019700  0.72963500  1
  O  O126  1  0.68255450  0.37797250  0.29474900  1
  O  O127  1  0.61409600  0.24597200  0.01311300  1
  O  O128  1  0.61951400  0.62114000  0.13965700  1
  O  O129  1  0.60016000  0.90980300  0.22963500  1
  O  O130  1  0.52426250  0.80174850  0.96657800  1
  O  O131  1  0.52426250  0.19825150  0.46657800  1
