# generated using pymatgen
data_Mn2Sn(PO4)3
_symmetry_space_group_name_H-M   'P 1'
_cell_length_a   8.81547240
_cell_length_b   8.81547240
_cell_length_c   20.79437011
_cell_angle_alpha   90.00000000
_cell_angle_beta   90.00000000
_cell_angle_gamma   120.00000000
_symmetry_Int_Tables_number   1
_chemical_formula_structural   Mn2Sn(PO4)3
_chemical_formula_sum   'Mn12 Sn6 P18 O72'
_cell_volume   1399.48285347
_cell_formula_units_Z   6
loop_
 _symmetry_equiv_pos_site_id
 _symmetry_equiv_pos_as_xyz
  1  'x, y, z'
loop_
 _atom_site_type_symbol
 _atom_site_label
 _atom_site_symmetry_multiplicity
 _atom_site_fract_x
 _atom_site_fract_y
 _atom_site_fract_z
 _atom_site_occupancy
  Mn  Mn0  1  0.33333333  0.66666667  0.81790867  1
  Mn  Mn1  1  0.33333333  0.66666667  0.01542467  1
  Mn  Mn2  1  0.33333333  0.66666667  0.31790867  1
  Mn  Mn3  1  0.33333333  0.66666667  0.51542467  1
  Mn  Mn4  1  0.00000000  0.00000000  0.15124200  1
  Mn  Mn5  1  1.00000000  0.00000000  0.34875800  1
  Mn  Mn6  1  0.00000000  0.00000000  0.65124200  1
  Mn  Mn7  1  0.00000000  0.00000000  0.84875800  1
  Mn  Mn8  1  0.66666667  0.33333333  0.48457533  1
  Mn  Mn9  1  0.66666667  0.33333333  0.68209133  1
  Mn  Mn10  1  0.66666667  0.33333333  0.98457533  1
  Mn  Mn11  1  0.66666667  0.33333333  0.18209133  1
  Sn  Sn12  1  0.00000000  0.00000000  0.00000000  1
  Sn  Sn13  1  0.33333333  0.66666667  0.16666667  1
  Sn  Sn14  1  0.66666667  0.33333333  0.33333333  1
  Sn  Sn15  1  0.00000000  0.00000000  0.50000000  1
  Sn  Sn16  1  0.33333333  0.66666667  0.66666667  1
  Sn  Sn17  1  0.66666667  0.33333333  0.83333333  1
  P  P18  1  0.66666667  0.63566033  0.08333333  1
  P  P19  1  0.96899367  0.33333333  0.08333333  1
  P  P20  1  0.36433967  0.03100633  0.08333333  1
  P  P21  1  0.30232700  0.30232700  0.25000000  1
  P  P22  1  0.69767300  0.00000000  0.25000000  1
  P  P23  1  0.00000000  0.69767300  0.25000000  1
  P  P24  1  0.33333333  0.96899367  0.41666667  1
  P  P25  1  0.63566033  0.66666667  0.41666667  1
  P  P26  1  0.03100633  0.36433967  0.41666667  1
  P  P27  1  0.96899367  0.63566033  0.58333333  1
  P  P28  1  0.36433967  0.33333333  0.58333333  1
  P  P29  1  0.66666667  0.03100633  0.58333333  1
  P  P30  1  0.00000000  0.30232700  0.75000000  1
  P  P31  1  0.30232700  0.00000000  0.75000000  1
  P  P32  1  0.69767300  0.69767300  0.75000000  1
  P  P33  1  0.63566033  0.96899367  0.91666667  1
  P  P34  1  0.03100633  0.66666667  0.91666667  1
  P  P35  1  0.33333333  0.36433967  0.91666667  1
  O  O36  1  0.34493500  0.46274700  0.97758300  1
  O  O37  1  0.53725300  0.88218800  0.97758300  1
  O  O38  1  0.82935000  0.82744500  0.07263400  1
  O  O39  1  0.11781200  0.65506500  0.97758300  1
  O  O40  1  0.67826833  0.54885467  0.14424967  1
  O  O41  1  0.50398333  0.66476167  0.09403267  1
  O  O42  1  0.99809500  0.17065000  0.07263400  1
  O  O43  1  0.16077833  0.49601667  0.09403267  1
  O  O44  1  0.21552133  0.20391967  0.18908367  1
  O  O45  1  0.33523833  0.83922167  0.09403267  1
  O  O46  1  0.49411167  0.33142833  0.26069933  1
  O  O47  1  0.79608033  0.01160167  0.18908367  1
  O  O48  1  0.87058633  0.32173167  0.14424967  1
  O  O49  1  0.17255500  0.00190500  0.07263400  1
  O  O50  1  0.33142833  0.49411167  0.23930067  1
  O  O51  1  0.45114533  0.12941367  0.14424967  1
  O  O52  1  0.50588833  0.83731667  0.23930067  1
  O  O53  1  0.66857167  0.16268333  0.26069933  1
  O  O54  1  0.16268333  0.66857167  0.23930067  1
  O  O55  1  0.98839833  0.78447867  0.18908367  1
  O  O56  1  0.54885467  0.67826833  0.35575033  1
  O  O57  1  0.83731667  0.50588833  0.26069933  1
  O  O58  1  0.12941367  0.45114533  0.35575033  1
  O  O59  1  0.32173167  0.87058633  0.35575033  1
  O  O60  1  0.01160167  0.79608033  0.31091633  1
  O  O61  1  0.20391967  0.21552133  0.31091633  1
  O  O62  1  0.49601667  0.16077833  0.40596733  1
  O  O63  1  0.78447867  0.98839833  0.31091633  1
  O  O64  1  0.34493500  0.88218800  0.47758300  1
  O  O65  1  0.17065000  0.99809500  0.42736600  1
  O  O66  1  0.66476167  0.50398333  0.40596733  1
  O  O67  1  0.82744500  0.82935000  0.42736600  1
  O  O68  1  0.88218800  0.53725300  0.52241700  1
  O  O69  1  0.00190500  0.17255500  0.42736600  1
  O  O70  1  0.16077833  0.66476167  0.59403267  1
  O  O71  1  0.46274700  0.34493500  0.52241700  1
  O  O72  1  0.53725300  0.65506500  0.47758300  1
  O  O73  1  0.83922167  0.33523833  0.40596733  1
  O  O74  1  0.99809500  0.82744500  0.57263400  1
  O  O75  1  0.11781200  0.46274700  0.47758300  1
  O  O76  1  0.17255500  0.17065000  0.57263400  1
  O  O77  1  0.33523833  0.49601667  0.59403267  1
  O  O78  1  0.82935000  0.00190500  0.57263400  1
  O  O79  1  0.65506500  0.11781200  0.52241700  1
  O  O80  1  0.21552133  0.01160167  0.68908367  1
  O  O81  1  0.50398333  0.83922167  0.59403267  1
  O  O82  1  0.79608033  0.78447867  0.68908367  1
  O  O83  1  0.98839833  0.20391967  0.68908367  1
  O  O84  1  0.67826833  0.12941367  0.64424967  1
  O  O85  1  0.87058633  0.54885467  0.64424967  1
  O  O86  1  0.16268333  0.49411167  0.73930067  1
  O  O87  1  0.45114533  0.32173167  0.64424967  1
  O  O88  1  0.01160167  0.21552133  0.81091633  1
  O  O89  1  0.83731667  0.33142833  0.76069933  1
  O  O90  1  0.33142833  0.83731667  0.73930067  1
  O  O91  1  0.49411167  0.16268333  0.76069933  1
  O  O92  1  0.54885467  0.87058633  0.85575033  1
  O  O93  1  0.66857167  0.50588833  0.76069933  1
  O  O94  1  0.82744500  0.99809500  0.92736600  1
  O  O95  1  0.12941367  0.67826833  0.85575033  1
  O  O96  1  0.20391967  0.98839833  0.81091633  1
  O  O97  1  0.50588833  0.66857167  0.73930067  1
  O  O98  1  0.66476167  0.16077833  0.90596733  1
  O  O99  1  0.78447867  0.79608033  0.81091633  1
  O  O100  1  0.83922167  0.50398333  0.90596733  1
  O  O101  1  0.00190500  0.82935000  0.92736600  1
  O  O102  1  0.49601667  0.33523833  0.90596733  1
  O  O103  1  0.32173167  0.45114533  0.85575033  1
  O  O104  1  0.88218800  0.34493500  0.02241700  1
  O  O105  1  0.17065000  0.17255500  0.92736600  1
  O  O106  1  0.46274700  0.11781200  0.02241700  1
  O  O107  1  0.65506500  0.53725300  0.02241700  1
