# generated using pymatgen
data_LiNd14(Cu3O14)2
_symmetry_space_group_name_H-M   'P 1'
_cell_length_a   12.57165200
_cell_length_b   12.30151800
_cell_length_c   8.89589158
_cell_angle_alpha   90.00000000
_cell_angle_beta   98.10197067
_cell_angle_gamma   90.00000000
_symmetry_Int_Tables_number   1
_chemical_formula_structural   LiNd14(Cu3O14)2
_chemical_formula_sum   'Li2 Nd28 Cu12 O56'
_cell_volume   1362.02156750
_cell_formula_units_Z   2
loop_
 _symmetry_equiv_pos_site_id
 _symmetry_equiv_pos_as_xyz
  1  'x, y, z'
loop_
 _atom_site_type_symbol
 _atom_site_label
 _atom_site_symmetry_multiplicity
 _atom_site_fract_x
 _atom_site_fract_y
 _atom_site_fract_z
 _atom_site_occupancy
  Li  Li0  1  0.00000000  0.00000000  0.00000000  1
  Li  Li1  1  0.50000000  0.50000000  0.00000000  1
  Nd  Nd2  1  0.00000000  0.35050900  0.00000000  1
  Nd  Nd3  1  0.00000000  0.64949100  0.00000000  1
  Nd  Nd4  1  0.28635350  0.35110250  0.85746300  1
  Nd  Nd5  1  0.28635350  0.64889750  0.85746300  1
  Nd  Nd6  1  0.07146850  0.85116650  0.71510400  1
  Nd  Nd7  1  0.07146850  0.14883350  0.71510400  1
  Nd  Nd8  1  0.85710950  0.34989550  0.57098100  1
  Nd  Nd9  1  0.85710950  0.65010450  0.57098100  1
  Nd  Nd10  1  0.14289050  0.65010450  0.42901900  1
  Nd  Nd11  1  0.14289050  0.34989550  0.42901900  1
  Nd  Nd12  1  0.92853150  0.85116650  0.28489600  1
  Nd  Nd13  1  0.92853150  0.14883350  0.28489600  1
  Nd  Nd14  1  0.71364650  0.64889750  0.14253700  1
  Nd  Nd15  1  0.71364650  0.35110250  0.14253700  1
  Nd  Nd16  1  0.50000000  0.85050900  0.00000000  1
  Nd  Nd17  1  0.50000000  0.14949100  0.00000000  1
  Nd  Nd18  1  0.78635350  0.85110250  0.85746300  1
  Nd  Nd19  1  0.78635350  0.14889750  0.85746300  1
  Nd  Nd20  1  0.57146850  0.35116650  0.71510400  1
  Nd  Nd21  1  0.57146850  0.64883350  0.71510400  1
  Nd  Nd22  1  0.35710950  0.84989550  0.57098100  1
  Nd  Nd23  1  0.35710950  0.15010450  0.57098100  1
  Nd  Nd24  1  0.64289050  0.15010450  0.42901900  1
  Nd  Nd25  1  0.64289050  0.84989550  0.42901900  1
  Nd  Nd26  1  0.42853150  0.35116650  0.28489600  1
  Nd  Nd27  1  0.42853150  0.64883350  0.28489600  1
  Nd  Nd28  1  0.21364650  0.14889750  0.14253700  1
  Nd  Nd29  1  0.21364650  0.85110250  0.14253700  1
  Cu  Cu30  1  0.35720300  0.50000000  0.57106800  1
  Cu  Cu31  1  0.07063100  0.50000000  0.71453600  1
  Cu  Cu32  1  0.78640400  0.50000000  0.85736200  1
  Cu  Cu33  1  0.92936900  0.50000000  0.28546400  1
  Cu  Cu34  1  0.21359600  0.50000000  0.14263800  1
  Cu  Cu35  1  0.64279700  0.50000000  0.42893200  1
  Cu  Cu36  1  0.85720300  0.00000000  0.57106800  1
  Cu  Cu37  1  0.57063100  0.00000000  0.71453600  1
  Cu  Cu38  1  0.28640400  0.00000000  0.85736200  1
  Cu  Cu39  1  0.42936900  0.00000000  0.28546400  1
  Cu  Cu40  1  0.71359600  0.00000000  0.14263800  1
  Cu  Cu41  1  0.14279700  0.00000000  0.42893200  1
  O  O42  1  0.14262700  0.50000000  0.92840900  1
  O  O43  1  0.42547400  0.50000000  0.77691400  1
  O  O44  1  0.14262100  0.74981000  0.92889600  1
  O  O45  1  0.14262100  0.25019000  0.92889600  1
  O  O46  1  0.21448500  0.74995100  0.64342100  1
  O  O47  1  0.00000000  0.00000000  0.50000000  1
  O  O48  1  0.92891150  0.75005250  0.78630600  1
  O  O49  1  0.21448500  0.25004900  0.64342100  1
  O  O50  1  0.92891150  0.24994750  0.78630600  1
  O  O51  1  0.21176000  0.50000000  0.64341200  1
  O  O52  1  0.64960600  0.50000000  0.92483400  1
  O  O53  1  0.92670700  0.50000000  0.78604200  1
  O  O54  1  0.71366600  0.50000000  0.63875900  1
  O  O55  1  0.28633400  0.50000000  0.36124100  1
  O  O56  1  0.00000000  0.75078300  0.50000000  1
  O  O57  1  0.00000000  0.50000000  0.50000000  1
  O  O58  1  0.00000000  0.24921700  0.50000000  1
  O  O59  1  0.78824000  0.50000000  0.35658800  1
  O  O60  1  0.78551500  0.25004900  0.35657900  1
  O  O61  1  0.35039400  0.50000000  0.07516600  1
  O  O62  1  0.07108850  0.75005250  0.21369400  1
  O  O63  1  0.07108850  0.24994750  0.21369400  1
  O  O64  1  0.07329300  0.50000000  0.21395800  1
  O  O65  1  0.78551500  0.74995100  0.35657900  1
  O  O66  1  0.57452600  0.50000000  0.22308600  1
  O  O67  1  0.85737300  0.50000000  0.07159100  1
  O  O68  1  0.85737900  0.74981000  0.07110400  1
  O  O69  1  0.85737900  0.25019000  0.07110400  1
  O  O70  1  0.64262700  0.00000000  0.92840900  1
  O  O71  1  0.92547400  0.00000000  0.77691400  1
  O  O72  1  0.64262100  0.24981000  0.92889600  1
  O  O73  1  0.64262100  0.75019000  0.92889600  1
  O  O74  1  0.71448500  0.24995100  0.64342100  1
  O  O75  1  0.50000000  0.50000000  0.50000000  1
  O  O76  1  0.42891150  0.25005250  0.78630600  1
  O  O77  1  0.71448500  0.75004900  0.64342100  1
  O  O78  1  0.42891150  0.74994750  0.78630600  1
  O  O79  1  0.71176000  0.00000000  0.64341200  1
  O  O80  1  0.14960600  0.00000000  0.92483400  1
  O  O81  1  0.42670700  0.00000000  0.78604200  1
  O  O82  1  0.21366600  0.00000000  0.63875900  1
  O  O83  1  0.78633400  0.00000000  0.36124100  1
  O  O84  1  0.50000000  0.25078300  0.50000000  1
  O  O85  1  0.50000000  0.00000000  0.50000000  1
  O  O86  1  0.50000000  0.74921700  0.50000000  1
  O  O87  1  0.28824000  0.00000000  0.35658800  1
  O  O88  1  0.28551500  0.75004900  0.35657900  1
  O  O89  1  0.85039400  0.00000000  0.07516600  1
  O  O90  1  0.57108850  0.25005250  0.21369400  1
  O  O91  1  0.57108850  0.74994750  0.21369400  1
  O  O92  1  0.57329300  0.00000000  0.21395800  1
  O  O93  1  0.28551500  0.24995100  0.35657900  1
  O  O94  1  0.07452600  0.00000000  0.22308600  1
  O  O95  1  0.35737300  0.00000000  0.07159100  1
  O  O96  1  0.35737900  0.24981000  0.07110400  1
  O  O97  1  0.35737900  0.75019000  0.07110400  1
