# generated using pymatgen
data_Ba3La3Mn2(WO6)3
_symmetry_space_group_name_H-M   'P 1'
_cell_length_a   5.82860947
_cell_length_b   5.82860947
_cell_length_c   41.60250858
_cell_angle_alpha   90.00000000
_cell_angle_beta   90.00000000
_cell_angle_gamma   120.00000000
_symmetry_Int_Tables_number   1
_chemical_formula_structural   Ba3La3Mn2(WO6)3
_chemical_formula_sum   'Ba9 La9 Mn6 W9 O54'
_cell_volume   1223.99618863
_cell_formula_units_Z   3
loop_
 _symmetry_equiv_pos_site_id
 _symmetry_equiv_pos_as_xyz
  1  'x, y, z'
loop_
 _atom_site_type_symbol
 _atom_site_label
 _atom_site_symmetry_multiplicity
 _atom_site_fract_x
 _atom_site_fract_y
 _atom_site_fract_z
 _atom_site_occupancy
  Ba  Ba0  1  0.66666667  0.33333333  0.24967433  1
  Ba  Ba1  1  0.00000000  0.00000000  0.19002700  1
  Ba  Ba2  1  0.00000000  0.00000000  0.08543700  1
  Ba  Ba3  1  0.33333333  0.66666667  0.58300767  1
  Ba  Ba4  1  0.66666667  0.33333333  0.52336033  1
  Ba  Ba5  1  0.66666667  0.33333333  0.41877033  1
  Ba  Ba6  1  0.00000000  0.00000000  0.91634100  1
  Ba  Ba7  1  0.33333333  0.66666667  0.85669367  1
  Ba  Ba8  1  0.33333333  0.66666667  0.75210367  1
  La  La9  1  0.66666667  0.33333333  0.15368733  1
  La  La10  1  0.33333333  0.66666667  0.30625767  1
  La  La11  1  0.33333333  0.66666667  0.03286867  1
  La  La12  1  0.33333333  0.66666667  0.48702067  1
  La  La13  1  0.00000000  0.00000000  0.63959100  1
  La  La14  1  0.00000000  0.00000000  0.36620200  1
  La  La15  1  0.00000000  0.00000000  0.82035400  1
  La  La16  1  0.66666667  0.33333333  0.97292433  1
  La  La17  1  0.66666667  0.33333333  0.69953533  1
  Mn  Mn18  1  0.66666667  0.33333333  0.05774233  1
  Mn  Mn19  1  0.00000000  0.00000000  0.27659400  1
  Mn  Mn20  1  0.33333333  0.66666667  0.39107567  1
  Mn  Mn21  1  0.66666667  0.33333333  0.60992733  1
  Mn  Mn22  1  0.00000000  0.00000000  0.72440900  1
  Mn  Mn23  1  0.33333333  0.66666667  0.94326067  1
  W  W24  1  0.66666667  0.33333333  0.33297333  1
  W  W25  1  0.33333333  0.66666667  0.21977467  1
  W  W26  1  0.33333333  0.66666667  0.11406667  1
  W  W27  1  0.33333333  0.66666667  0.66630667  1
  W  W28  1  0.00000000  0.00000000  0.55310800  1
  W  W29  1  0.00000000  0.00000000  0.44740000  1
  W  W30  1  0.00000000  0.00000000  0.99964000  1
  W  W31  1  0.66666667  0.33333333  0.88644133  1
  W  W32  1  0.66666667  0.33333333  0.78073333  1
  O  O33  1  0.83040867  0.16959133  0.02427333  1
  O  O34  1  0.33918267  0.16959133  0.02427333  1
  O  O35  1  0.83040867  0.66081733  0.02427333  1
  O  O36  1  0.18064000  0.36128000  0.24886000  1
  O  O37  1  0.18064000  0.81936000  0.24886000  1
  O  O38  1  0.63872000  0.81936000  0.24886000  1
  O  O39  1  0.00453133  0.50226567  0.19472967  1
  O  O40  1  0.49773433  0.50226567  0.19472967  1
  O  O41  1  0.49773433  0.99546867  0.19472967  1
  O  O42  1  0.17090400  0.34180800  0.13696900  1
  O  O43  1  0.17090400  0.82909600  0.13696900  1
  O  O44  1  0.65819200  0.82909600  0.13696900  1
  O  O45  1  0.03288733  0.51644367  0.08189667  1
  O  O46  1  0.48355633  0.51644367  0.08189667  1
  O  O47  1  0.48355633  0.96711267  0.08189667  1
  O  O48  1  0.83247200  0.66494400  0.30690400  1
  O  O49  1  0.33505600  0.16752800  0.30690400  1
  O  O50  1  0.83247200  0.16752800  0.30690400  1
  O  O51  1  0.49707533  0.50292467  0.35760667  1
  O  O52  1  0.00584933  0.50292467  0.35760667  1
  O  O53  1  0.49707533  0.99415067  0.35760667  1
  O  O54  1  0.84730667  0.69461333  0.58219333  1
  O  O55  1  0.84730667  0.15269333  0.58219333  1
  O  O56  1  0.30538667  0.15269333  0.58219333  1
  O  O57  1  0.67119800  0.83559900  0.52806300  1
  O  O58  1  0.16440100  0.83559900  0.52806300  1
  O  O59  1  0.16440100  0.32880200  0.52806300  1
  O  O60  1  0.83757067  0.67514133  0.47030233  1
  O  O61  1  0.83757067  0.16242933  0.47030233  1
  O  O62  1  0.32485867  0.16242933  0.47030233  1
  O  O63  1  0.69955400  0.84977700  0.41523000  1
  O  O64  1  0.15022300  0.84977700  0.41523000  1
  O  O65  1  0.15022300  0.30044600  0.41523000  1
  O  O66  1  0.49913867  0.99827733  0.64023733  1
  O  O67  1  0.00172267  0.50086133  0.64023733  1
  O  O68  1  0.49913867  0.50086133  0.64023733  1
  O  O69  1  0.16374200  0.83625800  0.69094000  1
  O  O70  1  0.67251600  0.83625800  0.69094000  1
  O  O71  1  0.16374200  0.32748400  0.69094000  1
  O  O72  1  0.51397333  0.02794667  0.91552667  1
  O  O73  1  0.51397333  0.48602667  0.91552667  1
  O  O74  1  0.97205333  0.48602667  0.91552667  1
  O  O75  1  0.33786467  0.16893233  0.86139633  1
  O  O76  1  0.83106767  0.16893233  0.86139633  1
  O  O77  1  0.83106767  0.66213533  0.86139633  1
  O  O78  1  0.50423733  0.00847467  0.80363567  1
  O  O79  1  0.50423733  0.49576267  0.80363567  1
  O  O80  1  0.99152533  0.49576267  0.80363567  1
  O  O81  1  0.36622067  0.18311033  0.74856333  1
  O  O82  1  0.81688967  0.18311033  0.74856333  1
  O  O83  1  0.81688967  0.63377933  0.74856333  1
  O  O84  1  0.16580533  0.33161067  0.97357067  1
  O  O85  1  0.66838933  0.83419467  0.97357067  1
  O  O86  1  0.16580533  0.83419467  0.97357067  1
