# generated using pymatgen
data_Fe4O7F
_symmetry_space_group_name_H-M   'P 1'
_cell_length_a   5.99020000
_cell_length_b   18.49078800
_cell_length_c   5.51283914
_cell_angle_alpha   90.00000000
_cell_angle_beta   122.80710710
_cell_angle_gamma   90.00000000
_symmetry_Int_Tables_number   1
_chemical_formula_structural   Fe4O7F
_chemical_formula_sum   'Fe16 O28 F4'
_cell_volume   513.22697095
_cell_formula_units_Z   4
loop_
 _symmetry_equiv_pos_site_id
 _symmetry_equiv_pos_as_xyz
  1  'x, y, z'
loop_
 _atom_site_type_symbol
 _atom_site_label
 _atom_site_symmetry_multiplicity
 _atom_site_fract_x
 _atom_site_fract_y
 _atom_site_fract_z
 _atom_site_occupancy
  Fe  Fe0  1  0.45467150  0.31068150  0.51888600  1
  Fe  Fe1  1  0.42671650  0.05893550  0.47364300  1
  Fe  Fe2  1  0.43562350  0.19145550  0.00974400  1
  Fe  Fe3  1  0.95467150  0.18931850  0.01888600  1
  Fe  Fe4  1  0.92671650  0.44106450  0.97364300  1
  Fe  Fe5  1  0.93485250  0.06471850  0.50066600  1
  Fe  Fe6  1  0.93562350  0.30854450  0.50974400  1
  Fe  Fe7  1  0.43485250  0.43528150  0.00066600  1
  Fe  Fe8  1  0.95467150  0.81068150  0.51888600  1
  Fe  Fe9  1  0.92671650  0.55893550  0.47364300  1
  Fe  Fe10  1  0.93562350  0.69145550  0.00974400  1
  Fe  Fe11  1  0.45467150  0.68931850  0.01888600  1
  Fe  Fe12  1  0.42671650  0.94106450  0.97364300  1
  Fe  Fe13  1  0.43485250  0.56471850  0.50066600  1
  Fe  Fe14  1  0.43562350  0.80854450  0.50974400  1
  Fe  Fe15  1  0.93485250  0.93528150  0.00066600  1
  O  O16  1  0.29310150  0.23952650  0.21129600  1
  O  O17  1  0.59360950  0.35981350  0.31605400  1
  O  O18  1  0.27437050  0.01648050  0.67244000  1
  O  O19  1  0.28868650  0.26546750  0.69801900  1
  O  O20  1  0.79310150  0.26047350  0.71129600  1
  O  O21  1  0.09036900  0.38936100  0.80526900  1
  O  O22  1  0.59073000  0.38852600  0.80677800  1
  O  O23  1  0.77437050  0.48351950  0.17244000  1
  O  O24  1  0.78868650  0.23453250  0.19801900  1
  O  O25  1  0.27637650  0.48468150  0.18149300  1
  O  O26  1  0.09073000  0.11147400  0.30677800  1
  O  O27  1  0.59036900  0.11063900  0.30526900  1
  O  O28  1  0.77637650  0.01531850  0.68149300  1
  O  O29  1  0.09360950  0.14018650  0.81605400  1
  O  O30  1  0.79310150  0.73952650  0.21129600  1
  O  O31  1  0.09360950  0.85981350  0.31605400  1
  O  O32  1  0.77437050  0.51648050  0.67244000  1
  O  O33  1  0.78868650  0.76546750  0.69801900  1
  O  O34  1  0.29310150  0.76047350  0.71129600  1
  O  O35  1  0.59036900  0.88936100  0.80526900  1
  O  O36  1  0.09073000  0.88852600  0.80677800  1
  O  O37  1  0.27437050  0.98351950  0.17244000  1
  O  O38  1  0.28868650  0.73453250  0.19801900  1
  O  O39  1  0.77637650  0.98468150  0.18149300  1
  O  O40  1  0.59073000  0.61147400  0.30677800  1
  O  O41  1  0.09036900  0.61063900  0.30526900  1
  O  O42  1  0.27637650  0.51531850  0.68149300  1
  O  O43  1  0.59360950  0.64018650  0.81605400  1
  F  F44  1  0.58978650  0.13789750  0.80635000  1
  F  F45  1  0.08978650  0.36210250  0.30635000  1
  F  F46  1  0.08978650  0.63789750  0.80635000  1
  F  F47  1  0.58978650  0.86210250  0.30635000  1
