# generated using pymatgen
data_Li2Cr3NiO8
_symmetry_space_group_name_H-M   'P 1'
_cell_length_a   5.86663385
_cell_length_b   5.86663385
_cell_length_c   14.59569041
_cell_angle_alpha   90.00000000
_cell_angle_beta   90.00000000
_cell_angle_gamma   120.00000000
_symmetry_Int_Tables_number   1
_chemical_formula_structural   Li2Cr3NiO8
_chemical_formula_sum   'Li6 Cr9 Ni3 O24'
_cell_volume   435.04405941
_cell_formula_units_Z   3
loop_
 _symmetry_equiv_pos_site_id
 _symmetry_equiv_pos_as_xyz
  1  'x, y, z'
loop_
 _atom_site_type_symbol
 _atom_site_label
 _atom_site_symmetry_multiplicity
 _atom_site_fract_x
 _atom_site_fract_y
 _atom_site_fract_z
 _atom_site_occupancy
  Li  Li0  1  0.00000000  0.00000000  0.12506900  1
  Li  Li1  1  0.66666667  0.33333333  0.20826433  1
  Li  Li2  1  0.66666667  0.33333333  0.45840233  1
  Li  Li3  1  0.33333333  0.66666667  0.54159767  1
  Li  Li4  1  0.33333333  0.66666667  0.79173567  1
  Li  Li5  1  0.00000000  0.00000000  0.87493100  1
  Cr  Cr6  1  0.00000000  0.50000000  0.00000000  1
  Cr  Cr7  1  0.50000000  0.00000000  0.00000000  1
  Cr  Cr8  1  0.50000000  0.50000000  0.00000000  1
  Cr  Cr9  1  0.66666667  0.83333333  0.33333333  1
  Cr  Cr10  1  0.16666667  0.33333333  0.33333333  1
  Cr  Cr11  1  0.16666667  0.83333333  0.33333333  1
  Cr  Cr12  1  0.33333333  0.16666667  0.66666667  1
  Cr  Cr13  1  0.83333333  0.66666667  0.66666667  1
  Cr  Cr14  1  0.83333333  0.16666667  0.66666667  1
  Ni  Ni15  1  0.33333333  0.66666667  0.16666667  1
  Ni  Ni16  1  1.00000000  1.00000000  0.50000000  1
  Ni  Ni17  1  0.66666667  0.33333333  0.83333333  1
  O  O18  1  0.00000000  0.00000000  0.26030800  1
  O  O19  1  0.18248500  0.81751500  0.07179400  1
  O  O20  1  0.18248500  0.36497000  0.07179400  1
  O  O21  1  0.63503000  0.81751500  0.07179400  1
  O  O22  1  0.03163667  0.51581833  0.26153933  1
  O  O23  1  0.48418167  0.96836333  0.26153933  1
  O  O24  1  0.48418167  0.51581833  0.26153933  1
  O  O25  1  0.66666667  0.33333333  0.07302533  1
  O  O26  1  0.66666667  0.33333333  0.59364133  1
  O  O27  1  0.84915167  0.15084833  0.40512733  1
  O  O28  1  0.84915167  0.69830333  0.40512733  1
  O  O29  1  0.30169667  0.15084833  0.40512733  1
  O  O30  1  0.69830333  0.84915167  0.59487267  1
  O  O31  1  0.15084833  0.30169667  0.59487267  1
  O  O32  1  0.15084833  0.84915167  0.59487267  1
  O  O33  1  0.33333333  0.66666667  0.40635867  1
  O  O34  1  0.33333333  0.66666667  0.92697467  1
  O  O35  1  0.51581833  0.48418167  0.73846067  1
  O  O36  1  0.51581833  0.03163667  0.73846067  1
  O  O37  1  0.96836333  0.48418167  0.73846067  1
  O  O38  1  0.36497000  0.18248500  0.92820600  1
  O  O39  1  0.81751500  0.63503000  0.92820600  1
  O  O40  1  0.81751500  0.18248500  0.92820600  1
  O  O41  1  0.00000000  0.00000000  0.73969200  1
