# generated using pymatgen
data_Li7Mn(O2F)2
_symmetry_space_group_name_H-M   'P 1'
_cell_length_a   5.43423144
_cell_length_b   5.78646990
_cell_length_c   10.01399356
_cell_angle_alpha   105.03581897
_cell_angle_beta   87.50109563
_cell_angle_gamma   115.45200477
_symmetry_Int_Tables_number   1
_chemical_formula_structural   Li7Mn(O2F)2
_chemical_formula_sum   'Li14 Mn2 O8 F4'
_cell_volume   273.76101181
_cell_formula_units_Z   2
loop_
 _symmetry_equiv_pos_site_id
 _symmetry_equiv_pos_as_xyz
  1  'x, y, z'
loop_
 _atom_site_type_symbol
 _atom_site_label
 _atom_site_symmetry_multiplicity
 _atom_site_fract_x
 _atom_site_fract_y
 _atom_site_fract_z
 _atom_site_occupancy
  Li  Li0  1  0.05660700  0.96801300  0.76497200  1
  Li  Li1  1  0.48596300  0.37514000  0.25084000  1
  Li  Li2  1  0.53096800  0.04301100  0.60987700  1
  Li  Li3  1  0.96790900  0.45391600  0.88450800  1
  Li  Li4  1  0.05679200  0.79266600  0.55702700  1
  Li  Li5  1  0.52763400  0.29201300  0.04245400  1
  Li  Li6  1  0.96180800  0.64319400  0.33920900  1
  Li  Li7  1  0.47184100  0.75655500  0.94060300  1
  Li  Li8  1  0.95771000  0.19484300  0.47028700  1
  Li  Li9  1  0.98732000  0.50518400  0.11089100  1
  Li  Li10  1  0.49454000  0.97386300  0.38211200  1
  Li  Li11  1  0.47293800  0.56939300  0.72747900  1
  Li  Li12  1  0.00503000  0.09844100  0.25330100  1
  Li  Li13  1  0.52446300  0.86008500  0.16937400  1
  Mn  Mn14  1  0.50561100  0.50158700  0.49385100  1
  Mn  Mn15  1  0.00105900  0.96323500  0.03739400  1
  O  O16  1  0.25056700  0.16383400  0.59786400  1
  O  O17  1  0.29205900  0.03911900  0.19784100  1
  O  O18  1  0.15802300  0.79836500  0.96386600  1
  O  O19  1  0.67071700  0.31375200  0.43458100  1
  O  O20  1  0.69482000  0.63212200  0.10648700  1
  O  O21  1  0.34202900  0.70149000  0.53876200  1
  O  O22  1  0.82645200  0.17507000  0.06012100  1
  O  O23  1  0.77849500  0.84133800  0.39024100  1
  F  F24  1  0.83078400  0.59069500  0.70893800  1
  F  F25  1  0.28385500  0.38309500  0.89088400  1
  F  F26  1  0.68827400  0.92668900  0.78828000  1
  F  F27  1  0.17573200  0.44329800  0.28795600  1
