# generated using pymatgen
data_Li4Co3Cu2Sb3O16
_symmetry_space_group_name_H-M   'P 1'
_cell_length_a   10.46779863
_cell_length_b   5.96611520
_cell_length_c   9.77810578
_cell_angle_alpha   90.00000000
_cell_angle_beta   91.97605923
_cell_angle_gamma   90.00000000
_symmetry_Int_Tables_number   1
_chemical_formula_structural   Li4Co3Cu2Sb3O16
_chemical_formula_sum   'Li8 Co6 Cu4 Sb6 O32'
_cell_volume   610.30001867
_cell_formula_units_Z   2
loop_
 _symmetry_equiv_pos_site_id
 _symmetry_equiv_pos_as_xyz
  1  'x, y, z'
loop_
 _atom_site_type_symbol
 _atom_site_label
 _atom_site_symmetry_multiplicity
 _atom_site_fract_x
 _atom_site_fract_y
 _atom_site_fract_z
 _atom_site_occupancy
  Li  Li0  1  0.17989050  0.50000000  0.88360800  1
  Li  Li1  1  0.46584750  0.50000000  0.98662300  1
  Li  Li2  1  0.49173750  0.50000000  0.50400500  1
  Li  Li3  1  0.32514900  0.00000000  0.39846500  1
  Li  Li4  1  0.67989050  0.00000000  0.88360800  1
  Li  Li5  1  0.96584750  0.00000000  0.98662300  1
  Li  Li6  1  0.99173750  0.00000000  0.50400500  1
  Li  Li7  1  0.82514900  0.50000000  0.39846500  1
  Co  Co8  1  0.32228300  0.50000000  0.21676100  1
  Co  Co9  1  0.42991650  0.75619050  0.71402700  1
  Co  Co10  1  0.42991650  0.24380950  0.71402700  1
  Co  Co11  1  0.82228300  0.00000000  0.21676100  1
  Co  Co12  1  0.92991650  0.25619050  0.71402700  1
  Co  Co13  1  0.92991650  0.74380950  0.71402700  1
  Cu  Cu14  1  0.17599100  0.50000000  0.50451600  1
  Cu  Cu15  1  0.35233600  0.00000000  0.98227600  1
  Cu  Cu16  1  0.67599100  0.00000000  0.50451600  1
  Cu  Cu17  1  0.85233600  0.50000000  0.98227600  1
  Sb  Sb18  1  0.07579100  0.24815500  0.21499700  1
  Sb  Sb19  1  0.07579100  0.75184500  0.21499700  1
  Sb  Sb20  1  0.18286100  0.00000000  0.71551900  1
  Sb  Sb21  1  0.57579100  0.74815500  0.21499700  1
  Sb  Sb22  1  0.57579100  0.25184500  0.21499700  1
  Sb  Sb23  1  0.68286100  0.50000000  0.71551900  1
  O  O24  1  0.08744750  0.24126550  0.60381700  1
  O  O25  1  0.00258600  0.50000000  0.33105900  1
  O  O26  1  0.14820950  0.50000000  0.09745800  1
  O  O27  1  0.49825550  0.50000000  0.32098500  1
  O  O28  1  0.01389850  0.00000000  0.81070900  1
  O  O29  1  0.08744750  0.75873450  0.60381700  1
  O  O30  1  0.22996100  0.26428600  0.33668400  1
  O  O31  1  0.22996100  0.73571400  0.33668400  1
  O  O32  1  0.14146900  0.00000000  0.09990100  1
  O  O33  1  0.35267200  0.50000000  0.61669400  1
  O  O34  1  0.28186550  0.77641450  0.83527800  1
  O  O35  1  0.28186550  0.22358550  0.83527800  1
  O  O36  1  0.34578150  0.00000000  0.60945600  1
  O  O37  1  0.41314300  0.74118600  0.10127900  1
  O  O38  1  0.50010100  0.00000000  0.81202500  1
  O  O39  1  0.41314300  0.25881400  0.10127900  1
  O  O40  1  0.58744750  0.74126550  0.60381700  1
  O  O41  1  0.50258600  0.00000000  0.33105900  1
  O  O42  1  0.64820950  0.00000000  0.09745800  1
  O  O43  1  0.99825550  0.00000000  0.32098500  1
  O  O44  1  0.51389850  0.50000000  0.81070900  1
  O  O45  1  0.58744750  0.25873450  0.60381700  1
  O  O46  1  0.72996100  0.76428600  0.33668400  1
  O  O47  1  0.72996100  0.23571400  0.33668400  1
  O  O48  1  0.64146900  0.50000000  0.09990100  1
  O  O49  1  0.85267200  0.00000000  0.61669400  1
  O  O50  1  0.78186550  0.27641450  0.83527800  1
  O  O51  1  0.78186550  0.72358550  0.83527800  1
  O  O52  1  0.84578150  0.50000000  0.60945600  1
  O  O53  1  0.91314300  0.24118600  0.10127900  1
  O  O54  1  0.00010100  0.50000000  0.81202500  1
  O  O55  1  0.91314300  0.75881400  0.10127900  1
