# generated using pymatgen
data_LiCo(CO3)2
_symmetry_space_group_name_H-M   'P 1'
_cell_length_a   8.68680400
_cell_length_b   4.96491600
_cell_length_c   6.14010462
_cell_angle_alpha   90.00000000
_cell_angle_beta   115.62184793
_cell_angle_gamma   90.00000000
_symmetry_Int_Tables_number   1
_chemical_formula_structural   LiCo(CO3)2
_chemical_formula_sum   'Li2 Co2 C4 O12'
_cell_volume   238.77794517
_cell_formula_units_Z   2
loop_
 _symmetry_equiv_pos_site_id
 _symmetry_equiv_pos_as_xyz
  1  'x, y, z'
loop_
 _atom_site_type_symbol
 _atom_site_label
 _atom_site_symmetry_multiplicity
 _atom_site_fract_x
 _atom_site_fract_y
 _atom_site_fract_z
 _atom_site_occupancy
  Li  Li0  1  0.00000000  0.00000000  0.50000000  1
  Li  Li1  1  0.50000000  0.50000000  0.50000000  1
  Co  Co2  1  0.00000000  0.00000000  0.00000000  1
  Co  Co3  1  0.50000000  0.50000000  0.00000000  1
  C  C4  1  0.40081100  0.00000000  0.21751400  1
  C  C5  1  0.09918900  0.50000000  0.78248600  1
  C  C6  1  0.90081100  0.50000000  0.21751400  1
  C  C7  1  0.59918900  0.00000000  0.78248600  1
  O  O8  1  0.47966850  0.22575750  0.23711500  1
  O  O9  1  0.02033150  0.72575750  0.76288500  1
  O  O10  1  0.24858400  0.00000000  0.20021700  1
  O  O11  1  0.25141600  0.50000000  0.79978300  1
  O  O12  1  0.47966850  0.77424250  0.23711500  1
  O  O13  1  0.02033150  0.27424250  0.76288500  1
  O  O14  1  0.97966850  0.72575750  0.23711500  1
  O  O15  1  0.52033150  0.22575750  0.76288500  1
  O  O16  1  0.74858400  0.50000000  0.20021700  1
  O  O17  1  0.75141600  0.00000000  0.79978300  1
  O  O18  1  0.97966850  0.27424250  0.23711500  1
  O  O19  1  0.52033150  0.77424250  0.76288500  1
