# generated using pymatgen
data_Mn2F5
_symmetry_space_group_name_H-M   'P 1'
_cell_length_a   10.95732800
_cell_length_b   5.30797000
_cell_length_c   7.97923614
_cell_angle_alpha   90.00000000
_cell_angle_beta   112.49952999
_cell_angle_gamma   90.00000000
_symmetry_Int_Tables_number   1
_chemical_formula_structural   Mn2F5
_chemical_formula_sum   'Mn8 F20'
_cell_volume   428.75703708
_cell_formula_units_Z   4
loop_
 _symmetry_equiv_pos_site_id
 _symmetry_equiv_pos_as_xyz
  1  'x, y, z'
loop_
 _atom_site_type_symbol
 _atom_site_label
 _atom_site_symmetry_multiplicity
 _atom_site_fract_x
 _atom_site_fract_y
 _atom_site_fract_z
 _atom_site_occupancy
  Mn  Mn0  1  0.11791950  0.47840250  0.70387800  1
  Mn  Mn1  1  0.11791950  0.52159750  0.20387800  1
  Mn  Mn2  1  0.38208050  0.97840250  0.79612200  1
  Mn  Mn3  1  0.38208050  0.02159750  0.29612200  1
  Mn  Mn4  1  0.61791950  0.97840250  0.70387800  1
  Mn  Mn5  1  0.61791950  0.02159750  0.20387800  1
  Mn  Mn6  1  0.88208050  0.47840250  0.79612200  1
  Mn  Mn7  1  0.88208050  0.52159750  0.29612200  1
  F  F8  1  0.07231050  0.36372150  0.42990100  1
  F  F9  1  0.27818400  0.26884000  0.81148900  1
  F  F10  1  0.27818400  0.73116000  0.31148900  1
  F  F11  1  0.07231050  0.63627850  0.92990100  1
  F  F12  1  0.00000000  0.22375000  0.75000000  1
  F  F13  1  0.42768950  0.86372150  0.07009900  1
  F  F14  1  0.22181600  0.76884000  0.68851100  1
  F  F15  1  0.22181600  0.23116000  0.18851100  1
  F  F16  1  0.42768950  0.13627850  0.57009900  1
  F  F17  1  0.00000000  0.77625000  0.25000000  1
  F  F18  1  0.57231050  0.86372150  0.42990100  1
  F  F19  1  0.77818400  0.76884000  0.81148900  1
  F  F20  1  0.77818400  0.23116000  0.31148900  1
  F  F21  1  0.57231050  0.13627850  0.92990100  1
  F  F22  1  0.50000000  0.72375000  0.75000000  1
  F  F23  1  0.92768950  0.36372150  0.07009900  1
  F  F24  1  0.72181600  0.26884000  0.68851100  1
  F  F25  1  0.72181600  0.73116000  0.18851100  1
  F  F26  1  0.92768950  0.63627850  0.57009900  1
  F  F27  1  0.50000000  0.27625000  0.25000000  1
