# generated using pymatgen
data_LiFePO4
_symmetry_space_group_name_H-M   'P 1'
_cell_length_a   5.70060300
_cell_length_b   5.85886400
_cell_length_c   8.06793300
_cell_angle_alpha   90.00000000
_cell_angle_beta   90.00000000
_cell_angle_gamma   90.00000000
_symmetry_Int_Tables_number   1
_chemical_formula_structural   LiFePO4
_chemical_formula_sum   'Li4 Fe4 P4 O16'
_cell_volume   269.46135975
_cell_formula_units_Z   4
loop_
 _symmetry_equiv_pos_site_id
 _symmetry_equiv_pos_as_xyz
  1  'x, y, z'
loop_
 _atom_site_type_symbol
 _atom_site_label
 _atom_site_symmetry_multiplicity
 _atom_site_fract_x
 _atom_site_fract_y
 _atom_site_fract_z
 _atom_site_occupancy
  Li  Li0  1  0.75000000  0.75000000  0.75000000  1
  Li  Li1  1  0.25000000  0.75000000  0.75000000  1
  Li  Li2  1  0.25000000  0.25000000  0.25000000  1
  Li  Li3  1  0.75000000  0.25000000  0.25000000  1
  Fe  Fe4  1  0.00000000  0.00000000  0.00000000  1
  Fe  Fe5  1  0.50000000  0.00000000  0.50000000  1
  Fe  Fe6  1  0.50000000  0.50000000  0.50000000  1
  Fe  Fe7  1  0.00000000  0.50000000  0.00000000  1
  P  P8  1  0.50000000  0.25000000  0.87105150  1
  P  P9  1  0.00000000  0.25000000  0.62894850  1
  P  P10  1  0.00000000  0.75000000  0.37105150  1
  P  P11  1  0.50000000  0.75000000  0.12894850  1
  O  O12  1  0.00000000  0.02950325  0.73678700  1
  O  O13  1  0.50000000  0.02950325  0.76321300  1
  O  O14  1  0.00000000  0.47049675  0.73678700  1
  O  O15  1  0.50000000  0.47049675  0.76321300  1
  O  O16  1  0.72299400  0.25000000  0.98727250  1
  O  O17  1  0.27700600  0.25000000  0.98727250  1
  O  O18  1  0.77700600  0.25000000  0.51272750  1
  O  O19  1  0.22299400  0.25000000  0.51272750  1
  O  O20  1  0.50000000  0.52950325  0.23678700  1
  O  O21  1  0.00000000  0.52950325  0.26321300  1
  O  O22  1  0.50000000  0.97049675  0.23678700  1
  O  O23  1  0.00000000  0.97049675  0.26321300  1
  O  O24  1  0.22299400  0.75000000  0.48727250  1
  O  O25  1  0.77700600  0.75000000  0.48727250  1
  O  O26  1  0.27700600  0.75000000  0.01272750  1
  O  O27  1  0.72299400  0.75000000  0.01272750  1
