# generated using pymatgen
data_Li2V(OF)2
_symmetry_space_group_name_H-M   'P 1'
_cell_length_a   5.04606300
_cell_length_b   11.23899700
_cell_length_c   5.16359612
_cell_angle_alpha   90.00000000
_cell_angle_beta   91.23481413
_cell_angle_gamma   90.00000000
_symmetry_Int_Tables_number   1
_chemical_formula_structural   Li2V(OF)2
_chemical_formula_sum   'Li8 V4 O8 F8'
_cell_volume   292.77340481
_cell_formula_units_Z   4
loop_
 _symmetry_equiv_pos_site_id
 _symmetry_equiv_pos_as_xyz
  1  'x, y, z'
loop_
 _atom_site_type_symbol
 _atom_site_label
 _atom_site_symmetry_multiplicity
 _atom_site_fract_x
 _atom_site_fract_y
 _atom_site_fract_z
 _atom_site_occupancy
  Li  Li0  1  0.99827700  0.63942100  0.24847800  1
  Li  Li1  1  0.99827700  0.36057900  0.74847800  1
  Li  Li2  1  0.00151500  0.78422000  0.74491600  1
  Li  Li3  1  0.00151500  0.21578000  0.24491600  1
  Li  Li4  1  0.50343600  0.14066400  0.22569900  1
  Li  Li5  1  0.49076300  0.71348500  0.24848900  1
  Li  Li6  1  0.49076300  0.28651500  0.74848900  1
  Li  Li7  1  0.50343600  0.85933600  0.72569900  1
  V  V8  1  0.99429800  0.92658600  0.28632100  1
  V  V9  1  0.99429800  0.07341400  0.78632100  1
  V  V10  1  0.49863400  0.44808200  0.24796500  1
  V  V11  1  0.49863400  0.55191800  0.74796500  1
  O  O12  1  0.80955100  0.94794600  0.59176800  1
  O  O13  1  0.80955100  0.05205400  0.09176800  1
  O  O14  1  0.70941000  0.44753900  0.57473600  1
  O  O15  1  0.70941000  0.55246100  0.07473600  1
  O  O16  1  0.29014900  0.55393700  0.41914200  1
  O  O17  1  0.29014900  0.44606300  0.91914200  1
  O  O18  1  0.21934700  0.81897000  0.40052800  1
  O  O19  1  0.21934700  0.18103000  0.90052800  1
  F  F20  1  0.77531900  0.80681600  0.08968000  1
  F  F21  1  0.77531900  0.19318400  0.58968000  1
  F  F22  1  0.71082500  0.69370500  0.59018000  1
  F  F23  1  0.71082500  0.30629500  0.09018000  1
  F  F24  1  0.28199400  0.69079000  0.90650300  1
  F  F25  1  0.28199400  0.30921000  0.40650300  1
  F  F26  1  0.21648100  0.93465100  0.92559400  1
  F  F27  1  0.21648100  0.06534900  0.42559400  1
