# generated using pymatgen
data_Li7Ni5O12
_symmetry_space_group_name_H-M   'P 1'
_cell_length_a   4.92672600
_cell_length_b   8.58363400
_cell_length_c   9.60148920
_cell_angle_alpha   90.00000000
_cell_angle_beta   100.02214133
_cell_angle_gamma   90.00000000
_symmetry_Int_Tables_number   1
_chemical_formula_structural   Li7Ni5O12
_chemical_formula_sum   'Li14 Ni10 O24'
_cell_volume   399.84349210
_cell_formula_units_Z   2
loop_
 _symmetry_equiv_pos_site_id
 _symmetry_equiv_pos_as_xyz
  1  'x, y, z'
loop_
 _atom_site_type_symbol
 _atom_site_label
 _atom_site_symmetry_multiplicity
 _atom_site_fract_x
 _atom_site_fract_y
 _atom_site_fract_z
 _atom_site_occupancy
  Li  Li0  1  0.75592450  0.74721450  0.24532000  1
  Li  Li1  1  0.24362850  0.58617850  0.24498100  1
  Li  Li2  1  0.75615100  0.91510600  0.75367400  1
  Li  Li3  1  0.24407550  0.74721450  0.75468000  1
  Li  Li4  1  0.75637150  0.58617850  0.75501900  1
  Li  Li5  1  0.24384900  0.91510600  0.24632600  1
  Li  Li6  1  0.00000000  0.74784900  0.00000000  1
  Li  Li7  1  0.25592450  0.24721450  0.24532000  1
  Li  Li8  1  0.74362850  0.08617850  0.24498100  1
  Li  Li9  1  0.25615100  0.41510600  0.75367400  1
  Li  Li10  1  0.74407550  0.24721450  0.75468000  1
  Li  Li11  1  0.25637150  0.08617850  0.75501900  1
  Li  Li12  1  0.74384900  0.41510600  0.24632600  1
  Li  Li13  1  0.50000000  0.24784900  0.00000000  1
  Ni  Ni14  1  0.50000000  0.58099900  0.00000000  1
  Ni  Ni15  1  0.50000000  0.75129000  0.50000000  1
  Ni  Ni16  1  0.00000000  0.58681200  0.50000000  1
  Ni  Ni17  1  0.50000000  0.91443200  0.00000000  1
  Ni  Ni18  1  0.00000000  0.92072600  0.50000000  1
  Ni  Ni19  1  0.00000000  0.08099900  0.00000000  1
  Ni  Ni20  1  0.00000000  0.25129000  0.50000000  1
  Ni  Ni21  1  0.50000000  0.08681200  0.50000000  1
  Ni  Ni22  1  0.00000000  0.41443200  0.00000000  1
  Ni  Ni23  1  0.50000000  0.42072600  0.50000000  1
  O  O24  1  0.35156600  0.58239400  0.61408000  1
  O  O25  1  0.14274850  0.56735350  0.89092900  1
  O  O26  1  0.60302650  0.74795650  0.88968100  1
  O  O27  1  0.85725150  0.56735350  0.10907100  1
  O  O28  1  0.64843400  0.58239400  0.38592000  1
  O  O29  1  0.39697350  0.74795650  0.11031900  1
  O  O30  1  0.11375050  0.74536750  0.38368100  1
  O  O31  1  0.85723350  0.92804150  0.10996600  1
  O  O32  1  0.63993800  0.92933400  0.39068100  1
  O  O33  1  0.88624950  0.74536750  0.61631900  1
  O  O34  1  0.36006200  0.92933400  0.60931900  1
  O  O35  1  0.14276650  0.92804150  0.89003400  1
  O  O36  1  0.85156600  0.08239400  0.61408000  1
  O  O37  1  0.64274850  0.06735350  0.89092900  1
  O  O38  1  0.10302650  0.24795650  0.88968100  1
  O  O39  1  0.35725150  0.06735350  0.10907100  1
  O  O40  1  0.14843400  0.08239400  0.38592000  1
  O  O41  1  0.89697350  0.24795650  0.11031900  1
  O  O42  1  0.61375050  0.24536750  0.38368100  1
  O  O43  1  0.35723350  0.42804150  0.10996600  1
  O  O44  1  0.13993800  0.42933400  0.39068100  1
  O  O45  1  0.38624950  0.24536750  0.61631900  1
  O  O46  1  0.86006200  0.42933400  0.60931900  1
  O  O47  1  0.64276650  0.42804150  0.89003400  1
