# generated using pymatgen
data_LiV2PO7
_symmetry_space_group_name_H-M   'P 1'
_cell_length_a   5.12178585
_cell_length_b   9.67020200
_cell_length_c   5.35747308
_cell_angle_alpha   90.00000000
_cell_angle_beta   102.76151859
_cell_angle_gamma   90.00000000
_symmetry_Int_Tables_number   1
_chemical_formula_structural   LiV2PO7
_chemical_formula_sum   'Li2 V4 P2 O14'
_cell_volume   258.79403569
_cell_formula_units_Z   2
loop_
 _symmetry_equiv_pos_site_id
 _symmetry_equiv_pos_as_xyz
  1  'x, y, z'
loop_
 _atom_site_type_symbol
 _atom_site_label
 _atom_site_symmetry_multiplicity
 _atom_site_fract_x
 _atom_site_fract_y
 _atom_site_fract_z
 _atom_site_occupancy
  Li  Li0  1  0.05149650  0.13461400  0.63092700  1
  Li  Li1  1  0.94850350  0.63461400  0.36907300  1
  V  V2  1  0.35519750  0.63783100  0.96635000  1
  V  V3  1  0.86652550  0.82810000  0.85958200  1
  V  V4  1  0.64480250  0.13783100  0.03365000  1
  V  V5  1  0.13347450  0.32810000  0.14041800  1
  P  P6  1  0.61373550  0.39812800  0.62097600  1
  P  P7  1  0.38626450  0.89812800  0.37902400  1
  O  O8  1  0.31584650  0.21385400  0.95037700  1
  O  O9  1  0.79719950  0.29656200  0.82317800  1
  O  O10  1  0.45487950  0.48934900  0.77420700  1
  O  O11  1  0.83919550  0.01113200  0.86319100  1
  O  O12  1  0.59123950  0.79986900  0.55063800  1
  O  O13  1  0.09036650  0.71142300  0.72211300  1
  O  O14  1  0.77810350  0.47913900  0.47296900  1
  O  O15  1  0.40876050  0.29986900  0.44936200  1
  O  O16  1  0.22189650  0.97913900  0.52703100  1
  O  O17  1  0.90963350  0.21142300  0.27788700  1
  O  O18  1  0.54512050  0.98934900  0.22579300  1
  O  O19  1  0.16080450  0.51113200  0.13680900  1
  O  O20  1  0.68415350  0.71385400  0.04962300  1
  O  O21  1  0.20280050  0.79656200  0.17682200  1
