# generated using pymatgen
data_Li2V3CrO8
_symmetry_space_group_name_H-M   'P 1'
_cell_length_a   8.35828200
_cell_length_b   8.46114500
_cell_length_c   8.47752979
_cell_angle_alpha   90.00000000
_cell_angle_beta   90.37625099
_cell_angle_gamma   90.00000000
_symmetry_Int_Tables_number   1
_chemical_formula_structural   Li2V3CrO8
_chemical_formula_sum   'Li8 V12 Cr4 O32'
_cell_volume   599.52337103
_cell_formula_units_Z   4
loop_
 _symmetry_equiv_pos_site_id
 _symmetry_equiv_pos_as_xyz
  1  'x, y, z'
loop_
 _atom_site_type_symbol
 _atom_site_label
 _atom_site_symmetry_multiplicity
 _atom_site_fract_x
 _atom_site_fract_y
 _atom_site_fract_z
 _atom_site_occupancy
  Li  Li0  1  0.25511100  0.99556600  0.50173500  1
  Li  Li1  1  0.49728400  0.75239700  0.74593400  1
  Li  Li2  1  0.99497800  0.24223000  0.75621900  1
  Li  Li3  1  0.75538800  0.00236300  0.99485300  1
  Li  Li4  1  0.24461200  0.50236300  0.00514700  1
  Li  Li5  1  0.00502200  0.74223000  0.24378100  1
  Li  Li6  1  0.50271600  0.25239700  0.25406600  1
  Li  Li7  1  0.74488900  0.49556600  0.49826500  1
  V  V8  1  0.87863700  0.87197100  0.62137600  1
  V  V9  1  0.11817100  0.61916600  0.62408300  1
  V  V10  1  0.37303700  0.37852700  0.62935000  1
  V  V11  1  0.87179100  0.62698900  0.87168600  1
  V  V12  1  0.62255600  0.37350000  0.87786800  1
  V  V13  1  0.37594700  0.13030700  0.87803700  1
  V  V14  1  0.62405300  0.63030700  0.12196300  1
  V  V15  1  0.37744400  0.87350000  0.12213200  1
  V  V16  1  0.12820900  0.12698900  0.12831400  1
  V  V17  1  0.62696300  0.87852700  0.37065000  1
  V  V18  1  0.88182900  0.11916600  0.37591700  1
  V  V19  1  0.12136300  0.37197100  0.37862400  1
  Cr  Cr20  1  0.62445000  0.12479800  0.62600700  1
  Cr  Cr21  1  0.12514200  0.87574400  0.87699200  1
  Cr  Cr22  1  0.87485800  0.37574400  0.12300800  1
  Cr  Cr23  1  0.37555000  0.62479800  0.37399300  1
  O  O24  1  0.64421800  0.88502400  0.60870300  1
  O  O25  1  0.86468500  0.10728000  0.61075500  1
  O  O26  1  0.13327500  0.38066900  0.61581500  1
  O  O27  1  0.10592300  0.86221100  0.63553700  1
  O  O28  1  0.36661300  0.60282600  0.61397800  1
  O  O29  1  0.87470200  0.63866000  0.63711400  1
  O  O30  1  0.61067500  0.36303300  0.64123400  1
  O  O31  1  0.38205300  0.14927000  0.63898500  1
  O  O32  1  0.88275900  0.86024100  0.85654400  1
  O  O33  1  0.09993200  0.63283300  0.86518900  1
  O  O34  1  0.39283800  0.37882200  0.86626900  1
  O  O35  1  0.85458600  0.38825400  0.88380400  1
  O  O36  1  0.61663900  0.14290100  0.86470300  1
  O  O37  1  0.64139600  0.61607800  0.88366300  1
  O  O38  1  0.36645200  0.88602400  0.88962800  1
  O  O39  1  0.13787800  0.11157700  0.89305200  1
  O  O40  1  0.86212200  0.61157700  0.10694800  1
  O  O41  1  0.63354800  0.38602400  0.11037200  1
  O  O42  1  0.35860400  0.11607800  0.11633700  1
  O  O43  1  0.38336100  0.64290100  0.13529700  1
  O  O44  1  0.14541400  0.88825400  0.11619600  1
  O  O45  1  0.60716200  0.87882200  0.13373100  1
  O  O46  1  0.90006800  0.13283300  0.13481100  1
  O  O47  1  0.11724100  0.36024100  0.14345600  1
  O  O48  1  0.61794700  0.64927000  0.36101500  1
  O  O49  1  0.38932500  0.86303300  0.35876600  1
  O  O50  1  0.12529800  0.13866000  0.36288600  1
  O  O51  1  0.63338700  0.10282600  0.38602200  1
  O  O52  1  0.89407700  0.36221100  0.36446300  1
  O  O53  1  0.86672500  0.88066900  0.38418500  1
  O  O54  1  0.13531500  0.60728000  0.38924500  1
  O  O55  1  0.35578200  0.38502400  0.39129700  1
