# generated using pymatgen
data_Ti3V2Fe(PO4)6
_symmetry_space_group_name_H-M   'P 1'
_cell_length_a   8.70420757
_cell_length_b   8.70420757
_cell_length_c   20.74916110
_cell_angle_alpha   90.00000000
_cell_angle_beta   90.00000000
_cell_angle_gamma   120.00000000
_symmetry_Int_Tables_number   1
_chemical_formula_structural   Ti3V2Fe(PO4)6
_chemical_formula_sum   'Ti9 V6 Fe3 P18 O72'
_cell_volume   1361.41224530
_cell_formula_units_Z   3
loop_
 _symmetry_equiv_pos_site_id
 _symmetry_equiv_pos_as_xyz
  1  'x, y, z'
loop_
 _atom_site_type_symbol
 _atom_site_label
 _atom_site_symmetry_multiplicity
 _atom_site_fract_x
 _atom_site_fract_y
 _atom_site_fract_z
 _atom_site_occupancy
  Ti  Ti0  1  0.33333333  0.66666667  0.02192367  1
  Ti  Ti1  1  0.33333333  0.66666667  0.80890767  1
  Ti  Ti2  1  0.33333333  0.66666667  0.31173467  1
  Ti  Ti3  1  0.00000000  0.00000000  0.35525700  1
  Ti  Ti4  1  0.00000000  0.00000000  0.14224100  1
  Ti  Ti5  1  0.00000000  0.00000000  0.64506800  1
  Ti  Ti6  1  0.66666667  0.33333333  0.68859033  1
  Ti  Ti7  1  0.66666667  0.33333333  0.47557433  1
  Ti  Ti8  1  0.66666667  0.33333333  0.97840133  1
  V  V9  1  0.33333333  0.66666667  0.66543567  1
  V  V10  1  0.33333333  0.66666667  0.16567067  1
  V  V11  1  0.00000000  0.00000000  0.99876900  1
  V  V12  1  0.00000000  0.00000000  0.49900400  1
  V  V13  1  0.66666667  0.33333333  0.33210233  1
  V  V14  1  0.66666667  0.33333333  0.83233733  1
  Fe  Fe15  1  0.33333333  0.66666667  0.52321267  1
  Fe  Fe16  1  0.00000000  0.00000000  0.85654600  1
  Fe  Fe17  1  0.66666667  0.33333333  0.18987933  1
  P  P18  1  0.66692100  0.62859300  0.08449700  1
  P  P19  1  0.96167200  0.33307900  0.08449700  1
  P  P20  1  0.37140700  0.03832800  0.08449700  1
  P  P21  1  0.29291967  0.29462533  0.24990533  1
  P  P22  1  0.70537467  0.99829433  0.24990533  1
  P  P23  1  0.00170567  0.70708033  0.24990533  1
  P  P24  1  0.33358767  0.96192633  0.41783033  1
  P  P25  1  0.62833867  0.66641233  0.41783033  1
  P  P26  1  0.03807367  0.37166133  0.41783033  1
  P  P27  1  0.95958633  0.62795867  0.58323867  1
  P  P28  1  0.37204133  0.33162767  0.58323867  1
  P  P29  1  0.66837233  0.04041367  0.58323867  1
  P  P30  1  0.00025433  0.29525967  0.75116367  1
  P  P31  1  0.29500533  0.99974567  0.75116367  1
  P  P32  1  0.70474033  0.70499467  0.75116367  1
  P  P33  1  0.62625300  0.96129200  0.91657200  1
  P  P34  1  0.03870800  0.66496100  0.91657200  1
  P  P35  1  0.33503900  0.37374700  0.91657200  1
  O  O36  1  0.52498367  0.67119533  0.35669433  1
  O  O37  1  0.14621167  0.47501633  0.35669433  1
  O  O38  1  0.32880467  0.85378833  0.35669433  1
  O  O39  1  0.83392600  0.81730600  0.07469700  1
  O  O40  1  0.67121367  0.54119433  0.14593733  1
  O  O41  1  0.50140267  0.65520333  0.08798933  1
  O  O42  1  0.98338000  0.16607400  0.07469700  1
  O  O43  1  0.15380067  0.49859733  0.08798933  1
  O  O44  1  0.52580667  0.85531333  0.85540033  1
  O  O45  1  0.34479667  0.84619933  0.08798933  1
  O  O46  1  0.47456133  0.31264267  0.26083967  1
  O  O47  1  0.14468667  0.67049333  0.85540033  1
  O  O48  1  0.86998067  0.32878633  0.14593733  1
  O  O49  1  0.18269400  0.01662000  0.07469700  1
  O  O50  1  0.31160233  0.48206367  0.24225667  1
  O  O51  1  0.45880567  0.13001933  0.14593733  1
  O  O52  1  0.51793633  0.82953867  0.24225667  1
  O  O53  1  0.68735733  0.16191867  0.26083967  1
  O  O54  1  0.17046133  0.68839767  0.24225667  1
  O  O55  1  0.32950667  0.47419333  0.85540033  1
  O  O56  1  0.83808133  0.52543867  0.26083967  1
  O  O57  1  0.35273200  0.48934600  0.97615100  1
  O  O58  1  0.51065400  0.86338600  0.97615100  1
  O  O59  1  0.13661400  0.64726800  0.97615100  1
  O  O60  1  0.19165033  0.00452867  0.69002767  1
  O  O61  1  0.81287833  0.80834967  0.69002767  1
  O  O62  1  0.99547133  0.18712167  0.69002767  1
  O  O63  1  0.50059267  0.15063933  0.40803033  1
  O  O64  1  0.33788033  0.87452767  0.47927067  1
  O  O65  1  0.16806933  0.98853667  0.42132267  1
  O  O66  1  0.65004667  0.49940733  0.40803033  1
  O  O67  1  0.82046733  0.83193067  0.42132267  1
  O  O68  1  0.19247333  0.18864667  0.18873367  1
  O  O69  1  0.01146333  0.17953267  0.42132267  1
  O  O70  1  0.14122800  0.64597600  0.59417300  1
  O  O71  1  0.81135333  0.00382667  0.18873367  1
  O  O72  1  0.53664733  0.66211967  0.47927067  1
  O  O73  1  0.84936067  0.34995333  0.40803033  1
  O  O74  1  0.97826900  0.81539700  0.57559000  1
  O  O75  1  0.12547233  0.46335267  0.47927067  1
  O  O76  1  0.18460300  0.16287200  0.57559000  1
  O  O77  1  0.35402400  0.49525200  0.59417300  1
  O  O78  1  0.83712800  0.02173100  0.57559000  1
  O  O79  1  0.99617333  0.80752667  0.18873367  1
  O  O80  1  0.50474800  0.85877200  0.59417300  1
  O  O81  1  0.01939867  0.82267933  0.30948433  1
  O  O82  1  0.17732067  0.19671933  0.30948433  1
  O  O83  1  0.80328067  0.98060133  0.30948433  1
  O  O84  1  0.85831700  0.33786200  0.02336100  1
  O  O85  1  0.47954500  0.14168300  0.02336100  1
  O  O86  1  0.66213800  0.52045500  0.02336100  1
  O  O87  1  0.16725933  0.48397267  0.74136367  1
  O  O88  1  0.00454700  0.20786100  0.81260400  1
  O  O89  1  0.83473600  0.32187000  0.75465600  1
  O  O90  1  0.31671333  0.83274067  0.74136367  1
  O  O91  1  0.48713400  0.16526400  0.75465600  1
  O  O92  1  0.85914000  0.52198000  0.52206700  1
  O  O93  1  0.67813000  0.51286600  0.75465600  1
  O  O94  1  0.80789467  0.97930933  0.92750633  1
  O  O95  1  0.47802000  0.33716000  0.52206700  1
  O  O96  1  0.20331400  0.99545300  0.81260400  1
  O  O97  1  0.51602733  0.68328667  0.74136367  1
  O  O98  1  0.64493567  0.14873033  0.90892333  1
  O  O99  1  0.79213900  0.79668600  0.81260400  1
  O  O100  1  0.85126967  0.49620533  0.90892333  1
  O  O101  1  0.02069067  0.82858533  0.92750633  1
  O  O102  1  0.50379467  0.35506433  0.90892333  1
  O  O103  1  0.66284000  0.14086000  0.52206700  1
  O  O104  1  0.17141467  0.19210533  0.92750633  1
  O  O105  1  0.68606533  0.15601267  0.64281767  1
  O  O106  1  0.84398733  0.53005267  0.64281767  1
  O  O107  1  0.46994733  0.31393467  0.64281767  1
