# generated using pymatgen
data_Li5Mn3(NiO5)2
_symmetry_space_group_name_H-M   'P 1'
_cell_length_a   5.04879229
_cell_length_b   5.15040182
_cell_length_c   7.87258211
_cell_angle_alpha   107.37075584
_cell_angle_beta   102.90080174
_cell_angle_gamma   99.42651766
_symmetry_Int_Tables_number   1
_chemical_formula_structural   Li5Mn3(NiO5)2
_chemical_formula_sum   'Li5 Mn3 Ni2 O10'
_cell_volume   184.51007405
_cell_formula_units_Z   1
loop_
 _symmetry_equiv_pos_site_id
 _symmetry_equiv_pos_as_xyz
  1  'x, y, z'
loop_
 _atom_site_type_symbol
 _atom_site_label
 _atom_site_symmetry_multiplicity
 _atom_site_fract_x
 _atom_site_fract_y
 _atom_site_fract_z
 _atom_site_occupancy
  Li  Li0  1  0.77256600  0.50958300  0.42497700  1
  Li  Li1  1  0.62735200  0.51574900  0.76468000  1
  Li  Li2  1  0.00000000  0.00000000  0.50000000  1
  Li  Li3  1  0.37264800  0.48425100  0.23532000  1
  Li  Li4  1  0.22743400  0.49041700  0.57502300  1
  Mn  Mn5  1  0.00000000  0.50000000  0.00000000  1
  Mn  Mn6  1  0.79635600  0.00366100  0.89450700  1
  Mn  Mn7  1  0.20364400  0.99633900  0.10549300  1
  Ni  Ni8  1  0.41604800  0.00529300  0.68244200  1
  Ni  Ni9  1  0.58395200  0.99470700  0.31755800  1
  O  O10  1  0.16679500  0.23910700  0.87154600  1
  O  O11  1  0.40683400  0.78308400  0.95591900  1
  O  O12  1  0.59061700  0.75335500  0.55269300  1
  O  O13  1  0.01808200  0.24161400  0.21785800  1
  O  O14  1  0.80124400  0.23266300  0.67390500  1
  O  O15  1  0.19875600  0.76733700  0.32609500  1
  O  O16  1  0.98191800  0.75838600  0.78214200  1
  O  O17  1  0.40938300  0.24664500  0.44730700  1
  O  O18  1  0.59316600  0.21691600  0.04408100  1
  O  O19  1  0.83320500  0.76089300  0.12845400  1
