# generated using pymatgen
data_Li2MnFe2(PO4)3
_symmetry_space_group_name_H-M   'P 1'
_cell_length_a   14.61895400
_cell_length_b   8.95429000
_cell_length_c   8.47469740
_cell_angle_alpha   90.00000000
_cell_angle_beta   121.63368606
_cell_angle_gamma   90.00000000
_symmetry_Int_Tables_number   1
_chemical_formula_structural   Li2MnFe2(PO4)3
_chemical_formula_sum   'Li8 Mn4 Fe8 P12 O48'
_cell_volume   944.52802693
_cell_formula_units_Z   4
loop_
 _symmetry_equiv_pos_site_id
 _symmetry_equiv_pos_as_xyz
  1  'x, y, z'
loop_
 _atom_site_type_symbol
 _atom_site_label
 _atom_site_symmetry_multiplicity
 _atom_site_fract_x
 _atom_site_fract_y
 _atom_site_fract_z
 _atom_site_occupancy
  Li  Li0  1  0.50000000  0.64344550  0.00000000  1
  Li  Li1  1  0.50000000  0.34181800  0.50000000  1
  Li  Li2  1  0.70498800  0.95181900  0.90635100  1
  Li  Li3  1  0.29501200  0.95181900  0.09364900  1
  Li  Li4  1  0.00000000  0.14344550  0.00000000  1
  Li  Li5  1  0.00000000  0.84181800  0.50000000  1
  Li  Li6  1  0.20498800  0.45181900  0.90635100  1
  Li  Li7  1  0.79501200  0.45181900  0.09364900  1
  Mn  Mn8  1  0.25536350  0.25222850  0.25923000  1
  Mn  Mn9  1  0.74463650  0.25222850  0.74077000  1
  Mn  Mn10  1  0.75536350  0.75222850  0.25923000  1
  Mn  Mn11  1  0.24463650  0.75222850  0.74077000  1
  Fe  Fe12  1  0.60415000  0.75169800  0.39651600  1
  Fe  Fe13  1  0.39585000  0.75169800  0.60348400  1
  Fe  Fe14  1  0.59412250  0.24851150  0.90238600  1
  Fe  Fe15  1  0.40587750  0.24851150  0.09761400  1
  Fe  Fe16  1  0.10415000  0.25169800  0.39651600  1
  Fe  Fe17  1  0.89585000  0.25169800  0.60348400  1
  Fe  Fe18  1  0.09412250  0.74851150  0.90238600  1
  Fe  Fe19  1  0.90587750  0.74851150  0.09761400  1
  P  P20  1  0.15569950  0.90365250  0.31060700  1
  P  P21  1  0.84430050  0.90365250  0.68939300  1
  P  P22  1  0.50000000  0.94155200  0.00000000  1
  P  P23  1  0.50000000  0.04130400  0.50000000  1
  P  P24  1  0.14337000  0.10415500  0.80013900  1
  P  P25  1  0.85663000  0.10415500  0.19986100  1
  P  P26  1  0.65569950  0.40365250  0.31060700  1
  P  P27  1  0.34430050  0.40365250  0.68939300  1
  P  P28  1  0.00000000  0.44155200  0.00000000  1
  P  P29  1  0.00000000  0.54130400  0.50000000  1
  P  P30  1  0.64337000  0.60415500  0.80013900  1
  P  P31  1  0.35663000  0.60415500  0.19986100  1
  O  O32  1  0.35478000  0.66552600  0.36607000  1
  O  O33  1  0.44687200  0.94372200  0.57645200  1
  O  O34  1  0.16594600  0.07853700  0.31647100  1
  O  O35  1  0.53631100  0.64440100  0.78359100  1
  O  O36  1  0.54897750  0.35391650  0.28695300  1
  O  O37  1  0.24465550  0.83654250  0.49980200  1
  O  O38  1  0.75534450  0.83654250  0.50019800  1
  O  O39  1  0.83405400  0.07853700  0.68352900  1
  O  O40  1  0.55312800  0.94372200  0.42354800  1
  O  O41  1  0.41483650  0.83176050  0.84872800  1
  O  O42  1  0.41237600  0.14890900  0.35030000  1
  O  O43  1  0.64522000  0.66552600  0.63393000  1
  O  O44  1  0.82857750  0.85879450  0.84932000  1
  O  O45  1  0.58516350  0.83176050  0.15127200  1
  O  O46  1  0.58762400  0.14890900  0.64970000  1
  O  O47  1  0.43495200  0.03251500  0.06031400  1
  O  O48  1  0.16397850  0.93103650  0.80908400  1
  O  O49  1  0.23397100  0.16671500  0.99187500  1
  O  O50  1  0.76602900  0.16671500  0.00812500  1
  O  O51  1  0.46368900  0.64440100  0.21640900  1
  O  O52  1  0.45102250  0.35391650  0.71304700  1
  O  O53  1  0.83602150  0.93103650  0.19091600  1
  O  O54  1  0.56504800  0.03251500  0.93968600  1
  O  O55  1  0.17142250  0.85879450  0.15068000  1
  O  O56  1  0.85478000  0.16552600  0.36607000  1
  O  O57  1  0.94687200  0.44372200  0.57645200  1
  O  O58  1  0.66594600  0.57853700  0.31647100  1
  O  O59  1  0.03631100  0.14440100  0.78359100  1
  O  O60  1  0.04897750  0.85391650  0.28695300  1
  O  O61  1  0.74465550  0.33654250  0.49980200  1
  O  O62  1  0.25534450  0.33654250  0.50019800  1
  O  O63  1  0.33405400  0.57853700  0.68352900  1
  O  O64  1  0.05312800  0.44372200  0.42354800  1
  O  O65  1  0.91483650  0.33176050  0.84872800  1
  O  O66  1  0.91237600  0.64890900  0.35030000  1
  O  O67  1  0.14522000  0.16552600  0.63393000  1
  O  O68  1  0.32857750  0.35879450  0.84932000  1
  O  O69  1  0.08516350  0.33176050  0.15127200  1
  O  O70  1  0.08762400  0.64890900  0.64970000  1
  O  O71  1  0.93495200  0.53251500  0.06031400  1
  O  O72  1  0.66397850  0.43103650  0.80908400  1
  O  O73  1  0.73397100  0.66671500  0.99187500  1
  O  O74  1  0.26602900  0.66671500  0.00812500  1
  O  O75  1  0.96368900  0.14440100  0.21640900  1
  O  O76  1  0.95102250  0.85391650  0.71304700  1
  O  O77  1  0.33602150  0.43103650  0.19091600  1
  O  O78  1  0.06504800  0.53251500  0.93968600  1
  O  O79  1  0.67142250  0.35879450  0.15068000  1
