# generated using pymatgen
data_Li4MnCrO6
_symmetry_space_group_name_H-M   'P 1'
_cell_length_a   5.04509800
_cell_length_b   8.64625400
_cell_length_c   19.29164444
_cell_angle_alpha   90.00000000
_cell_angle_beta   95.61353179
_cell_angle_gamma   90.00000000
_symmetry_Int_Tables_number   1
_chemical_formula_structural   Li4MnCrO6
_chemical_formula_sum   'Li32 Mn8 Cr8 O48'
_cell_volume   837.48897856
_cell_formula_units_Z   8
loop_
 _symmetry_equiv_pos_site_id
 _symmetry_equiv_pos_as_xyz
  1  'x, y, z'
loop_
 _atom_site_type_symbol
 _atom_site_label
 _atom_site_symmetry_multiplicity
 _atom_site_fract_x
 _atom_site_fract_y
 _atom_site_fract_z
 _atom_site_occupancy
  Li  Li0  1  0.62465100  0.12504600  0.87501500  1
  Li  Li1  1  0.50000000  0.12336000  0.50000000  1
  Li  Li2  1  0.37344750  0.96477850  0.62504400  1
  Li  Li3  1  0.12575250  0.12471050  0.37517500  1
  Li  Li4  1  0.50000000  0.62767200  0.00000000  1
  Li  Li5  1  0.87424750  0.12471050  0.62482500  1
  Li  Li6  1  0.86660550  0.96389050  0.12527400  1
  Li  Li7  1  0.37534900  0.12504600  0.12498500  1
  Li  Li8  1  0.62256150  0.28670550  0.37539500  1
  Li  Li9  1  0.13339450  0.96389050  0.87472600  1
  Li  Li10  1  0.61684400  0.78608800  0.87531100  1
  Li  Li11  1  0.62655250  0.96477850  0.37495600  1
  Li  Li12  1  0.37743850  0.28670550  0.62460500  1
  Li  Li13  1  0.25040150  0.12251550  0.74994800  1
  Li  Li14  1  0.38315600  0.78608800  0.12468900  1
  Li  Li15  1  0.74959850  0.12251550  0.25005200  1
  Li  Li16  1  0.12465100  0.62504600  0.87501500  1
  Li  Li17  1  0.00000000  0.62336000  0.50000000  1
  Li  Li18  1  0.87344750  0.46477850  0.62504400  1
  Li  Li19  1  0.62575250  0.62471050  0.37517500  1
  Li  Li20  1  0.00000000  0.12767200  0.00000000  1
  Li  Li21  1  0.37424750  0.62471050  0.62482500  1
  Li  Li22  1  0.36660550  0.46389050  0.12527400  1
  Li  Li23  1  0.87534900  0.62504600  0.12498500  1
  Li  Li24  1  0.12256150  0.78670550  0.37539500  1
  Li  Li25  1  0.63339450  0.46389050  0.87472600  1
  Li  Li26  1  0.11684400  0.28608800  0.87531100  1
  Li  Li27  1  0.12655250  0.46477850  0.37495600  1
  Li  Li28  1  0.87743850  0.78670550  0.62460500  1
  Li  Li29  1  0.75040150  0.62251550  0.74994800  1
  Li  Li30  1  0.88315600  0.28608800  0.12468900  1
  Li  Li31  1  0.24959850  0.62251550  0.25005200  1
  Mn  Mn32  1  0.25013900  0.79248500  0.74993500  1
  Mn  Mn33  1  0.74986100  0.79248500  0.25006500  1
  Mn  Mn34  1  0.50000000  0.79247900  0.50000000  1
  Mn  Mn35  1  0.50000000  0.95759000  0.00000000  1
  Mn  Mn36  1  0.75013900  0.29248500  0.74993500  1
  Mn  Mn37  1  0.24986100  0.29248500  0.25006500  1
  Mn  Mn38  1  0.00000000  0.29247900  0.50000000  1
  Mn  Mn39  1  0.00000000  0.45759000  0.00000000  1
  Cr  Cr40  1  0.75051150  0.95406050  0.75000500  1
  Cr  Cr41  1  0.24948850  0.95406050  0.24999500  1
  Cr  Cr42  1  0.50000000  0.29599400  0.00000000  1
  Cr  Cr43  1  0.50000000  0.45465800  0.50000000  1
  Cr  Cr44  1  0.25051150  0.45406050  0.75000500  1
  Cr  Cr45  1  0.74948850  0.45406050  0.24999500  1
  Cr  Cr46  1  0.00000000  0.79599400  0.00000000  1
  Cr  Cr47  1  0.00000000  0.95465800  0.50000000  1
  O  O48  1  0.58936150  0.12554550  0.69295200  1
  O  O49  1  0.41000200  0.62502200  0.80690300  1
  O  O50  1  0.58999800  0.62502200  0.19309700  1
  O  O51  1  0.30650400  0.94595200  0.44344600  1
  O  O52  1  0.44312550  0.94593250  0.80662500  1
  O  O53  1  0.41063850  0.12554550  0.30704800  1
  O  O54  1  0.19905650  0.80555650  0.55568400  1
  O  O55  1  0.80131800  0.94412700  0.94422200  1
  O  O56  1  0.94300200  0.94569200  0.30681300  1
  O  O57  1  0.69349600  0.94595200  0.55655400  1
  O  O58  1  0.55118000  0.80601200  0.69429300  1
  O  O59  1  0.69305500  0.80407300  0.05660000  1
  O  O60  1  0.05699800  0.94569200  0.69318700  1
  O  O61  1  0.19868200  0.94412700  0.05577800  1
  O  O62  1  0.55121000  0.30571600  0.19423100  1
  O  O63  1  0.80094350  0.80555650  0.44431600  1
  O  O64  1  0.44879000  0.30571600  0.80576900  1
  O  O65  1  0.55687450  0.94593250  0.19337500  1
  O  O66  1  0.83944350  0.12542350  0.44301300  1
  O  O67  1  0.30694500  0.80407300  0.94340000  1
  O  O68  1  0.44882000  0.80601200  0.30570700  1
  O  O69  1  0.16055650  0.12542350  0.55698700  1
  O  O70  1  0.33953850  0.12479150  0.94306500  1
  O  O71  1  0.66046150  0.12479150  0.05693500  1
  O  O72  1  0.08936150  0.62554550  0.69295200  1
  O  O73  1  0.91000200  0.12502200  0.80690300  1
  O  O74  1  0.08999800  0.12502200  0.19309700  1
  O  O75  1  0.80650400  0.44595200  0.44344600  1
  O  O76  1  0.94312550  0.44593250  0.80662500  1
  O  O77  1  0.91063850  0.62554550  0.30704800  1
  O  O78  1  0.69905650  0.30555650  0.55568400  1
  O  O79  1  0.30131800  0.44412700  0.94422200  1
  O  O80  1  0.44300200  0.44569200  0.30681300  1
  O  O81  1  0.19349600  0.44595200  0.55655400  1
  O  O82  1  0.05118000  0.30601200  0.69429300  1
  O  O83  1  0.19305500  0.30407300  0.05660000  1
  O  O84  1  0.55699800  0.44569200  0.69318700  1
  O  O85  1  0.69868200  0.44412700  0.05577800  1
  O  O86  1  0.05121000  0.80571600  0.19423100  1
  O  O87  1  0.30094350  0.30555650  0.44431600  1
  O  O88  1  0.94879000  0.80571600  0.80576900  1
  O  O89  1  0.05687450  0.44593250  0.19337500  1
  O  O90  1  0.33944350  0.62542350  0.44301300  1
  O  O91  1  0.80694500  0.30407300  0.94340000  1
  O  O92  1  0.94882000  0.30601200  0.30570700  1
  O  O93  1  0.66055650  0.62542350  0.55698700  1
  O  O94  1  0.83953850  0.62479150  0.94306500  1
  O  O95  1  0.16046150  0.62479150  0.05693500  1
