# generated using pymatgen
data_LiFeSbO4
_symmetry_space_group_name_H-M   'P 1'
_cell_length_a   6.21407851
_cell_length_b   6.21407851
_cell_length_c   8.59929400
_cell_angle_alpha   90.00000000
_cell_angle_beta   90.00000000
_cell_angle_gamma   90.00000000
_symmetry_Int_Tables_number   1
_chemical_formula_structural   LiFeSbO4
_chemical_formula_sum   'Li4 Fe4 Sb4 O16'
_cell_volume   332.05977479
_cell_formula_units_Z   4
loop_
 _symmetry_equiv_pos_site_id
 _symmetry_equiv_pos_as_xyz
  1  'x, y, z'
loop_
 _atom_site_type_symbol
 _atom_site_label
 _atom_site_symmetry_multiplicity
 _atom_site_fract_x
 _atom_site_fract_y
 _atom_site_fract_z
 _atom_site_occupancy
  Li  Li0  1  0.50000000  0.71336250  0.00000000  1
  Li  Li1  1  0.50000000  0.28663750  0.50000000  1
  Li  Li2  1  0.71336250  0.50000000  0.25000000  1
  Li  Li3  1  0.28663750  0.50000000  0.75000000  1
  Fe  Fe4  1  0.25750800  0.74249200  0.37500000  1
  Fe  Fe5  1  0.25750800  0.25750800  0.12500000  1
  Fe  Fe6  1  0.74249200  0.74249200  0.62500000  1
  Fe  Fe7  1  0.74249200  0.25750800  0.87500000  1
  Sb  Sb8  1  0.73395050  0.00000000  0.25000000  1
  Sb  Sb9  1  0.00000000  0.73395050  0.00000000  1
  Sb  Sb10  1  0.00000000  0.26604950  0.50000000  1
  Sb  Sb11  1  0.26604950  0.00000000  0.75000000  1
  O  O12  1  0.52537950  0.76481150  0.25169800  1
  O  O13  1  0.52537950  0.23518850  0.24830200  1
  O  O14  1  0.76481150  0.52537950  0.99830200  1
  O  O15  1  0.76481150  0.47462050  0.50169800  1
  O  O16  1  0.23518850  0.52537950  0.00169800  1
  O  O17  1  0.23518850  0.47462050  0.49830200  1
  O  O18  1  0.47462050  0.76481150  0.74830200  1
  O  O19  1  0.47462050  0.23518850  0.75169800  1
  O  O20  1  0.77093350  0.97860750  0.01443300  1
  O  O21  1  0.77093350  0.02139250  0.48556700  1
  O  O22  1  0.97860750  0.77093350  0.23556700  1
  O  O23  1  0.97860750  0.22906650  0.26443300  1
  O  O24  1  0.02139250  0.77093350  0.76443300  1
  O  O25  1  0.02139250  0.22906650  0.73556700  1
  O  O26  1  0.22906650  0.02139250  0.51443300  1
  O  O27  1  0.22906650  0.97860750  0.98556700  1
