# generated using pymatgen
data_Li4Ti3Ni2Sn3O16
_symmetry_space_group_name_H-M   'P 1'
_cell_length_a   10.59792200
_cell_length_b   6.08838600
_cell_length_c   9.74967717
_cell_angle_alpha   90.00000000
_cell_angle_beta   90.48560803
_cell_angle_gamma   90.00000000
_symmetry_Int_Tables_number   1
_chemical_formula_structural   Li4Ti3Ni2Sn3O16
_chemical_formula_sum   'Li8 Ti6 Ni4 Sn6 O32'
_cell_volume   629.06791454
_cell_formula_units_Z   2
loop_
 _symmetry_equiv_pos_site_id
 _symmetry_equiv_pos_as_xyz
  1  'x, y, z'
loop_
 _atom_site_type_symbol
 _atom_site_label
 _atom_site_symmetry_multiplicity
 _atom_site_fract_x
 _atom_site_fract_y
 _atom_site_fract_z
 _atom_site_occupancy
  Li  Li0  1  0.66849400  0.00000000  0.11517700  1
  Li  Li1  1  0.99177200  0.00000000  0.00333500  1
  Li  Li2  1  0.99341100  0.00000000  0.49786600  1
  Li  Li3  1  0.83490300  0.50000000  0.61023000  1
  Li  Li4  1  0.16849400  0.50000000  0.11517700  1
  Li  Li5  1  0.49177200  0.50000000  0.00333500  1
  Li  Li6  1  0.49341100  0.50000000  0.49786600  1
  Li  Li7  1  0.33490300  0.00000000  0.61023000  1
  Ti  Ti8  1  0.83097900  0.00000000  0.78466600  1
  Ti  Ti9  1  0.91568700  0.25381600  0.28483000  1
  Ti  Ti10  1  0.91568700  0.74618400  0.28483000  1
  Ti  Ti11  1  0.33097900  0.50000000  0.78466600  1
  Ti  Ti12  1  0.41568700  0.75381600  0.28483000  1
  Ti  Ti13  1  0.41568700  0.24618400  0.28483000  1
  Ni  Ni14  1  0.66899700  0.00000000  0.50865300  1
  Ni  Ni15  1  0.83563600  0.50000000  0.01256500  1
  Ni  Ni16  1  0.16899700  0.50000000  0.50865300  1
  Ni  Ni17  1  0.33563600  0.00000000  0.01256500  1
  Sn  Sn18  1  0.58544600  0.75327400  0.78523800  1
  Sn  Sn19  1  0.58544600  0.24672600  0.78523800  1
  Sn  Sn20  1  0.67001700  0.50000000  0.28592300  1
  Sn  Sn21  1  0.08544600  0.25327400  0.78523800  1
  Sn  Sn22  1  0.08544600  0.74672600  0.78523800  1
  Sn  Sn23  1  0.17001700  0.00000000  0.28592300  1
  O  O24  1  0.57480050  0.74176450  0.39633000  1
  O  O25  1  0.51793000  0.00000000  0.65886100  1
  O  O26  1  0.67449300  0.00000000  0.90329300  1
  O  O27  1  0.99410700  0.00000000  0.68060700  1
  O  O28  1  0.99344500  0.00000000  0.18569100  1
  O  O29  1  0.57480050  0.25823550  0.39633000  1
  O  O30  1  0.74705250  0.78126850  0.66408100  1
  O  O31  1  0.74705250  0.21873150  0.66408100  1
  O  O32  1  0.65759000  0.50000000  0.90456600  1
  O  O33  1  0.84039600  0.00000000  0.38859500  1
  O  O34  1  0.76446100  0.27315000  0.16508200  1
  O  O35  1  0.76446100  0.72685000  0.16508200  1
  O  O36  1  0.84332800  0.50000000  0.39849400  1
  O  O37  1  0.91487600  0.23506600  0.89529800  1
  O  O38  1  0.98025400  0.50000000  0.17189200  1
  O  O39  1  0.91487600  0.76493400  0.89529800  1
  O  O40  1  0.07480050  0.24176450  0.39633000  1
  O  O41  1  0.01793000  0.50000000  0.65886100  1
  O  O42  1  0.17449300  0.50000000  0.90329300  1
  O  O43  1  0.49410700  0.50000000  0.68060700  1
  O  O44  1  0.49344500  0.50000000  0.18569100  1
  O  O45  1  0.07480050  0.75823550  0.39633000  1
  O  O46  1  0.24705250  0.28126850  0.66408100  1
  O  O47  1  0.24705250  0.71873150  0.66408100  1
  O  O48  1  0.15759000  0.00000000  0.90456600  1
  O  O49  1  0.34039600  0.50000000  0.38859500  1
  O  O50  1  0.26446100  0.77315000  0.16508200  1
  O  O51  1  0.26446100  0.22685000  0.16508200  1
  O  O52  1  0.34332800  0.00000000  0.39849400  1
  O  O53  1  0.41487600  0.73506600  0.89529800  1
  O  O54  1  0.48025400  0.00000000  0.17189200  1
  O  O55  1  0.41487600  0.26493400  0.89529800  1
