# generated using pymatgen
data_NbNi5(PO4)6
_symmetry_space_group_name_H-M   'P 1'
_cell_length_a   8.67895866
_cell_length_b   8.67895866
_cell_length_c   20.72210893
_cell_angle_alpha   90.00000000
_cell_angle_beta   90.00000000
_cell_angle_gamma   120.00000000
_symmetry_Int_Tables_number   1
_chemical_formula_structural   NbNi5(PO4)6
_chemical_formula_sum   'Nb3 Ni15 P18 O72'
_cell_volume   1351.76072292
_cell_formula_units_Z   3
loop_
 _symmetry_equiv_pos_site_id
 _symmetry_equiv_pos_as_xyz
  1  'x, y, z'
loop_
 _atom_site_type_symbol
 _atom_site_label
 _atom_site_symmetry_multiplicity
 _atom_site_fract_x
 _atom_site_fract_y
 _atom_site_fract_z
 _atom_site_occupancy
  Nb  Nb0  1  0.33333333  0.66666667  0.81001467  1
  Nb  Nb1  1  0.00000000  0.00000000  0.14334800  1
  Nb  Nb2  1  0.66666667  0.33333333  0.47668133  1
  Ni  Ni3  1  0.33333333  0.66666667  0.66202167  1
  Ni  Ni4  1  0.33333333  0.66666667  0.30735467  1
  Ni  Ni5  1  0.33333333  0.66666667  0.16637967  1
  Ni  Ni6  1  0.33333333  0.66666667  0.52270967  1
  Ni  Ni7  1  0.33333333  0.66666667  0.02460767  1
  Ni  Ni8  1  0.00000000  0.00000000  0.99535500  1
  Ni  Ni9  1  0.00000000  0.00000000  0.64068800  1
  Ni  Ni10  1  0.00000000  0.00000000  0.49971300  1
  Ni  Ni11  1  0.00000000  0.00000000  0.85604300  1
  Ni  Ni12  1  0.00000000  0.00000000  0.35794100  1
  Ni  Ni13  1  0.66666667  0.33333333  0.32868833  1
  Ni  Ni14  1  0.66666667  0.33333333  0.97402133  1
  Ni  Ni15  1  0.66666667  0.33333333  0.83304633  1
  Ni  Ni16  1  0.66666667  0.33333333  0.18937633  1
  Ni  Ni17  1  0.66666667  0.33333333  0.69127433  1
  P  P18  1  0.00017033  0.30123267  0.25263367  1
  P  P19  1  0.69876733  0.69893767  0.25263367  1
  P  P20  1  0.30106233  0.99982967  0.25263367  1
  P  P21  1  0.37548567  0.34010933  0.08215933  1
  P  P22  1  0.96462367  0.62451433  0.08215933  1
  P  P23  1  0.65989067  0.03537633  0.08215933  1
  P  P24  1  0.66683700  0.63456600  0.58596700  1
  P  P25  1  0.36543400  0.03227100  0.58596700  1
  P  P26  1  0.96772900  0.33316300  0.58596700  1
  P  P27  1  0.04215233  0.67344267  0.41549267  1
  P  P28  1  0.63129033  0.95784767  0.41549267  1
  P  P29  1  0.32655733  0.36870967  0.41549267  1
  P  P30  1  0.33350367  0.96789933  0.91930033  1
  P  P31  1  0.03210067  0.36560433  0.91930033  1
  P  P32  1  0.63439567  0.66649633  0.91930033  1
  P  P33  1  0.70881900  0.00677600  0.74882600  1
  P  P34  1  0.29795700  0.29118100  0.74882600  1
  P  P35  1  0.99322400  0.70204300  0.74882600  1
  O  O36  1  0.12751467  0.46876833  0.97935933  1
  O  O37  1  0.53123167  0.65874633  0.97935933  1
  O  O38  1  0.34125367  0.87248533  0.97935933  1
  O  O39  1  0.83341633  0.32123967  0.25871267  1
  O  O40  1  0.31811300  0.84873300  0.85866500  1
  O  O41  1  0.16547267  0.48223833  0.23815833  1
  O  O42  1  0.67876033  0.51217667  0.25871267  1
  O  O43  1  0.51776167  0.68323433  0.23815833  1
  O  O44  1  0.46502833  0.32998367  0.14395267  1
  O  O45  1  0.31676567  0.83452733  0.23815833  1
  O  O46  1  0.17956133  0.17032867  0.07554267  1
  O  O47  1  0.86495533  0.53497167  0.14395267  1
  O  O48  1  0.15126700  0.46938000  0.85866500  1
  O  O49  1  0.48782333  0.16658367  0.25871267  1
  O  O50  1  0.34898333  0.50187567  0.09244767  1
  O  O51  1  0.53062000  0.68188700  0.85866500  1
  O  O52  1  0.15289233  0.65101667  0.09244767  1
  O  O53  1  0.99076733  0.82043867  0.07554267  1
  O  O54  1  0.49812433  0.84710767  0.09244767  1
  O  O55  1  0.67001633  0.13504467  0.14395267  1
  O  O56  1  0.82967133  0.00923267  0.07554267  1
  O  O57  1  0.32589533  0.46217967  0.35400967  1
  O  O58  1  0.13628433  0.67410467  0.35400967  1
  O  O59  1  0.53782033  0.86371567  0.35400967  1
  O  O60  1  0.79418133  0.80210167  0.31269267  1
  O  O61  1  0.19789833  0.99207967  0.31269267  1
  O  O62  1  0.00792033  0.20581867  0.31269267  1
  O  O63  1  0.50008300  0.65457300  0.59204600  1
  O  O64  1  0.98477967  0.18206633  0.19199833  1
  O  O65  1  0.83213933  0.81557167  0.57149167  1
  O  O66  1  0.34542700  0.84551000  0.59204600  1
  O  O67  1  0.18442833  0.01656767  0.57149167  1
  O  O68  1  0.13169500  0.66331700  0.47728600  1
  O  O69  1  0.98343233  0.16786067  0.57149167  1
  O  O70  1  0.84622800  0.50366200  0.40887600  1
  O  O71  1  0.53162200  0.86830500  0.47728600  1
  O  O72  1  0.81793367  0.80271333  0.19199833  1
  O  O73  1  0.15449000  0.49991700  0.59204600  1
  O  O74  1  0.01565000  0.83520900  0.42578100  1
  O  O75  1  0.19728667  0.01522033  0.19199833  1
  O  O76  1  0.81955900  0.98435000  0.42578100  1
  O  O77  1  0.65743400  0.15377200  0.40887600  1
  O  O78  1  0.16479100  0.18044100  0.42578100  1
  O  O79  1  0.33668300  0.46837800  0.47728600  1
  O  O80  1  0.49633800  0.34256600  0.40887600  1
  O  O81  1  0.99256200  0.79551300  0.68734300  1
  O  O82  1  0.80295100  0.00743800  0.68734300  1
  O  O83  1  0.20448700  0.19704900  0.68734300  1
  O  O84  1  0.46084800  0.13543500  0.64602600  1
  O  O85  1  0.86456500  0.32541300  0.64602600  1
  O  O86  1  0.67458700  0.53915200  0.64602600  1
  O  O87  1  0.16674967  0.98790633  0.92537933  1
  O  O88  1  0.65144633  0.51539967  0.52533167  1
  O  O89  1  0.49880600  0.14890500  0.90482500  1
  O  O90  1  0.01209367  0.17884333  0.92537933  1
  O  O91  1  0.85109500  0.34990100  0.90482500  1
  O  O92  1  0.79836167  0.99665033  0.81061933  1
  O  O93  1  0.65009900  0.50119400  0.90482500  1
  O  O94  1  0.51289467  0.83699533  0.74220933  1
  O  O95  1  0.19828867  0.20163833  0.81061933  1
  O  O96  1  0.48460033  0.13604667  0.52533167  1
  O  O97  1  0.82115667  0.83325033  0.92537933  1
  O  O98  1  0.68231667  0.16854233  0.75911433  1
  O  O99  1  0.86395333  0.34855367  0.52533167  1
  O  O100  1  0.48622567  0.31768333  0.75911433  1
  O  O101  1  0.32410067  0.48710533  0.74220933  1
  O  O102  1  0.83145767  0.51377433  0.75911433  1
  O  O103  1  0.00334967  0.80171133  0.81061933  1
  O  O104  1  0.16300467  0.67589933  0.74220933  1
  O  O105  1  0.65922867  0.12884633  0.02067633  1
  O  O106  1  0.46961767  0.34077133  0.02067633  1
  O  O107  1  0.87115367  0.53038233  0.02067633  1
