# generated using pymatgen
data_Fe5(OF4)2
_symmetry_space_group_name_H-M   'P 1'
_cell_length_a   7.98772788
_cell_length_b   4.81939100
_cell_length_c   10.08367213
_cell_angle_alpha   90.00000000
_cell_angle_beta   108.05289454
_cell_angle_gamma   90.00000000
_symmetry_Int_Tables_number   1
_chemical_formula_structural   Fe5(OF4)2
_chemical_formula_sum   'Fe10 O4 F16'
_cell_volume   369.07105755
_cell_formula_units_Z   2
loop_
 _symmetry_equiv_pos_site_id
 _symmetry_equiv_pos_as_xyz
  1  'x, y, z'
loop_
 _atom_site_type_symbol
 _atom_site_label
 _atom_site_symmetry_multiplicity
 _atom_site_fract_x
 _atom_site_fract_y
 _atom_site_fract_z
 _atom_site_occupancy
  Fe  Fe0  1  0.04128800  0.46347500  0.16205500  1
  Fe  Fe1  1  0.24839600  0.52221200  0.75553600  1
  Fe  Fe2  1  0.43436700  0.49300700  0.34848900  1
  Fe  Fe3  1  0.66271500  0.48484800  0.96020000  1
  Fe  Fe4  1  0.84303500  0.52545500  0.55325000  1
  Fe  Fe5  1  0.75160400  0.02221200  0.24446400  1
  Fe  Fe6  1  0.15696500  0.02545500  0.44675000  1
  Fe  Fe7  1  0.56563300  0.99300700  0.65151100  1
  Fe  Fe8  1  0.95871200  0.96347500  0.83794500  1
  Fe  Fe9  1  0.33728500  0.98484800  0.03980000  1
  O  O10  1  0.79908100  0.81062200  0.68150800  1
  O  O11  1  0.18106300  0.79242200  0.85919200  1
  O  O12  1  0.20091900  0.31062200  0.31849200  1
  O  O13  1  0.81893700  0.29242200  0.14080800  1
  F  F14  1  0.59822300  0.80169600  0.07561500  1
  F  F15  1  0.39202300  0.81337600  0.47546300  1
  F  F16  1  0.97323400  0.79525400  0.26980500  1
  F  F17  1  0.26838900  0.70165000  0.16109400  1
  F  F18  1  0.68129300  0.71119600  0.35850300  1
  F  F19  1  0.90629100  0.70688700  0.98507700  1
  F  F20  1  0.48445700  0.68544700  0.77671000  1
  F  F21  1  0.10562300  0.69245100  0.57027200  1
  F  F22  1  0.60797700  0.31337600  0.52453700  1
  F  F23  1  0.02676600  0.29525400  0.73019500  1
  F  F24  1  0.40177700  0.30169600  0.92438500  1
  F  F25  1  0.89437700  0.19245100  0.42972800  1
  F  F26  1  0.31870700  0.21119600  0.64149700  1
  F  F27  1  0.51554300  0.18544700  0.22329000  1
  F  F28  1  0.09370900  0.20688700  0.01492300  1
  F  F29  1  0.73161100  0.20165000  0.83890600  1
