# generated using pymatgen
data_LiSn(PO3)4
_symmetry_space_group_name_H-M   'P 1'
_cell_length_a   16.38896600
_cell_length_b   7.16227800
_cell_length_c   9.61845721
_cell_angle_alpha   90.00000000
_cell_angle_beta   125.78891525
_cell_angle_gamma   90.00000000
_symmetry_Int_Tables_number   1
_chemical_formula_structural   LiSn(PO3)4
_chemical_formula_sum   'Li4 Sn4 P16 O48'
_cell_volume   915.84875414
_cell_formula_units_Z   4
loop_
 _symmetry_equiv_pos_site_id
 _symmetry_equiv_pos_as_xyz
  1  'x, y, z'
loop_
 _atom_site_type_symbol
 _atom_site_label
 _atom_site_symmetry_multiplicity
 _atom_site_fract_x
 _atom_site_fract_y
 _atom_site_fract_z
 _atom_site_occupancy
  Li  Li0  1  0.00000000  0.29576600  0.75000000  1
  Li  Li1  1  0.00000000  0.70423400  0.25000000  1
  Li  Li2  1  0.50000000  0.79576600  0.75000000  1
  Li  Li3  1  0.50000000  0.20423400  0.25000000  1
  Sn  Sn4  1  0.00000000  0.80588800  0.75000000  1
  Sn  Sn5  1  0.00000000  0.19411200  0.25000000  1
  Sn  Sn6  1  0.50000000  0.30588800  0.75000000  1
  Sn  Sn7  1  0.50000000  0.69411200  0.25000000  1
  P  P8  1  0.64457250  0.34989050  0.19090000  1
  P  P9  1  0.63730200  0.94661100  0.11776300  1
  P  P10  1  0.86269800  0.44661100  0.38223700  1
  P  P11  1  0.85542750  0.84989050  0.30910000  1
  P  P12  1  0.14457250  0.15010950  0.69090000  1
  P  P13  1  0.13730200  0.55338900  0.61776300  1
  P  P14  1  0.36269800  0.05338900  0.88223700  1
  P  P15  1  0.35542750  0.65010950  0.80910000  1
  P  P16  1  0.14457250  0.84989050  0.19090000  1
  P  P17  1  0.13730200  0.44661100  0.11776300  1
  P  P18  1  0.36269800  0.94661100  0.38223700  1
  P  P19  1  0.35542750  0.34989050  0.30910000  1
  P  P20  1  0.64457250  0.65010950  0.69090000  1
  P  P21  1  0.63730200  0.05338900  0.61776300  1
  P  P22  1  0.86269800  0.55338900  0.88223700  1
  P  P23  1  0.85542750  0.15010950  0.80910000  1
  O  O24  1  0.61509150  0.78426450  0.19007500  1
  O  O25  1  0.65481250  0.12829650  0.23044500  1
  O  O26  1  0.62651600  0.38736400  0.02032800  1
  O  O27  1  0.75297550  0.42320050  0.34450300  1
  O  O28  1  0.93096000  0.08653200  0.77800500  1
  O  O29  1  0.74702450  0.92320050  0.15549700  1
  O  O30  1  0.87348400  0.88736400  0.47967200  1
  O  O31  1  0.93388700  0.48699400  0.57112100  1
  O  O32  1  0.06611300  0.48699400  0.92887900  1
  O  O33  1  0.84518750  0.62829650  0.26955500  1
  O  O34  1  0.88490850  0.28426450  0.30992500  1
  O  O35  1  0.06904000  0.08653200  0.72199500  1
  O  O36  1  0.93096000  0.91346800  0.27800500  1
  O  O37  1  0.11509150  0.71573550  0.69007500  1
  O  O38  1  0.15481250  0.37170350  0.73044500  1
  O  O39  1  0.93388700  0.51300600  0.07112100  1
  O  O40  1  0.06611300  0.51300600  0.42887900  1
  O  O41  1  0.12651600  0.11263600  0.52032800  1
  O  O42  1  0.25297550  0.07679950  0.84450300  1
  O  O43  1  0.06904000  0.91346800  0.22199500  1
  O  O44  1  0.24702450  0.57679950  0.65549700  1
  O  O45  1  0.37348400  0.61263600  0.97967200  1
  O  O46  1  0.34518750  0.87170350  0.76955500  1
  O  O47  1  0.38490850  0.21573550  0.80992500  1
  O  O48  1  0.11509150  0.28426450  0.19007500  1
  O  O49  1  0.15481250  0.62829650  0.23044500  1
  O  O50  1  0.12651600  0.88736400  0.02032800  1
  O  O51  1  0.25297550  0.92320050  0.34450300  1
  O  O52  1  0.43096000  0.58653200  0.77800500  1
  O  O53  1  0.24702450  0.42320050  0.15549700  1
  O  O54  1  0.37348400  0.38736400  0.47967200  1
  O  O55  1  0.43388700  0.98699400  0.57112100  1
  O  O56  1  0.56611300  0.98699400  0.92887900  1
  O  O57  1  0.34518750  0.12829650  0.26955500  1
  O  O58  1  0.38490850  0.78426450  0.30992500  1
  O  O59  1  0.56904000  0.58653200  0.72199500  1
  O  O60  1  0.43096000  0.41346800  0.27800500  1
  O  O61  1  0.61509150  0.21573550  0.69007500  1
  O  O62  1  0.65481250  0.87170350  0.73044500  1
  O  O63  1  0.43388700  0.01300600  0.07112100  1
  O  O64  1  0.56611300  0.01300600  0.42887900  1
  O  O65  1  0.62651600  0.61263600  0.52032800  1
  O  O66  1  0.75297550  0.57679950  0.84450300  1
  O  O67  1  0.56904000  0.41346800  0.22199500  1
  O  O68  1  0.74702450  0.07679950  0.65549700  1
  O  O69  1  0.87348400  0.11263600  0.97967200  1
  O  O70  1  0.84518750  0.37170350  0.76955500  1
  O  O71  1  0.88490850  0.71573550  0.80992500  1
