# generated using pymatgen
data_Li4Ti3Cr3(WO8)2
_symmetry_space_group_name_H-M   'P 1'
_cell_length_a   10.35338200
_cell_length_b   5.96534400
_cell_length_c   9.84283077
_cell_angle_alpha   90.00000000
_cell_angle_beta   91.10540192
_cell_angle_gamma   90.00000000
_symmetry_Int_Tables_number   1
_chemical_formula_structural   Li4Ti3Cr3(WO8)2
_chemical_formula_sum   'Li8 Ti6 Cr6 W4 O32'
_cell_volume   607.79471403
_cell_formula_units_Z   2
loop_
 _symmetry_equiv_pos_site_id
 _symmetry_equiv_pos_as_xyz
  1  'x, y, z'
loop_
 _atom_site_type_symbol
 _atom_site_label
 _atom_site_symmetry_multiplicity
 _atom_site_fract_x
 _atom_site_fract_y
 _atom_site_fract_z
 _atom_site_occupancy
  Li  Li0  1  0.66477800  0.00000000  0.89697300  1
  Li  Li1  1  0.99884700  0.00000000  0.99208300  1
  Li  Li2  1  0.99665100  0.00000000  0.49452200  1
  Li  Li3  1  0.83349900  0.50000000  0.40049100  1
  Li  Li4  1  0.16477800  0.50000000  0.89697300  1
  Li  Li5  1  0.49884700  0.50000000  0.99208300  1
  Li  Li6  1  0.49665100  0.50000000  0.49452200  1
  Li  Li7  1  0.33349900  0.00000000  0.40049100  1
  Ti  Ti8  1  0.58647450  0.24892150  0.21541500  1
  Ti  Ti9  1  0.58647450  0.75107850  0.21541500  1
  Ti  Ti10  1  0.66906700  0.50000000  0.71423400  1
  Ti  Ti11  1  0.08647450  0.74892150  0.21541500  1
  Ti  Ti12  1  0.08647450  0.25107850  0.21541500  1
  Ti  Ti13  1  0.16906700  0.00000000  0.71423400  1
  Cr  Cr14  1  0.82981500  0.00000000  0.21169700  1
  Cr  Cr15  1  0.91592100  0.74478900  0.71324800  1
  Cr  Cr16  1  0.91592100  0.25521100  0.71324800  1
  Cr  Cr17  1  0.32981500  0.50000000  0.21169700  1
  Cr  Cr18  1  0.41592100  0.24478900  0.71324800  1
  Cr  Cr19  1  0.41592100  0.75521100  0.71324800  1
  W  W20  1  0.66866300  0.00000000  0.48821400  1
  W  W21  1  0.83632500  0.50000000  0.98542900  1
  W  W22  1  0.16866300  0.50000000  0.48821400  1
  W  W23  1  0.33632500  0.00000000  0.98542900  1
  O  O24  1  0.58335450  0.25747250  0.60288500  1
  O  O25  1  0.51882900  0.00000000  0.34088200  1
  O  O26  1  0.66143700  0.00000000  0.10531000  1
  O  O27  1  0.99934000  0.00000000  0.30996800  1
  O  O28  1  0.50400400  0.50000000  0.80840800  1
  O  O29  1  0.58335450  0.74252750  0.60288500  1
  O  O30  1  0.74013650  0.22320450  0.33764600  1
  O  O31  1  0.74013650  0.77679550  0.33764600  1
  O  O32  1  0.66299900  0.50000000  0.10494800  1
  O  O33  1  0.83620100  0.00000000  0.59866600  1
  O  O34  1  0.75883500  0.72007000  0.83919400  1
  O  O35  1  0.75883500  0.27993000  0.83919400  1
  O  O36  1  0.82684900  0.50000000  0.60691900  1
  O  O37  1  0.91907950  0.75604850  0.09800700  1
  O  O38  1  0.98314200  0.50000000  0.83623200  1
  O  O39  1  0.91907950  0.24395150  0.09800700  1
  O  O40  1  0.08335450  0.75747250  0.60288500  1
  O  O41  1  0.01882900  0.50000000  0.34088200  1
  O  O42  1  0.16143700  0.50000000  0.10531000  1
  O  O43  1  0.49934000  0.50000000  0.30996800  1
  O  O44  1  0.00400400  0.00000000  0.80840800  1
  O  O45  1  0.08335450  0.24252750  0.60288500  1
  O  O46  1  0.24013650  0.72320450  0.33764600  1
  O  O47  1  0.24013650  0.27679550  0.33764600  1
  O  O48  1  0.16299900  0.00000000  0.10494800  1
  O  O49  1  0.33620100  0.50000000  0.59866600  1
  O  O50  1  0.25883500  0.22007000  0.83919400  1
  O  O51  1  0.25883500  0.77993000  0.83919400  1
  O  O52  1  0.32684900  0.00000000  0.60691900  1
  O  O53  1  0.41907950  0.25604850  0.09800700  1
  O  O54  1  0.48314200  0.00000000  0.83623200  1
  O  O55  1  0.41907950  0.74395150  0.09800700  1
