# generated using pymatgen
data_V3CrSn2(PO4)6
_symmetry_space_group_name_H-M   'P 1'
_cell_length_a   8.60382171
_cell_length_b   8.60382171
_cell_length_c   22.49801982
_cell_angle_alpha   90.00000000
_cell_angle_beta   90.00000000
_cell_angle_gamma   120.00000000
_symmetry_Int_Tables_number   1
_chemical_formula_structural   V3CrSn2(PO4)6
_chemical_formula_sum   'V9 Cr3 Sn6 P18 O72'
_cell_volume   1442.30706564
_cell_formula_units_Z   3
loop_
 _symmetry_equiv_pos_site_id
 _symmetry_equiv_pos_as_xyz
  1  'x, y, z'
loop_
 _atom_site_type_symbol
 _atom_site_label
 _atom_site_symmetry_multiplicity
 _atom_site_fract_x
 _atom_site_fract_y
 _atom_site_fract_z
 _atom_site_occupancy
  V  V0  1  0.33333333  0.66666667  0.31457167  1
  V  V1  1  0.66666667  0.33333333  0.18632333  1
  V  V2  1  0.33333333  0.66666667  0.01861067  1
  V  V3  1  0.00000000  0.00000000  0.64790500  1
  V  V4  1  0.33333333  0.66666667  0.51965667  1
  V  V5  1  0.00000000  0.00000000  0.35194400  1
  V  V6  1  0.66666667  0.33333333  0.98123833  1
  V  V7  1  0.00000000  0.00000000  0.85299000  1
  V  V8  1  0.66666667  0.33333333  0.68527733  1
  Cr  Cr9  1  0.00000000  0.00000000  0.14704900  1
  Cr  Cr10  1  0.66666667  0.33333333  0.48038233  1
  Cr  Cr11  1  0.33333333  0.66666667  0.81371567  1
  Sn  Sn12  1  0.00000000  0.00000000  0.00196300  1
  Sn  Sn13  1  0.33333333  0.66666667  0.16755467  1
  Sn  Sn14  1  0.66666667  0.33333333  0.33529633  1
  Sn  Sn15  1  0.00000000  0.00000000  0.50088800  1
  Sn  Sn16  1  0.33333333  0.66666667  0.66862967  1
  Sn  Sn17  1  0.66666667  0.33333333  0.83422133  1
  P  P18  1  0.28498667  0.99957533  0.24934233  1
  P  P19  1  0.00042467  0.28541133  0.24934233  1
  P  P20  1  0.71458867  0.71501333  0.24934233  1
  P  P21  1  0.95316400  0.61961200  0.08345500  1
  P  P22  1  0.66644800  0.04683600  0.08345500  1
  P  P23  1  0.38038800  0.33355200  0.08345500  1
  P  P24  1  0.95165333  0.33290867  0.58267567  1
  P  P25  1  0.66709133  0.61874467  0.58267567  1
  P  P26  1  0.38125533  0.04834667  0.58267567  1
  P  P27  1  0.61983067  0.95294533  0.41678833  1
  P  P28  1  0.33311467  0.38016933  0.41678833  1
  P  P29  1  0.04705467  0.66688533  0.41678833  1
  P  P30  1  0.61832000  0.66624200  0.91600900  1
  P  P31  1  0.33375800  0.95207800  0.91600900  1
  P  P32  1  0.04792200  0.38168000  0.91600900  1
  P  P33  1  0.28649733  0.28627867  0.75012167  1
  P  P34  1  0.99978133  0.71350267  0.75012167  1
  P  P35  1  0.71372133  0.00021867  0.75012167  1
  O  O36  1  0.97630200  0.17754700  0.30708700  1
  O  O37  1  0.82245300  0.79875500  0.30708700  1
  O  O38  1  0.20124500  0.02369800  0.30708700  1
  O  O39  1  0.47540600  0.16838400  0.24474700  1
  O  O40  1  0.17755333  0.97112867  0.19289367  1
  O  O41  1  0.30832967  0.83139633  0.25623233  1
  O  O42  1  0.83161600  0.30702200  0.24474700  1
  O  O43  1  0.16860367  0.47693333  0.25623233  1
  O  O44  1  0.86845600  0.51139400  0.14044500  1
  O  O45  1  0.52306667  0.69167033  0.25623233  1
  O  O46  1  0.97141300  0.80763600  0.08728800  1
  O  O47  1  0.64293800  0.13154400  0.14044500  1
  O  O48  1  0.02887133  0.20642467  0.19289367  1
  O  O49  1  0.69297800  0.52459400  0.24474700  1
  O  O50  1  0.14258433  0.63966267  0.07803367  1
  O  O51  1  0.79357533  0.82244667  0.19289367  1
  O  O52  1  0.49707833  0.85741567  0.07803367  1
  O  O53  1  0.83622300  0.02858700  0.08728800  1
  O  O54  1  0.36033733  0.50292167  0.07803367  1
  O  O55  1  0.48860600  0.35706200  0.14044500  1
  O  O56  1  0.19236400  0.16377700  0.08728800  1
  O  O57  1  0.46802400  0.31345800  0.02622100  1
  O  O58  1  0.84543400  0.53197600  0.02622100  1
  O  O59  1  0.68654200  0.15456600  0.02622100  1
  O  O60  1  0.64296867  0.51088033  0.64042033  1
  O  O61  1  0.48911967  0.13208833  0.64042033  1
  O  O62  1  0.86791167  0.35703133  0.64042033  1
  O  O63  1  0.14207267  0.50171733  0.57808033  1
  O  O64  1  0.84422000  0.30446200  0.52622700  1
  O  O65  1  0.97499633  0.16472967  0.58956567  1
  O  O66  1  0.49828267  0.64035533  0.57808033  1
  O  O67  1  0.83527033  0.81026667  0.58956567  1
  O  O68  1  0.53512267  0.84472733  0.47377833  1
  O  O69  1  0.18973333  0.02500367  0.58956567  1
  O  O70  1  0.63807967  0.14096933  0.42062133  1
  O  O71  1  0.30960467  0.46487733  0.47377833  1
  O  O72  1  0.69553800  0.53975800  0.52622700  1
  O  O73  1  0.35964467  0.85792733  0.57808033  1
  O  O74  1  0.80925100  0.97299600  0.41136700  1
  O  O75  1  0.46024200  0.15578000  0.52622700  1
  O  O76  1  0.16374500  0.19074900  0.41136700  1
  O  O77  1  0.50288967  0.36192033  0.42062133  1
  O  O78  1  0.02700400  0.83625500  0.41136700  1
  O  O79  1  0.15527267  0.69039533  0.47377833  1
  O  O80  1  0.85903067  0.49711033  0.42062133  1
  O  O81  1  0.13469067  0.64679133  0.35955433  1
  O  O82  1  0.51210067  0.86530933  0.35955433  1
  O  O83  1  0.35320867  0.48789933  0.35955433  1
  O  O84  1  0.30963533  0.84421367  0.97375367  1
  O  O85  1  0.15578633  0.46542167  0.97375367  1
  O  O86  1  0.53457833  0.69036467  0.97375367  1
  O  O87  1  0.80873933  0.83505067  0.91141367  1
  O  O88  1  0.51088667  0.63779533  0.85956033  1
  O  O89  1  0.64166300  0.49806300  0.92289900  1
  O  O90  1  0.16494933  0.97368867  0.91141367  1
  O  O91  1  0.50193700  0.14360000  0.92289900  1
  O  O92  1  0.20178933  0.17806067  0.80711167  1
  O  O93  1  0.85640000  0.35833700  0.92289900  1
  O  O94  1  0.30474633  0.47430267  0.75395467  1
  O  O95  1  0.97627133  0.79821067  0.80711167  1
  O  O96  1  0.36220467  0.87309133  0.85956033  1
  O  O97  1  0.02631133  0.19126067  0.91141367  1
  O  O98  1  0.47591767  0.30632933  0.74470033  1
  O  O99  1  0.12690867  0.48911333  0.85956033  1
  O  O100  1  0.83041167  0.52408233  0.74470033  1
  O  O101  1  0.16955633  0.69525367  0.75395467  1
  O  O102  1  0.69367067  0.16958833  0.74470033  1
  O  O103  1  0.82193933  0.02372867  0.80711167  1
  O  O104  1  0.52569733  0.83044367  0.75395467  1
  O  O105  1  0.80135733  0.98012467  0.69288767  1
  O  O106  1  0.17876733  0.19864267  0.69288767  1
  O  O107  1  0.01987533  0.82123267  0.69288767  1
