# generated using pymatgen
data_Mn2OF3
_symmetry_space_group_name_H-M   'P 1'
_cell_length_a   9.39031800
_cell_length_b   6.83664200
_cell_length_c   9.47971115
_cell_angle_alpha   90.00000000
_cell_angle_beta   94.54326759
_cell_angle_gamma   90.00000000
_symmetry_Int_Tables_number   1
_chemical_formula_structural   Mn2OF3
_chemical_formula_sum   'Mn16 O8 F24'
_cell_volume   606.66851192
_cell_formula_units_Z   8
loop_
 _symmetry_equiv_pos_site_id
 _symmetry_equiv_pos_as_xyz
  1  'x, y, z'
loop_
 _atom_site_type_symbol
 _atom_site_label
 _atom_site_symmetry_multiplicity
 _atom_site_fract_x
 _atom_site_fract_y
 _atom_site_fract_z
 _atom_site_occupancy
  Mn  Mn0  1  0.35381000  0.00000000  0.88483300  1
  Mn  Mn1  1  0.11414400  0.00000000  0.60824500  1
  Mn  Mn2  1  0.74550300  0.00000000  0.76293200  1
  Mn  Mn3  1  0.50000000  0.00000000  0.50000000  1
  Mn  Mn4  1  0.25449700  0.00000000  0.23706800  1
  Mn  Mn5  1  0.88585600  0.00000000  0.39175500  1
  Mn  Mn6  1  0.64619000  0.00000000  0.11516700  1
  Mn  Mn7  1  0.00000000  0.00000000  0.00000000  1
  Mn  Mn8  1  0.85381000  0.50000000  0.88483300  1
  Mn  Mn9  1  0.61414400  0.50000000  0.60824500  1
  Mn  Mn10  1  0.24550300  0.50000000  0.76293200  1
  Mn  Mn11  1  0.00000000  0.50000000  0.50000000  1
  Mn  Mn12  1  0.75449700  0.50000000  0.23706800  1
  Mn  Mn13  1  0.38585600  0.50000000  0.39175500  1
  Mn  Mn14  1  0.14619000  0.50000000  0.11516700  1
  Mn  Mn15  1  0.50000000  0.50000000  0.00000000  1
  O  O16  1  0.50000000  0.68806500  0.50000000  1
  O  O17  1  0.79429100  0.00000000  0.97243200  1
  O  O18  1  0.20570900  0.00000000  0.02756800  1
  O  O19  1  0.50000000  0.31193500  0.50000000  1
  O  O20  1  0.00000000  0.18806500  0.50000000  1
  O  O21  1  0.29429100  0.50000000  0.97243200  1
  O  O22  1  0.70570900  0.50000000  0.02756800  1
  O  O23  1  0.00000000  0.81193500  0.50000000  1
  F  F24  1  0.23582050  0.81131750  0.73260500  1
  F  F25  1  0.23582050  0.18868250  0.73260500  1
  F  F26  1  0.27832200  0.00000000  0.45807900  1
  F  F27  1  0.51694100  0.00000000  0.73444600  1
  F  F28  1  0.02332700  0.00000000  0.21864100  1
  F  F29  1  0.97667300  0.00000000  0.78135900  1
  F  F30  1  0.48305900  0.00000000  0.26555400  1
  F  F31  1  0.72167800  0.00000000  0.54192100  1
  F  F32  1  0.50000000  0.80624000  0.00000000  1
  F  F33  1  0.76417950  0.81131750  0.26739500  1
  F  F34  1  0.50000000  0.19376000  0.00000000  1
  F  F35  1  0.76417950  0.18868250  0.26739500  1
  F  F36  1  0.73582050  0.31131750  0.73260500  1
  F  F37  1  0.73582050  0.68868250  0.73260500  1
  F  F38  1  0.77832200  0.50000000  0.45807900  1
  F  F39  1  0.01694100  0.50000000  0.73444600  1
  F  F40  1  0.52332700  0.50000000  0.21864100  1
  F  F41  1  0.47667300  0.50000000  0.78135900  1
  F  F42  1  0.98305900  0.50000000  0.26555400  1
  F  F43  1  0.22167800  0.50000000  0.54192100  1
  F  F44  1  0.00000000  0.30624000  0.00000000  1
  F  F45  1  0.26417950  0.31131750  0.26739500  1
  F  F46  1  0.00000000  0.69376000  0.00000000  1
  F  F47  1  0.26417950  0.68868250  0.26739500  1
