# generated using pymatgen
data_CdFeSn(PO4)3
_symmetry_space_group_name_H-M   'P 1'
_cell_length_a   8.73166777
_cell_length_b   8.73166777
_cell_length_c   22.01576595
_cell_angle_alpha   90.00000000
_cell_angle_beta   90.00000000
_cell_angle_gamma   120.00000000
_symmetry_Int_Tables_number   1
_chemical_formula_structural   CdFeSn(PO4)3
_chemical_formula_sum   'Cd6 Fe6 Sn6 P18 O72'
_cell_volume   1453.64660208
_cell_formula_units_Z   6
loop_
 _symmetry_equiv_pos_site_id
 _symmetry_equiv_pos_as_xyz
  1  'x, y, z'
loop_
 _atom_site_type_symbol
 _atom_site_label
 _atom_site_symmetry_multiplicity
 _atom_site_fract_x
 _atom_site_fract_y
 _atom_site_fract_z
 _atom_site_occupancy
  Cd  Cd0  1  0.66666667  0.33333333  0.33037933  1
  Cd  Cd1  1  0.33333333  0.66666667  0.16371267  1
  Cd  Cd2  1  0.33333333  0.66666667  0.66371267  1
  Cd  Cd3  1  0.00000000  0.00000000  0.49704600  1
  Cd  Cd4  1  0.00000000  0.00000000  0.99704600  1
  Cd  Cd5  1  0.66666667  0.33333333  0.83037933  1
  Fe  Fe6  1  0.33333333  0.66666667  0.01919267  1
  Fe  Fe7  1  0.66666667  0.33333333  0.18585933  1
  Fe  Fe8  1  0.00000000  0.00000000  0.35252600  1
  Fe  Fe9  1  0.33333333  0.66666667  0.51919267  1
  Fe  Fe10  1  0.66666667  0.33333333  0.68585933  1
  Fe  Fe11  1  0.00000000  0.00000000  0.85252600  1
  Sn  Sn12  1  0.00000000  0.00000000  0.14641000  1
  Sn  Sn13  1  0.33333333  0.66666667  0.31307667  1
  Sn  Sn14  1  0.66666667  0.33333333  0.47974333  1
  Sn  Sn15  1  0.00000000  0.00000000  0.64641000  1
  Sn  Sn16  1  0.33333333  0.66666667  0.81307667  1
  Sn  Sn17  1  0.66666667  0.33333333  0.97974333  1
  P  P18  1  0.96042000  0.33581700  0.08459600  1
  P  P19  1  0.37539700  0.03958000  0.08459600  1
  P  P20  1  0.66418300  0.62460300  0.08459600  1
  P  P21  1  0.99751633  0.70624667  0.25126267  1
  P  P22  1  0.29375333  0.29126967  0.25126267  1
  P  P23  1  0.70873033  0.00248367  0.25126267  1
  P  P24  1  0.62708667  0.66915033  0.41792933  1
  P  P25  1  0.04206367  0.37291333  0.41792933  1
  P  P26  1  0.33084967  0.95793633  0.41792933  1
  P  P27  1  0.66418300  0.03958000  0.58459600  1
  P  P28  1  0.96042000  0.62460300  0.58459600  1
  P  P29  1  0.37539700  0.33581700  0.58459600  1
  P  P30  1  0.29375333  0.00248367  0.75126267  1
  P  P31  1  0.70873033  0.70624667  0.75126267  1
  P  P32  1  0.99751633  0.29126967  0.75126267  1
  P  P33  1  0.33084967  0.37291333  0.91792933  1
  P  P34  1  0.62708667  0.95793633  0.91792933  1
  P  P35  1  0.04206367  0.66915033  0.91792933  1
  O  O36  1  0.81022467  0.00746233  0.30828433  1
  O  O37  1  0.99253767  0.80276233  0.30828433  1
  O  O38  1  0.97840833  0.16506267  0.08239167  1
  O  O39  1  0.19723767  0.18977533  0.30828433  1
  O  O40  1  0.86390433  0.34079567  0.14161767  1
  O  O41  1  0.14713467  0.50147033  0.08443433  1
  O  O42  1  0.18665433  0.02159167  0.08239167  1
  O  O43  1  0.35433567  0.85286533  0.08443433  1
  O  O44  1  0.01186767  0.80527833  0.19163233  1
  O  O45  1  0.49852967  0.64566433  0.08443433  1
  O  O46  1  0.83186300  0.51953200  0.25110100  1
  O  O47  1  0.19472167  0.20658933  0.19163233  1
  O  O48  1  0.47689133  0.13609567  0.14161767  1
  O  O49  1  0.83493733  0.81334567  0.08239167  1
  O  O50  1  0.16827067  0.68825833  0.24905833  1
  O  O51  1  0.65920433  0.52310867  0.14161767  1
  O  O52  1  0.31174167  0.48001233  0.24905833  1
  O  O53  1  0.48046800  0.31233100  0.25110100  1
  O  O54  1  0.51998767  0.83172933  0.24905833  1
  O  O55  1  0.79341067  0.98813233  0.19163233  1
  O  O56  1  0.46007733  0.13861167  0.02496567  1
  O  O57  1  0.68766900  0.16813700  0.25110100  1
  O  O58  1  0.67853433  0.53992267  0.02496567  1
  O  O59  1  0.86138833  0.32146567  0.02496567  1
  O  O60  1  0.47689133  0.34079567  0.64161767  1
  O  O61  1  0.65920433  0.13609567  0.64161767  1
  O  O62  1  0.64507500  0.49839600  0.41572500  1
  O  O63  1  0.86390433  0.52310867  0.64161767  1
  O  O64  1  0.53057100  0.67412900  0.47495100  1
  O  O65  1  0.81380133  0.83480367  0.41776767  1
  O  O66  1  0.85332100  0.35492500  0.41572500  1
  O  O67  1  0.02100233  0.18619867  0.41776767  1
  O  O68  1  0.67853433  0.13861167  0.52496567  1
  O  O69  1  0.16519633  0.97899767  0.41776767  1
  O  O70  1  0.49852967  0.85286533  0.58443433  1
  O  O71  1  0.86138833  0.53992267  0.52496567  1
  O  O72  1  0.14355800  0.46942900  0.47495100  1
  O  O73  1  0.50160400  0.14667900  0.41572500  1
  O  O74  1  0.83493733  0.02159167  0.58239167  1
  O  O75  1  0.32587100  0.85644200  0.47495100  1
  O  O76  1  0.97840833  0.81334567  0.58239167  1
  O  O77  1  0.14713467  0.64566433  0.58443433  1
  O  O78  1  0.18665433  0.16506267  0.58239167  1
  O  O79  1  0.46007733  0.32146567  0.52496567  1
  O  O80  1  0.12674400  0.47194500  0.35829900  1
  O  O81  1  0.35433567  0.50147033  0.58443433  1
  O  O82  1  0.34520100  0.87325600  0.35829900  1
  O  O83  1  0.52805500  0.65479900  0.35829900  1
  O  O84  1  0.14355800  0.67412900  0.97495100  1
  O  O85  1  0.32587100  0.46942900  0.97495100  1
  O  O86  1  0.31174167  0.83172933  0.74905833  1
  O  O87  1  0.53057100  0.85644200  0.97495100  1
  O  O88  1  0.19723767  0.00746233  0.80828433  1
  O  O89  1  0.48046800  0.16813700  0.75110100  1
  O  O90  1  0.51998767  0.68825833  0.74905833  1
  O  O91  1  0.68766900  0.51953200  0.75110100  1
  O  O92  1  0.34520100  0.47194500  0.85829900  1
  O  O93  1  0.83186300  0.31233100  0.75110100  1
  O  O94  1  0.16519633  0.18619867  0.91776767  1
  O  O95  1  0.52805500  0.87325600  0.85829900  1
  O  O96  1  0.81022467  0.80276233  0.80828433  1
  O  O97  1  0.16827067  0.48001233  0.74905833  1
  O  O98  1  0.50160400  0.35492500  0.91572500  1
  O  O99  1  0.99253767  0.18977533  0.80828433  1
  O  O100  1  0.64507500  0.14667900  0.91572500  1
  O  O101  1  0.81380133  0.97899767  0.91776767  1
  O  O102  1  0.85332100  0.49839600  0.91572500  1
  O  O103  1  0.12674400  0.65479900  0.85829900  1
  O  O104  1  0.79341067  0.80527833  0.69163233  1
  O  O105  1  0.02100233  0.83480367  0.91776767  1
  O  O106  1  0.01186767  0.20658933  0.69163233  1
  O  O107  1  0.19472167  0.98813233  0.69163233  1
