# generated using pymatgen
data_Mn3Co3(SnO8)2
_symmetry_space_group_name_H-M   'P 1'
_cell_length_a   9.90618400
_cell_length_b   5.73978200
_cell_length_c   9.42607332
_cell_angle_alpha   90.00000000
_cell_angle_beta   91.05050978
_cell_angle_gamma   90.00000000
_symmetry_Int_Tables_number   1
_chemical_formula_structural   Mn3Co3(SnO8)2
_chemical_formula_sum   'Mn6 Co6 Sn4 O32'
_cell_volume   535.87019245
_cell_formula_units_Z   2
loop_
 _symmetry_equiv_pos_site_id
 _symmetry_equiv_pos_as_xyz
  1  'x, y, z'
loop_
 _atom_site_type_symbol
 _atom_site_label
 _atom_site_symmetry_multiplicity
 _atom_site_fract_x
 _atom_site_fract_y
 _atom_site_fract_z
 _atom_site_occupancy
  Mn  Mn0  1  0.83258800  0.00000000  0.21540500  1
  Mn  Mn1  1  0.41639400  0.24846400  0.71484500  1
  Mn  Mn2  1  0.41639400  0.75153600  0.71484500  1
  Mn  Mn3  1  0.33258800  0.50000000  0.21540500  1
  Mn  Mn4  1  0.91639400  0.74846400  0.71484500  1
  Mn  Mn5  1  0.91639400  0.25153600  0.71484500  1
  Co  Co6  1  0.58394150  0.24888350  0.21148000  1
  Co  Co7  1  0.58394150  0.75111650  0.21148000  1
  Co  Co8  1  0.16733600  0.00000000  0.71055100  1
  Co  Co9  1  0.08394150  0.74888350  0.21148000  1
  Co  Co10  1  0.08394150  0.25111650  0.21148000  1
  Co  Co11  1  0.66733600  0.50000000  0.71055100  1
  Sn  Sn12  1  0.66573600  0.00000000  0.48999800  1
  Sn  Sn13  1  0.33216400  0.00000000  0.99221500  1
  Sn  Sn14  1  0.16573600  0.50000000  0.48999800  1
  Sn  Sn15  1  0.83216400  0.50000000  0.99221500  1
  O  O16  1  0.58104300  0.26325300  0.60690500  1
  O  O17  1  0.51739100  0.00000000  0.32191000  1
  O  O18  1  0.66514200  0.00000000  0.10959200  1
  O  O19  1  0.00284500  0.00000000  0.31383000  1
  O  O20  1  0.00248300  0.00000000  0.81461000  1
  O  O21  1  0.58104300  0.73674700  0.60690500  1
  O  O22  1  0.73978700  0.22744000  0.32853200  1
  O  O23  1  0.73978700  0.77256000  0.32853200  1
  O  O24  1  0.15762500  0.00000000  0.11153300  1
  O  O25  1  0.84144400  0.00000000  0.60353900  1
  O  O26  1  0.25569000  0.22289300  0.82737300  1
  O  O27  1  0.25569000  0.77710700  0.82737300  1
  O  O28  1  0.33259100  0.00000000  0.60898300  1
  O  O29  1  0.42248800  0.26194300  0.10635400  1
  O  O30  1  0.48470600  0.00000000  0.83231600  1
  O  O31  1  0.42248800  0.73805700  0.10635400  1
  O  O32  1  0.08104300  0.76325300  0.60690500  1
  O  O33  1  0.01739100  0.50000000  0.32191000  1
  O  O34  1  0.16514200  0.50000000  0.10959200  1
  O  O35  1  0.50284500  0.50000000  0.31383000  1
  O  O36  1  0.50248300  0.50000000  0.81461000  1
  O  O37  1  0.08104300  0.23674700  0.60690500  1
  O  O38  1  0.23978700  0.72744000  0.32853200  1
  O  O39  1  0.23978700  0.27256000  0.32853200  1
  O  O40  1  0.65762500  0.50000000  0.11153300  1
  O  O41  1  0.34144400  0.50000000  0.60353900  1
  O  O42  1  0.75569000  0.72289300  0.82737300  1
  O  O43  1  0.75569000  0.27710700  0.82737300  1
  O  O44  1  0.83259100  0.50000000  0.60898300  1
  O  O45  1  0.92248800  0.76194300  0.10635400  1
  O  O46  1  0.98470600  0.50000000  0.83231600  1
  O  O47  1  0.92248800  0.23805700  0.10635400  1
