# generated using pymatgen
data_Fe5(OF2)4
_symmetry_space_group_name_H-M   'P 1'
_cell_length_a   5.41682000
_cell_length_b   9.93638600
_cell_length_c   16.31593200
_cell_angle_alpha   90.00000000
_cell_angle_beta   90.00000000
_cell_angle_gamma   90.00000000
_symmetry_Int_Tables_number   1
_chemical_formula_structural   Fe5(OF2)4
_chemical_formula_sum   'Fe20 O16 F32'
_cell_volume   878.18243275
_cell_formula_units_Z   4
loop_
 _symmetry_equiv_pos_site_id
 _symmetry_equiv_pos_as_xyz
  1  'x, y, z'
loop_
 _atom_site_type_symbol
 _atom_site_label
 _atom_site_symmetry_multiplicity
 _atom_site_fract_x
 _atom_site_fract_y
 _atom_site_fract_z
 _atom_site_occupancy
  Fe  Fe0  1  0.75000000  0.75000000  0.75000000  1
  Fe  Fe1  1  0.25000000  0.75000000  0.58743800  1
  Fe  Fe2  1  0.00000000  0.00000000  0.65905400  1
  Fe  Fe3  1  0.25000000  0.75000000  0.91256200  1
  Fe  Fe4  1  0.50000000  0.00000000  0.84094600  1
  Fe  Fe5  1  0.75000000  0.25000000  0.25000000  1
  Fe  Fe6  1  0.25000000  0.25000000  0.08743800  1
  Fe  Fe7  1  0.00000000  0.50000000  0.15905400  1
  Fe  Fe8  1  0.25000000  0.25000000  0.41256200  1
  Fe  Fe9  1  0.50000000  0.50000000  0.34094600  1
  Fe  Fe10  1  0.25000000  0.75000000  0.25000000  1
  Fe  Fe11  1  0.75000000  0.75000000  0.08743800  1
  Fe  Fe12  1  0.50000000  0.00000000  0.15905400  1
  Fe  Fe13  1  0.75000000  0.75000000  0.41256200  1
  Fe  Fe14  1  0.00000000  0.00000000  0.34094600  1
  Fe  Fe15  1  0.25000000  0.25000000  0.75000000  1
  Fe  Fe16  1  0.75000000  0.25000000  0.58743800  1
  Fe  Fe17  1  0.50000000  0.50000000  0.65905400  1
  Fe  Fe18  1  0.75000000  0.25000000  0.91256200  1
  Fe  Fe19  1  0.00000000  0.50000000  0.84094600  1
  O  O20  1  0.98902100  0.69951100  0.83038700  1
  O  O21  1  0.98902100  0.80048900  0.66961300  1
  O  O22  1  0.51097900  0.69951100  0.66961300  1
  O  O23  1  0.51097900  0.80048900  0.83038700  1
  O  O24  1  0.98902100  0.19951100  0.33038700  1
  O  O25  1  0.98902100  0.30048900  0.16961300  1
  O  O26  1  0.51097900  0.19951100  0.16961300  1
  O  O27  1  0.51097900  0.30048900  0.33038700  1
  O  O28  1  0.48902100  0.69951100  0.33038700  1
  O  O29  1  0.48902100  0.80048900  0.16961300  1
  O  O30  1  0.01097900  0.69951100  0.16961300  1
  O  O31  1  0.01097900  0.80048900  0.33038700  1
  O  O32  1  0.48902100  0.19951100  0.83038700  1
  O  O33  1  0.48902100  0.30048900  0.66961300  1
  O  O34  1  0.01097900  0.19951100  0.66961300  1
  O  O35  1  0.01097900  0.30048900  0.83038700  1
  F  F36  1  0.50000000  0.74913400  0.00000000  1
  F  F37  1  0.23728850  0.54893850  0.58398900  1
  F  F38  1  0.75000000  0.52330000  0.75000000  1
  F  F39  1  0.26271150  0.95106150  0.58398900  1
  F  F40  1  0.00000000  0.75086600  0.00000000  1
  F  F41  1  0.23728850  0.95106150  0.91601100  1
  F  F42  1  0.26271150  0.54893850  0.91601100  1
  F  F43  1  0.75000000  0.97670000  0.75000000  1
  F  F44  1  0.50000000  0.24913400  0.50000000  1
  F  F45  1  0.23728850  0.04893850  0.08398900  1
  F  F46  1  0.75000000  0.02330000  0.25000000  1
  F  F47  1  0.26271150  0.45106150  0.08398900  1
  F  F48  1  0.00000000  0.25086600  0.50000000  1
  F  F49  1  0.23728850  0.45106150  0.41601100  1
  F  F50  1  0.26271150  0.04893850  0.41601100  1
  F  F51  1  0.75000000  0.47670000  0.25000000  1
  F  F52  1  0.00000000  0.74913400  0.50000000  1
  F  F53  1  0.73728850  0.54893850  0.08398900  1
  F  F54  1  0.25000000  0.52330000  0.25000000  1
  F  F55  1  0.76271150  0.95106150  0.08398900  1
  F  F56  1  0.50000000  0.75086600  0.50000000  1
  F  F57  1  0.73728850  0.95106150  0.41601100  1
  F  F58  1  0.76271150  0.54893850  0.41601100  1
  F  F59  1  0.25000000  0.97670000  0.25000000  1
  F  F60  1  0.00000000  0.24913400  0.00000000  1
  F  F61  1  0.73728850  0.04893850  0.58398900  1
  F  F62  1  0.25000000  0.02330000  0.75000000  1
  F  F63  1  0.76271150  0.45106150  0.58398900  1
  F  F64  1  0.50000000  0.25086600  0.00000000  1
  F  F65  1  0.73728850  0.45106150  0.91601100  1
  F  F66  1  0.76271150  0.04893850  0.91601100  1
  F  F67  1  0.25000000  0.47670000  0.75000000  1
