# generated using pymatgen
data_V4CrCoO12
_symmetry_space_group_name_H-M   'P 1'
_cell_length_a   10.00163323
_cell_length_b   9.08306276
_cell_length_c   5.81198348
_cell_angle_alpha   90.00000000
_cell_angle_beta   110.07766563
_cell_angle_gamma   90.00000000
_symmetry_Int_Tables_number   1
_chemical_formula_structural   V4CrCoO12
_chemical_formula_sum   'V8 Cr2 Co2 O24'
_cell_volume   495.90525165
_cell_formula_units_Z   2
loop_
 _symmetry_equiv_pos_site_id
 _symmetry_equiv_pos_as_xyz
  1  'x, y, z'
loop_
 _atom_site_type_symbol
 _atom_site_label
 _atom_site_symmetry_multiplicity
 _atom_site_fract_x
 _atom_site_fract_y
 _atom_site_fract_z
 _atom_site_occupancy
  V  V0  1  0.20047750  0.59282850  0.98429300  1
  V  V1  1  0.20513850  0.40522750  0.49313600  1
  V  V2  1  0.79952250  0.59282850  0.01570700  1
  V  V3  1  0.79486150  0.40522750  0.50686400  1
  V  V4  1  0.70047750  0.09282850  0.98429300  1
  V  V5  1  0.70513850  0.90522750  0.49313600  1
  V  V6  1  0.29952250  0.09282850  0.01570700  1
  V  V7  1  0.29486150  0.90522750  0.50686400  1
  Cr  Cr8  1  0.00000000  0.91654400  0.00000000  1
  Cr  Cr9  1  0.50000000  0.41654400  0.00000000  1
  Co  Co10  1  0.00000000  0.08482100  0.50000000  1
  Co  Co11  1  0.50000000  0.58482100  0.50000000  1
  O  O12  1  0.38545050  0.57843650  0.09583400  1
  O  O13  1  0.14001100  0.77048200  0.96298500  1
  O  O14  1  0.39192950  0.42041050  0.63008300  1
  O  O15  1  0.14112450  0.49438650  0.19301600  1
  O  O16  1  0.85998900  0.77048200  0.03701500  1
  O  O17  1  0.13288250  0.50572350  0.69468900  1
  O  O18  1  0.85887550  0.49438650  0.80698400  1
  O  O19  1  0.14180950  0.23182350  0.46714400  1
  O  O20  1  0.86711750  0.50572350  0.30531100  1
  O  O21  1  0.61454950  0.57843650  0.90416600  1
  O  O22  1  0.85819050  0.23182350  0.53285600  1
  O  O23  1  0.60807050  0.42041050  0.36991700  1
  O  O24  1  0.88545050  0.07843650  0.09583400  1
  O  O25  1  0.64001100  0.27048200  0.96298500  1
  O  O26  1  0.89192950  0.92041050  0.63008300  1
  O  O27  1  0.64112450  0.99438650  0.19301600  1
  O  O28  1  0.35998900  0.27048200  0.03701500  1
  O  O29  1  0.63288250  0.00572350  0.69468900  1
  O  O30  1  0.35887550  0.99438650  0.80698400  1
  O  O31  1  0.64180950  0.73182350  0.46714400  1
  O  O32  1  0.36711750  0.00572350  0.30531100  1
  O  O33  1  0.11454950  0.07843650  0.90416600  1
  O  O34  1  0.35819050  0.73182350  0.53285600  1
  O  O35  1  0.10807050  0.92041050  0.36991700  1
