# generated using pymatgen
data_Fe2O3F
_symmetry_space_group_name_H-M   'P 1'
_cell_length_a   6.40097600
_cell_length_b   6.89445600
_cell_length_c   5.99709700
_cell_angle_alpha   90.00000000
_cell_angle_beta   90.00000000
_cell_angle_gamma   90.00000000
_symmetry_Int_Tables_number   1
_chemical_formula_structural   Fe2O3F
_chemical_formula_sum   'Fe8 O12 F4'
_cell_volume   264.65937132
_cell_formula_units_Z   4
loop_
 _symmetry_equiv_pos_site_id
 _symmetry_equiv_pos_as_xyz
  1  'x, y, z'
loop_
 _atom_site_type_symbol
 _atom_site_label
 _atom_site_symmetry_multiplicity
 _atom_site_fract_x
 _atom_site_fract_y
 _atom_site_fract_z
 _atom_site_occupancy
  Fe  Fe0  1  0.00000000  0.00000000  0.00000000  1
  Fe  Fe1  1  0.00000000  0.00000000  0.50000000  1
  Fe  Fe2  1  0.50000000  0.96658200  0.25000000  1
  Fe  Fe3  1  0.50000000  0.03341800  0.75000000  1
  Fe  Fe4  1  0.50000000  0.50000000  0.00000000  1
  Fe  Fe5  1  0.50000000  0.50000000  0.50000000  1
  Fe  Fe6  1  0.00000000  0.46658200  0.25000000  1
  Fe  Fe7  1  0.00000000  0.53341800  0.75000000  1
  O  O8  1  0.50000000  0.32184500  0.75000000  1
  O  O9  1  0.30745200  0.00000000  0.50000000  1
  O  O10  1  0.30745200  0.00000000  0.00000000  1
  O  O11  1  0.69254800  0.00000000  0.00000000  1
  O  O12  1  0.69254800  0.00000000  0.50000000  1
  O  O13  1  0.50000000  0.67815500  0.25000000  1
  O  O14  1  0.00000000  0.82184500  0.75000000  1
  O  O15  1  0.80745200  0.50000000  0.50000000  1
  O  O16  1  0.80745200  0.50000000  0.00000000  1
  O  O17  1  0.19254800  0.50000000  0.00000000  1
  O  O18  1  0.19254800  0.50000000  0.50000000  1
  O  O19  1  0.00000000  0.17815500  0.25000000  1
  F  F20  1  0.50000000  0.29896000  0.25000000  1
  F  F21  1  0.50000000  0.70104000  0.75000000  1
  F  F22  1  0.00000000  0.79896000  0.25000000  1
  F  F23  1  0.00000000  0.20104000  0.75000000  1
