# generated using pymatgen
data_Mn5Cr(PO4)6
_symmetry_space_group_name_H-M   'P 1'
_cell_length_a   8.56346197
_cell_length_b   8.56346197
_cell_length_c   21.15106784
_cell_angle_alpha   90.00000000
_cell_angle_beta   90.00000000
_cell_angle_gamma   120.00000000
_symmetry_Int_Tables_number   1
_chemical_formula_structural   Mn5Cr(PO4)6
_chemical_formula_sum   'Mn15 Cr3 P18 O72'
_cell_volume   1343.26493191
_cell_formula_units_Z   3
loop_
 _symmetry_equiv_pos_site_id
 _symmetry_equiv_pos_as_xyz
  1  'x, y, z'
loop_
 _atom_site_type_symbol
 _atom_site_label
 _atom_site_symmetry_multiplicity
 _atom_site_fract_x
 _atom_site_fract_y
 _atom_site_fract_z
 _atom_site_occupancy
  Mn  Mn0  1  0.66666667  0.33333333  0.33298133  1
  Mn  Mn1  1  0.33333333  0.66666667  0.02305567  1
  Mn  Mn2  1  0.33333333  0.66666667  0.16722567  1
  Mn  Mn3  1  0.00000000  0.00000000  0.14358900  1
  Mn  Mn4  1  0.33333333  0.66666667  0.31061467  1
  Mn  Mn5  1  0.33333333  0.66666667  0.66631467  1
  Mn  Mn6  1  0.00000000  0.00000000  0.35638900  1
  Mn  Mn7  1  0.00000000  0.00000000  0.50055900  1
  Mn  Mn8  1  0.66666667  0.33333333  0.47692233  1
  Mn  Mn9  1  0.00000000  0.00000000  0.64394800  1
  Mn  Mn10  1  0.00000000  0.00000000  0.99964800  1
  Mn  Mn11  1  0.66666667  0.33333333  0.68972233  1
  Mn  Mn12  1  0.66666667  0.33333333  0.83389233  1
  Mn  Mn13  1  0.33333333  0.66666667  0.81025567  1
  Mn  Mn14  1  0.66666667  0.33333333  0.97728133  1
  Cr  Cr15  1  0.66666667  0.33333333  0.19108733  1
  Cr  Cr16  1  0.33333333  0.66666667  0.52442067  1
  Cr  Cr17  1  0.00000000  0.00000000  0.85775400  1
  P  P18  1  0.66678967  0.62369233  0.08308633  1
  P  P19  1  0.95690267  0.33321033  0.08308633  1
  P  P20  1  0.37630767  0.04309733  0.08308633  1
  P  P21  1  0.28900767  0.28899733  0.25037933  1
  P  P22  1  0.71100267  0.00001033  0.25037933  1
  P  P23  1  0.99998967  0.71099233  0.25037933  1
  P  P24  1  0.33345633  0.95702567  0.41641967  1
  P  P25  1  0.62356933  0.66654367  0.41641967  1
  P  P26  1  0.04297433  0.37643067  0.41641967  1
  P  P27  1  0.95567433  0.62233067  0.58371267  1
  P  P28  1  0.37766933  0.33334367  0.58371267  1
  P  P29  1  0.66665633  0.04432567  0.58371267  1
  P  P30  1  0.00012300  0.29035900  0.74975300  1
  P  P31  1  0.29023600  0.99987700  0.74975300  1
  P  P32  1  0.70964100  0.70976400  0.74975300  1
  P  P33  1  0.62234100  0.95566400  0.91704600  1
  P  P34  1  0.04433600  0.66667700  0.91704600  1
  P  P35  1  0.33332300  0.37765900  0.91704600  1
  O  O36  1  0.85819367  0.32329933  0.02176933  1
  O  O37  1  0.46510567  0.14180633  0.02176933  1
  O  O38  1  0.67670067  0.53489433  0.02176933  1
  O  O39  1  0.83601400  0.81666700  0.07875200  1
  O  O40  1  0.65946200  0.52577800  0.14367100  1
  O  O41  1  0.49313767  0.64312433  0.08681833  1
  O  O42  1  0.98065300  0.16398600  0.07875200  1
  O  O43  1  0.14998667  0.50686233  0.08681833  1
  O  O44  1  0.19012167  0.19967433  0.18913933  1
  O  O45  1  0.35687567  0.85001333  0.08681833  1
  O  O46  1  0.48001600  0.31047400  0.25484600  1
  O  O47  1  0.80032567  0.99044733  0.18913933  1
  O  O48  1  0.86631600  0.34053800  0.14367100  1
  O  O49  1  0.18333300  0.01934700  0.07875200  1
  O  O50  1  0.30900200  0.48078800  0.24608600  1
  O  O51  1  0.47422200  0.13368400  0.14367100  1
  O  O52  1  0.51921200  0.82821400  0.24608600  1
  O  O53  1  0.68952600  0.16954200  0.25484600  1
  O  O54  1  0.17178600  0.69099800  0.24608600  1
  O  O55  1  0.00955267  0.80987833  0.18913933  1
  O  O56  1  0.83045800  0.51998400  0.25484600  1
  O  O57  1  0.99402300  0.80475400  0.31149000  1
  O  O58  1  0.19524600  0.18926900  0.31149000  1
  O  O59  1  0.81073100  0.00597700  0.31149000  1
  O  O60  1  0.52486033  0.65663267  0.35510267  1
  O  O61  1  0.13177233  0.47513967  0.35510267  1
  O  O62  1  0.34336733  0.86822767  0.35510267  1
  O  O63  1  0.50268067  0.15000033  0.41208533  1
  O  O64  1  0.32612867  0.85911133  0.47700433  1
  O  O65  1  0.15980433  0.97645767  0.42015167  1
  O  O66  1  0.64731967  0.49731933  0.41208533  1
  O  O67  1  0.81665333  0.84019567  0.42015167  1
  O  O68  1  0.85678833  0.53300767  0.52247267  1
  O  O69  1  0.02354233  0.18334667  0.42015167  1
  O  O70  1  0.14668267  0.64380733  0.58817933  1
  O  O71  1  0.46699233  0.32378067  0.52247267  1
  O  O72  1  0.53298267  0.67387133  0.47700433  1
  O  O73  1  0.84999967  0.35268033  0.41208533  1
  O  O74  1  0.97566867  0.81412133  0.57941933  1
  O  O75  1  0.14088867  0.46701733  0.47700433  1
  O  O76  1  0.18587867  0.16154733  0.57941933  1
  O  O77  1  0.35619267  0.50287533  0.58817933  1
  O  O78  1  0.83845267  0.02433133  0.57941933  1
  O  O79  1  0.67621933  0.14321167  0.52247267  1
  O  O80  1  0.49712467  0.85331733  0.58817933  1
  O  O81  1  0.66068967  0.13808733  0.64482333  1
  O  O82  1  0.86191267  0.52260233  0.64482333  1
  O  O83  1  0.47739767  0.33931033  0.64482333  1
  O  O84  1  0.19152700  0.98996600  0.68843600  1
  O  O85  1  0.79843900  0.80847300  0.68843600  1
  O  O86  1  0.01003400  0.20156100  0.68843600  1
  O  O87  1  0.16934733  0.48333367  0.74541867  1
  O  O88  1  0.99279533  0.19244467  0.81033767  1
  O  O89  1  0.82647100  0.30979100  0.75348500  1
  O  O90  1  0.31398633  0.83065267  0.74541867  1
  O  O91  1  0.48332000  0.17352900  0.75348500  1
  O  O92  1  0.52345500  0.86634100  0.85580600  1
  O  O93  1  0.69020900  0.51668000  0.75348500  1
  O  O94  1  0.81334933  0.97714067  0.92151267  1
  O  O95  1  0.13365900  0.65711400  0.85580600  1
  O  O96  1  0.19964933  0.00720467  0.81033767  1
  O  O97  1  0.51666633  0.68601367  0.74541867  1
  O  O98  1  0.64233533  0.14745467  0.91275267  1
  O  O99  1  0.80755533  0.80035067  0.81033767  1
  O  O100  1  0.85254533  0.49488067  0.91275267  1
  O  O101  1  0.02285933  0.83620867  0.92151267  1
  O  O102  1  0.50511933  0.35766467  0.91275267  1
  O  O103  1  0.34288600  0.47654500  0.85580600  1
  O  O104  1  0.16379133  0.18665067  0.92151267  1
  O  O105  1  0.32735633  0.47142067  0.97815667  1
  O  O106  1  0.52857933  0.85593567  0.97815667  1
  O  O107  1  0.14406433  0.67264367  0.97815667  1
