# generated using pymatgen
data_Li4AlCr3O8
_symmetry_space_group_name_H-M   'P 1'
_cell_length_a   10.28308053
_cell_length_b   5.85155662
_cell_length_c   5.07750464
_cell_angle_alpha   90.00000000
_cell_angle_beta   109.17116263
_cell_angle_gamma   90.00000000
_symmetry_Int_Tables_number   1
_chemical_formula_structural   Li4AlCr3O8
_chemical_formula_sum   'Li8 Al2 Cr6 O16'
_cell_volume   288.57994533
_cell_formula_units_Z   2
loop_
 _symmetry_equiv_pos_site_id
 _symmetry_equiv_pos_as_xyz
  1  'x, y, z'
loop_
 _atom_site_type_symbol
 _atom_site_label
 _atom_site_symmetry_multiplicity
 _atom_site_fract_x
 _atom_site_fract_y
 _atom_site_fract_z
 _atom_site_occupancy
  Li  Li0  1  0.75000000  0.25000000  0.00000000  1
  Li  Li1  1  0.25000000  0.25000000  0.00000000  1
  Li  Li2  1  0.24967600  0.00000000  0.49893300  1
  Li  Li3  1  0.75032400  0.00000000  0.50106700  1
  Li  Li4  1  0.25000000  0.75000000  0.00000000  1
  Li  Li5  1  0.75000000  0.75000000  0.00000000  1
  Li  Li6  1  0.74967600  0.50000000  0.49893300  1
  Li  Li7  1  0.25032400  0.50000000  0.50106700  1
  Al  Al8  1  0.00000000  0.00000000  0.00000000  1
  Al  Al9  1  0.50000000  0.50000000  0.00000000  1
  Cr  Cr10  1  0.00000000  0.75074450  0.50000000  1
  Cr  Cr11  1  0.00000000  0.50000000  0.00000000  1
  Cr  Cr12  1  0.00000000  0.24925550  0.50000000  1
  Cr  Cr13  1  0.50000000  0.25074450  0.50000000  1
  Cr  Cr14  1  0.50000000  0.00000000  0.00000000  1
  Cr  Cr15  1  0.50000000  0.74925550  0.50000000  1
  O  O16  1  0.11079050  0.00000000  0.75465600  1
  O  O17  1  0.88920950  0.00000000  0.24534400  1
  O  O18  1  0.88618100  0.50000000  0.25892200  1
  O  O19  1  0.11381900  0.50000000  0.74107800  1
  O  O20  1  0.10981850  0.24175650  0.23424200  1
  O  O21  1  0.10981850  0.75824350  0.23424200  1
  O  O22  1  0.89018150  0.24175650  0.76575800  1
  O  O23  1  0.89018150  0.75824350  0.76575800  1
  O  O24  1  0.61079050  0.50000000  0.75465600  1
  O  O25  1  0.38920950  0.50000000  0.24534400  1
  O  O26  1  0.38618100  0.00000000  0.25892200  1
  O  O27  1  0.61381900  0.00000000  0.74107800  1
  O  O28  1  0.60981850  0.74175650  0.23424200  1
  O  O29  1  0.60981850  0.25824350  0.23424200  1
  O  O30  1  0.39018150  0.74175650  0.76575800  1
  O  O31  1  0.39018150  0.25824350  0.76575800  1
