# generated using pymatgen
data_Na7(WO3)12
_symmetry_space_group_name_H-M   'P 1'
_cell_length_a   9.58027400
_cell_length_b   16.59457800
_cell_length_c   9.58004478
_cell_angle_alpha   90.00000000
_cell_angle_beta   109.46427295
_cell_angle_gamma   90.00000000
_symmetry_Int_Tables_number   1
_chemical_formula_structural   Na7(WO3)12
_chemical_formula_sum   'Na14 W24 O72'
_cell_volume   1435.99866625
_cell_formula_units_Z   2
loop_
 _symmetry_equiv_pos_site_id
 _symmetry_equiv_pos_as_xyz
  1  'x, y, z'
loop_
 _atom_site_type_symbol
 _atom_site_label
 _atom_site_symmetry_multiplicity
 _atom_site_fract_x
 _atom_site_fract_y
 _atom_site_fract_z
 _atom_site_occupancy
  Na  Na0  1  0.25039350  0.83310150  0.25050500  1
  Na  Na1  1  0.74962200  0.00000000  0.25020200  1
  Na  Na2  1  0.25037800  0.00000000  0.74979800  1
  Na  Na3  1  0.75039350  0.66689850  0.25050500  1
  Na  Na4  1  0.24960650  0.66689850  0.74949500  1
  Na  Na5  1  0.00000000  0.00000000  0.00000000  1
  Na  Na6  1  0.74960650  0.83310150  0.74949500  1
  Na  Na7  1  0.75039350  0.33310150  0.25050500  1
  Na  Na8  1  0.24962200  0.50000000  0.25020200  1
  Na  Na9  1  0.75037800  0.50000000  0.74979800  1
  Na  Na10  1  0.25039350  0.16689850  0.25050500  1
  Na  Na11  1  0.74960650  0.16689850  0.74949500  1
  Na  Na12  1  0.50000000  0.50000000  0.00000000  1
  Na  Na13  1  0.24960650  0.33310150  0.74949500  1
  W  W14  1  0.37437800  0.66757100  0.12624600  1
  W  W15  1  0.12631300  0.00000000  0.37758400  1
  W  W16  1  0.87437800  0.83242900  0.12624600  1
  W  W17  1  0.12498900  0.66691600  0.37565100  1
  W  W18  1  0.37501100  0.83308400  0.62434900  1
  W  W19  1  0.62562200  0.66757100  0.87375400  1
  W  W20  1  0.87368700  0.00000000  0.62241600  1
  W  W21  1  0.37755800  0.00000000  0.12641300  1
  W  W22  1  0.12562200  0.83242900  0.87375400  1
  W  W23  1  0.62498900  0.83308400  0.37565100  1
  W  W24  1  0.62244200  0.00000000  0.87358700  1
  W  W25  1  0.87501100  0.66691600  0.62434900  1
  W  W26  1  0.87437800  0.16757100  0.12624600  1
  W  W27  1  0.62631300  0.50000000  0.37758400  1
  W  W28  1  0.37437800  0.33242900  0.12624600  1
  W  W29  1  0.62498900  0.16691600  0.37565100  1
  W  W30  1  0.87501100  0.33308400  0.62434900  1
  W  W31  1  0.12562200  0.16757100  0.87375400  1
  W  W32  1  0.37368700  0.50000000  0.62241600  1
  W  W33  1  0.87755800  0.50000000  0.12641300  1
  W  W34  1  0.62562200  0.33242900  0.87375400  1
  W  W35  1  0.12498900  0.33308400  0.37565100  1
  W  W36  1  0.12244200  0.50000000  0.87358700  1
  W  W37  1  0.37501100  0.16691600  0.62434900  1
  O  O38  1  0.24798100  0.00000000  0.24792200  1
  O  O39  1  0.49972450  0.74999750  0.24991800  1
  O  O40  1  0.00004500  0.91740000  0.24804900  1
  O  O41  1  0.50004500  0.58260000  0.24804900  1
  O  O42  1  0.25000350  0.91674750  0.50013500  1
  O  O43  1  0.00000000  0.00000000  0.50000000  1
  O  O44  1  0.24999500  0.66680800  0.25004200  1
  O  O45  1  0.50027550  0.74999750  0.75008200  1
  O  O46  1  0.74999650  0.91674750  0.49986500  1
  O  O47  1  0.99995500  0.91740000  0.75195100  1
  O  O48  1  0.99972450  0.75000250  0.24991800  1
  O  O49  1  0.00019300  0.58327200  0.25002700  1
  O  O50  1  0.25000000  0.75000000  0.50000000  1
  O  O51  1  0.24999650  0.58325250  0.49986500  1
  O  O52  1  0.49995500  0.58260000  0.75195100  1
  O  O53  1  0.24801550  0.91737950  0.00001600  1
  O  O54  1  0.50019300  0.91672800  0.25002700  1
  O  O55  1  0.74999500  0.83319200  0.25004200  1
  O  O56  1  0.25000500  0.83319200  0.74995800  1
  O  O57  1  0.50000000  0.66528500  0.00000000  1
  O  O58  1  0.75201900  0.00000000  0.75207800  1
  O  O59  1  0.00000000  0.66669500  0.50000000  1
  O  O60  1  0.25000000  0.75000000  0.00000000  1
  O  O61  1  0.99980700  0.58327200  0.74997300  1
  O  O62  1  0.75198450  0.91737950  0.99998400  1
  O  O63  1  0.75000000  0.75000000  0.50000000  1
  O  O64  1  0.75000350  0.58325250  0.50013500  1
  O  O65  1  0.00027550  0.75000250  0.75008200  1
  O  O66  1  0.25198450  0.58262050  0.99998400  1
  O  O67  1  0.49980700  0.91672800  0.74997300  1
  O  O68  1  0.50000000  0.00000000  0.00000000  1
  O  O69  1  0.00000000  0.83471500  0.00000000  1
  O  O70  1  0.50000000  0.83330500  0.50000000  1
  O  O71  1  0.75000500  0.66680800  0.74995800  1
  O  O72  1  0.75000000  0.75000000  0.00000000  1
  O  O73  1  0.74801550  0.58262050  0.00001600  1
  O  O74  1  0.74798100  0.50000000  0.24792200  1
  O  O75  1  0.99972450  0.24999750  0.24991800  1
  O  O76  1  0.50004500  0.41740000  0.24804900  1
  O  O77  1  0.00004500  0.08260000  0.24804900  1
  O  O78  1  0.75000350  0.41674750  0.50013500  1
  O  O79  1  0.50000000  0.50000000  0.50000000  1
  O  O80  1  0.74999500  0.16680800  0.25004200  1
  O  O81  1  0.00027550  0.24999750  0.75008200  1
  O  O82  1  0.24999650  0.41674750  0.49986500  1
  O  O83  1  0.49995500  0.41740000  0.75195100  1
  O  O84  1  0.49972450  0.25000250  0.24991800  1
  O  O85  1  0.50019300  0.08327200  0.25002700  1
  O  O86  1  0.75000000  0.25000000  0.50000000  1
  O  O87  1  0.74999650  0.08325250  0.49986500  1
  O  O88  1  0.99995500  0.08260000  0.75195100  1
  O  O89  1  0.74801550  0.41737950  0.00001600  1
  O  O90  1  0.00019300  0.41672800  0.25002700  1
  O  O91  1  0.24999500  0.33319200  0.25004200  1
  O  O92  1  0.75000500  0.33319200  0.74995800  1
  O  O93  1  0.00000000  0.16528500  0.00000000  1
  O  O94  1  0.25201900  0.50000000  0.75207800  1
  O  O95  1  0.50000000  0.16669500  0.50000000  1
  O  O96  1  0.75000000  0.25000000  0.00000000  1
  O  O97  1  0.49980700  0.08327200  0.74997300  1
  O  O98  1  0.25198450  0.41737950  0.99998400  1
  O  O99  1  0.25000000  0.25000000  0.50000000  1
  O  O100  1  0.25000350  0.08325250  0.50013500  1
  O  O101  1  0.50027550  0.25000250  0.75008200  1
  O  O102  1  0.75198450  0.08262050  0.99998400  1
  O  O103  1  0.99980700  0.41672800  0.74997300  1
  O  O104  1  0.00000000  0.50000000  0.00000000  1
  O  O105  1  0.50000000  0.33471500  0.00000000  1
  O  O106  1  0.00000000  0.33330500  0.50000000  1
  O  O107  1  0.25000500  0.16680800  0.74995800  1
  O  O108  1  0.25000000  0.25000000  0.00000000  1
  O  O109  1  0.24801550  0.08262050  0.00001600  1
