# generated using pymatgen
data_LiCo(SiO3)2
_symmetry_space_group_name_H-M   'P 1'
_cell_length_a   9.75340200
_cell_length_b   8.70248800
_cell_length_c   5.33971549
_cell_angle_alpha   90.00000000
_cell_angle_beta   110.18821103
_cell_angle_gamma   90.00000000
_symmetry_Int_Tables_number   1
_chemical_formula_structural   LiCo(SiO3)2
_chemical_formula_sum   'Li4 Co4 Si8 O24'
_cell_volume   425.38443127
_cell_formula_units_Z   4
loop_
 _symmetry_equiv_pos_site_id
 _symmetry_equiv_pos_as_xyz
  1  'x, y, z'
loop_
 _atom_site_type_symbol
 _atom_site_label
 _atom_site_symmetry_multiplicity
 _atom_site_fract_x
 _atom_site_fract_y
 _atom_site_fract_z
 _atom_site_occupancy
  Li  Li0  1  0.00000000  0.25900600  0.25000000  1
  Li  Li1  1  0.00000000  0.74099400  0.75000000  1
  Li  Li2  1  0.50000000  0.75900600  0.25000000  1
  Li  Li3  1  0.50000000  0.24099400  0.75000000  1
  Co  Co4  1  0.00000000  0.10036700  0.75000000  1
  Co  Co5  1  0.00000000  0.89963300  0.25000000  1
  Co  Co6  1  0.50000000  0.60036700  0.75000000  1
  Co  Co7  1  0.50000000  0.39963300  0.25000000  1
  Si  Si8  1  0.20425550  0.41041950  0.73463800  1
  Si  Si9  1  0.20425550  0.58958050  0.23463800  1
  Si  Si10  1  0.79574450  0.41041950  0.76536200  1
  Si  Si11  1  0.79574450  0.58958050  0.26536200  1
  Si  Si12  1  0.70425550  0.91041950  0.73463800  1
  Si  Si13  1  0.70425550  0.08958050  0.23463800  1
  Si  Si14  1  0.29574450  0.91041950  0.76536200  1
  Si  Si15  1  0.29574450  0.08958050  0.26536200  1
  O  O16  1  0.38419500  0.41303600  0.84877400  1
  O  O17  1  0.12947600  0.24195600  0.67239700  1
  O  O18  1  0.38419500  0.58696400  0.34877400  1
  O  O19  1  0.14417700  0.50356500  0.94274000  1
  O  O20  1  0.87052400  0.24195600  0.82760300  1
  O  O21  1  0.14417700  0.49643500  0.44274000  1
  O  O22  1  0.85582300  0.50356500  0.55726000  1
  O  O23  1  0.12947600  0.75804400  0.17239700  1
  O  O24  1  0.85582300  0.49643500  0.05726000  1
  O  O25  1  0.61580500  0.41303600  0.65122600  1
  O  O26  1  0.87052400  0.75804400  0.32760300  1
  O  O27  1  0.61580500  0.58696400  0.15122600  1
  O  O28  1  0.88419500  0.91303600  0.84877400  1
  O  O29  1  0.62947600  0.74195600  0.67239700  1
  O  O30  1  0.88419500  0.08696400  0.34877400  1
  O  O31  1  0.64417700  0.00356500  0.94274000  1
  O  O32  1  0.37052400  0.74195600  0.82760300  1
  O  O33  1  0.64417700  0.99643500  0.44274000  1
  O  O34  1  0.35582300  0.00356500  0.55726000  1
  O  O35  1  0.62947600  0.25804400  0.17239700  1
  O  O36  1  0.35582300  0.99643500  0.05726000  1
  O  O37  1  0.11580500  0.91303600  0.65122600  1
  O  O38  1  0.37052400  0.25804400  0.32760300  1
  O  O39  1  0.11580500  0.08696400  0.15122600  1
