# generated using pymatgen
data_TaCrO4
_symmetry_space_group_name_H-M   'P 1'
_cell_length_a   6.67265486
_cell_length_b   6.67265486
_cell_length_c   6.11343600
_cell_angle_alpha   90.00000000
_cell_angle_beta   90.00000000
_cell_angle_gamma   90.00000000
_symmetry_Int_Tables_number   1
_chemical_formula_structural   TaCrO4
_chemical_formula_sum   'Ta4 Cr4 O16'
_cell_volume   272.19659837
_cell_formula_units_Z   4
loop_
 _symmetry_equiv_pos_site_id
 _symmetry_equiv_pos_as_xyz
  1  'x, y, z'
loop_
 _atom_site_type_symbol
 _atom_site_label
 _atom_site_symmetry_multiplicity
 _atom_site_fract_x
 _atom_site_fract_y
 _atom_site_fract_z
 _atom_site_occupancy
  Ta  Ta0  1  0.50000000  0.00000000  0.00991850  1
  Ta  Ta1  1  0.00000000  0.00000000  0.75991850  1
  Ta  Ta2  1  0.00000000  0.50000000  0.50991850  1
  Ta  Ta3  1  0.50000000  0.50000000  0.25991850  1
  Cr  Cr4  1  0.00000000  0.50000000  0.99990900  1
  Cr  Cr5  1  0.50000000  0.50000000  0.74990900  1
  Cr  Cr6  1  0.50000000  0.00000000  0.49990900  1
  Cr  Cr7  1  0.00000000  0.00000000  0.24990900  1
  O  O8  1  0.00000000  0.19580800  0.50220600  1
  O  O9  1  0.00000000  0.19732800  0.99288600  1
  O  O10  1  0.30419200  0.00000000  0.75220600  1
  O  O11  1  0.80267200  0.50000000  0.74288600  1
  O  O12  1  0.69580800  0.00000000  0.75220600  1
  O  O13  1  0.69732800  0.00000000  0.24288600  1
  O  O14  1  0.50000000  0.30419200  0.00220600  1
  O  O15  1  0.50000000  0.30267200  0.49288600  1
  O  O16  1  0.50000000  0.69580800  0.00220600  1
  O  O17  1  0.50000000  0.69732800  0.49288600  1
  O  O18  1  0.80419200  0.50000000  0.25220600  1
  O  O19  1  0.30267200  0.00000000  0.24288600  1
  O  O20  1  0.19580800  0.50000000  0.25220600  1
  O  O21  1  0.19732800  0.50000000  0.74288600  1
  O  O22  1  0.00000000  0.80419200  0.50220600  1
  O  O23  1  0.00000000  0.80267200  0.99288600  1
