# generated using pymatgen
data_LiV4O5F7
_symmetry_space_group_name_H-M   'P 1'
_cell_length_a   5.18441537
_cell_length_b   5.36637801
_cell_length_c   8.98954693
_cell_angle_alpha   105.96045500
_cell_angle_beta   89.48326894
_cell_angle_gamma   118.66667701
_symmetry_Int_Tables_number   1
_chemical_formula_structural   LiV4O5F7
_chemical_formula_sum   'Li1 V4 O5 F7'
_cell_volume   208.73673813
_cell_formula_units_Z   1
loop_
 _symmetry_equiv_pos_site_id
 _symmetry_equiv_pos_as_xyz
  1  'x, y, z'
loop_
 _atom_site_type_symbol
 _atom_site_label
 _atom_site_symmetry_multiplicity
 _atom_site_fract_x
 _atom_site_fract_y
 _atom_site_fract_z
 _atom_site_occupancy
  Li  Li0  1  0.81443317  0.02543146  0.59308462  1
  V  V1  1  0.98103409  0.01001826  0.00653490  1
  V  V2  1  0.74889129  0.28113043  0.23763881  1
  V  V3  1  0.50397925  0.45636199  0.50317706  1
  V  V4  1  0.21185063  0.75183633  0.74069083  1
  O  O5  1  0.84194578  0.57836647  0.67251647  1
  O  O6  1  0.82923401  0.14908893  0.08251284  1
  O  O7  1  0.78540912  0.60972045  0.12200443  1
  O  O8  1  0.67571568  0.32429727  0.42666055  1
  O  O9  1  0.26549564  0.13264837  0.62787569  1
  F  F10  1  0.72594491  0.89150866  0.38508225  1
  F  F11  1  0.68334243  0.92939736  0.81519254  1
  F  F12  1  0.36163968  0.69708237  0.58010588  1
  F  F13  1  0.32340003  0.06307257  0.17509841  1
  F  F14  1  0.22836395  0.38047038  0.87639226  1
  F  F15  1  0.17407600  0.42307074  0.32831264  1
  F  F16  1  0.17819835  0.83864498  0.92408382  1
