# generated using pymatgen
data_NaMnO4
_symmetry_space_group_name_H-M   'P 1'
_cell_length_a   5.88648600
_cell_length_b   9.06682400
_cell_length_c   7.04613100
_cell_angle_alpha   90.00000000
_cell_angle_beta   90.00000000
_cell_angle_gamma   90.00000000
_symmetry_Int_Tables_number   1
_chemical_formula_structural   NaMnO4
_chemical_formula_sum   'Na4 Mn4 O16'
_cell_volume   376.06421918
_cell_formula_units_Z   4
loop_
 _symmetry_equiv_pos_site_id
 _symmetry_equiv_pos_as_xyz
  1  'x, y, z'
loop_
 _atom_site_type_symbol
 _atom_site_label
 _atom_site_symmetry_multiplicity
 _atom_site_fract_x
 _atom_site_fract_y
 _atom_site_fract_z
 _atom_site_occupancy
  Na  Na0  1  0.00000000  0.00000000  0.00000000  1
  Na  Na1  1  0.00000000  0.00000000  0.50000000  1
  Na  Na2  1  0.50000000  0.50000000  0.00000000  1
  Na  Na3  1  0.50000000  0.50000000  0.50000000  1
  Mn  Mn4  1  0.50000000  0.13887500  0.75000000  1
  Mn  Mn5  1  0.50000000  0.86112500  0.25000000  1
  Mn  Mn6  1  0.00000000  0.63887500  0.75000000  1
  Mn  Mn7  1  0.00000000  0.36112500  0.25000000  1
  O  O8  1  0.27412700  0.96468300  0.25000000  1
  O  O9  1  0.27412700  0.03531700  0.75000000  1
  O  O10  1  0.50000000  0.24022000  0.56295300  1
  O  O11  1  0.50000000  0.75978000  0.06295300  1
  O  O12  1  0.50000000  0.75978000  0.43704700  1
  O  O13  1  0.50000000  0.24022000  0.93704700  1
  O  O14  1  0.72587300  0.96468300  0.25000000  1
  O  O15  1  0.72587300  0.03531700  0.75000000  1
  O  O16  1  0.77412700  0.46468300  0.25000000  1
  O  O17  1  0.77412700  0.53531700  0.75000000  1
  O  O18  1  0.00000000  0.74022000  0.56295300  1
  O  O19  1  0.00000000  0.25978000  0.06295300  1
  O  O20  1  0.00000000  0.25978000  0.43704700  1
  O  O21  1  0.00000000  0.74022000  0.93704700  1
  O  O22  1  0.22587300  0.46468300  0.25000000  1
  O  O23  1  0.22587300  0.53531700  0.75000000  1
