# generated using pymatgen
data_Li7Mn12Cu5O32
_symmetry_space_group_name_H-M   'P 1'
_cell_length_a   11.74101089
_cell_length_b   11.74101089
_cell_length_c   14.39294697
_cell_angle_alpha   90.00000000
_cell_angle_beta   90.00000000
_cell_angle_gamma   120.00000000
_symmetry_Int_Tables_number   1
_chemical_formula_structural   Li7Mn12Cu5O32
_chemical_formula_sum   'Li21 Mn36 Cu15 O96'
_cell_volume   1718.26972599
_cell_formula_units_Z   3
loop_
 _symmetry_equiv_pos_site_id
 _symmetry_equiv_pos_as_xyz
  1  'x, y, z'
loop_
 _atom_site_type_symbol
 _atom_site_label
 _atom_site_symmetry_multiplicity
 _atom_site_fract_x
 _atom_site_fract_y
 _atom_site_fract_z
 _atom_site_occupancy
  Li  Li0  1  0.33802433  0.17122667  0.16848067  1
  Li  Li1  1  0.58873967  0.91780533  0.04234833  1
  Li  Li2  1  0.33333333  0.66666667  0.54097800  1
  Li  Li3  1  0.82877333  0.16679767  0.16848067  1
  Li  Li4  1  0.49986900  0.99530900  0.50181400  1
  Li  Li5  1  0.74886133  0.00426767  0.37568167  1
  Li  Li6  1  0.99573233  0.74459367  0.37568167  1
  Li  Li7  1  0.00469100  0.50456000  0.50181400  1
  Li  Li8  1  0.25540633  0.25113867  0.37568167  1
  Li  Li9  1  0.00000000  0.00000000  0.87431133  1
  Li  Li10  1  0.49544000  0.50013100  0.50181400  1
  Li  Li11  1  0.16653567  0.32864233  0.83514733  1
  Li  Li12  1  0.41552800  0.33760100  0.70901500  1
  Li  Li13  1  0.66239900  0.07792700  0.70901500  1
  Li  Li14  1  0.67135767  0.83789333  0.83514733  1
  Li  Li15  1  0.92207300  0.58447200  0.70901500  1
  Li  Li16  1  0.66666667  0.33333333  0.20764467  1
  Li  Li17  1  0.16210667  0.83346433  0.83514733  1
  Li  Li18  1  0.83320233  0.66197567  0.16848067  1
  Li  Li19  1  0.08219467  0.67093433  0.04234833  1
  Li  Li20  1  0.32906567  0.41126033  0.04234833  1
  Mn  Mn21  1  0.25356033  0.50318567  0.37538167  1
  Mn  Mn22  1  0.24962533  0.74643967  0.37538167  1
  Mn  Mn23  1  0.59012333  0.66925867  0.04277167  1
  Mn  Mn24  1  0.49681433  0.75037467  0.37538167  1
  Mn  Mn25  1  0.67119300  0.83372600  0.20840100  1
  Mn  Mn26  1  0.83497667  0.91522133  0.04481633  1
  Mn  Mn27  1  0.74580200  0.74321000  0.37610500  1
  Mn  Mn28  1  0.74691133  0.49835667  0.37814967  1
  Mn  Mn29  1  0.75144533  0.25308867  0.37814967  1
  Mn  Mn30  1  0.82919967  0.66214033  0.54173433  1
  Mn  Mn31  1  0.99740800  0.25419800  0.37610500  1
  Mn  Mn32  1  0.83294067  0.17080033  0.54173433  1
  Mn  Mn33  1  0.92022700  0.83651900  0.70871500  1
  Mn  Mn34  1  0.91629200  0.07977300  0.70871500  1
  Mn  Mn35  1  0.25679000  0.00259200  0.37610500  1
  Mn  Mn36  1  0.16348100  0.08370800  0.70871500  1
  Mn  Mn37  1  0.33785967  0.16705933  0.54173433  1
  Mn  Mn38  1  0.50164333  0.24855467  0.37814967  1
  Mn  Mn39  1  0.41246867  0.07654333  0.70943833  1
  Mn  Mn40  1  0.41357800  0.83169000  0.71148300  1
  Mn  Mn41  1  0.41811200  0.58642200  0.71148300  1
  Mn  Mn42  1  0.49586633  0.99547367  0.87506767  1
  Mn  Mn43  1  0.66407467  0.58753133  0.70943833  1
  Mn  Mn44  1  0.49960733  0.50413367  0.87506767  1
  Mn  Mn45  1  0.58689367  0.16985233  0.04204833  1
  Mn  Mn46  1  0.58295867  0.41310633  0.04204833  1
  Mn  Mn47  1  0.92345667  0.33592533  0.70943833  1
  Mn  Mn48  1  0.83014767  0.41704133  0.04204833  1
  Mn  Mn49  1  0.00452633  0.50039267  0.87506767  1
  Mn  Mn50  1  0.16831000  0.58188800  0.71148300  1
  Mn  Mn51  1  0.07913533  0.40987667  0.04277167  1
  Mn  Mn52  1  0.08024467  0.16502333  0.04481633  1
  Mn  Mn53  1  0.08477867  0.91975533  0.04481633  1
  Mn  Mn54  1  0.16253300  0.32880700  0.20840100  1
  Mn  Mn55  1  0.33074133  0.92086467  0.04277167  1
  Mn  Mn56  1  0.16627400  0.83746700  0.20840100  1
  Cu  Cu57  1  0.49754900  0.48833200  0.24906500  1
  Cu  Cu58  1  0.51166800  0.00921700  0.24906500  1
  Cu  Cu59  1  0.65744967  0.83578433  0.58239833  1
  Cu  Cu60  1  0.00000000  0.00000000  0.25799833  1
  Cu  Cu61  1  0.00000000  0.00000000  0.49412333  1
  Cu  Cu62  1  0.16421567  0.82166533  0.58239833  1
  Cu  Cu63  1  0.17833467  0.34255033  0.58239833  1
  Cu  Cu64  1  0.32411633  0.16911767  0.91573167  1
  Cu  Cu65  1  0.66666667  0.33333333  0.59133167  1
  Cu  Cu66  1  0.66666667  0.33333333  0.82745667  1
  Cu  Cu67  1  0.83088233  0.15499867  0.91573167  1
  Cu  Cu68  1  0.84500133  0.67588367  0.91573167  1
  Cu  Cu69  1  0.99078300  0.50245100  0.24906500  1
  Cu  Cu70  1  0.33333333  0.66666667  0.92466500  1
  Cu  Cu71  1  0.33333333  0.66666667  0.16079000  1
  O  O72  1  0.31688667  0.41805333  0.28805133  1
  O  O73  1  0.49924500  0.00948300  0.11332300  1
  O  O74  1  0.32265000  0.91108700  0.29605200  1
  O  O75  1  0.51023800  0.50075500  0.11332300  1
  O  O76  1  0.18228467  0.59231833  0.44385033  1
  O  O77  1  0.33333333  0.66666667  0.30094000  1
  O  O78  1  0.51953967  0.74681833  0.12570733  1
  O  O79  1  0.68053100  0.82852200  0.97273800  1
  O  O80  1  0.40768167  0.58996633  0.44385033  1
  O  O81  1  0.41003367  0.81771533  0.44385033  1
  O  O82  1  0.74493633  0.75747567  0.12283167  1
  O  O83  1  0.75317333  0.97967667  0.12818967  1
  O  O84  1  0.58194667  0.89883333  0.28805133  1
  O  O85  1  0.58843700  0.67735000  0.29605200  1
  O  O86  1  0.58957400  0.40819400  0.30599100  1
  O  O87  1  0.59180600  0.18138000  0.30599100  1
  O  O88  1  0.65718367  0.82309533  0.44665633  1
  O  O89  1  0.81964467  0.89680733  0.29400933  1
  O  O90  1  0.00000000  0.00000000  0.11565967  1
  O  O91  1  0.48528667  0.74375933  0.63932433  1
  O  O92  1  0.81465767  0.65280233  0.30607133  1
  O  O93  1  0.67920600  0.58839700  0.45616500  1
  O  O94  1  0.83814467  0.18534233  0.30607133  1
  O  O95  1  0.68699000  0.10683000  0.46152300  1
  O  O96  1  0.89394533  0.81379367  0.45904067  1
  O  O97  1  0.89317000  0.58016000  0.46152300  1
  O  O98  1  0.90919100  0.32079400  0.45616500  1
  O  O99  1  0.91984833  0.10605467  0.45904067  1
  O  O100  1  0.07716267  0.18035533  0.29400933  1
  O  O101  1  0.75557967  0.74489633  0.62938533  1
  O  O102  1  0.76783333  0.01644667  0.62138467  1
  O  O103  1  0.10319267  0.92283733  0.29400933  1
  O  O104  1  0.98355333  0.75138667  0.62138467  1
  O  O105  1  0.16591167  0.34281633  0.44665633  1
  O  O106  1  0.98931667  0.24442033  0.62938533  1
  O  O107  1  0.17690467  0.83408833  0.44665633  1
  O  O108  1  0.84895133  0.92565167  0.77718367  1
  O  O109  1  0.00000000  0.00000000  0.63427333  1
  O  O110  1  0.18620633  0.08015167  0.45904067  1
  O  O111  1  0.34719767  0.16185533  0.30607133  1
  O  O112  1  0.07434833  0.92329967  0.77718367  1
  O  O113  1  0.07670033  0.15104867  0.77718367  1
  O  O114  1  0.41160300  0.09080900  0.45616500  1
  O  O115  1  0.41984000  0.31301000  0.46152300  1
  O  O116  1  0.24861333  0.23216667  0.62138467  1
  O  O117  1  0.25510367  0.01068333  0.62938533  1
  O  O118  1  0.25624067  0.74152733  0.63932433  1
  O  O119  1  0.25847267  0.51471333  0.63932433  1
  O  O120  1  0.32385033  0.15642867  0.77998967  1
  O  O121  1  0.48631133  0.23014067  0.62734267  1
  O  O122  1  0.66666667  0.33333333  0.44899300  1
  O  O123  1  0.15195333  0.07709267  0.97265767  1
  O  O124  1  0.48132433  0.98613567  0.63940467  1
  O  O125  1  0.34587267  0.92173033  0.78949833  1
  O  O126  1  0.50481133  0.51867567  0.63940467  1
  O  O127  1  0.35365667  0.44016333  0.79485633  1
  O  O128  1  0.56061200  0.14712700  0.79237400  1
  O  O129  1  0.55983667  0.91349333  0.79485633  1
  O  O130  1  0.57585767  0.65412733  0.78949833  1
  O  O131  1  0.58651500  0.43938800  0.79237400  1
  O  O132  1  0.74382933  0.51368867  0.62734267  1
  O  O133  1  0.42224633  0.07822967  0.96271867  1
  O  O134  1  0.43450000  0.34978000  0.95471800  1
  O  O135  1  0.76985933  0.25617067  0.62734267  1
  O  O136  1  0.65022000  0.08472000  0.95471800  1
  O  O137  1  0.83257833  0.67614967  0.77998967  1
  O  O138  1  0.65598333  0.57775367  0.96271867  1
  O  O139  1  0.84357133  0.16742167  0.77998967  1
  O  O140  1  0.51561800  0.25898500  0.11051700  1
  O  O141  1  0.66666667  0.33333333  0.96760667  1
  O  O142  1  0.85287300  0.41348500  0.79237400  1
  O  O143  1  0.01386433  0.49518867  0.63940467  1
  O  O144  1  0.74101500  0.25663300  0.11051700  1
  O  O145  1  0.74336700  0.48438200  0.11051700  1
  O  O146  1  0.07826967  0.42414233  0.78949833  1
  O  O147  1  0.08650667  0.64634333  0.79485633  1
  O  O148  1  0.91528000  0.56550000  0.95471800  1
  O  O149  1  0.92177033  0.34401667  0.96271867  1
  O  O150  1  0.92290733  0.07486067  0.97265767  1
  O  O151  1  0.92513933  0.84804667  0.97265767  1
  O  O152  1  0.99051700  0.48976200  0.11332300  1
  O  O153  1  0.15297800  0.56347400  0.96067600  1
  O  O154  1  0.33333333  0.66666667  0.78232633  1
  O  O155  1  0.81862000  0.41042600  0.30599100  1
  O  O156  1  0.14799100  0.31946900  0.97273800  1
  O  O157  1  0.01253933  0.25506367  0.12283167  1
  O  O158  1  0.17147800  0.85200900  0.97273800  1
  O  O159  1  0.02032333  0.77349667  0.12818967  1
  O  O160  1  0.22727867  0.48046033  0.12570733  1
  O  O161  1  0.22650333  0.24682667  0.12818967  1
  O  O162  1  0.24252433  0.98746067  0.12283167  1
  O  O163  1  0.25318167  0.77272133  0.12570733  1
  O  O164  1  0.41049600  0.84702200  0.96067600  1
  O  O165  1  0.08891300  0.41156300  0.29605200  1
  O  O166  1  0.10116667  0.68311333  0.28805133  1
  O  O167  1  0.43652600  0.58950400  0.96067600  1
