# generated using pymatgen
data_V5P6WO24
_symmetry_space_group_name_H-M   'P 1'
_cell_length_a   8.70851091
_cell_length_b   8.70851091
_cell_length_c   21.14132749
_cell_angle_alpha   90.00000000
_cell_angle_beta   90.00000000
_cell_angle_gamma   120.00000000
_symmetry_Int_Tables_number   1
_chemical_formula_structural   V5P6WO24
_chemical_formula_sum   'V15 P18 W3 O72'
_cell_volume   1388.51535178
_cell_formula_units_Z   3
loop_
 _symmetry_equiv_pos_site_id
 _symmetry_equiv_pos_as_xyz
  1  'x, y, z'
loop_
 _atom_site_type_symbol
 _atom_site_label
 _atom_site_symmetry_multiplicity
 _atom_site_fract_x
 _atom_site_fract_y
 _atom_site_fract_z
 _atom_site_occupancy
  V  V0  1  0.33333333  0.66666667  0.66935967  1
  V  V1  1  0.33333333  0.66666667  0.02435667  1
  V  V2  1  0.33333333  0.66666667  0.16735567  1
  V  V3  1  0.33333333  0.66666667  0.81069467  1
  V  V4  1  0.33333333  0.66666667  0.30899867  1
  V  V5  1  0.00000000  0.00000000  0.00269300  1
  V  V6  1  0.00000000  0.00000000  0.35769000  1
  V  V7  1  0.00000000  0.00000000  0.50068900  1
  V  V8  1  0.00000000  0.00000000  0.14402800  1
  V  V9  1  0.00000000  0.00000000  0.64233200  1
  V  V10  1  0.66666667  0.33333333  0.33602633  1
  V  V11  1  0.66666667  0.33333333  0.69102333  1
  V  V12  1  0.66666667  0.33333333  0.83402233  1
  V  V13  1  0.66666667  0.33333333  0.47736133  1
  V  V14  1  0.66666667  0.33333333  0.97566533  1
  P  P15  1  0.66649333  0.63024467  0.08184567  1
  P  P16  1  0.96375133  0.33350667  0.08184567  1
  P  P17  1  0.36975533  0.03624867  0.08184567  1
  P  P18  1  0.28941000  0.29318400  0.24965700  1
  P  P19  1  0.70681600  0.99622600  0.24965700  1
  P  P20  1  0.00377400  0.71059000  0.24965700  1
  P  P21  1  0.33316000  0.96357800  0.41517900  1
  P  P22  1  0.63041800  0.66684000  0.41517900  1
  P  P23  1  0.03642200  0.36958200  0.41517900  1
  P  P24  1  0.95607667  0.62651733  0.58299033  1
  P  P25  1  0.37348267  0.32955933  0.58299033  1
  P  P26  1  0.67044067  0.04392333  0.58299033  1
  P  P27  1  0.99982667  0.29691133  0.74851233  1
  P  P28  1  0.29708467  0.00017333  0.74851233  1
  P  P29  1  0.70308867  0.70291533  0.74851233  1
  P  P30  1  0.62274333  0.95985067  0.91632367  1
  P  P31  1  0.04014933  0.66289267  0.91632367  1
  P  P32  1  0.33710733  0.37725667  0.91632367  1
  W  W33  1  0.33333333  0.66666667  0.52292667  1
  W  W34  1  0.00000000  0.00000000  0.85626000  1
  W  W35  1  0.66666667  0.33333333  0.18959333  1
  O  O36  1  0.53142467  0.67311233  0.35733433  1
  O  O37  1  0.14168767  0.46857533  0.35733433  1
  O  O38  1  0.32688767  0.85831233  0.35733433  1
  O  O39  1  0.83323733  0.81675867  0.07731667  1
  O  O40  1  0.67407533  0.53115367  0.14351767  1
  O  O41  1  0.49977000  0.64727800  0.09188800  1
  O  O42  1  0.98352133  0.16676267  0.07731667  1
  O  O43  1  0.14750800  0.50023000  0.09188800  1
  O  O44  1  0.20051100  0.19423000  0.18950100  1
  O  O45  1  0.35272200  0.85249200  0.09188800  1
  O  O46  1  0.48579833  0.31899067  0.25413267  1
  O  O47  1  0.80577000  0.00628100  0.18950100  1
  O  O48  1  0.85707833  0.32592467  0.14351767  1
  O  O49  1  0.18324133  0.01647867  0.07731667  1
  O  O50  1  0.31864867  0.48368733  0.24337633  1
  O  O51  1  0.46884633  0.14292167  0.14351767  1
  O  O52  1  0.51631267  0.83496133  0.24337633  1
  O  O53  1  0.68100933  0.16680767  0.25413267  1
  O  O54  1  0.16503867  0.68135133  0.24337633  1
  O  O55  1  0.99371900  0.79948900  0.18950100  1
  O  O56  1  0.83319233  0.51420167  0.25413267  1
  O  O57  1  0.33284467  0.46855433  0.97687533  1
  O  O58  1  0.53144567  0.86429033  0.97687533  1
  O  O59  1  0.13570967  0.66715533  0.97687533  1
  O  O60  1  0.19809133  0.00644567  0.69066767  1
  O  O61  1  0.80835433  0.80190867  0.69066767  1
  O  O62  1  0.99355433  0.19164567  0.69066767  1
  O  O63  1  0.49990400  0.15009200  0.41065000  1
  O  O64  1  0.34074200  0.86448700  0.47685100  1
  O  O65  1  0.16643667  0.98061133  0.42522133  1
  O  O66  1  0.65018800  0.50009600  0.41065000  1
  O  O67  1  0.81417467  0.83356333  0.42522133  1
  O  O68  1  0.86717767  0.52756333  0.52283433  1
  O  O69  1  0.01938867  0.18582533  0.42522133  1
  O  O70  1  0.15246500  0.65232400  0.58746600  1
  O  O71  1  0.47243667  0.33961433  0.52283433  1
  O  O72  1  0.52374500  0.65925800  0.47685100  1
  O  O73  1  0.84990800  0.34981200  0.41065000  1
  O  O74  1  0.98531533  0.81702067  0.57670967  1
  O  O75  1  0.13551300  0.47625500  0.47685100  1
  O  O76  1  0.18297933  0.16829467  0.57670967  1
  O  O77  1  0.34767600  0.50014100  0.58746600  1
  O  O78  1  0.83170533  0.01468467  0.57670967  1
  O  O79  1  0.66038567  0.13282233  0.52283433  1
  O  O80  1  0.49985900  0.84753500  0.58746600  1
  O  O81  1  0.99951133  0.80188767  0.31020867  1
  O  O82  1  0.19811233  0.19762367  0.31020867  1
  O  O83  1  0.80237633  0.00048867  0.31020867  1
  O  O84  1  0.86475800  0.33977900  0.02400100  1
  O  O85  1  0.47502100  0.13524200  0.02400100  1
  O  O86  1  0.66022100  0.52497900  0.02400100  1
  O  O87  1  0.16657067  0.48342533  0.74398333  1
  O  O88  1  0.00740867  0.19782033  0.81018433  1
  O  O89  1  0.83310333  0.31394467  0.75855467  1
  O  O90  1  0.31685467  0.83342933  0.74398333  1
  O  O91  1  0.48084133  0.16689667  0.75855467  1
  O  O92  1  0.53384433  0.86089667  0.85616767  1
  O  O93  1  0.68605533  0.51915867  0.75855467  1
  O  O94  1  0.81913167  0.98565733  0.92079933  1
  O  O95  1  0.13910333  0.67294767  0.85616767  1
  O  O96  1  0.19041167  0.99259133  0.81018433  1
  O  O97  1  0.51657467  0.68314533  0.74398333  1
  O  O98  1  0.65198200  0.15035400  0.91004300  1
  O  O99  1  0.80217967  0.80958833  0.81018433  1
  O  O100  1  0.84964600  0.50162800  0.91004300  1
  O  O101  1  0.01434267  0.83347433  0.92079933  1
  O  O102  1  0.49837200  0.34801800  0.91004300  1
  O  O103  1  0.32705233  0.46615567  0.85616767  1
  O  O104  1  0.16652567  0.18086833  0.92079933  1
  O  O105  1  0.66617800  0.13522100  0.64354200  1
  O  O106  1  0.86477900  0.53095700  0.64354200  1
  O  O107  1  0.46904300  0.33382200  0.64354200  1
