# generated using pymatgen
data_Li3Mn4CoO8
_symmetry_space_group_name_H-M   'P 1'
_cell_length_a   10.37527800
_cell_length_b   6.12931600
_cell_length_c   6.13176790
_cell_angle_alpha   90.00000000
_cell_angle_beta   126.10171957
_cell_angle_gamma   90.00000000
_symmetry_Int_Tables_number   1
_chemical_formula_structural   Li3Mn4CoO8
_chemical_formula_sum   'Li6 Mn8 Co2 O16'
_cell_volume   315.06044363
_cell_formula_units_Z   2
loop_
 _symmetry_equiv_pos_site_id
 _symmetry_equiv_pos_as_xyz
  1  'x, y, z'
loop_
 _atom_site_type_symbol
 _atom_site_label
 _atom_site_symmetry_multiplicity
 _atom_site_fract_x
 _atom_site_fract_y
 _atom_site_fract_z
 _atom_site_occupancy
  Li  Li0  1  0.25000000  0.75000000  0.50000000  1
  Li  Li1  1  0.00000000  0.00000000  0.50000000  1
  Li  Li2  1  0.25000000  0.25000000  0.50000000  1
  Li  Li3  1  0.75000000  0.25000000  0.50000000  1
  Li  Li4  1  0.50000000  0.50000000  0.50000000  1
  Li  Li5  1  0.75000000  0.75000000  0.50000000  1
  Mn  Mn6  1  0.50000000  0.00000000  0.50000000  1
  Mn  Mn7  1  0.00000000  0.00000000  0.00000000  1
  Mn  Mn8  1  0.25000000  0.75000000  0.00000000  1
  Mn  Mn9  1  0.75000000  0.75000000  0.00000000  1
  Mn  Mn10  1  0.00000000  0.50000000  0.50000000  1
  Mn  Mn11  1  0.50000000  0.50000000  0.00000000  1
  Mn  Mn12  1  0.75000000  0.25000000  0.00000000  1
  Mn  Mn13  1  0.25000000  0.25000000  0.00000000  1
  Co  Co14  1  0.00000000  0.50000000  0.00000000  1
  Co  Co15  1  0.50000000  0.00000000  0.00000000  1
  O  O16  1  0.25254000  0.00000000  0.79498100  1
  O  O17  1  0.51315250  0.75012550  0.76577700  1
  O  O18  1  0.51315250  0.24987450  0.76577700  1
  O  O19  1  0.24627900  0.50000000  0.72661800  1
  O  O20  1  0.25372100  0.00000000  0.27338200  1
  O  O21  1  0.98684750  0.25012550  0.23422300  1
  O  O22  1  0.98684750  0.74987450  0.23422300  1
  O  O23  1  0.24746000  0.50000000  0.20501900  1
  O  O24  1  0.75254000  0.50000000  0.79498100  1
  O  O25  1  0.01315250  0.25012550  0.76577700  1
  O  O26  1  0.01315250  0.74987450  0.76577700  1
  O  O27  1  0.74627900  0.00000000  0.72661800  1
  O  O28  1  0.75372100  0.50000000  0.27338200  1
  O  O29  1  0.48684750  0.75012550  0.23422300  1
  O  O30  1  0.48684750  0.24987450  0.23422300  1
  O  O31  1  0.74746000  0.00000000  0.20501900  1
