# generated using pymatgen
data_Co5O8
_symmetry_space_group_name_H-M   'P 1'
_cell_length_a   8.08108800
_cell_length_b   8.08108800
_cell_length_c   8.08108800
_cell_angle_alpha   90.00000000
_cell_angle_beta   90.00000000
_cell_angle_gamma   90.00000000
_symmetry_Int_Tables_number   1
_chemical_formula_structural   Co5O8
_chemical_formula_sum   'Co20 O32'
_cell_volume   527.72723550
_cell_formula_units_Z   4
loop_
 _symmetry_equiv_pos_site_id
 _symmetry_equiv_pos_as_xyz
  1  'x, y, z'
loop_
 _atom_site_type_symbol
 _atom_site_label
 _atom_site_symmetry_multiplicity
 _atom_site_fract_x
 _atom_site_fract_y
 _atom_site_fract_z
 _atom_site_occupancy
  Co  Co0  1  0.87701625  0.37701625  0.12298375  1
  Co  Co1  1  0.62298375  0.37701625  0.37701625  1
  Co  Co2  1  0.50000000  0.50000000  0.00000000  1
  Co  Co3  1  0.12298375  0.62298375  0.12298375  1
  Co  Co4  1  0.37701625  0.62298375  0.37701625  1
  Co  Co5  1  0.87701625  0.87701625  0.62298375  1
  Co  Co6  1  0.62298375  0.87701625  0.87701625  1
  Co  Co7  1  0.50000000  0.00000000  0.50000000  1
  Co  Co8  1  0.12298375  0.12298375  0.62298375  1
  Co  Co9  1  0.37701625  0.12298375  0.87701625  1
  Co  Co10  1  0.37701625  0.37701625  0.62298375  1
  Co  Co11  1  0.12298375  0.37701625  0.87701625  1
  Co  Co12  1  0.00000000  0.50000000  0.50000000  1
  Co  Co13  1  0.62298375  0.62298375  0.62298375  1
  Co  Co14  1  0.87701625  0.62298375  0.87701625  1
  Co  Co15  1  0.37701625  0.87701625  0.12298375  1
  Co  Co16  1  0.12298375  0.87701625  0.37701625  1
  Co  Co17  1  0.00000000  0.00000000  0.00000000  1
  Co  Co18  1  0.62298375  0.12298375  0.12298375  1
  Co  Co19  1  0.87701625  0.12298375  0.37701625  1
  O  O20  1  0.13749292  0.63749292  0.36250708  1
  O  O21  1  0.36250708  0.63749292  0.13749292  1
  O  O22  1  0.63749292  0.36250708  0.13749292  1
  O  O23  1  0.86250708  0.36250708  0.36250708  1
  O  O24  1  0.39245142  0.39245142  0.39245142  1
  O  O25  1  0.60754858  0.39245142  0.60754858  1
  O  O26  1  0.39245142  0.60754858  0.60754858  1
  O  O27  1  0.60754858  0.60754858  0.39245142  1
  O  O28  1  0.13749292  0.13749292  0.86250708  1
  O  O29  1  0.36250708  0.13749292  0.63749292  1
  O  O30  1  0.63749292  0.86250708  0.63749292  1
  O  O31  1  0.86250708  0.86250708  0.86250708  1
  O  O32  1  0.39245142  0.89245142  0.89245142  1
  O  O33  1  0.60754858  0.89245142  0.10754858  1
  O  O34  1  0.39245142  0.10754858  0.10754858  1
  O  O35  1  0.60754858  0.10754858  0.89245142  1
  O  O36  1  0.63749292  0.63749292  0.86250708  1
  O  O37  1  0.86250708  0.63749292  0.63749292  1
  O  O38  1  0.13749292  0.36250708  0.63749292  1
  O  O39  1  0.36250708  0.36250708  0.86250708  1
  O  O40  1  0.89245142  0.39245142  0.89245142  1
  O  O41  1  0.10754858  0.39245142  0.10754858  1
  O  O42  1  0.89245142  0.60754858  0.10754858  1
  O  O43  1  0.10754858  0.60754858  0.89245142  1
  O  O44  1  0.63749292  0.13749292  0.36250708  1
  O  O45  1  0.86250708  0.13749292  0.13749292  1
  O  O46  1  0.13749292  0.86250708  0.13749292  1
  O  O47  1  0.36250708  0.86250708  0.36250708  1
  O  O48  1  0.89245142  0.89245142  0.39245142  1
  O  O49  1  0.10754858  0.89245142  0.60754858  1
  O  O50  1  0.89245142  0.10754858  0.60754858  1
  O  O51  1  0.10754858  0.10754858  0.39245142  1
