# generated using pymatgen
data_LiVCO4
_symmetry_space_group_name_H-M   'P 1'
_cell_length_a   3.18529243
_cell_length_b   9.36382990
_cell_length_c   9.42964291
_cell_angle_alpha   90.00000000
_cell_angle_beta   91.49794447
_cell_angle_gamma   90.00000000
_symmetry_Int_Tables_number   1
_chemical_formula_structural   LiVCO4
_chemical_formula_sum   'Li4 V4 C4 O16'
_cell_volume   281.15747394
_cell_formula_units_Z   4
loop_
 _symmetry_equiv_pos_site_id
 _symmetry_equiv_pos_as_xyz
  1  'x, y, z'
loop_
 _atom_site_type_symbol
 _atom_site_label
 _atom_site_symmetry_multiplicity
 _atom_site_fract_x
 _atom_site_fract_y
 _atom_site_fract_z
 _atom_site_occupancy
  Li  Li0  1  0.24728200  0.19193700  0.90851450  1
  Li  Li1  1  0.24728200  0.30806300  0.40851450  1
  Li  Li2  1  0.75271800  0.69193700  0.59148550  1
  Li  Li3  1  0.75271800  0.80806300  0.09148550  1
  V  V4  1  0.26006400  0.93842400  0.38120150  1
  V  V5  1  0.73993600  0.06157600  0.61879850  1
  V  V6  1  0.26006400  0.56157600  0.88120150  1
  V  V7  1  0.73993600  0.43842400  0.11879850  1
  C  C8  1  0.24414400  0.86986700  0.83390150  1
  C  C9  1  0.24414400  0.63013300  0.33390150  1
  C  C10  1  0.75585600  0.36986700  0.66609850  1
  C  C11  1  0.75585600  0.13013300  0.16609850  1
  O  O12  1  0.24851300  0.11265000  0.49834450  1
  O  O13  1  0.24851300  0.38735000  0.99834450  1
  O  O14  1  0.75148700  0.61265000  0.00165550  1
  O  O15  1  0.75148700  0.88735000  0.50165550  1
  O  O16  1  0.25984600  0.75119600  0.76054150  1
  O  O17  1  0.25984600  0.74880400  0.26054150  1
  O  O18  1  0.74015400  0.25119600  0.73945850  1
  O  O19  1  0.74015400  0.24880400  0.23945850  1
  O  O20  1  0.23458500  0.99291300  0.75995250  1
  O  O21  1  0.23458500  0.50708700  0.25995250  1
  O  O22  1  0.76541500  0.49291300  0.74004750  1
  O  O23  1  0.76541500  0.00708700  0.24004750  1
  O  O24  1  0.24301200  0.87231600  0.96671450  1
  O  O25  1  0.24301200  0.62768400  0.46671450  1
  O  O26  1  0.75698800  0.37231600  0.53328550  1
  O  O27  1  0.75698800  0.12768400  0.03328550  1
