# generated using pymatgen
data_Zr2(PO4)3
_symmetry_space_group_name_H-M   'P 1'
_cell_length_a   9.09932775
_cell_length_b   9.09932775
_cell_length_c   22.40328514
_cell_angle_alpha   90.00000000
_cell_angle_beta   90.00000000
_cell_angle_gamma   120.00000000
_symmetry_Int_Tables_number   1
_chemical_formula_structural   Zr2(PO4)3
_chemical_formula_sum   'Zr12 P18 O72'
_cell_volume   1606.42685017
_cell_formula_units_Z   6
loop_
 _symmetry_equiv_pos_site_id
 _symmetry_equiv_pos_as_xyz
  1  'x, y, z'
loop_
 _atom_site_type_symbol
 _atom_site_label
 _atom_site_symmetry_multiplicity
 _atom_site_fract_x
 _atom_site_fract_y
 _atom_site_fract_z
 _atom_site_occupancy
  Zr  Zr0  1  0.00000000  0.00000000  0.13890600  1
  Zr  Zr1  1  0.33333333  0.66666667  0.02776067  1
  Zr  Zr2  1  0.66666667  0.33333333  0.19442733  1
  Zr  Zr3  1  0.33333333  0.66666667  0.30557267  1
  Zr  Zr4  1  0.66666667  0.33333333  0.47223933  1
  Zr  Zr5  1  0.00000000  0.00000000  0.36109400  1
  Zr  Zr6  1  0.33333333  0.66666667  0.52776067  1
  Zr  Zr7  1  0.00000000  0.00000000  0.63890600  1
  Zr  Zr8  1  0.33333333  0.66666667  0.80557267  1
  Zr  Zr9  1  0.66666667  0.33333333  0.69442733  1
  Zr  Zr10  1  0.00000000  0.00000000  0.86109400  1
  Zr  Zr11  1  0.66666667  0.33333333  0.97223933  1
  P  P12  1  0.66666667  0.61861033  0.08333333  1
  P  P13  1  0.71472300  0.00000000  0.25000000  1
  P  P14  1  0.28527700  0.28527700  0.25000000  1
  P  P15  1  0.38138967  0.04805633  0.08333333  1
  P  P16  1  0.95194367  0.33333333  0.08333333  1
  P  P17  1  0.00000000  0.71472300  0.25000000  1
  P  P18  1  0.33333333  0.95194367  0.41666667  1
  P  P19  1  0.38138967  0.33333333  0.58333333  1
  P  P20  1  0.95194367  0.61861033  0.58333333  1
  P  P21  1  0.04805633  0.38138967  0.41666667  1
  P  P22  1  0.61861033  0.66666667  0.41666667  1
  P  P23  1  0.66666667  0.04805633  0.58333333  1
  P  P24  1  0.00000000  0.28527700  0.75000000  1
  P  P25  1  0.04805633  0.66666667  0.91666667  1
  P  P26  1  0.61861033  0.95194367  0.91666667  1
  P  P27  1  0.71472300  0.71472300  0.75000000  1
  P  P28  1  0.28527700  0.00000000  0.75000000  1
  P  P29  1  0.33333333  0.38138967  0.91666667  1
  O  O30  1  0.82457133  0.79788367  0.08722267  1
  O  O31  1  0.65417133  0.51459067  0.13916767  1
  O  O32  1  0.46455033  0.30664567  0.24611067  1
  O  O33  1  0.80624733  0.98750467  0.19416567  1
  O  O34  1  0.84792400  0.32083800  0.02749900  1
  O  O35  1  0.50876200  0.63997900  0.07944400  1
  O  O36  1  0.53544967  0.84209533  0.25388933  1
  O  O37  1  0.69335433  0.15790467  0.24611067  1
  O  O38  1  0.19375267  0.18125733  0.30583433  1
  O  O39  1  0.18125733  0.19375267  0.19416567  1
  O  O40  1  0.98750467  0.80624733  0.30583433  1
  O  O41  1  0.30664567  0.46455033  0.25388933  1
  O  O42  1  0.36002100  0.86878300  0.07944400  1
  O  O43  1  0.67916200  0.52708600  0.02749900  1
  O  O44  1  0.48540933  0.13958067  0.13916767  1
  O  O45  1  0.47291400  0.15207600  0.02749900  1
  O  O46  1  0.97331233  0.17542867  0.08722267  1
  O  O47  1  0.13121700  0.49123800  0.07944400  1
  O  O48  1  0.15790467  0.69335433  0.25388933  1
  O  O49  1  0.81874267  0.01249533  0.30583433  1
  O  O50  1  0.86041933  0.34582867  0.13916767  1
  O  O51  1  0.20211633  0.02668767  0.08722267  1
  O  O52  1  0.01249533  0.81874267  0.19416567  1
  O  O53  1  0.84209533  0.53544967  0.24611067  1
  O  O54  1  0.49123800  0.13121700  0.42055600  1
  O  O55  1  0.32083800  0.84792400  0.47250100  1
  O  O56  1  0.13121700  0.63997900  0.57944400  1
  O  O57  1  0.47291400  0.32083800  0.52749900  1
  O  O58  1  0.51459067  0.65417133  0.36083233  1
  O  O59  1  0.17542867  0.97331233  0.41277733  1
  O  O60  1  0.20211633  0.17542867  0.58722267  1
  O  O61  1  0.36002100  0.49123800  0.57944400  1
  O  O62  1  0.86041933  0.51459067  0.63916767  1
  O  O63  1  0.84792400  0.52708600  0.52749900  1
  O  O64  1  0.65417133  0.13958067  0.63916767  1
  O  O65  1  0.97331233  0.79788367  0.58722267  1
  O  O66  1  0.02668767  0.20211633  0.41277733  1
  O  O67  1  0.34582867  0.86041933  0.36083233  1
  O  O68  1  0.15207600  0.47291400  0.47250100  1
  O  O69  1  0.13958067  0.48540933  0.36083233  1
  O  O70  1  0.63997900  0.50876200  0.42055600  1
  O  O71  1  0.79788367  0.82457133  0.41277733  1
  O  O72  1  0.82457133  0.02668767  0.58722267  1
  O  O73  1  0.48540933  0.34582867  0.63916767  1
  O  O74  1  0.52708600  0.67916200  0.47250100  1
  O  O75  1  0.86878300  0.36002100  0.42055600  1
  O  O76  1  0.67916200  0.15207600  0.52749900  1
  O  O77  1  0.50876200  0.86878300  0.57944400  1
  O  O78  1  0.15790467  0.46455033  0.75388933  1
  O  O79  1  0.98750467  0.18125733  0.80583433  1
  O  O80  1  0.79788367  0.97331233  0.91277733  1
  O  O81  1  0.13958067  0.65417133  0.86083233  1
  O  O82  1  0.18125733  0.98750467  0.69416567  1
  O  O83  1  0.84209533  0.30664567  0.74611067  1
  O  O84  1  0.86878300  0.50876200  0.92055600  1
  O  O85  1  0.02668767  0.82457133  0.91277733  1
  O  O86  1  0.52708600  0.84792400  0.97250100  1
  O  O87  1  0.51459067  0.86041933  0.86083233  1
  O  O88  1  0.32083800  0.47291400  0.97250100  1
  O  O89  1  0.63997900  0.13121700  0.92055600  1
  O  O90  1  0.69335433  0.53544967  0.74611067  1
  O  O91  1  0.01249533  0.19375267  0.69416567  1
  O  O92  1  0.81874267  0.80624733  0.80583433  1
  O  O93  1  0.80624733  0.81874267  0.69416567  1
  O  O94  1  0.30664567  0.84209533  0.75388933  1
  O  O95  1  0.46455033  0.15790467  0.74611067  1
  O  O96  1  0.49123800  0.36002100  0.92055600  1
  O  O97  1  0.15207600  0.67916200  0.97250100  1
  O  O98  1  0.19375267  0.01249533  0.80583433  1
  O  O99  1  0.53544967  0.69335433  0.75388933  1
  O  O100  1  0.34582867  0.48540933  0.86083233  1
  O  O101  1  0.17542867  0.20211633  0.91277733  1
