# generated using pymatgen
data_Na8Fe7(PO4)8
_symmetry_space_group_name_H-M   'P 1'
_cell_length_a   10.08978000
_cell_length_b   12.65257200
_cell_length_c   11.52262051
_cell_angle_alpha   90.00000000
_cell_angle_beta   115.48168356
_cell_angle_gamma   90.00000000
_symmetry_Int_Tables_number   1
_chemical_formula_structural   Na8Fe7(PO4)8
_chemical_formula_sum   'Na16 Fe14 P16 O64'
_cell_volume   1327.90258398
_cell_formula_units_Z   2
loop_
 _symmetry_equiv_pos_site_id
 _symmetry_equiv_pos_as_xyz
  1  'x, y, z'
loop_
 _atom_site_type_symbol
 _atom_site_label
 _atom_site_symmetry_multiplicity
 _atom_site_fract_x
 _atom_site_fract_y
 _atom_site_fract_z
 _atom_site_occupancy
  Na  Na0  1  0.63435150  0.87694250  0.51555300  1
  Na  Na1  1  0.63435150  0.12305750  0.51555300  1
  Na  Na2  1  0.62265100  0.37408600  0.49732800  1
  Na  Na3  1  0.62265100  0.62591400  0.49732800  1
  Na  Na4  1  0.61659450  0.37882450  0.99744000  1
  Na  Na5  1  0.61659450  0.62117550  0.99744000  1
  Na  Na6  1  0.62922750  0.11965050  0.99438600  1
  Na  Na7  1  0.62922750  0.88034950  0.99438600  1
  Na  Na8  1  0.13435150  0.37694250  0.51555300  1
  Na  Na9  1  0.13435150  0.62305750  0.51555300  1
  Na  Na10  1  0.12265100  0.87408600  0.49732800  1
  Na  Na11  1  0.12265100  0.12591400  0.49732800  1
  Na  Na12  1  0.11659450  0.87882450  0.99744000  1
  Na  Na13  1  0.11659450  0.12117550  0.99744000  1
  Na  Na14  1  0.12922750  0.61965050  0.99438600  1
  Na  Na15  1  0.12922750  0.38034950  0.99438600  1
  Fe  Fe16  1  0.26445500  0.00000000  0.78309300  1
  Fe  Fe17  1  0.47674850  0.24993250  0.71360200  1
  Fe  Fe18  1  0.47674850  0.75006750  0.71360200  1
  Fe  Fe19  1  0.27553400  0.00000000  0.28687400  1
  Fe  Fe20  1  0.77594100  0.00000000  0.28746100  1
  Fe  Fe21  1  0.49388950  0.25009350  0.21629800  1
  Fe  Fe22  1  0.49388950  0.74990650  0.21629800  1
  Fe  Fe23  1  0.76445500  0.50000000  0.78309300  1
  Fe  Fe24  1  0.97674850  0.74993250  0.71360200  1
  Fe  Fe25  1  0.97674850  0.25006750  0.71360200  1
  Fe  Fe26  1  0.77553400  0.50000000  0.28687400  1
  Fe  Fe27  1  0.27594100  0.50000000  0.28746100  1
  Fe  Fe28  1  0.99388950  0.75009350  0.21629800  1
  Fe  Fe29  1  0.99388950  0.24990650  0.21629800  1
  P  P30  1  0.28262250  0.75637250  0.88798300  1
  P  P31  1  0.28262250  0.24362750  0.88798300  1
  P  P32  1  0.90762300  0.00000000  0.60863800  1
  P  P33  1  0.39383600  0.00000000  0.60022500  1
  P  P34  1  0.35312000  0.24857200  0.39445500  1
  P  P35  1  0.35312000  0.75142800  0.39445500  1
  P  P36  1  0.96294500  0.00000000  0.11346300  1
  P  P37  1  0.46145600  0.00000000  0.10866900  1
  P  P38  1  0.78262250  0.25637250  0.88798300  1
  P  P39  1  0.78262250  0.74362750  0.88798300  1
  P  P40  1  0.40762300  0.50000000  0.60863800  1
  P  P41  1  0.89383600  0.50000000  0.60022500  1
  P  P42  1  0.85312000  0.74857200  0.39445500  1
  P  P43  1  0.85312000  0.25142800  0.39445500  1
  P  P44  1  0.46294500  0.50000000  0.11346300  1
  P  P45  1  0.96145600  0.50000000  0.10866900  1
  O  O46  1  0.44268500  0.00000000  0.96706900  1
  O  O47  1  0.93987200  0.00000000  0.97465200  1
  O  O48  1  0.42767450  0.74954850  0.87187000  1
  O  O49  1  0.42767450  0.25045150  0.87187000  1
  O  O50  1  0.66432550  0.17138450  0.81073700  1
  O  O51  1  0.19226200  0.85921000  0.82723000  1
  O  O52  1  0.66432550  0.82861550  0.81073700  1
  O  O53  1  0.19226200  0.14079000  0.82723000  1
  O  O54  1  0.36791100  0.09997900  0.67394800  1
  O  O55  1  0.36791100  0.90002100  0.67394800  1
  O  O56  1  0.88516250  0.89681550  0.67354000  1
  O  O57  1  0.88516250  0.10318450  0.67354000  1
  O  O58  1  0.54036900  0.00000000  0.59730900  1
  O  O59  1  0.06108400  0.00000000  0.60978800  1
  O  O60  1  0.47268850  0.75239950  0.53946900  1
  O  O61  1  0.47268850  0.24760050  0.53946900  1
  O  O62  1  0.26282300  0.00000000  0.46386800  1
  O  O63  1  0.78280900  0.00000000  0.46834500  1
  O  O64  1  0.69975300  0.24840400  0.39169700  1
  O  O65  1  0.69975300  0.75159600  0.39169700  1
  O  O66  1  0.38483950  0.84918250  0.32782100  1
  O  O67  1  0.38779400  0.34487400  0.32782100  1
  O  O68  1  0.38483950  0.15081750  0.32782100  1
  O  O69  1  0.38779400  0.65512600  0.32782100  1
  O  O70  1  0.56201500  0.59822900  0.18571700  1
  O  O71  1  0.56201500  0.40177100  0.18571700  1
  O  O72  1  0.55964450  0.90155350  0.17658100  1
  O  O73  1  0.55964450  0.09844650  0.17658100  1
  O  O74  1  0.31244200  0.00000000  0.11535800  1
  O  O75  1  0.81442700  0.00000000  0.12444600  1
  O  O76  1  0.31256500  0.75025500  0.03074100  1
  O  O77  1  0.31256500  0.24974500  0.03074100  1
  O  O78  1  0.94268500  0.50000000  0.96706900  1
  O  O79  1  0.43987200  0.50000000  0.97465200  1
  O  O80  1  0.92767450  0.24954850  0.87187000  1
  O  O81  1  0.92767450  0.75045150  0.87187000  1
  O  O82  1  0.16432550  0.67138450  0.81073700  1
  O  O83  1  0.69226200  0.35921000  0.82723000  1
  O  O84  1  0.16432550  0.32861550  0.81073700  1
  O  O85  1  0.69226200  0.64079000  0.82723000  1
  O  O86  1  0.86791100  0.59997900  0.67394800  1
  O  O87  1  0.86791100  0.40002100  0.67394800  1
  O  O88  1  0.38516250  0.39681550  0.67354000  1
  O  O89  1  0.38516250  0.60318450  0.67354000  1
  O  O90  1  0.04036900  0.50000000  0.59730900  1
  O  O91  1  0.56108400  0.50000000  0.60978800  1
  O  O92  1  0.97268850  0.25239950  0.53946900  1
  O  O93  1  0.97268850  0.74760050  0.53946900  1
  O  O94  1  0.76282300  0.50000000  0.46386800  1
  O  O95  1  0.28280900  0.50000000  0.46834500  1
  O  O96  1  0.19975300  0.74840400  0.39169700  1
  O  O97  1  0.19975300  0.25159600  0.39169700  1
  O  O98  1  0.88483950  0.34918250  0.32782100  1
  O  O99  1  0.88779400  0.84487400  0.32782100  1
  O  O100  1  0.88483950  0.65081750  0.32782100  1
  O  O101  1  0.88779400  0.15512600  0.32782100  1
  O  O102  1  0.06201500  0.09822900  0.18571700  1
  O  O103  1  0.06201500  0.90177100  0.18571700  1
  O  O104  1  0.05964450  0.40155350  0.17658100  1
  O  O105  1  0.05964450  0.59844650  0.17658100  1
  O  O106  1  0.81244200  0.50000000  0.11535800  1
  O  O107  1  0.31442700  0.50000000  0.12444600  1
  O  O108  1  0.81256500  0.25025500  0.03074100  1
  O  O109  1  0.81256500  0.74974500  0.03074100  1
