# generated using pymatgen
data_Li6FeO6
_symmetry_space_group_name_H-M   'P 1'
_cell_length_a   5.77937189
_cell_length_b   5.77937189
_cell_length_c   12.96611963
_cell_angle_alpha   90.00000000
_cell_angle_beta   90.00000000
_cell_angle_gamma   120.00000000
_symmetry_Int_Tables_number   1
_chemical_formula_structural   Li6FeO6
_chemical_formula_sum   'Li18 Fe3 O18'
_cell_volume   375.06102749
_cell_formula_units_Z   3
loop_
 _symmetry_equiv_pos_site_id
 _symmetry_equiv_pos_as_xyz
  1  'x, y, z'
loop_
 _atom_site_type_symbol
 _atom_site_label
 _atom_site_symmetry_multiplicity
 _atom_site_fract_x
 _atom_site_fract_y
 _atom_site_fract_z
 _atom_site_occupancy
  Li  Li0  1  0.68965000  0.73251100  0.23625300  1
  Li  Li1  1  0.39917767  0.37619433  0.09708033  1
  Li  Li2  1  0.62380567  0.02298333  0.09708033  1
  Li  Li3  1  0.04286100  0.31035000  0.23625300  1
  Li  Li4  1  0.26748900  0.95713900  0.23625300  1
  Li  Li5  1  0.97701667  0.60082233  0.09708033  1
  Li  Li6  1  0.35631667  0.06584433  0.56958633  1
  Li  Li7  1  0.06584433  0.70952767  0.43041367  1
  Li  Li8  1  0.29047233  0.35631667  0.43041367  1
  Li  Li9  1  0.70952767  0.64368333  0.56958633  1
  Li  Li10  1  0.93415567  0.29047233  0.56958633  1
  Li  Li11  1  0.64368333  0.93415567  0.43041367  1
  Li  Li12  1  0.02298333  0.39917767  0.90291967  1
  Li  Li13  1  0.73251100  0.04286100  0.76374700  1
  Li  Li14  1  0.95713900  0.68965000  0.76374700  1
  Li  Li15  1  0.37619433  0.97701667  0.90291967  1
  Li  Li16  1  0.60082233  0.62380567  0.90291967  1
  Li  Li17  1  0.31035000  0.26748900  0.76374700  1
  Fe  Fe18  1  0.00000000  0.00000000  0.00000000  1
  Fe  Fe19  1  0.66666667  0.33333333  0.33333333  1
  Fe  Fe20  1  0.33333333  0.66666667  0.66666667  1
  O  O21  1  0.71648800  0.72946000  0.07913000  1
  O  O22  1  0.39612667  0.34630533  0.25420333  1
  O  O23  1  0.65369467  0.04982133  0.25420333  1
  O  O24  1  0.01297200  0.28351200  0.07913000  1
  O  O25  1  0.27054000  0.98702800  0.07913000  1
  O  O26  1  0.95017867  0.60387333  0.25420333  1
  O  O27  1  0.38315467  0.06279333  0.41246333  1
  O  O28  1  0.06279333  0.67963867  0.58753667  1
  O  O29  1  0.32036133  0.38315467  0.58753667  1
  O  O30  1  0.67963867  0.61684533  0.41246333  1
  O  O31  1  0.93720667  0.32036133  0.41246333  1
  O  O32  1  0.61684533  0.93720667  0.58753667  1
  O  O33  1  0.04982133  0.39612667  0.74579667  1
  O  O34  1  0.72946000  0.01297200  0.92087000  1
  O  O35  1  0.98702800  0.71648800  0.92087000  1
  O  O36  1  0.34630533  0.95017867  0.74579667  1
  O  O37  1  0.60387333  0.65369467  0.74579667  1
  O  O38  1  0.28351200  0.27054000  0.92087000  1
