# generated using pymatgen
data_NaVSiCO7
_symmetry_space_group_name_H-M   'P 1'
_cell_length_a   5.40774100
_cell_length_b   6.42612900
_cell_length_c   9.06236719
_cell_angle_alpha   90.00000000
_cell_angle_beta   93.26367934
_cell_angle_gamma   90.00000000
_symmetry_Int_Tables_number   1
_chemical_formula_structural   NaVSiCO7
_chemical_formula_sum   'Na2 V2 Si2 C2 O14'
_cell_volume   314.41410923
_cell_formula_units_Z   2
loop_
 _symmetry_equiv_pos_site_id
 _symmetry_equiv_pos_as_xyz
  1  'x, y, z'
loop_
 _atom_site_type_symbol
 _atom_site_label
 _atom_site_symmetry_multiplicity
 _atom_site_fract_x
 _atom_site_fract_y
 _atom_site_fract_z
 _atom_site_occupancy
  Na  Na0  1  0.76481700  0.48581400  0.22387900  1
  Na  Na1  1  0.23518300  0.98581400  0.77612100  1
  V  V2  1  0.20180300  0.76591500  0.34377600  1
  V  V3  1  0.79819700  0.26591500  0.65622400  1
  Si  Si4  1  0.27523500  0.25984200  0.43804500  1
  Si  Si5  1  0.72476500  0.75984200  0.56195500  1
  C  C6  1  0.27764100  0.74346000  0.08011400  1
  C  C7  1  0.72235900  0.24346000  0.91988600  1
  O  O8  1  0.68982000  0.24451100  0.05313700  1
  O  O9  1  0.05687600  0.74958200  0.14017200  1
  O  O10  1  0.45334000  0.74047100  0.18883900  1
  O  O11  1  0.21364400  0.04689700  0.34136400  1
  O  O12  1  0.20514900  0.45987500  0.33766700  1
  O  O13  1  0.89482100  0.74563300  0.41649800  1
  O  O14  1  0.56899900  0.25585100  0.49809800  1
  O  O15  1  0.43100100  0.75585100  0.50190200  1
  O  O16  1  0.10517900  0.24563300  0.58350200  1
  O  O17  1  0.79485100  0.95987500  0.66233300  1
  O  O18  1  0.78635600  0.54689700  0.65863600  1
  O  O19  1  0.54666000  0.24047100  0.81116100  1
  O  O20  1  0.94312400  0.24958200  0.85982800  1
  O  O21  1  0.31018000  0.74451100  0.94686300  1
