# generated using pymatgen
data_Li5Mn5(SbO6)2
_symmetry_space_group_name_H-M   'P 1'
_cell_length_a   5.41519200
_cell_length_b   9.56762400
_cell_length_c   10.41466981
_cell_angle_alpha   90.00000000
_cell_angle_beta   102.07405703
_cell_angle_gamma   90.00000000
_symmetry_Int_Tables_number   1
_chemical_formula_structural   Li5Mn5(SbO6)2
_chemical_formula_sum   'Li10 Mn10 Sb4 O24'
_cell_volume   527.65269681
_cell_formula_units_Z   2
loop_
 _symmetry_equiv_pos_site_id
 _symmetry_equiv_pos_as_xyz
  1  'x, y, z'
loop_
 _atom_site_type_symbol
 _atom_site_label
 _atom_site_symmetry_multiplicity
 _atom_site_fract_x
 _atom_site_fract_y
 _atom_site_fract_z
 _atom_site_occupancy
  Li  Li0  1  0.74893450  0.90925250  0.74756300  1
  Li  Li1  1  0.25809900  0.58824200  0.25385100  1
  Li  Li2  1  0.25106550  0.90925250  0.25243700  1
  Li  Li3  1  0.74190100  0.58824200  0.74614900  1
  Li  Li4  1  0.00000000  0.92001700  0.50000000  1
  Li  Li5  1  0.24893450  0.40925250  0.74756300  1
  Li  Li6  1  0.75809900  0.08824200  0.25385100  1
  Li  Li7  1  0.75106550  0.40925250  0.25243700  1
  Li  Li8  1  0.24190100  0.08824200  0.74614900  1
  Li  Li9  1  0.50000000  0.42001700  0.50000000  1
  Mn  Mn10  1  0.50000000  0.57900900  0.00000000  1
  Mn  Mn11  1  0.75772500  0.75369100  0.25550100  1
  Mn  Mn12  1  0.24227500  0.75369100  0.74449900  1
  Mn  Mn13  1  0.50000000  0.91874100  0.00000000  1
  Mn  Mn14  1  0.00000000  0.57927600  0.50000000  1
  Mn  Mn15  1  0.00000000  0.07900900  0.00000000  1
  Mn  Mn16  1  0.25772500  0.25369100  0.25550100  1
  Mn  Mn17  1  0.74227500  0.25369100  0.74449900  1
  Mn  Mn18  1  0.00000000  0.41874100  0.00000000  1
  Mn  Mn19  1  0.50000000  0.07927600  0.50000000  1
  Sb  Sb20  1  0.50000000  0.75077300  0.50000000  1
  Sb  Sb21  1  0.00000000  0.74819900  0.00000000  1
  Sb  Sb22  1  0.00000000  0.25077300  0.50000000  1
  Sb  Sb23  1  0.50000000  0.24819900  0.00000000  1
  O  O24  1  0.61173100  0.60215000  0.38449200  1
  O  O25  1  0.38826900  0.60215000  0.61550800  1
  O  O26  1  0.62555350  0.74930450  0.87988500  1
  O  O27  1  0.37444650  0.74930450  0.12011500  1
  O  O28  1  0.60945800  0.90159800  0.38580500  1
  O  O29  1  0.39054200  0.90159800  0.61419500  1
  O  O30  1  0.11610800  0.59010600  0.87579600  1
  O  O31  1  0.88389200  0.59010600  0.12420400  1
  O  O32  1  0.14740300  0.74807200  0.38233200  1
  O  O33  1  0.85259700  0.74807200  0.61766800  1
  O  O34  1  0.11616500  0.90957400  0.87464100  1
  O  O35  1  0.88383500  0.90957400  0.12535900  1
  O  O36  1  0.11173100  0.10215000  0.38449200  1
  O  O37  1  0.88826900  0.10215000  0.61550800  1
  O  O38  1  0.12555350  0.24930450  0.87988500  1
  O  O39  1  0.87444650  0.24930450  0.12011500  1
  O  O40  1  0.10945800  0.40159800  0.38580500  1
  O  O41  1  0.89054200  0.40159800  0.61419500  1
  O  O42  1  0.61610800  0.09010600  0.87579600  1
  O  O43  1  0.38389200  0.09010600  0.12420400  1
  O  O44  1  0.64740300  0.24807200  0.38233200  1
  O  O45  1  0.35259700  0.24807200  0.61766800  1
  O  O46  1  0.61616500  0.40957400  0.87464100  1
  O  O47  1  0.38383500  0.40957400  0.12535900  1
