# generated using pymatgen
data_Li6MnO3F2
_symmetry_space_group_name_H-M   'P 1'
_cell_length_a   10.04981800
_cell_length_b   5.10309600
_cell_length_c   9.74422871
_cell_angle_alpha   90.00000000
_cell_angle_beta   94.37772157
_cell_angle_gamma   90.00000000
_symmetry_Int_Tables_number   1
_chemical_formula_structural   Li6MnO3F2
_chemical_formula_sum   'Li24 Mn4 O12 F8'
_cell_volume   498.27661049
_cell_formula_units_Z   4
loop_
 _symmetry_equiv_pos_site_id
 _symmetry_equiv_pos_as_xyz
  1  'x, y, z'
loop_
 _atom_site_type_symbol
 _atom_site_label
 _atom_site_symmetry_multiplicity
 _atom_site_fract_x
 _atom_site_fract_y
 _atom_site_fract_z
 _atom_site_occupancy
  Li  Li0  1  0.66542650  0.05955250  0.27195300  1
  Li  Li1  1  0.66542650  0.94044750  0.77195300  1
  Li  Li2  1  0.72783700  0.47302500  0.99018500  1
  Li  Li3  1  0.72783700  0.52697500  0.49018500  1
  Li  Li4  1  0.77216300  0.02697500  0.00981500  1
  Li  Li5  1  0.77216300  0.97302500  0.50981500  1
  Li  Li6  1  0.83457350  0.44044750  0.72804700  1
  Li  Li7  1  0.83457350  0.55955250  0.22804700  1
  Li  Li8  1  0.98944100  0.32396300  0.56255300  1
  Li  Li9  1  0.51055900  0.82396300  0.93744700  1
  Li  Li10  1  0.51055900  0.17603700  0.43744700  1
  Li  Li11  1  0.98944100  0.67603700  0.06255300  1
  Li  Li12  1  0.16542650  0.55955250  0.27195300  1
  Li  Li13  1  0.16542650  0.44044750  0.77195300  1
  Li  Li14  1  0.22783700  0.97302500  0.99018500  1
  Li  Li15  1  0.22783700  0.02697500  0.49018500  1
  Li  Li16  1  0.27216300  0.52697500  0.00981500  1
  Li  Li17  1  0.27216300  0.47302500  0.50981500  1
  Li  Li18  1  0.33457350  0.94044750  0.72804700  1
  Li  Li19  1  0.33457350  0.05955250  0.22804700  1
  Li  Li20  1  0.48944100  0.82396300  0.56255300  1
  Li  Li21  1  0.01055900  0.32396300  0.93744700  1
  Li  Li22  1  0.01055900  0.67603700  0.43744700  1
  Li  Li23  1  0.48944100  0.17603700  0.06255300  1
  Mn  Mn24  1  0.00000000  0.15217200  0.25000000  1
  Mn  Mn25  1  0.00000000  0.84782800  0.75000000  1
  Mn  Mn26  1  0.50000000  0.65217200  0.25000000  1
  Mn  Mn27  1  0.50000000  0.34782800  0.75000000  1
  O  O28  1  0.61141500  0.18636000  0.92054200  1
  O  O29  1  0.61141500  0.81364000  0.42054200  1
  O  O30  1  0.88858500  0.68636000  0.57945800  1
  O  O31  1  0.88858500  0.31364000  0.07945800  1
  O  O32  1  0.00000000  0.23837800  0.75000000  1
  O  O33  1  0.00000000  0.76162200  0.25000000  1
  O  O34  1  0.11141500  0.68636000  0.92054200  1
  O  O35  1  0.11141500  0.31364000  0.42054200  1
  O  O36  1  0.38858500  0.18636000  0.57945800  1
  O  O37  1  0.38858500  0.81364000  0.07945800  1
  O  O38  1  0.50000000  0.73837800  0.75000000  1
  O  O39  1  0.50000000  0.26162200  0.25000000  1
  F  F40  1  0.69738700  0.23177800  0.62921300  1
  F  F41  1  0.69738700  0.76822200  0.12921300  1
  F  F42  1  0.80261300  0.73177800  0.87078700  1
  F  F43  1  0.80261300  0.26822200  0.37078700  1
  F  F44  1  0.19738700  0.73177800  0.62921300  1
  F  F45  1  0.19738700  0.26822200  0.12921300  1
  F  F46  1  0.30261300  0.23177800  0.87078700  1
  F  F47  1  0.30261300  0.76822200  0.37078700  1
