# generated using pymatgen
data_Li8MnO6
_symmetry_space_group_name_H-M   'P 1'
_cell_length_a   5.40003067
_cell_length_b   5.40003067
_cell_length_c   14.88594500
_cell_angle_alpha   90.00000000
_cell_angle_beta   90.00000000
_cell_angle_gamma   120.00000000
_symmetry_Int_Tables_number   1
_chemical_formula_structural   Li8MnO6
_chemical_formula_sum   'Li24 Mn3 O18'
_cell_volume   375.92351616
_cell_formula_units_Z   3
loop_
 _symmetry_equiv_pos_site_id
 _symmetry_equiv_pos_as_xyz
  1  'x, y, z'
loop_
 _atom_site_type_symbol
 _atom_site_label
 _atom_site_symmetry_multiplicity
 _atom_site_fract_x
 _atom_site_fract_y
 _atom_site_fract_z
 _atom_site_occupancy
  Li  Li0  1  0.02015800  0.70619900  0.21639000  1
  Li  Li1  1  0.98062567  0.35349133  0.11694333  1
  Li  Li2  1  0.37286567  0.01937433  0.11694333  1
  Li  Li3  1  0.33333333  0.66666667  0.32467300  1
  Li  Li4  1  0.33333333  0.66666667  0.00866033  1
  Li  Li5  1  0.29380100  0.31395900  0.21639000  1
  Li  Li6  1  0.68604100  0.97984200  0.21639000  1
  Li  Li7  1  0.64650867  0.62713433  0.11694333  1
  Li  Li8  1  0.68682467  0.03953233  0.54972333  1
  Li  Li9  1  0.64729233  0.68682467  0.45027667  1
  Li  Li10  1  0.03953233  0.35270767  0.45027667  1
  Li  Li11  1  0.00000000  0.00000000  0.65800633  1
  Li  Li12  1  0.00000000  0.00000000  0.34199367  1
  Li  Li13  1  0.96046767  0.64729233  0.54972333  1
  Li  Li14  1  0.35270767  0.31317533  0.54972333  1
  Li  Li15  1  0.31317533  0.96046767  0.45027667  1
  Li  Li16  1  0.35349133  0.37286567  0.88305667  1
  Li  Li17  1  0.31395900  0.02015800  0.78361000  1
  Li  Li18  1  0.70619900  0.68604100  0.78361000  1
  Li  Li19  1  0.66666667  0.33333333  0.99133967  1
  Li  Li20  1  0.66666667  0.33333333  0.67532700  1
  Li  Li21  1  0.62713433  0.98062567  0.88305667  1
  Li  Li22  1  0.01937433  0.64650867  0.88305667  1
  Li  Li23  1  0.97984200  0.29380100  0.78361000  1
  Mn  Mn24  1  0.00000000  0.00000000  0.00000000  1
  Mn  Mn25  1  0.66666667  0.33333333  0.33333333  1
  Mn  Mn26  1  0.33333333  0.66666667  0.66666667  1
  O  O27  1  0.01256767  0.70574333  0.07730233  1
  O  O28  1  0.97349100  0.34590100  0.25603100  1
  O  O29  1  0.37241000  0.02650900  0.25603100  1
  O  O30  1  0.29425667  0.30682433  0.07730233  1
  O  O31  1  0.69317567  0.98743233  0.07730233  1
  O  O32  1  0.65409900  0.62759000  0.25603100  1
  O  O33  1  0.67923433  0.03907667  0.41063567  1
  O  O34  1  0.64015767  0.67923433  0.58936433  1
  O  O35  1  0.03907667  0.35984233  0.58936433  1
  O  O36  1  0.96092333  0.64015767  0.41063567  1
  O  O37  1  0.35984233  0.32076567  0.41063567  1
  O  O38  1  0.32076567  0.96092333  0.58936433  1
  O  O39  1  0.34590100  0.37241000  0.74396900  1
  O  O40  1  0.30682433  0.01256767  0.92269767  1
  O  O41  1  0.70574333  0.69317567  0.92269767  1
  O  O42  1  0.62759000  0.97349100  0.74396900  1
  O  O43  1  0.02650900  0.65409900  0.74396900  1
  O  O44  1  0.98743233  0.29425667  0.92269767  1
