# generated using pymatgen
data_Li3MgNiO4
_symmetry_space_group_name_H-M   'P 1'
_cell_length_a   10.33281200
_cell_length_b   10.33281200
_cell_length_c   14.23947400
_cell_angle_alpha   90.00000000
_cell_angle_beta   90.00000000
_cell_angle_gamma   90.00000000
_symmetry_Int_Tables_number   1
_chemical_formula_structural   Li3MgNiO4
_chemical_formula_sum   'Li48 Mg16 Ni16 O64'
_cell_volume   1520.30597506
_cell_formula_units_Z   16
loop_
 _symmetry_equiv_pos_site_id
 _symmetry_equiv_pos_as_xyz
  1  'x, y, z'
loop_
 _atom_site_type_symbol
 _atom_site_label
 _atom_site_symmetry_multiplicity
 _atom_site_fract_x
 _atom_site_fract_y
 _atom_site_fract_z
 _atom_site_occupancy
  Li  Li0  1  0.82864850  0.49569050  0.30924550  1
  Li  Li1  1  0.34212350  0.99436950  0.31743450  1
  Li  Li2  1  0.00430950  0.32864850  0.19075450  1
  Li  Li3  1  0.50563050  0.84212350  0.18256550  1
  Li  Li4  1  0.50535850  0.84100050  0.44027550  1
  Li  Li5  1  0.49464150  0.15899950  0.44027550  1
  Li  Li6  1  0.49436950  0.15787650  0.18256550  1
  Li  Li7  1  0.99569050  0.67135150  0.19075450  1
  Li  Li8  1  0.65899950  0.00535850  0.05972450  1
  Li  Li9  1  0.15899950  0.00535850  0.69027550  1
  Li  Li10  1  0.65787650  0.00563050  0.31743450  1
  Li  Li11  1  0.17135150  0.50430950  0.30924550  1
  Li  Li12  1  0.32864850  0.49569050  0.44075450  1
  Li  Li13  1  0.34212350  0.49436950  0.93256550  1
  Li  Li14  1  0.34100050  0.49464150  0.19027550  1
  Li  Li15  1  0.34100050  0.99464150  0.05972450  1
  Li  Li16  1  0.00430950  0.82864850  0.05924550  1
  Li  Li17  1  0.50563050  0.34212350  0.06743450  1
  Li  Li18  1  0.50535850  0.34100050  0.80972450  1
  Li  Li19  1  0.99464150  0.15899950  0.30972450  1
  Li  Li20  1  0.99436950  0.15787650  0.56743450  1
  Li  Li21  1  0.99569050  0.17135150  0.05924550  1
  Li  Li22  1  0.15787650  0.00563050  0.43256550  1
  Li  Li23  1  0.67135150  0.50430950  0.44075450  1
  Li  Li24  1  0.32864850  0.99569050  0.80924550  1
  Li  Li25  1  0.84212350  0.49436950  0.81743450  1
  Li  Li26  1  0.50430950  0.82864850  0.69075450  1
  Li  Li27  1  0.00563050  0.34212350  0.68256550  1
  Li  Li28  1  0.00535850  0.34100050  0.94027550  1
  Li  Li29  1  0.99464150  0.65899950  0.94027550  1
  Li  Li30  1  0.99436950  0.65787650  0.68256550  1
  Li  Li31  1  0.49569050  0.17135150  0.69075450  1
  Li  Li32  1  0.15899950  0.50535850  0.55972450  1
  Li  Li33  1  0.65899950  0.50535850  0.19027550  1
  Li  Li34  1  0.15787650  0.50563050  0.81743450  1
  Li  Li35  1  0.67135150  0.00430950  0.80924550  1
  Li  Li36  1  0.82864850  0.99569050  0.94075450  1
  Li  Li37  1  0.84212350  0.99436950  0.43256550  1
  Li  Li38  1  0.84100050  0.99464150  0.69027550  1
  Li  Li39  1  0.84100050  0.49464150  0.55972450  1
  Li  Li40  1  0.50430950  0.32864850  0.55924550  1
  Li  Li41  1  0.00563050  0.84212350  0.56743450  1
  Li  Li42  1  0.00535850  0.84100050  0.30972450  1
  Li  Li43  1  0.49464150  0.65899950  0.80972450  1
  Li  Li44  1  0.49436950  0.65787650  0.06743450  1
  Li  Li45  1  0.49569050  0.67135150  0.55924550  1
  Li  Li46  1  0.65787650  0.50563050  0.93256550  1
  Li  Li47  1  0.17135150  0.00430950  0.94075450  1
  Mg  Mg48  1  0.33482900  0.98934300  0.56399400  1
  Mg  Mg49  1  0.01065700  0.33482900  0.43600600  1
  Mg  Mg50  1  0.51065700  0.33482900  0.31399400  1
  Mg  Mg51  1  0.16517100  0.51065700  0.06399400  1
  Mg  Mg52  1  0.33482900  0.48934300  0.68600600  1
  Mg  Mg53  1  0.98934300  0.16517100  0.81399400  1
  Mg  Mg54  1  0.48934300  0.16517100  0.93600600  1
  Mg  Mg55  1  0.16517100  0.01065700  0.18600600  1
  Mg  Mg56  1  0.83482900  0.48934300  0.06399400  1
  Mg  Mg57  1  0.51065700  0.83482900  0.93600600  1
  Mg  Mg58  1  0.01065700  0.83482900  0.81399400  1
  Mg  Mg59  1  0.66517100  0.01065700  0.56399400  1
  Mg  Mg60  1  0.83482900  0.98934300  0.18600600  1
  Mg  Mg61  1  0.48934300  0.66517100  0.31399400  1
  Mg  Mg62  1  0.98934300  0.66517100  0.43600600  1
  Mg  Mg63  1  0.66517100  0.51065700  0.68600600  1
  Ni  Ni64  1  0.25010150  0.24701450  0.56249050  1
  Ni  Ni65  1  0.75298550  0.25010150  0.43750950  1
  Ni  Ni66  1  0.25298550  0.25010150  0.31249050  1
  Ni  Ni67  1  0.75010150  0.24701450  0.18750950  1
  Ni  Ni68  1  0.24989850  0.25298550  0.06249050  1
  Ni  Ni69  1  0.74701450  0.24989850  0.93750950  1
  Ni  Ni70  1  0.24701450  0.24989850  0.81249050  1
  Ni  Ni71  1  0.74989850  0.25298550  0.68750950  1
  Ni  Ni72  1  0.75010150  0.74701450  0.06249050  1
  Ni  Ni73  1  0.25298550  0.75010150  0.93750950  1
  Ni  Ni74  1  0.75298550  0.75010150  0.81249050  1
  Ni  Ni75  1  0.25010150  0.74701450  0.68750950  1
  Ni  Ni76  1  0.74989850  0.75298550  0.56249050  1
  Ni  Ni77  1  0.24701450  0.74989850  0.43750950  1
  Ni  Ni78  1  0.74701450  0.74989850  0.31249050  1
  Ni  Ni79  1  0.24989850  0.75298550  0.18750950  1
  O  O80  1  0.16773400  0.08820600  0.56323900  1
  O  O81  1  0.83192500  0.40582300  0.18701500  1
  O  O82  1  0.33946700  0.41517100  0.31437600  1
  O  O83  1  0.33251600  0.91168200  0.43944900  1
  O  O84  1  0.41517100  0.16053300  0.56437600  1
  O  O85  1  0.41179400  0.16773400  0.31323900  1
  O  O86  1  0.91168200  0.16748400  0.68944900  1
  O  O87  1  0.58831800  0.33251600  0.18944900  1
  O  O88  1  0.09417700  0.33192500  0.31298500  1
  O  O89  1  0.09417700  0.83192500  0.93701500  1
  O  O90  1  0.58820600  0.83226600  0.31323900  1
  O  O91  1  0.08482900  0.33946700  0.06437600  1
  O  O92  1  0.16748400  0.58831800  0.93944900  1
  O  O93  1  0.16053300  0.08482900  0.81437600  1
  O  O94  1  0.16807500  0.59417700  0.18701500  1
  O  O95  1  0.66773400  0.08820600  0.18676100  1
  O  O96  1  0.33226600  0.41179400  0.06323900  1
  O  O97  1  0.33192500  0.40582300  0.56298500  1
  O  O98  1  0.83946700  0.41517100  0.43562400  1
  O  O99  1  0.33251600  0.41168200  0.81055100  1
  O  O100  1  0.91517100  0.16053300  0.18562400  1
  O  O101  1  0.91179400  0.16773400  0.43676100  1
  O  O102  1  0.40582300  0.66807500  0.43701500  1
  O  O103  1  0.90582300  0.66807500  0.31298500  1
  O  O104  1  0.41168200  0.16748400  0.06055100  1
  O  O105  1  0.08831800  0.33251600  0.56055100  1
  O  O106  1  0.58820600  0.33226600  0.93676100  1
  O  O107  1  0.58482900  0.33946700  0.68562400  1
  O  O108  1  0.16748400  0.08831800  0.31055100  1
  O  O109  1  0.66053300  0.08482900  0.93562400  1
  O  O110  1  0.16807500  0.09417700  0.06298500  1
  O  O111  1  0.33226600  0.91179400  0.18676100  1
  O  O112  1  0.66773400  0.58820600  0.06323900  1
  O  O113  1  0.33192500  0.90582300  0.68701500  1
  O  O114  1  0.83946700  0.91517100  0.81437600  1
  O  O115  1  0.83251600  0.41168200  0.93944900  1
  O  O116  1  0.91517100  0.66053300  0.06437600  1
  O  O117  1  0.91179400  0.66773400  0.81323900  1
  O  O118  1  0.41168200  0.66748400  0.18944900  1
  O  O119  1  0.08831800  0.83251600  0.68944900  1
  O  O120  1  0.59417700  0.83192500  0.81298500  1
  O  O121  1  0.59417700  0.33192500  0.43701500  1
  O  O122  1  0.08820600  0.33226600  0.81323900  1
  O  O123  1  0.58482900  0.83946700  0.56437600  1
  O  O124  1  0.66748400  0.08831800  0.43944900  1
  O  O125  1  0.66053300  0.58482900  0.31437600  1
  O  O126  1  0.66807500  0.09417700  0.68701500  1
  O  O127  1  0.16773400  0.58820600  0.68676100  1
  O  O128  1  0.83226600  0.91179400  0.56323900  1
  O  O129  1  0.83192500  0.90582300  0.06298500  1
  O  O130  1  0.33946700  0.91517100  0.93562400  1
  O  O131  1  0.83251600  0.91168200  0.31055100  1
  O  O132  1  0.41517100  0.66053300  0.68562400  1
  O  O133  1  0.41179400  0.66773400  0.93676100  1
  O  O134  1  0.90582300  0.16807500  0.93701500  1
  O  O135  1  0.40582300  0.16807500  0.81298500  1
  O  O136  1  0.91168200  0.66748400  0.56055100  1
  O  O137  1  0.58831800  0.83251600  0.06055100  1
  O  O138  1  0.08820600  0.83226600  0.43676100  1
  O  O139  1  0.08482900  0.83946700  0.18562400  1
  O  O140  1  0.66748400  0.58831800  0.81055100  1
  O  O141  1  0.16053300  0.58482900  0.43562400  1
  O  O142  1  0.66807500  0.59417700  0.56298500  1
  O  O143  1  0.83226600  0.41179400  0.68676100  1
