# generated using pymatgen
data_Li2CrCuO4
_symmetry_space_group_name_H-M   'P 1'
_cell_length_a   5.88407445
_cell_length_b   5.88817330
_cell_length_c   8.34880707
_cell_angle_alpha   90.00000000
_cell_angle_beta   90.00000000
_cell_angle_gamma   90.00000000
_symmetry_Int_Tables_number   1
_chemical_formula_structural   Li2CrCuO4
_chemical_formula_sum   'Li8 Cr4 Cu4 O16'
_cell_volume   289.25652745
_cell_formula_units_Z   4
loop_
 _symmetry_equiv_pos_site_id
 _symmetry_equiv_pos_as_xyz
  1  'x, y, z'
loop_
 _atom_site_type_symbol
 _atom_site_label
 _atom_site_symmetry_multiplicity
 _atom_site_fract_x
 _atom_site_fract_y
 _atom_site_fract_z
 _atom_site_occupancy
  Li  Li0  1  0.50000000  0.00000000  0.00000000  1
  Li  Li1  1  0.25000000  0.75000000  0.75000000  1
  Li  Li2  1  0.50000000  0.50000000  0.00000000  1
  Li  Li3  1  0.75000000  0.75000000  0.75000000  1
  Li  Li4  1  0.00000000  0.50000000  0.50000000  1
  Li  Li5  1  0.75000000  0.25000000  0.25000000  1
  Li  Li6  1  0.00000000  0.00000000  0.50000000  1
  Li  Li7  1  0.25000000  0.25000000  0.25000000  1
  Cr  Cr8  1  0.00000000  0.00000000  0.00000000  1
  Cr  Cr9  1  0.00000000  0.50000000  0.00000000  1
  Cr  Cr10  1  0.50000000  0.50000000  0.50000000  1
  Cr  Cr11  1  0.50000000  0.00000000  0.50000000  1
  Cu  Cu12  1  0.75000000  0.25000000  0.75000000  1
  Cu  Cu13  1  0.25000000  0.25000000  0.75000000  1
  Cu  Cu14  1  0.25000000  0.75000000  0.25000000  1
  Cu  Cu15  1  0.75000000  0.75000000  0.25000000  1
  O  O16  1  0.23443250  0.25000000  0.99457350  1
  O  O17  1  0.00000000  0.48758300  0.76037700  1
  O  O18  1  0.76556750  0.25000000  0.99457350  1
  O  O19  1  0.00000000  0.01241700  0.76037700  1
  O  O20  1  0.00000000  0.98758300  0.23962300  1
  O  O21  1  0.23443250  0.75000000  0.00542650  1
  O  O22  1  0.00000000  0.51241700  0.23962300  1
  O  O23  1  0.76556750  0.75000000  0.00542650  1
  O  O24  1  0.73443250  0.75000000  0.49457350  1
  O  O25  1  0.50000000  0.98758300  0.26037700  1
  O  O26  1  0.26556750  0.75000000  0.49457350  1
  O  O27  1  0.50000000  0.51241700  0.26037700  1
  O  O28  1  0.50000000  0.48758300  0.73962300  1
  O  O29  1  0.73443250  0.25000000  0.50542650  1
  O  O30  1  0.50000000  0.01241700  0.73962300  1
  O  O31  1  0.26556750  0.25000000  0.50542650  1
