# generated using pymatgen
data_Li2Mn3(PO4)3
_symmetry_space_group_name_H-M   'P 1'
_cell_length_a   12.07810200
_cell_length_b   12.61440200
_cell_length_c   6.67910763
_cell_angle_alpha   90.00000000
_cell_angle_beta   117.22299345
_cell_angle_gamma   90.00000000
_symmetry_Int_Tables_number   1
_chemical_formula_structural   Li2Mn3(PO4)3
_chemical_formula_sum   'Li8 Mn12 P12 O48'
_cell_volume   904.89732904
_cell_formula_units_Z   4
loop_
 _symmetry_equiv_pos_site_id
 _symmetry_equiv_pos_as_xyz
  1  'x, y, z'
loop_
 _atom_site_type_symbol
 _atom_site_label
 _atom_site_symmetry_multiplicity
 _atom_site_fract_x
 _atom_site_fract_y
 _atom_site_fract_z
 _atom_site_occupancy
  Li  Li0  1  0.50000000  0.00000000  0.50000000  1
  Li  Li1  1  0.50000000  0.00000000  0.00000000  1
  Li  Li2  1  0.50000000  0.50997000  0.75000000  1
  Li  Li3  1  0.50000000  0.49003000  0.25000000  1
  Li  Li4  1  0.00000000  0.50000000  0.50000000  1
  Li  Li5  1  0.00000000  0.50000000  0.00000000  1
  Li  Li6  1  0.00000000  0.00997000  0.75000000  1
  Li  Li7  1  0.00000000  0.99003000  0.25000000  1
  Mn  Mn8  1  0.77854800  0.15867000  0.36236200  1
  Mn  Mn9  1  0.77854800  0.84133000  0.86236200  1
  Mn  Mn10  1  0.50000000  0.22630400  0.75000000  1
  Mn  Mn11  1  0.50000000  0.77369600  0.25000000  1
  Mn  Mn12  1  0.22145200  0.15867000  0.13763800  1
  Mn  Mn13  1  0.22145200  0.84133000  0.63763800  1
  Mn  Mn14  1  0.27854800  0.65867000  0.36236200  1
  Mn  Mn15  1  0.27854800  0.34133000  0.86236200  1
  Mn  Mn16  1  0.00000000  0.72630400  0.75000000  1
  Mn  Mn17  1  0.00000000  0.27369600  0.25000000  1
  Mn  Mn18  1  0.72145200  0.65867000  0.13763800  1
  Mn  Mn19  1  0.72145200  0.34133000  0.63763800  1
  P  P20  1  0.76943900  0.10738300  0.87469600  1
  P  P21  1  0.76943900  0.89261700  0.37469600  1
  P  P22  1  0.50000000  0.79253000  0.75000000  1
  P  P23  1  0.50000000  0.20747000  0.25000000  1
  P  P24  1  0.23056100  0.10738300  0.62530400  1
  P  P25  1  0.23056100  0.89261700  0.12530400  1
  P  P26  1  0.26943900  0.60738300  0.87469600  1
  P  P27  1  0.26943900  0.39261700  0.37469600  1
  P  P28  1  0.00000000  0.29253000  0.75000000  1
  P  P29  1  0.00000000  0.70747000  0.25000000  1
  P  P30  1  0.73056100  0.60738300  0.62530400  1
  P  P31  1  0.73056100  0.39261700  0.12530400  1
  O  O32  1  0.84116950  0.00072050  0.90311400  1
  O  O33  1  0.84116950  0.99927950  0.40311400  1
  O  O34  1  0.77999600  0.82396700  0.19012400  1
  O  O35  1  0.77999600  0.17603300  0.69012400  1
  O  O36  1  0.66001400  0.33426200  0.89520300  1
  O  O37  1  0.66001400  0.66573800  0.39520300  1
  O  O38  1  0.62968950  0.90813850  0.30995700  1
  O  O39  1  0.62968950  0.09186150  0.80995700  1
  O  O40  1  0.59519850  0.87050650  0.73305600  1
  O  O41  1  0.59519850  0.12949350  0.23305600  1
  O  O42  1  0.54596050  0.72071350  0.96235500  1
  O  O43  1  0.54596050  0.27928650  0.46235500  1
  O  O44  1  0.45403950  0.27928650  0.03764500  1
  O  O45  1  0.45403950  0.72071350  0.53764500  1
  O  O46  1  0.40480150  0.87050650  0.76694400  1
  O  O47  1  0.40480150  0.12949350  0.26694400  1
  O  O48  1  0.37031050  0.09186150  0.69004300  1
  O  O49  1  0.37031050  0.90813850  0.19004300  1
  O  O50  1  0.33998600  0.33426200  0.60479700  1
  O  O51  1  0.33998600  0.66573800  0.10479700  1
  O  O52  1  0.22000400  0.82396700  0.30987600  1
  O  O53  1  0.22000400  0.17603300  0.80987600  1
  O  O54  1  0.15883050  0.99927950  0.09688600  1
  O  O55  1  0.15883050  0.00072050  0.59688600  1
  O  O56  1  0.34116950  0.50072050  0.90311400  1
  O  O57  1  0.34116950  0.49927950  0.40311400  1
  O  O58  1  0.27999600  0.32396700  0.19012400  1
  O  O59  1  0.27999600  0.67603300  0.69012400  1
  O  O60  1  0.16001400  0.83426200  0.89520300  1
  O  O61  1  0.16001400  0.16573800  0.39520300  1
  O  O62  1  0.12968950  0.40813850  0.30995700  1
  O  O63  1  0.12968950  0.59186150  0.80995700  1
  O  O64  1  0.09519850  0.37050650  0.73305600  1
  O  O65  1  0.09519850  0.62949350  0.23305600  1
  O  O66  1  0.04596050  0.22071350  0.96235500  1
  O  O67  1  0.04596050  0.77928650  0.46235500  1
  O  O68  1  0.95403950  0.77928650  0.03764500  1
  O  O69  1  0.95403950  0.22071350  0.53764500  1
  O  O70  1  0.90480150  0.37050650  0.76694400  1
  O  O71  1  0.90480150  0.62949350  0.26694400  1
  O  O72  1  0.87031050  0.59186150  0.69004300  1
  O  O73  1  0.87031050  0.40813850  0.19004300  1
  O  O74  1  0.83998600  0.83426200  0.60479700  1
  O  O75  1  0.83998600  0.16573800  0.10479700  1
  O  O76  1  0.72000400  0.32396700  0.30987600  1
  O  O77  1  0.72000400  0.67603300  0.80987600  1
  O  O78  1  0.65883050  0.49927950  0.09688600  1
  O  O79  1  0.65883050  0.50072050  0.59688600  1
