# generated using pymatgen
data_Li3(FeO2)4
_symmetry_space_group_name_H-M   'P 1'
_cell_length_a   8.14552600
_cell_length_b   8.48757800
_cell_length_c   5.82526569
_cell_angle_alpha   90.00000000
_cell_angle_beta   134.32555925
_cell_angle_gamma   90.00000000
_symmetry_Int_Tables_number   1
_chemical_formula_structural   Li3(FeO2)4
_chemical_formula_sum   'Li6 Fe8 O16'
_cell_volume   288.10852928
_cell_formula_units_Z   2
loop_
 _symmetry_equiv_pos_site_id
 _symmetry_equiv_pos_as_xyz
  1  'x, y, z'
loop_
 _atom_site_type_symbol
 _atom_site_label
 _atom_site_symmetry_multiplicity
 _atom_site_fract_x
 _atom_site_fract_y
 _atom_site_fract_z
 _atom_site_occupancy
  Li  Li0  1  0.50000000  0.00000000  0.50000000  1
  Li  Li1  1  0.25000000  0.25000000  0.50000000  1
  Li  Li2  1  0.75000000  0.25000000  0.50000000  1
  Li  Li3  1  0.00000000  0.50000000  0.50000000  1
  Li  Li4  1  0.75000000  0.75000000  0.50000000  1
  Li  Li5  1  0.25000000  0.75000000  0.50000000  1
  Fe  Fe6  1  0.75000000  0.25000000  0.00000000  1
  Fe  Fe7  1  0.25000000  0.25000000  0.00000000  1
  Fe  Fe8  1  0.50000000  0.00000000  0.00000000  1
  Fe  Fe9  1  0.00000000  0.00000000  0.50000000  1
  Fe  Fe10  1  0.25000000  0.75000000  0.00000000  1
  Fe  Fe11  1  0.75000000  0.75000000  0.00000000  1
  Fe  Fe12  1  0.00000000  0.50000000  0.00000000  1
  Fe  Fe13  1  0.50000000  0.50000000  0.50000000  1
  O  O14  1  0.50000000  0.25571500  0.50000000  1
  O  O15  1  0.26051900  0.00000000  0.99743600  1
  O  O16  1  0.00000000  0.26784300  0.00000000  1
  O  O17  1  0.72986700  0.00000000  0.44628800  1
  O  O18  1  0.27013300  0.00000000  0.55371200  1
  O  O19  1  0.50000000  0.23215700  0.00000000  1
  O  O20  1  0.73948100  0.00000000  0.00256400  1
  O  O21  1  0.00000000  0.24428500  0.50000000  1
  O  O22  1  0.00000000  0.75571500  0.50000000  1
  O  O23  1  0.76051900  0.50000000  0.99743600  1
  O  O24  1  0.50000000  0.76784300  0.00000000  1
  O  O25  1  0.22986700  0.50000000  0.44628800  1
  O  O26  1  0.77013300  0.50000000  0.55371200  1
  O  O27  1  0.00000000  0.73215700  0.00000000  1
  O  O28  1  0.23948100  0.50000000  0.00256400  1
  O  O29  1  0.50000000  0.74428500  0.50000000  1
