# generated using pymatgen
data_Mn3(OF2)2
_symmetry_space_group_name_H-M   'P 1'
_cell_length_a   5.73564320
_cell_length_b   4.79115400
_cell_length_c   7.98794736
_cell_angle_alpha   90.00000000
_cell_angle_beta   92.53417498
_cell_angle_gamma   90.00000000
_symmetry_Int_Tables_number   1
_chemical_formula_structural   Mn3(OF2)2
_chemical_formula_sum   'Mn6 O4 F8'
_cell_volume   219.29691168
_cell_formula_units_Z   2
loop_
 _symmetry_equiv_pos_site_id
 _symmetry_equiv_pos_as_xyz
  1  'x, y, z'
loop_
 _atom_site_type_symbol
 _atom_site_label
 _atom_site_symmetry_multiplicity
 _atom_site_fract_x
 _atom_site_fract_y
 _atom_site_fract_z
 _atom_site_occupancy
  Mn  Mn0  1  0.83079200  0.46111600  0.32350450  1
  Mn  Mn1  1  0.50000000  0.50000000  0.00000000  1
  Mn  Mn2  1  0.16920800  0.53888400  0.67649550  1
  Mn  Mn3  1  0.00000000  0.00000000  0.00000000  1
  Mn  Mn4  1  0.66920800  0.96111600  0.67649550  1
  Mn  Mn5  1  0.33079200  0.03888400  0.32350450  1
  O  O6  1  0.96260100  0.81396700  0.78265950  1
  O  O7  1  0.46260100  0.68603300  0.78265950  1
  O  O8  1  0.53739900  0.31396700  0.21734050  1
  O  O9  1  0.03739900  0.18603300  0.21734050  1
  F  F10  1  0.30285300  0.78919800  0.09736350  1
  F  F11  1  0.62680400  0.80264800  0.42501050  1
  F  F12  1  0.12680400  0.69735200  0.42501050  1
  F  F13  1  0.80285300  0.71080200  0.09736350  1
  F  F14  1  0.19714700  0.28919800  0.90263650  1
  F  F15  1  0.87319600  0.30264800  0.57498950  1
  F  F16  1  0.69714700  0.21080200  0.90263650  1
  F  F17  1  0.37319600  0.19735200  0.57498950  1
