# generated using pymatgen
data_Na6FeO4
_symmetry_space_group_name_H-M   'P 1'
_cell_length_a   7.59392250
_cell_length_b   7.59392250
_cell_length_c   5.41379300
_cell_angle_alpha   90.00000000
_cell_angle_beta   90.00000000
_cell_angle_gamma   90.00000000
_symmetry_Int_Tables_number   1
_chemical_formula_structural   Na6FeO4
_chemical_formula_sum   'Na12 Fe2 O8'
_cell_volume   312.20076860
_cell_formula_units_Z   2
loop_
 _symmetry_equiv_pos_site_id
 _symmetry_equiv_pos_as_xyz
  1  'x, y, z'
loop_
 _atom_site_type_symbol
 _atom_site_label
 _atom_site_symmetry_multiplicity
 _atom_site_fract_x
 _atom_site_fract_y
 _atom_site_fract_z
 _atom_site_occupancy
  Na  Na0  1  0.00000000  0.50000000  0.90413525  1
  Na  Na1  1  0.00000000  0.50000000  0.40413525  1
  Na  Na2  1  0.50000000  0.00000000  0.59586475  1
  Na  Na3  1  0.50000000  0.00000000  0.09586475  1
  Na  Na4  1  0.29003550  0.29003550  0.00000000  1
  Na  Na5  1  0.70996450  0.29003550  0.00000000  1
  Na  Na6  1  0.29003550  0.70996450  0.00000000  1
  Na  Na7  1  0.70996450  0.70996450  0.00000000  1
  Na  Na8  1  0.79003550  0.79003550  0.50000000  1
  Na  Na9  1  0.20996450  0.79003550  0.50000000  1
  Na  Na10  1  0.79003550  0.20996450  0.50000000  1
  Na  Na11  1  0.20996450  0.20996450  0.50000000  1
  Fe  Fe12  1  0.50000000  0.50000000  0.50000000  1
  Fe  Fe13  1  0.00000000  0.00000000  0.00000000  1
  O  O14  1  0.00000000  0.24906000  0.17145375  1
  O  O15  1  0.74906000  0.50000000  0.67145375  1
  O  O16  1  0.25094000  0.50000000  0.67145375  1
  O  O17  1  0.00000000  0.75094000  0.17145375  1
  O  O18  1  0.50000000  0.74906000  0.32854625  1
  O  O19  1  0.75094000  0.00000000  0.82854625  1
  O  O20  1  0.24906000  0.00000000  0.82854625  1
  O  O21  1  0.50000000  0.25094000  0.32854625  1
