# generated using pymatgen
data_Li2Fe3TeO8
_symmetry_space_group_name_H-M   'P 1'
_cell_length_a   6.04530884
_cell_length_b   6.04530884
_cell_length_c   15.32406593
_cell_angle_alpha   90.00000000
_cell_angle_beta   90.00000000
_cell_angle_gamma   120.00000000
_symmetry_Int_Tables_number   1
_chemical_formula_structural   Li2Fe3TeO8
_chemical_formula_sum   'Li6 Fe9 Te3 O24'
_cell_volume   484.99987717
_cell_formula_units_Z   3
loop_
 _symmetry_equiv_pos_site_id
 _symmetry_equiv_pos_as_xyz
  1  'x, y, z'
loop_
 _atom_site_type_symbol
 _atom_site_label
 _atom_site_symmetry_multiplicity
 _atom_site_fract_x
 _atom_site_fract_y
 _atom_site_fract_z
 _atom_site_occupancy
  Li  Li0  1  0.00000000  0.00000000  0.86284100  1
  Li  Li1  1  0.33333333  0.66666667  0.80382567  1
  Li  Li2  1  0.66666667  0.33333333  0.19617433  1
  Li  Li3  1  1.00000000  0.00000000  0.13715900  1
  Li  Li4  1  0.33333333  0.66666667  0.52950767  1
  Li  Li5  1  0.66666667  0.33333333  0.47049233  1
  Fe  Fe6  1  0.33333333  0.16666667  0.66666667  1
  Fe  Fe7  1  0.83333333  0.66666667  0.66666667  1
  Fe  Fe8  1  0.83333333  0.16666667  0.66666667  1
  Fe  Fe9  1  0.00000000  0.50000000  0.00000000  1
  Fe  Fe10  1  0.50000000  0.00000000  0.00000000  1
  Fe  Fe11  1  0.50000000  0.50000000  0.00000000  1
  Fe  Fe12  1  0.66666667  0.83333333  0.33333333  1
  Fe  Fe13  1  0.16666667  0.33333333  0.33333333  1
  Fe  Fe14  1  0.16666667  0.83333333  0.33333333  1
  Te  Te15  1  0.66666667  0.33333333  0.83333333  1
  Te  Te16  1  0.33333333  0.66666667  0.16666667  1
  Te  Te17  1  1.00000000  1.00000000  0.50000000  1
  O  O18  1  0.00000000  0.00000000  0.73198833  1
  O  O19  1  0.81655300  0.18344700  0.91446200  1
  O  O20  1  0.81655300  0.63310600  0.91446200  1
  O  O21  1  0.36689400  0.18344700  0.91446200  1
  O  O22  1  0.96643933  0.48321967  0.75220467  1
  O  O23  1  0.51678033  0.03356067  0.75220467  1
  O  O24  1  0.51678033  0.48321967  0.75220467  1
  O  O25  1  0.33333333  0.66666667  0.93467833  1
  O  O26  1  0.66666667  0.33333333  0.06532167  1
  O  O27  1  0.48321967  0.51678033  0.24779533  1
  O  O28  1  0.48321967  0.96643933  0.24779533  1
  O  O29  1  0.03356067  0.51678033  0.24779533  1
  O  O30  1  0.63310600  0.81655300  0.08553800  1
  O  O31  1  0.18344700  0.36689400  0.08553800  1
  O  O32  1  0.18344700  0.81655300  0.08553800  1
  O  O33  1  1.00000000  0.00000000  0.26801167  1
  O  O34  1  0.33333333  0.66666667  0.39865500  1
  O  O35  1  0.14988633  0.85011367  0.58112867  1
  O  O36  1  0.14988633  0.29977267  0.58112867  1
  O  O37  1  0.70022733  0.85011367  0.58112867  1
  O  O38  1  0.29977267  0.14988633  0.41887133  1
  O  O39  1  0.85011367  0.70022733  0.41887133  1
  O  O40  1  0.85011367  0.14988633  0.41887133  1
  O  O41  1  0.66666667  0.33333333  0.60134500  1
