# generated using pymatgen
data_Li2FeSiO4
_symmetry_space_group_name_H-M   'P 1'
_cell_length_a   5.11966100
_cell_length_b   6.36158300
_cell_length_c   10.77138500
_cell_angle_alpha   90.00000000
_cell_angle_beta   90.00000000
_cell_angle_gamma   90.00000000
_symmetry_Int_Tables_number   1
_chemical_formula_structural   Li2FeSiO4
_chemical_formula_sum   'Li8 Fe4 Si4 O16'
_cell_volume   350.81483636
_cell_formula_units_Z   4
loop_
 _symmetry_equiv_pos_site_id
 _symmetry_equiv_pos_as_xyz
  1  'x, y, z'
loop_
 _atom_site_type_symbol
 _atom_site_label
 _atom_site_symmetry_multiplicity
 _atom_site_fract_x
 _atom_site_fract_y
 _atom_site_fract_z
 _atom_site_occupancy
  Li  Li0  1  0.20748500  0.49430650  0.16883600  1
  Li  Li1  1  0.29251500  0.49430650  0.66883600  1
  Li  Li2  1  0.20748500  0.00569350  0.16883600  1
  Li  Li3  1  0.29251500  0.00569350  0.66883600  1
  Li  Li4  1  0.70748500  0.99430650  0.33116400  1
  Li  Li5  1  0.79251500  0.99430650  0.83116400  1
  Li  Li6  1  0.79251500  0.50569350  0.83116400  1
  Li  Li7  1  0.70748500  0.50569350  0.33116400  1
  Fe  Fe8  1  0.70062900  0.75000000  0.58060000  1
  Fe  Fe9  1  0.20062900  0.25000000  0.91940000  1
  Fe  Fe10  1  0.79937100  0.75000000  0.08060000  1
  Fe  Fe11  1  0.29937100  0.25000000  0.41940000  1
  Si  Si12  1  0.19556500  0.75000000  0.41551500  1
  Si  Si13  1  0.30443500  0.75000000  0.91551500  1
  Si  Si14  1  0.69556500  0.25000000  0.08448500  1
  Si  Si15  1  0.80443500  0.25000000  0.58448500  1
  O  O16  1  0.87235100  0.75000000  0.40910200  1
  O  O17  1  0.62764900  0.75000000  0.90910200  1
  O  O18  1  0.37235100  0.25000000  0.09089800  1
  O  O19  1  0.12764900  0.25000000  0.59089800  1
  O  O20  1  0.21424900  0.75000000  0.06259900  1
  O  O21  1  0.28575100  0.75000000  0.56259900  1
  O  O22  1  0.71424900  0.25000000  0.43740100  1
  O  O23  1  0.78575100  0.25000000  0.93740100  1
  O  O24  1  0.30722700  0.53883050  0.34305000  1
  O  O25  1  0.19277300  0.53883050  0.84305000  1
  O  O26  1  0.30722700  0.96116950  0.34305000  1
  O  O27  1  0.19277300  0.96116950  0.84305000  1
  O  O28  1  0.69277300  0.03883050  0.65695000  1
  O  O29  1  0.80722700  0.03883050  0.15695000  1
  O  O30  1  0.80722700  0.46116950  0.15695000  1
  O  O31  1  0.69277300  0.46116950  0.65695000  1
