# generated using pymatgen
data_Mn2Cr(PO4)3
_symmetry_space_group_name_H-M   'P 1'
_cell_length_a   8.65017627
_cell_length_b   8.65017627
_cell_length_c   20.43062725
_cell_angle_alpha   90.00000000
_cell_angle_beta   90.00000000
_cell_angle_gamma   120.00000000
_symmetry_Int_Tables_number   1
_chemical_formula_structural   Mn2Cr(PO4)3
_chemical_formula_sum   'Mn12 Cr6 P18 O72'
_cell_volume   1323.92153565
_cell_formula_units_Z   6
loop_
 _symmetry_equiv_pos_site_id
 _symmetry_equiv_pos_as_xyz
  1  'x, y, z'
loop_
 _atom_site_type_symbol
 _atom_site_label
 _atom_site_symmetry_multiplicity
 _atom_site_fract_x
 _atom_site_fract_y
 _atom_site_fract_z
 _atom_site_occupancy
  Mn  Mn0  1  0.33333333  0.66666667  0.52184567  1
  Mn  Mn1  1  0.33333333  0.66666667  0.31148767  1
  Mn  Mn2  1  0.33333333  0.66666667  0.02184567  1
  Mn  Mn3  1  0.33333333  0.66666667  0.81148767  1
  Mn  Mn4  1  0.00000000  0.00000000  0.85517900  1
  Mn  Mn5  1  1.00000000  0.00000000  0.64482100  1
  Mn  Mn6  1  0.00000000  0.00000000  0.35517900  1
  Mn  Mn7  1  0.00000000  0.00000000  0.14482100  1
  Mn  Mn8  1  0.66666667  0.33333333  0.18851233  1
  Mn  Mn9  1  0.66666667  0.33333333  0.97815433  1
  Mn  Mn10  1  0.66666667  0.33333333  0.68851233  1
  Mn  Mn11  1  0.66666667  0.33333333  0.47815433  1
  Cr  Cr12  1  0.00000000  0.00000000  0.00000000  1
  Cr  Cr13  1  0.33333333  0.66666667  0.16666667  1
  Cr  Cr14  1  0.66666667  0.33333333  0.33333333  1
  Cr  Cr15  1  0.00000000  0.00000000  0.50000000  1
  Cr  Cr16  1  0.33333333  0.66666667  0.66666667  1
  Cr  Cr17  1  0.66666667  0.33333333  0.83333333  1
  P  P18  1  0.70193800  0.70193800  0.25000000  1
  P  P19  1  0.29806200  0.00000000  0.25000000  1
  P  P20  1  0.00000000  0.29806200  0.25000000  1
  P  P21  1  0.66666667  0.03527133  0.08333333  1
  P  P22  1  0.36860467  0.33333333  0.08333333  1
  P  P23  1  0.96472867  0.63139533  0.08333333  1
  P  P24  1  0.36860467  0.03527133  0.58333333  1
  P  P25  1  0.96472867  0.33333333  0.58333333  1
  P  P26  1  0.66666667  0.63139533  0.58333333  1
  P  P27  1  0.33333333  0.36860467  0.41666667  1
  P  P28  1  0.03527133  0.66666667  0.41666667  1
  P  P29  1  0.63139533  0.96472867  0.41666667  1
  P  P30  1  0.03527133  0.36860467  0.91666667  1
  P  P31  1  0.63139533  0.66666667  0.91666667  1
  P  P32  1  0.33333333  0.96472867  0.91666667  1
  P  P33  1  0.00000000  0.70193800  0.75000000  1
  P  P34  1  0.70193800  0.00000000  0.75000000  1
  P  P35  1  0.29806200  0.29806200  0.75000000  1
  O  O36  1  0.53928700  0.86666700  0.35424900  1
  O  O37  1  0.32738000  0.46071300  0.35424900  1
  O  O38  1  0.67613467  0.50969333  0.26096533  1
  O  O39  1  0.13333300  0.67262000  0.35424900  1
  O  O40  1  0.79999967  0.79404633  0.18758233  1
  O  O41  1  0.50969333  0.67613467  0.23903467  1
  O  O42  1  0.49030667  0.16644133  0.26096533  1
  O  O43  1  0.32386533  0.83355867  0.23903467  1
  O  O44  1  0.67262000  0.13333300  0.14575100  1
  O  O45  1  0.16644133  0.49030667  0.23903467  1
  O  O46  1  0.83310800  0.00946800  0.07236800  1
  O  O47  1  0.46071300  0.32738000  0.14575100  1
  O  O48  1  0.20595367  0.00595333  0.18758233  1
  O  O49  1  0.83355867  0.32386533  0.26096533  1
  O  O50  1  0.50022533  0.84302667  0.09429867  1
  O  O51  1  0.99404667  0.20000033  0.18758233  1
  O  O52  1  0.34280133  0.49977467  0.09429867  1
  O  O53  1  0.17636000  0.16689200  0.07236800  1
  O  O54  1  0.15697333  0.65719867  0.09429867  1
  O  O55  1  0.86666700  0.53928700  0.14575100  1
  O  O56  1  0.53333367  0.66071333  0.97908433  1
  O  O57  1  0.99053200  0.82364000  0.07236800  1
  O  O58  1  0.33928667  0.87262033  0.97908433  1
  O  O59  1  0.12737967  0.46666633  0.97908433  1
  O  O60  1  0.20595367  0.20000033  0.68758233  1
  O  O61  1  0.99404667  0.79404633  0.68758233  1
  O  O62  1  0.34280133  0.84302667  0.59429867  1
  O  O63  1  0.79999967  0.00595333  0.68758233  1
  O  O64  1  0.46666633  0.12737967  0.52091567  1
  O  O65  1  0.17636000  0.00946800  0.57236800  1
  O  O66  1  0.15697333  0.49977467  0.59429867  1
  O  O67  1  0.99053200  0.16689200  0.57236800  1
  O  O68  1  0.33928667  0.46666633  0.47908433  1
  O  O69  1  0.83310800  0.82364000  0.57236800  1
  O  O70  1  0.49977467  0.34280133  0.40570133  1
  O  O71  1  0.12737967  0.66071333  0.47908433  1
  O  O72  1  0.87262033  0.33928667  0.52091567  1
  O  O73  1  0.50022533  0.65719867  0.59429867  1
  O  O74  1  0.16689200  0.17636000  0.42763200  1
  O  O75  1  0.66071333  0.53333367  0.52091567  1
  O  O76  1  0.00946800  0.83310800  0.42763200  1
  O  O77  1  0.84302667  0.50022533  0.40570133  1
  O  O78  1  0.82364000  0.99053200  0.42763200  1
  O  O79  1  0.53333367  0.87262033  0.47908433  1
  O  O80  1  0.20000033  0.99404667  0.31241767  1
  O  O81  1  0.65719867  0.15697333  0.40570133  1
  O  O82  1  0.00595333  0.20595367  0.31241767  1
  O  O83  1  0.79404633  0.79999967  0.31241767  1
  O  O84  1  0.87262033  0.53333367  0.02091567  1
  O  O85  1  0.66071333  0.12737967  0.02091567  1
  O  O86  1  0.00946800  0.17636000  0.92763200  1
  O  O87  1  0.46666633  0.33928667  0.02091567  1
  O  O88  1  0.13333300  0.46071300  0.85424900  1
  O  O89  1  0.84302667  0.34280133  0.90570133  1
  O  O90  1  0.82364000  0.83310800  0.92763200  1
  O  O91  1  0.65719867  0.50022533  0.90570133  1
  O  O92  1  0.00595333  0.79999967  0.81241767  1
  O  O93  1  0.49977467  0.15697333  0.90570133  1
  O  O94  1  0.16644133  0.67613467  0.73903467  1
  O  O95  1  0.79404633  0.99404667  0.81241767  1
  O  O96  1  0.53928700  0.67262000  0.85424900  1
  O  O97  1  0.16689200  0.99053200  0.92763200  1
  O  O98  1  0.83355867  0.50969333  0.76096533  1
  O  O99  1  0.32738000  0.86666700  0.85424900  1
  O  O100  1  0.67613467  0.16644133  0.76096533  1
  O  O101  1  0.50969333  0.83355867  0.73903467  1
  O  O102  1  0.49030667  0.32386533  0.76096533  1
  O  O103  1  0.20000033  0.20595367  0.81241767  1
  O  O104  1  0.86666700  0.32738000  0.64575100  1
  O  O105  1  0.32386533  0.49030667  0.73903467  1
  O  O106  1  0.67262000  0.53928700  0.64575100  1
  O  O107  1  0.46071300  0.13333300  0.64575100  1
