# generated using pymatgen
data_V2Ni(PO4)3
_symmetry_space_group_name_H-M   'P 1'
_cell_length_a   8.61511758
_cell_length_b   8.61511758
_cell_length_c   20.58355729
_cell_angle_alpha   90.00000000
_cell_angle_beta   90.00000000
_cell_angle_gamma   120.00000000
_symmetry_Int_Tables_number   1
_chemical_formula_structural   V2Ni(PO4)3
_chemical_formula_sum   'V12 Ni6 P18 O72'
_cell_volume   1323.04154859
_cell_formula_units_Z   6
loop_
 _symmetry_equiv_pos_site_id
 _symmetry_equiv_pos_as_xyz
  1  'x, y, z'
loop_
 _atom_site_type_symbol
 _atom_site_label
 _atom_site_symmetry_multiplicity
 _atom_site_fract_x
 _atom_site_fract_y
 _atom_site_fract_z
 _atom_site_occupancy
  V  V0  1  0.33333333  0.66666667  0.52463667  1
  V  V1  1  0.33333333  0.66666667  0.30869667  1
  V  V2  1  0.33333333  0.66666667  0.02463667  1
  V  V3  1  0.33333333  0.66666667  0.80869667  1
  V  V4  1  0.00000000  0.00000000  0.85797000  1
  V  V5  1  1.00000000  0.00000000  0.64203000  1
  V  V6  1  0.00000000  0.00000000  0.35797000  1
  V  V7  1  0.00000000  0.00000000  0.14203000  1
  V  V8  1  0.66666667  0.33333333  0.19130333  1
  V  V9  1  0.66666667  0.33333333  0.97536333  1
  V  V10  1  0.66666667  0.33333333  0.69130333  1
  V  V11  1  0.66666667  0.33333333  0.47536333  1
  Ni  Ni12  1  0.00000000  0.00000000  0.00000000  1
  Ni  Ni13  1  0.33333333  0.66666667  0.16666667  1
  Ni  Ni14  1  0.66666667  0.33333333  0.33333333  1
  Ni  Ni15  1  0.00000000  0.00000000  0.50000000  1
  Ni  Ni16  1  0.33333333  0.66666667  0.66666667  1
  Ni  Ni17  1  0.66666667  0.33333333  0.83333333  1
  P  P18  1  0.00000000  0.70633000  0.25000000  1
  P  P19  1  0.70633000  0.00000000  0.25000000  1
  P  P20  1  0.29367000  0.29367000  0.25000000  1
  P  P21  1  0.37299667  0.03966333  0.08333333  1
  P  P22  1  0.96033667  0.33333333  0.08333333  1
  P  P23  1  0.66666667  0.62700333  0.08333333  1
  P  P24  1  0.66666667  0.03966333  0.58333333  1
  P  P25  1  0.37299667  0.33333333  0.58333333  1
  P  P26  1  0.96033667  0.62700333  0.58333333  1
  P  P27  1  0.03966333  0.37299667  0.41666667  1
  P  P28  1  0.62700333  0.66666667  0.41666667  1
  P  P29  1  0.33333333  0.96033667  0.41666667  1
  P  P30  1  0.33333333  0.37299667  0.91666667  1
  P  P31  1  0.03966333  0.66666667  0.91666667  1
  P  P32  1  0.62700333  0.96033667  0.91666667  1
  P  P33  1  0.70633000  0.70633000  0.75000000  1
  P  P34  1  0.29367000  0.00000000  0.75000000  1
  P  P35  1  0.00000000  0.29367000  0.75000000  1
  O  O36  1  0.32895733  0.85923867  0.35507567  1
  O  O37  1  0.14076133  0.46971867  0.35507567  1
  O  O38  1  0.83228600  0.51551000  0.25777000  1
  O  O39  1  0.53028133  0.67104267  0.35507567  1
  O  O40  1  0.99562400  0.80305200  0.18840900  1
  O  O41  1  0.16771400  0.68322400  0.24223000  1
  O  O42  1  0.68322400  0.16771400  0.25777000  1
  O  O43  1  0.51551000  0.83228600  0.24223000  1
  O  O44  1  0.46971867  0.14076133  0.14492433  1
  O  O45  1  0.31677600  0.48449000  0.24223000  1
  O  O46  1  0.18217667  0.01655733  0.07556333  1
  O  O47  1  0.85923867  0.32895733  0.14492433  1
  O  O48  1  0.80742800  0.00437600  0.18840900  1
  O  O49  1  0.48449000  0.31677600  0.25777000  1
  O  O50  1  0.34989067  0.84884333  0.09110333  1
  O  O51  1  0.19694800  0.19257200  0.18840900  1
  O  O52  1  0.15115667  0.50104733  0.09110333  1
  O  O53  1  0.98344267  0.16561933  0.07556333  1
  O  O54  1  0.49895267  0.65010933  0.09110333  1
  O  O55  1  0.67104267  0.53028133  0.14492433  1
  O  O56  1  0.13638533  0.66229067  0.97825767  1
  O  O57  1  0.83438067  0.81782333  0.07556333  1
  O  O58  1  0.52590533  0.86361467  0.97825767  1
  O  O59  1  0.33770933  0.47409467  0.97825767  1
  O  O60  1  0.99562400  0.19257200  0.68840900  1
  O  O61  1  0.80742800  0.80305200  0.68840900  1
  O  O62  1  0.49895267  0.84884333  0.59110333  1
  O  O63  1  0.19694800  0.00437600  0.68840900  1
  O  O64  1  0.66229067  0.13638533  0.52174233  1
  O  O65  1  0.83438067  0.01655733  0.57556333  1
  O  O66  1  0.34989067  0.50104733  0.59110333  1
  O  O67  1  0.18217667  0.16561933  0.57556333  1
  O  O68  1  0.13638533  0.47409467  0.47825767  1
  O  O69  1  0.98344267  0.81782333  0.57556333  1
  O  O70  1  0.84884333  0.34989067  0.40889667  1
  O  O71  1  0.52590533  0.66229067  0.47825767  1
  O  O72  1  0.47409467  0.33770933  0.52174233  1
  O  O73  1  0.15115667  0.65010933  0.59110333  1
  O  O74  1  0.01655733  0.18217667  0.42443667  1
  O  O75  1  0.86361467  0.52590533  0.52174233  1
  O  O76  1  0.81782333  0.83438067  0.42443667  1
  O  O77  1  0.65010933  0.49895267  0.40889667  1
  O  O78  1  0.16561933  0.98344267  0.42443667  1
  O  O79  1  0.33770933  0.86361467  0.47825767  1
  O  O80  1  0.80305200  0.99562400  0.31159100  1
  O  O81  1  0.50104733  0.15115667  0.40889667  1
  O  O82  1  0.19257200  0.19694800  0.31159100  1
  O  O83  1  0.00437600  0.80742800  0.31159100  1
  O  O84  1  0.66229067  0.52590533  0.02174233  1
  O  O85  1  0.47409467  0.13638533  0.02174233  1
  O  O86  1  0.16561933  0.18217667  0.92443667  1
  O  O87  1  0.86361467  0.33770933  0.02174233  1
  O  O88  1  0.32895733  0.46971867  0.85507567  1
  O  O89  1  0.50104733  0.34989067  0.90889667  1
  O  O90  1  0.01655733  0.83438067  0.92443667  1
  O  O91  1  0.84884333  0.49895267  0.90889667  1
  O  O92  1  0.80305200  0.80742800  0.81159100  1
  O  O93  1  0.65010933  0.15115667  0.90889667  1
  O  O94  1  0.51551000  0.68322400  0.74223000  1
  O  O95  1  0.19257200  0.99562400  0.81159100  1
  O  O96  1  0.14076133  0.67104267  0.85507567  1
  O  O97  1  0.81782333  0.98344267  0.92443667  1
  O  O98  1  0.68322400  0.51551000  0.75777000  1
  O  O99  1  0.53028133  0.85923867  0.85507567  1
  O  O100  1  0.48449000  0.16771400  0.75777000  1
  O  O101  1  0.31677600  0.83228600  0.74223000  1
  O  O102  1  0.83228600  0.31677600  0.75777000  1
  O  O103  1  0.00437600  0.19694800  0.81159100  1
  O  O104  1  0.46971867  0.32895733  0.64492433  1
  O  O105  1  0.16771400  0.48449000  0.74223000  1
  O  O106  1  0.85923867  0.53028133  0.64492433  1
  O  O107  1  0.67104267  0.14076133  0.64492433  1
