# generated using pymatgen
data_Mg(FeO2)2
_symmetry_space_group_name_H-M   'P 1'
_cell_length_a   6.03986430
_cell_length_b   6.03986430
_cell_length_c   14.79636510
_cell_angle_alpha   90.00000000
_cell_angle_beta   90.00000000
_cell_angle_gamma   120.00000000
_symmetry_Int_Tables_number   1
_chemical_formula_structural   Mg(FeO2)2
_chemical_formula_sum   'Mg6 Fe12 O24'
_cell_volume   467.45524119
_cell_formula_units_Z   6
loop_
 _symmetry_equiv_pos_site_id
 _symmetry_equiv_pos_as_xyz
  1  'x, y, z'
loop_
 _atom_site_type_symbol
 _atom_site_label
 _atom_site_symmetry_multiplicity
 _atom_site_fract_x
 _atom_site_fract_y
 _atom_site_fract_z
 _atom_site_occupancy
  Mg  Mg0  1  0.66666667  0.33333333  0.32986833  1
  Mg  Mg1  1  0.33333333  0.66666667  0.04055467  1
  Mg  Mg2  1  0.33333333  0.66666667  0.66320167  1
  Mg  Mg3  1  0.00000000  0.00000000  0.37388800  1
  Mg  Mg4  1  0.00000000  0.00000000  0.99653500  1
  Mg  Mg5  1  0.66666667  0.33333333  0.70722133  1
  Fe  Fe6  1  0.66666667  0.33333333  0.08740033  1
  Fe  Fe7  1  0.67398867  0.83699433  0.20988433  1
  Fe  Fe8  1  0.16300567  0.32601133  0.20988433  1
  Fe  Fe9  1  0.16300567  0.83699433  0.20988433  1
  Fe  Fe10  1  0.33333333  0.66666667  0.42073367  1
  Fe  Fe11  1  0.34065533  0.17032767  0.54321767  1
  Fe  Fe12  1  0.82967233  0.65934467  0.54321767  1
  Fe  Fe13  1  0.82967233  0.17032767  0.54321767  1
  Fe  Fe14  1  0.00000000  0.00000000  0.75406700  1
  Fe  Fe15  1  0.00732200  0.50366100  0.87655100  1
  Fe  Fe16  1  0.49633900  0.99267800  0.87655100  1
  Fe  Fe17  1  0.49633900  0.50366100  0.87655100  1
  O  O18  1  0.49128867  0.50871133  0.12923433  1
  O  O19  1  0.49128867  0.98257733  0.12923433  1
  O  O20  1  0.01742267  0.50871133  0.12923433  1
  O  O21  1  0.33333333  0.66666667  0.28647167  1
  O  O22  1  0.00000000  0.00000000  0.13299400  1
  O  O23  1  0.30906200  0.15453100  0.28511800  1
  O  O24  1  0.84546900  0.69093800  0.28511800  1
  O  O25  1  0.84546900  0.15453100  0.28511800  1
  O  O26  1  0.15795533  0.84204467  0.46256767  1
  O  O27  1  0.15795533  0.31591067  0.46256767  1
  O  O28  1  0.68408933  0.84204467  0.46256767  1
  O  O29  1  0.00000000  0.00000000  0.61980500  1
  O  O30  1  0.66666667  0.33333333  0.46632733  1
  O  O31  1  0.97572867  0.48786433  0.61845133  1
  O  O32  1  0.51213567  0.02427133  0.61845133  1
  O  O33  1  0.51213567  0.48786433  0.61845133  1
  O  O34  1  0.82462200  0.17537800  0.79590100  1
  O  O35  1  0.82462200  0.64924400  0.79590100  1
  O  O36  1  0.35075600  0.17537800  0.79590100  1
  O  O37  1  0.66666667  0.33333333  0.95313833  1
  O  O38  1  0.33333333  0.66666667  0.79966067  1
  O  O39  1  0.64239533  0.82119767  0.95178467  1
  O  O40  1  0.17880233  0.35760467  0.95178467  1
  O  O41  1  0.17880233  0.82119767  0.95178467  1
