# generated using pymatgen
data_KLiCoO2
_symmetry_space_group_name_H-M   'P 1'
_cell_length_a   10.90741600
_cell_length_b   3.38881400
_cell_length_c   8.36646467
_cell_angle_alpha   90.00000000
_cell_angle_beta   120.58462962
_cell_angle_gamma   90.00000000
_symmetry_Int_Tables_number   1
_chemical_formula_structural   KLiCoO2
_chemical_formula_sum   'K4 Li4 Co4 O8'
_cell_volume   266.22784676
_cell_formula_units_Z   4
loop_
 _symmetry_equiv_pos_site_id
 _symmetry_equiv_pos_as_xyz
  1  'x, y, z'
loop_
 _atom_site_type_symbol
 _atom_site_label
 _atom_site_symmetry_multiplicity
 _atom_site_fract_x
 _atom_site_fract_y
 _atom_site_fract_z
 _atom_site_occupancy
  K  K0  1  0.33549100  0.50000000  0.87246900  1
  K  K1  1  0.66450900  0.50000000  0.12753100  1
  K  K2  1  0.83549100  0.00000000  0.87246900  1
  K  K3  1  0.16450900  0.00000000  0.12753100  1
  Li  Li4  1  0.16032500  0.50000000  0.44485400  1
  Li  Li5  1  0.83967500  0.50000000  0.55514600  1
  Li  Li6  1  0.66032500  0.00000000  0.44485400  1
  Li  Li7  1  0.33967500  0.00000000  0.55514600  1
  Co  Co8  1  0.96109400  0.00000000  0.32131200  1
  Co  Co9  1  0.03890600  0.00000000  0.67868800  1
  Co  Co10  1  0.46109400  0.50000000  0.32131200  1
  Co  Co11  1  0.53890600  0.50000000  0.67868800  1
  O  O12  1  0.96194000  0.50000000  0.19652000  1
  O  O13  1  0.16450600  0.00000000  0.56417400  1
  O  O14  1  0.83549400  0.00000000  0.43582600  1
  O  O15  1  0.03806000  0.50000000  0.80348000  1
  O  O16  1  0.46194000  0.00000000  0.19652000  1
  O  O17  1  0.66450600  0.50000000  0.56417400  1
  O  O18  1  0.33549400  0.50000000  0.43582600  1
  O  O19  1  0.53806000  0.00000000  0.80348000  1
