# generated using pymatgen
data_La2Sb
_symmetry_space_group_name_H-M   'P 1'
_cell_length_a   4.64724200
_cell_length_b   4.64724200
_cell_length_c   18.30029400
_cell_angle_alpha   90.00000000
_cell_angle_beta   90.00000000
_cell_angle_gamma   90.00000000
_symmetry_Int_Tables_number   1
_chemical_formula_structural   La2Sb
_chemical_formula_sum   'La8 Sb4'
_cell_volume   395.22885466
_cell_formula_units_Z   4
loop_
 _symmetry_equiv_pos_site_id
 _symmetry_equiv_pos_as_xyz
  1  'x, y, z'
loop_
 _atom_site_type_symbol
 _atom_site_label
 _atom_site_symmetry_multiplicity
 _atom_site_fract_x
 _atom_site_fract_y
 _atom_site_fract_z
 _atom_site_occupancy
  La  La0  1  0.00000000  0.00000000  0.32052700  1
  La  La1  1  0.50000000  0.50000000  0.17947300  1
  La  La2  1  0.00000000  0.50000000  0.00000000  1
  La  La3  1  0.50000000  0.00000000  0.00000000  1
  La  La4  1  0.50000000  0.50000000  0.82052700  1
  La  La5  1  0.00000000  0.00000000  0.67947300  1
  La  La6  1  0.50000000  0.00000000  0.50000000  1
  La  La7  1  0.00000000  0.50000000  0.50000000  1
  Sb  Sb8  1  0.50000000  0.50000000  0.36291300  1
  Sb  Sb9  1  0.00000000  0.00000000  0.13708700  1
  Sb  Sb10  1  0.00000000  0.00000000  0.86291300  1
  Sb  Sb11  1  0.50000000  0.50000000  0.63708700  1
