# generated using pymatgen
data_Na4V2P(CO4)4
_symmetry_space_group_name_H-M   'P 1'
_cell_length_a   13.91103800
_cell_length_b   13.92215400
_cell_length_c   14.44392200
_cell_angle_alpha   90.00000000
_cell_angle_beta   90.00000000
_cell_angle_gamma   90.00000000
_symmetry_Int_Tables_number   1
_chemical_formula_structural   Na4V2P(CO4)4
_chemical_formula_sum   'Na32 V16 P8 C32 O128'
_cell_volume   2797.37767664
_cell_formula_units_Z   8
loop_
 _symmetry_equiv_pos_site_id
 _symmetry_equiv_pos_as_xyz
  1  'x, y, z'
loop_
 _atom_site_type_symbol
 _atom_site_label
 _atom_site_symmetry_multiplicity
 _atom_site_fract_x
 _atom_site_fract_y
 _atom_site_fract_z
 _atom_site_occupancy
  Na  Na0  1  0.20937600  0.00000000  0.00000000  1
  Na  Na1  1  0.50000000  0.70824300  0.00000000  1
  Na  Na2  1  0.75000000  0.95824300  0.25000000  1
  Na  Na3  1  0.95937600  0.75000000  0.25000000  1
  Na  Na4  1  0.79062400  0.00000000  0.00000000  1
  Na  Na5  1  0.50000000  0.29175700  0.00000000  1
  Na  Na6  1  0.75000000  0.54175700  0.25000000  1
  Na  Na7  1  0.54062400  0.75000000  0.25000000  1
  Na  Na8  1  0.20937600  0.50000000  0.50000000  1
  Na  Na9  1  0.50000000  0.20824300  0.50000000  1
  Na  Na10  1  0.75000000  0.45824300  0.75000000  1
  Na  Na11  1  0.95937600  0.25000000  0.75000000  1
  Na  Na12  1  0.79062400  0.50000000  0.50000000  1
  Na  Na13  1  0.50000000  0.79175700  0.50000000  1
  Na  Na14  1  0.75000000  0.04175700  0.75000000  1
  Na  Na15  1  0.54062400  0.25000000  0.75000000  1
  Na  Na16  1  0.70937600  0.00000000  0.50000000  1
  Na  Na17  1  0.00000000  0.70824300  0.50000000  1
  Na  Na18  1  0.25000000  0.95824300  0.75000000  1
  Na  Na19  1  0.45937600  0.75000000  0.75000000  1
  Na  Na20  1  0.29062400  0.00000000  0.50000000  1
  Na  Na21  1  0.00000000  0.29175700  0.50000000  1
  Na  Na22  1  0.25000000  0.54175700  0.75000000  1
  Na  Na23  1  0.04062400  0.75000000  0.75000000  1
  Na  Na24  1  0.70937600  0.50000000  0.00000000  1
  Na  Na25  1  0.00000000  0.20824300  0.00000000  1
  Na  Na26  1  0.25000000  0.45824300  0.25000000  1
  Na  Na27  1  0.45937600  0.25000000  0.25000000  1
  Na  Na28  1  0.29062400  0.50000000  0.00000000  1
  Na  Na29  1  0.00000000  0.79175700  0.00000000  1
  Na  Na30  1  0.25000000  0.04175700  0.25000000  1
  Na  Na31  1  0.04062400  0.25000000  0.25000000  1
  V  V32  1  0.37500000  0.87500000  0.12500000  1
  V  V33  1  0.62500000  0.12500000  0.12500000  1
  V  V34  1  0.87500000  0.12500000  0.37500000  1
  V  V35  1  0.12500000  0.87500000  0.37500000  1
  V  V36  1  0.37500000  0.37500000  0.62500000  1
  V  V37  1  0.62500000  0.62500000  0.62500000  1
  V  V38  1  0.87500000  0.62500000  0.87500000  1
  V  V39  1  0.12500000  0.37500000  0.87500000  1
  V  V40  1  0.87500000  0.87500000  0.62500000  1
  V  V41  1  0.12500000  0.12500000  0.62500000  1
  V  V42  1  0.37500000  0.12500000  0.87500000  1
  V  V43  1  0.62500000  0.87500000  0.87500000  1
  V  V44  1  0.87500000  0.37500000  0.12500000  1
  V  V45  1  0.12500000  0.62500000  0.12500000  1
  V  V46  1  0.37500000  0.62500000  0.37500000  1
  V  V47  1  0.62500000  0.37500000  0.37500000  1
  P  P48  1  0.75000000  0.75000000  0.25000000  1
  P  P49  1  0.00000000  0.00000000  0.00000000  1
  P  P50  1  0.75000000  0.25000000  0.75000000  1
  P  P51  1  0.00000000  0.50000000  0.50000000  1
  P  P52  1  0.25000000  0.75000000  0.75000000  1
  P  P53  1  0.50000000  0.00000000  0.50000000  1
  P  P54  1  0.25000000  0.25000000  0.25000000  1
  P  P55  1  0.50000000  0.50000000  0.00000000  1
  C  C56  1  0.66096350  0.15912800  0.33366350  1
  C  C57  1  0.91096350  0.90912800  0.41633650  1
  C  C58  1  0.66096350  0.34087200  0.16633650  1
  C  C59  1  0.83903650  0.15912800  0.16633650  1
  C  C60  1  0.41096350  0.09087200  0.08366350  1
  C  C61  1  0.58903650  0.90912800  0.08366350  1
  C  C62  1  0.83903650  0.34087200  0.33366350  1
  C  C63  1  0.08903650  0.09087200  0.41633650  1
  C  C64  1  0.66096350  0.65912800  0.83366350  1
  C  C65  1  0.91096350  0.40912800  0.91633650  1
  C  C66  1  0.66096350  0.84087200  0.66633650  1
  C  C67  1  0.83903650  0.65912800  0.66633650  1
  C  C68  1  0.41096350  0.59087200  0.58366350  1
  C  C69  1  0.58903650  0.40912800  0.58366350  1
  C  C70  1  0.83903650  0.84087200  0.83366350  1
  C  C71  1  0.08903650  0.59087200  0.91633650  1
  C  C72  1  0.16096350  0.15912800  0.83366350  1
  C  C73  1  0.41096350  0.90912800  0.91633650  1
  C  C74  1  0.16096350  0.34087200  0.66633650  1
  C  C75  1  0.33903650  0.15912800  0.66633650  1
  C  C76  1  0.91096350  0.09087200  0.58366350  1
  C  C77  1  0.08903650  0.90912800  0.58366350  1
  C  C78  1  0.33903650  0.34087200  0.83366350  1
  C  C79  1  0.58903650  0.09087200  0.91633650  1
  C  C80  1  0.16096350  0.65912800  0.33366350  1
  C  C81  1  0.41096350  0.40912800  0.41633650  1
  C  C82  1  0.16096350  0.84087200  0.16633650  1
  C  C83  1  0.33903650  0.65912800  0.16633650  1
  C  C84  1  0.91096350  0.59087200  0.08366350  1
  C  C85  1  0.08903650  0.40912800  0.08366350  1
  C  C86  1  0.33903650  0.84087200  0.33366350  1
  C  C87  1  0.58903650  0.59087200  0.41633650  1
  O  O88  1  0.73152350  0.14074400  0.38994950  1
  O  O89  1  0.68437700  0.81475850  0.31073050  1
  O  O90  1  0.64809700  0.10360150  0.26267750  1
  O  O91  1  0.89809700  0.85360150  0.48732250  1
  O  O92  1  0.64809700  0.39639850  0.23732250  1
  O  O93  1  0.85200350  0.97883950  0.39941500  1
  O  O94  1  0.68437700  0.68524150  0.18926950  1
  O  O95  1  0.81562300  0.68524150  0.31073050  1
  O  O96  1  0.64799650  0.97883950  0.10058500  1
  O  O97  1  0.85190300  0.10360150  0.23732250  1
  O  O98  1  0.98152350  0.89074400  0.36005050  1
  O  O99  1  0.81562300  0.81475850  0.18926950  1
  O  O100  1  0.73152350  0.35925600  0.11005050  1
  O  O101  1  0.76847650  0.14074400  0.11005050  1
  O  O102  1  0.60200350  0.22883950  0.35058500  1
  O  O103  1  0.35200350  0.02116050  0.10058500  1
  O  O104  1  0.89799650  0.22883950  0.14941500  1
  O  O105  1  0.14799650  0.02116050  0.39941500  1
  O  O106  1  0.48152350  0.10925600  0.13994950  1
  O  O107  1  0.51847650  0.89074400  0.13994950  1
  O  O108  1  0.93437700  0.93524150  0.06073050  1
  O  O109  1  0.76847650  0.35925600  0.38994950  1
  O  O110  1  0.39809700  0.14639850  0.01267750  1
  O  O111  1  0.60200350  0.27116050  0.14941500  1
  O  O112  1  0.93437700  0.56475850  0.43926950  1
  O  O113  1  0.56562300  0.56475850  0.06073050  1
  O  O114  1  0.89799650  0.27116050  0.35058500  1
  O  O115  1  0.60190300  0.85360150  0.01267750  1
  O  O116  1  0.85190300  0.39639850  0.26267750  1
  O  O117  1  0.10190300  0.14639850  0.48732250  1
  O  O118  1  0.56562300  0.93524150  0.43926950  1
  O  O119  1  0.01847650  0.10925600  0.36005050  1
  O  O120  1  0.73152350  0.64074400  0.88994950  1
  O  O121  1  0.68437700  0.31475850  0.81073050  1
  O  O122  1  0.64809700  0.60360150  0.76267750  1
  O  O123  1  0.89809700  0.35360150  0.98732250  1
  O  O124  1  0.64809700  0.89639850  0.73732250  1
  O  O125  1  0.85200350  0.47883950  0.89941500  1
  O  O126  1  0.68437700  0.18524150  0.68926950  1
  O  O127  1  0.81562300  0.18524150  0.81073050  1
  O  O128  1  0.64799650  0.47883950  0.60058500  1
  O  O129  1  0.85190300  0.60360150  0.73732250  1
  O  O130  1  0.98152350  0.39074400  0.86005050  1
  O  O131  1  0.81562300  0.31475850  0.68926950  1
  O  O132  1  0.73152350  0.85925600  0.61005050  1
  O  O133  1  0.76847650  0.64074400  0.61005050  1
  O  O134  1  0.60200350  0.72883950  0.85058500  1
  O  O135  1  0.35200350  0.52116050  0.60058500  1
  O  O136  1  0.89799650  0.72883950  0.64941500  1
  O  O137  1  0.14799650  0.52116050  0.89941500  1
  O  O138  1  0.48152350  0.60925600  0.63994950  1
  O  O139  1  0.51847650  0.39074400  0.63994950  1
  O  O140  1  0.93437700  0.43524150  0.56073050  1
  O  O141  1  0.76847650  0.85925600  0.88994950  1
  O  O142  1  0.39809700  0.64639850  0.51267750  1
  O  O143  1  0.60200350  0.77116050  0.64941500  1
  O  O144  1  0.93437700  0.06475850  0.93926950  1
  O  O145  1  0.56562300  0.06475850  0.56073050  1
  O  O146  1  0.89799650  0.77116050  0.85058500  1
  O  O147  1  0.60190300  0.35360150  0.51267750  1
  O  O148  1  0.85190300  0.89639850  0.76267750  1
  O  O149  1  0.10190300  0.64639850  0.98732250  1
  O  O150  1  0.56562300  0.43524150  0.93926950  1
  O  O151  1  0.01847650  0.60925600  0.86005050  1
  O  O152  1  0.23152350  0.14074400  0.88994950  1
  O  O153  1  0.18437700  0.81475850  0.81073050  1
  O  O154  1  0.14809700  0.10360150  0.76267750  1
  O  O155  1  0.39809700  0.85360150  0.98732250  1
  O  O156  1  0.14809700  0.39639850  0.73732250  1
  O  O157  1  0.35200350  0.97883950  0.89941500  1
  O  O158  1  0.18437700  0.68524150  0.68926950  1
  O  O159  1  0.31562300  0.68524150  0.81073050  1
  O  O160  1  0.14799650  0.97883950  0.60058500  1
  O  O161  1  0.35190300  0.10360150  0.73732250  1
  O  O162  1  0.48152350  0.89074400  0.86005050  1
  O  O163  1  0.31562300  0.81475850  0.68926950  1
  O  O164  1  0.23152350  0.35925600  0.61005050  1
  O  O165  1  0.26847650  0.14074400  0.61005050  1
  O  O166  1  0.10200350  0.22883950  0.85058500  1
  O  O167  1  0.85200350  0.02116050  0.60058500  1
  O  O168  1  0.39799650  0.22883950  0.64941500  1
  O  O169  1  0.64799650  0.02116050  0.89941500  1
  O  O170  1  0.98152350  0.10925600  0.63994950  1
  O  O171  1  0.01847650  0.89074400  0.63994950  1
  O  O172  1  0.43437700  0.93524150  0.56073050  1
  O  O173  1  0.26847650  0.35925600  0.88994950  1
  O  O174  1  0.89809700  0.14639850  0.51267750  1
  O  O175  1  0.10200350  0.27116050  0.64941500  1
  O  O176  1  0.43437700  0.56475850  0.93926950  1
  O  O177  1  0.06562300  0.56475850  0.56073050  1
  O  O178  1  0.39799650  0.27116050  0.85058500  1
  O  O179  1  0.10190300  0.85360150  0.51267750  1
  O  O180  1  0.35190300  0.39639850  0.76267750  1
  O  O181  1  0.60190300  0.14639850  0.98732250  1
  O  O182  1  0.06562300  0.93524150  0.93926950  1
  O  O183  1  0.51847650  0.10925600  0.86005050  1
  O  O184  1  0.23152350  0.64074400  0.38994950  1
  O  O185  1  0.18437700  0.31475850  0.31073050  1
  O  O186  1  0.14809700  0.60360150  0.26267750  1
  O  O187  1  0.39809700  0.35360150  0.48732250  1
  O  O188  1  0.14809700  0.89639850  0.23732250  1
  O  O189  1  0.35200350  0.47883950  0.39941500  1
  O  O190  1  0.18437700  0.18524150  0.18926950  1
  O  O191  1  0.31562300  0.18524150  0.31073050  1
  O  O192  1  0.14799650  0.47883950  0.10058500  1
  O  O193  1  0.35190300  0.60360150  0.23732250  1
  O  O194  1  0.48152350  0.39074400  0.36005050  1
  O  O195  1  0.31562300  0.31475850  0.18926950  1
  O  O196  1  0.23152350  0.85925600  0.11005050  1
  O  O197  1  0.26847650  0.64074400  0.11005050  1
  O  O198  1  0.10200350  0.72883950  0.35058500  1
  O  O199  1  0.85200350  0.52116050  0.10058500  1
  O  O200  1  0.39799650  0.72883950  0.14941500  1
  O  O201  1  0.64799650  0.52116050  0.39941500  1
  O  O202  1  0.98152350  0.60925600  0.13994950  1
  O  O203  1  0.01847650  0.39074400  0.13994950  1
  O  O204  1  0.43437700  0.43524150  0.06073050  1
  O  O205  1  0.26847650  0.85925600  0.38994950  1
  O  O206  1  0.89809700  0.64639850  0.01267750  1
  O  O207  1  0.10200350  0.77116050  0.14941500  1
  O  O208  1  0.43437700  0.06475850  0.43926950  1
  O  O209  1  0.06562300  0.06475850  0.06073050  1
  O  O210  1  0.39799650  0.77116050  0.35058500  1
  O  O211  1  0.10190300  0.35360150  0.01267750  1
  O  O212  1  0.35190300  0.89639850  0.26267750  1
  O  O213  1  0.60190300  0.64639850  0.48732250  1
  O  O214  1  0.06562300  0.43524150  0.43926950  1
  O  O215  1  0.51847650  0.60925600  0.36005050  1
