# generated using pymatgen
data_Li3Mn(CoO2)4
_symmetry_space_group_name_H-M   'P 1'
_cell_length_a   10.28214600
_cell_length_b   5.94428800
_cell_length_c   6.00929375
_cell_angle_alpha   90.00000000
_cell_angle_beta   125.81704153
_cell_angle_gamma   90.00000000
_symmetry_Int_Tables_number   1
_chemical_formula_structural   Li3Mn(CoO2)4
_chemical_formula_sum   'Li6 Mn2 Co8 O16'
_cell_volume   297.83030070
_cell_formula_units_Z   2
loop_
 _symmetry_equiv_pos_site_id
 _symmetry_equiv_pos_as_xyz
  1  'x, y, z'
loop_
 _atom_site_type_symbol
 _atom_site_label
 _atom_site_symmetry_multiplicity
 _atom_site_fract_x
 _atom_site_fract_y
 _atom_site_fract_z
 _atom_site_occupancy
  Li  Li0  1  0.25000000  0.25000000  0.50000000  1
  Li  Li1  1  0.00000000  0.00000000  0.50000000  1
  Li  Li2  1  0.75000000  0.25000000  0.50000000  1
  Li  Li3  1  0.75000000  0.75000000  0.50000000  1
  Li  Li4  1  0.50000000  0.50000000  0.50000000  1
  Li  Li5  1  0.25000000  0.75000000  0.50000000  1
  Mn  Mn6  1  0.00000000  0.50000000  0.00000000  1
  Mn  Mn7  1  0.50000000  0.00000000  0.00000000  1
  Co  Co8  1  0.50000000  0.00000000  0.50000000  1
  Co  Co9  1  0.00000000  0.00000000  0.00000000  1
  Co  Co10  1  0.75000000  0.75000000  0.00000000  1
  Co  Co11  1  0.75000000  0.25000000  0.00000000  1
  Co  Co12  1  0.00000000  0.50000000  0.50000000  1
  Co  Co13  1  0.50000000  0.50000000  0.00000000  1
  Co  Co14  1  0.25000000  0.25000000  0.00000000  1
  Co  Co15  1  0.25000000  0.75000000  0.00000000  1
  O  O16  1  0.73563300  0.00000000  0.22907000  1
  O  O17  1  0.99965300  0.26719700  0.23205700  1
  O  O18  1  0.99965300  0.73280300  0.23205700  1
  O  O19  1  0.75040400  0.50000000  0.23585800  1
  O  O20  1  0.74959600  0.00000000  0.76414200  1
  O  O21  1  0.50034700  0.76719700  0.76794300  1
  O  O22  1  0.50034700  0.23280300  0.76794300  1
  O  O23  1  0.76436700  0.50000000  0.77093000  1
  O  O24  1  0.23563300  0.50000000  0.22907000  1
  O  O25  1  0.49965300  0.76719700  0.23205700  1
  O  O26  1  0.49965300  0.23280300  0.23205700  1
  O  O27  1  0.25040400  0.00000000  0.23585800  1
  O  O28  1  0.24959600  0.50000000  0.76414200  1
  O  O29  1  0.00034700  0.26719700  0.76794300  1
  O  O30  1  0.00034700  0.73280300  0.76794300  1
  O  O31  1  0.26436700  0.00000000  0.77093000  1
