# generated using pymatgen
data_Mn2FeO6
_symmetry_space_group_name_H-M   'P 1'
_cell_length_a   5.10718200
_cell_length_b   8.88044000
_cell_length_c   9.82167700
_cell_angle_alpha   90.00000000
_cell_angle_beta   90.00000000
_cell_angle_gamma   90.00000000
_symmetry_Int_Tables_number   1
_chemical_formula_structural   Mn2FeO6
_chemical_formula_sum   'Mn8 Fe4 O24'
_cell_volume   445.45256770
_cell_formula_units_Z   4
loop_
 _symmetry_equiv_pos_site_id
 _symmetry_equiv_pos_as_xyz
  1  'x, y, z'
loop_
 _atom_site_type_symbol
 _atom_site_label
 _atom_site_symmetry_multiplicity
 _atom_site_fract_x
 _atom_site_fract_y
 _atom_site_fract_z
 _atom_site_occupancy
  Mn  Mn0  1  0.50000000  0.16751000  0.00000000  1
  Mn  Mn1  1  0.50000000  0.33249000  0.50000000  1
  Mn  Mn2  1  0.00000000  0.16751000  0.50000000  1
  Mn  Mn3  1  0.00000000  0.33249000  0.00000000  1
  Mn  Mn4  1  0.00000000  0.66751000  0.00000000  1
  Mn  Mn5  1  0.00000000  0.83249000  0.50000000  1
  Mn  Mn6  1  0.50000000  0.66751000  0.50000000  1
  Mn  Mn7  1  0.50000000  0.83249000  0.00000000  1
  Fe  Fe8  1  0.50000000  0.00000000  0.50000000  1
  Fe  Fe9  1  0.00000000  0.00000000  0.00000000  1
  Fe  Fe10  1  0.00000000  0.50000000  0.50000000  1
  Fe  Fe11  1  0.50000000  0.50000000  0.00000000  1
  O  O12  1  0.67004550  0.17044550  0.59806100  1
  O  O13  1  0.82995450  0.32955450  0.40193900  1
  O  O14  1  0.67004550  0.32955450  0.90193900  1
  O  O15  1  0.32995450  0.32955450  0.09806100  1
  O  O16  1  0.33720700  0.00000000  0.09699400  1
  O  O17  1  0.16279300  0.00000000  0.59699400  1
  O  O18  1  0.83720700  0.00000000  0.40300600  1
  O  O19  1  0.32995450  0.17044550  0.40193900  1
  O  O20  1  0.66279300  0.00000000  0.90300600  1
  O  O21  1  0.17004550  0.17044550  0.90193900  1
  O  O22  1  0.82995450  0.17044550  0.09806100  1
  O  O23  1  0.17004550  0.32955450  0.59806100  1
  O  O24  1  0.17004550  0.67044550  0.59806100  1
  O  O25  1  0.32995450  0.82955450  0.40193900  1
  O  O26  1  0.17004550  0.82955450  0.90193900  1
  O  O27  1  0.82995450  0.82955450  0.09806100  1
  O  O28  1  0.83720700  0.50000000  0.09699400  1
  O  O29  1  0.66279300  0.50000000  0.59699400  1
  O  O30  1  0.33720700  0.50000000  0.40300600  1
  O  O31  1  0.82995450  0.67044550  0.40193900  1
  O  O32  1  0.16279300  0.50000000  0.90300600  1
  O  O33  1  0.67004550  0.67044550  0.90193900  1
  O  O34  1  0.32995450  0.67044550  0.09806100  1
  O  O35  1  0.67004550  0.82955450  0.59806100  1
