# generated using pymatgen
data_LiCrSiO4
_symmetry_space_group_name_H-M   'P 1'
_cell_length_a   5.57876200
_cell_length_b   5.84547200
_cell_length_c   7.96747300
_cell_angle_alpha   90.00000000
_cell_angle_beta   90.00000000
_cell_angle_gamma   90.00000000
_symmetry_Int_Tables_number   1
_chemical_formula_structural   LiCrSiO4
_chemical_formula_sum   'Li4 Cr4 Si4 O16'
_cell_volume   259.82325489
_cell_formula_units_Z   4
loop_
 _symmetry_equiv_pos_site_id
 _symmetry_equiv_pos_as_xyz
  1  'x, y, z'
loop_
 _atom_site_type_symbol
 _atom_site_label
 _atom_site_symmetry_multiplicity
 _atom_site_fract_x
 _atom_site_fract_y
 _atom_site_fract_z
 _atom_site_occupancy
  Li  Li0  1  0.25000000  0.75000000  0.25000000  1
  Li  Li1  1  0.75000000  0.75000000  0.25000000  1
  Li  Li2  1  0.75000000  0.25000000  0.75000000  1
  Li  Li3  1  0.25000000  0.25000000  0.75000000  1
  Cr  Cr4  1  0.00000000  0.50000000  0.50000000  1
  Cr  Cr5  1  0.50000000  0.50000000  0.00000000  1
  Cr  Cr6  1  0.50000000  0.00000000  0.00000000  1
  Cr  Cr7  1  0.00000000  0.00000000  0.50000000  1
  Si  Si8  1  0.00000000  0.75000000  0.86458250  1
  Si  Si9  1  0.00000000  0.25000000  0.13541750  1
  Si  Si10  1  0.50000000  0.25000000  0.36458250  1
  Si  Si11  1  0.50000000  0.75000000  0.63541750  1
  O  O12  1  0.75560625  0.25000000  0.00759600  1
  O  O13  1  0.75560625  0.75000000  0.99240400  1
  O  O14  1  0.24439375  0.25000000  0.00759600  1
  O  O15  1  0.24439375  0.75000000  0.99240400  1
  O  O16  1  0.50000000  0.48496625  0.25111950  1
  O  O17  1  0.00000000  0.51503375  0.75111950  1
  O  O18  1  0.50000000  0.51503375  0.74888050  1
  O  O19  1  0.00000000  0.48496625  0.24888050  1
  O  O20  1  0.25560625  0.75000000  0.50759600  1
  O  O21  1  0.25560625  0.25000000  0.49240400  1
  O  O22  1  0.74439375  0.75000000  0.50759600  1
  O  O23  1  0.74439375  0.25000000  0.49240400  1
  O  O24  1  0.00000000  0.98496625  0.75111950  1
  O  O25  1  0.50000000  0.01503375  0.25111950  1
  O  O26  1  0.00000000  0.01503375  0.24888050  1
  O  O27  1  0.50000000  0.98496625  0.74888050  1
