# generated using pymatgen
data_Na2Bi2C4SO16
_symmetry_space_group_name_H-M   'P 1'
_cell_length_a   14.47657200
_cell_length_b   14.92076600
_cell_length_c   15.31027200
_cell_angle_alpha   90.00000000
_cell_angle_beta   90.00000000
_cell_angle_gamma   90.00000000
_symmetry_Int_Tables_number   1
_chemical_formula_structural   Na2Bi2C4SO16
_chemical_formula_sum   'Na16 Bi16 C32 S8 O128'
_cell_volume   3307.04238025
_cell_formula_units_Z   8
loop_
 _symmetry_equiv_pos_site_id
 _symmetry_equiv_pos_as_xyz
  1  'x, y, z'
loop_
 _atom_site_type_symbol
 _atom_site_label
 _atom_site_symmetry_multiplicity
 _atom_site_fract_x
 _atom_site_fract_y
 _atom_site_fract_z
 _atom_site_occupancy
  Na  Na0  1  0.70947300  0.00000000  0.00000000  1
  Na  Na1  1  0.29052700  0.00000000  0.00000000  1
  Na  Na2  1  0.95947300  0.25000000  0.25000000  1
  Na  Na3  1  0.54052700  0.25000000  0.25000000  1
  Na  Na4  1  0.70947300  0.50000000  0.50000000  1
  Na  Na5  1  0.29052700  0.50000000  0.50000000  1
  Na  Na6  1  0.95947300  0.75000000  0.75000000  1
  Na  Na7  1  0.54052700  0.75000000  0.75000000  1
  Na  Na8  1  0.20947300  0.00000000  0.50000000  1
  Na  Na9  1  0.79052700  0.00000000  0.50000000  1
  Na  Na10  1  0.45947300  0.25000000  0.75000000  1
  Na  Na11  1  0.04052700  0.25000000  0.75000000  1
  Na  Na12  1  0.20947300  0.50000000  0.00000000  1
  Na  Na13  1  0.79052700  0.50000000  0.00000000  1
  Na  Na14  1  0.45947300  0.75000000  0.25000000  1
  Na  Na15  1  0.04052700  0.75000000  0.25000000  1
  Bi  Bi16  1  0.87500000  0.87500000  0.12500000  1
  Bi  Bi17  1  0.62500000  0.62500000  0.12500000  1
  Bi  Bi18  1  0.62500000  0.87500000  0.37500000  1
  Bi  Bi19  1  0.87500000  0.62500000  0.37500000  1
  Bi  Bi20  1  0.87500000  0.37500000  0.62500000  1
  Bi  Bi21  1  0.62500000  0.12500000  0.62500000  1
  Bi  Bi22  1  0.62500000  0.37500000  0.87500000  1
  Bi  Bi23  1  0.87500000  0.12500000  0.87500000  1
  Bi  Bi24  1  0.37500000  0.87500000  0.62500000  1
  Bi  Bi25  1  0.12500000  0.62500000  0.62500000  1
  Bi  Bi26  1  0.12500000  0.87500000  0.87500000  1
  Bi  Bi27  1  0.37500000  0.62500000  0.87500000  1
  Bi  Bi28  1  0.37500000  0.37500000  0.12500000  1
  Bi  Bi29  1  0.12500000  0.12500000  0.12500000  1
  Bi  Bi30  1  0.12500000  0.37500000  0.37500000  1
  Bi  Bi31  1  0.37500000  0.12500000  0.37500000  1
  C  C32  1  0.90434350  0.09404450  0.08949300  1
  C  C33  1  0.59565650  0.40595550  0.08949300  1
  C  C34  1  0.59565650  0.09404450  0.41050700  1
  C  C35  1  0.90434350  0.40595550  0.41050700  1
  C  C36  1  0.84565650  0.84404450  0.33949300  1
  C  C37  1  0.15434350  0.15595550  0.33949300  1
  C  C38  1  0.65434350  0.84404450  0.16050700  1
  C  C39  1  0.34565650  0.15595550  0.16050700  1
  C  C40  1  0.90434350  0.59404450  0.58949300  1
  C  C41  1  0.59565650  0.90595550  0.58949300  1
  C  C42  1  0.59565650  0.59404450  0.91050700  1
  C  C43  1  0.90434350  0.90595550  0.91050700  1
  C  C44  1  0.84565650  0.34404450  0.83949300  1
  C  C45  1  0.15434350  0.65595550  0.83949300  1
  C  C46  1  0.65434350  0.34404450  0.66050700  1
  C  C47  1  0.34565650  0.65595550  0.66050700  1
  C  C48  1  0.40434350  0.09404450  0.58949300  1
  C  C49  1  0.09565650  0.40595550  0.58949300  1
  C  C50  1  0.09565650  0.09404450  0.91050700  1
  C  C51  1  0.40434350  0.40595550  0.91050700  1
  C  C52  1  0.34565650  0.84404450  0.83949300  1
  C  C53  1  0.65434350  0.15595550  0.83949300  1
  C  C54  1  0.15434350  0.84404450  0.66050700  1
  C  C55  1  0.84565650  0.15595550  0.66050700  1
  C  C56  1  0.40434350  0.59404450  0.08949300  1
  C  C57  1  0.09565650  0.90595550  0.08949300  1
  C  C58  1  0.09565650  0.59404450  0.41050700  1
  C  C59  1  0.40434350  0.90595550  0.41050700  1
  C  C60  1  0.34565650  0.34404450  0.33949300  1
  C  C61  1  0.65434350  0.65595550  0.33949300  1
  C  C62  1  0.15434350  0.34404450  0.16050700  1
  C  C63  1  0.84565650  0.65595550  0.16050700  1
  S  S64  1  0.50000000  0.00000000  0.00000000  1
  S  S65  1  0.75000000  0.25000000  0.25000000  1
  S  S66  1  0.50000000  0.50000000  0.50000000  1
  S  S67  1  0.75000000  0.75000000  0.75000000  1
  S  S68  1  0.00000000  0.00000000  0.50000000  1
  S  S69  1  0.25000000  0.25000000  0.75000000  1
  S  S70  1  0.00000000  0.50000000  0.00000000  1
  S  S71  1  0.25000000  0.75000000  0.25000000  1
  O  O72  1  0.84696650  0.02719250  0.09359700  1
  O  O73  1  0.40132150  0.64897300  0.02507750  1
  O  O74  1  0.15303350  0.97280750  0.09359700  1
  O  O75  1  0.59867850  0.35102700  0.02507750  1
  O  O76  1  0.71493350  0.85606650  0.09851500  1
  O  O77  1  0.09867850  0.64897300  0.47492250  1
  O  O78  1  0.28506650  0.14393350  0.09851500  1
  O  O79  1  0.53506650  0.10606650  0.34851500  1
  O  O80  1  0.65303350  0.02719250  0.40640300  1
  O  O81  1  0.43992900  0.94324800  0.05622000  1
  O  O82  1  0.78506650  0.85606650  0.40148500  1
  O  O83  1  0.68992900  0.30675200  0.30622000  1
  O  O84  1  0.90132150  0.35102700  0.47492250  1
  O  O85  1  0.34696650  0.97280750  0.40640300  1
  O  O86  1  0.56007100  0.05675200  0.05622000  1
  O  O87  1  0.93992900  0.05675200  0.44378000  1
  O  O88  1  0.81007100  0.19324800  0.30622000  1
  O  O89  1  0.68992900  0.19324800  0.19378000  1
  O  O90  1  0.90303350  0.77719250  0.34359700  1
  O  O91  1  0.84867850  0.89897300  0.27507750  1
  O  O92  1  0.06007100  0.94324800  0.44378000  1
  O  O93  1  0.46493350  0.89393350  0.34851500  1
  O  O94  1  0.81007100  0.30675200  0.19378000  1
  O  O95  1  0.09696650  0.22280750  0.34359700  1
  O  O96  1  0.21493350  0.14393350  0.40148500  1
  O  O97  1  0.96493350  0.10606650  0.15148500  1
  O  O98  1  0.15132150  0.10102700  0.27507750  1
  O  O99  1  0.03506650  0.89393350  0.15148500  1
  O  O100  1  0.65132150  0.89897300  0.22492250  1
  O  O101  1  0.59696650  0.77719250  0.15640300  1
  O  O102  1  0.34867850  0.10102700  0.22492250  1
  O  O103  1  0.40303350  0.22280750  0.15640300  1
  O  O104  1  0.84696650  0.52719250  0.59359700  1
  O  O105  1  0.40132150  0.14897300  0.52507750  1
  O  O106  1  0.15303350  0.47280750  0.59359700  1
  O  O107  1  0.59867850  0.85102700  0.52507750  1
  O  O108  1  0.71493350  0.35606650  0.59851500  1
  O  O109  1  0.09867850  0.14897300  0.97492250  1
  O  O110  1  0.28506650  0.64393350  0.59851500  1
  O  O111  1  0.53506650  0.60606650  0.84851500  1
  O  O112  1  0.65303350  0.52719250  0.90640300  1
  O  O113  1  0.43992900  0.44324800  0.55622000  1
  O  O114  1  0.78506650  0.35606650  0.90148500  1
  O  O115  1  0.68992900  0.80675200  0.80622000  1
  O  O116  1  0.90132150  0.85102700  0.97492250  1
  O  O117  1  0.34696650  0.47280750  0.90640300  1
  O  O118  1  0.56007100  0.55675200  0.55622000  1
  O  O119  1  0.93992900  0.55675200  0.94378000  1
  O  O120  1  0.81007100  0.69324800  0.80622000  1
  O  O121  1  0.68992900  0.69324800  0.69378000  1
  O  O122  1  0.90303350  0.27719250  0.84359700  1
  O  O123  1  0.84867850  0.39897300  0.77507750  1
  O  O124  1  0.06007100  0.44324800  0.94378000  1
  O  O125  1  0.46493350  0.39393350  0.84851500  1
  O  O126  1  0.81007100  0.80675200  0.69378000  1
  O  O127  1  0.09696650  0.72280750  0.84359700  1
  O  O128  1  0.21493350  0.64393350  0.90148500  1
  O  O129  1  0.96493350  0.60606650  0.65148500  1
  O  O130  1  0.15132150  0.60102700  0.77507750  1
  O  O131  1  0.03506650  0.39393350  0.65148500  1
  O  O132  1  0.65132150  0.39897300  0.72492250  1
  O  O133  1  0.59696650  0.27719250  0.65640300  1
  O  O134  1  0.34867850  0.60102700  0.72492250  1
  O  O135  1  0.40303350  0.72280750  0.65640300  1
  O  O136  1  0.34696650  0.02719250  0.59359700  1
  O  O137  1  0.90132150  0.64897300  0.52507750  1
  O  O138  1  0.65303350  0.97280750  0.59359700  1
  O  O139  1  0.09867850  0.35102700  0.52507750  1
  O  O140  1  0.21493350  0.85606650  0.59851500  1
  O  O141  1  0.59867850  0.64897300  0.97492250  1
  O  O142  1  0.78506650  0.14393350  0.59851500  1
  O  O143  1  0.03506650  0.10606650  0.84851500  1
  O  O144  1  0.15303350  0.02719250  0.90640300  1
  O  O145  1  0.93992900  0.94324800  0.55622000  1
  O  O146  1  0.28506650  0.85606650  0.90148500  1
  O  O147  1  0.18992900  0.30675200  0.80622000  1
  O  O148  1  0.40132150  0.35102700  0.97492250  1
  O  O149  1  0.84696650  0.97280750  0.90640300  1
  O  O150  1  0.06007100  0.05675200  0.55622000  1
  O  O151  1  0.43992900  0.05675200  0.94378000  1
  O  O152  1  0.31007100  0.19324800  0.80622000  1
  O  O153  1  0.18992900  0.19324800  0.69378000  1
  O  O154  1  0.40303350  0.77719250  0.84359700  1
  O  O155  1  0.34867850  0.89897300  0.77507750  1
  O  O156  1  0.56007100  0.94324800  0.94378000  1
  O  O157  1  0.96493350  0.89393350  0.84851500  1
  O  O158  1  0.31007100  0.30675200  0.69378000  1
  O  O159  1  0.59696650  0.22280750  0.84359700  1
  O  O160  1  0.71493350  0.14393350  0.90148500  1
  O  O161  1  0.46493350  0.10606650  0.65148500  1
  O  O162  1  0.65132150  0.10102700  0.77507750  1
  O  O163  1  0.53506650  0.89393350  0.65148500  1
  O  O164  1  0.15132150  0.89897300  0.72492250  1
  O  O165  1  0.09696650  0.77719250  0.65640300  1
  O  O166  1  0.84867850  0.10102700  0.72492250  1
  O  O167  1  0.90303350  0.22280750  0.65640300  1
  O  O168  1  0.34696650  0.52719250  0.09359700  1
  O  O169  1  0.90132150  0.14897300  0.02507750  1
  O  O170  1  0.65303350  0.47280750  0.09359700  1
  O  O171  1  0.09867850  0.85102700  0.02507750  1
  O  O172  1  0.21493350  0.35606650  0.09851500  1
  O  O173  1  0.59867850  0.14897300  0.47492250  1
  O  O174  1  0.78506650  0.64393350  0.09851500  1
  O  O175  1  0.03506650  0.60606650  0.34851500  1
  O  O176  1  0.15303350  0.52719250  0.40640300  1
  O  O177  1  0.93992900  0.44324800  0.05622000  1
  O  O178  1  0.28506650  0.35606650  0.40148500  1
  O  O179  1  0.18992900  0.80675200  0.30622000  1
  O  O180  1  0.40132150  0.85102700  0.47492250  1
  O  O181  1  0.84696650  0.47280750  0.40640300  1
  O  O182  1  0.06007100  0.55675200  0.05622000  1
  O  O183  1  0.43992900  0.55675200  0.44378000  1
  O  O184  1  0.31007100  0.69324800  0.30622000  1
  O  O185  1  0.18992900  0.69324800  0.19378000  1
  O  O186  1  0.40303350  0.27719250  0.34359700  1
  O  O187  1  0.34867850  0.39897300  0.27507750  1
  O  O188  1  0.56007100  0.44324800  0.44378000  1
  O  O189  1  0.96493350  0.39393350  0.34851500  1
  O  O190  1  0.31007100  0.80675200  0.19378000  1
  O  O191  1  0.59696650  0.72280750  0.34359700  1
  O  O192  1  0.71493350  0.64393350  0.40148500  1
  O  O193  1  0.46493350  0.60606650  0.15148500  1
  O  O194  1  0.65132150  0.60102700  0.27507750  1
  O  O195  1  0.53506650  0.39393350  0.15148500  1
  O  O196  1  0.15132150  0.39897300  0.22492250  1
  O  O197  1  0.09696650  0.27719250  0.15640300  1
  O  O198  1  0.84867850  0.60102700  0.22492250  1
  O  O199  1  0.90303350  0.72280750  0.15640300  1
