# generated using pymatgen
data_Fe6O5F7
_symmetry_space_group_name_H-M   'P 1'
_cell_length_a   8.98296600
_cell_length_b   6.95214000
_cell_length_c   7.29677312
_cell_angle_alpha   90.00000000
_cell_angle_beta   111.97712469
_cell_angle_gamma   90.00000000
_symmetry_Int_Tables_number   1
_chemical_formula_structural   Fe6O5F7
_chemical_formula_sum   'Fe12 O10 F14'
_cell_volume   422.57615072
_cell_formula_units_Z   2
loop_
 _symmetry_equiv_pos_site_id
 _symmetry_equiv_pos_as_xyz
  1  'x, y, z'
loop_
 _atom_site_type_symbol
 _atom_site_label
 _atom_site_symmetry_multiplicity
 _atom_site_fract_x
 _atom_site_fract_y
 _atom_site_fract_z
 _atom_site_occupancy
  Fe  Fe0  1  0.00000000  0.66683300  0.00000000  1
  Fe  Fe1  1  0.33222400  0.66321800  0.85716500  1
  Fe  Fe2  1  0.00000000  0.68877600  0.50000000  1
  Fe  Fe3  1  0.85767750  0.15796850  0.34086400  1
  Fe  Fe4  1  0.14232250  0.15796850  0.65913600  1
  Fe  Fe5  1  0.66777600  0.66321800  0.14283500  1
  Fe  Fe6  1  0.50000000  0.16683300  0.00000000  1
  Fe  Fe7  1  0.83222400  0.16321800  0.85716500  1
  Fe  Fe8  1  0.50000000  0.18877600  0.50000000  1
  Fe  Fe9  1  0.35767750  0.65796850  0.34086400  1
  Fe  Fe10  1  0.64232250  0.65796850  0.65913600  1
  Fe  Fe11  1  0.16777600  0.16321800  0.14283500  1
  O  O12  1  0.94571350  0.16505150  0.13639500  1
  O  O13  1  0.10049750  0.66697450  0.80049300  1
  O  O14  1  0.89950250  0.66697450  0.19950700  1
  O  O15  1  0.05428650  0.16505150  0.86360500  1
  O  O16  1  0.00000000  0.96091800  0.50000000  1
  O  O17  1  0.44571350  0.66505150  0.13639500  1
  O  O18  1  0.60049750  0.16697450  0.80049300  1
  O  O19  1  0.39950250  0.16697450  0.19950700  1
  O  O20  1  0.55428650  0.66505150  0.86360500  1
  O  O21  1  0.50000000  0.46091800  0.50000000  1
  F  F22  1  0.32890300  0.35568100  0.82916800  1
  F  F23  1  0.00000000  0.38561100  0.50000000  1
  F  F24  1  0.76208800  0.66856700  0.46261100  1
  F  F25  1  0.23791200  0.66856700  0.53738900  1
  F  F26  1  0.83334100  0.47146800  0.83189100  1
  F  F27  1  0.16665900  0.47146800  0.16810900  1
  F  F28  1  0.67109700  0.35568100  0.17083200  1
  F  F29  1  0.82890300  0.85568100  0.82916800  1
  F  F30  1  0.50000000  0.88561100  0.50000000  1
  F  F31  1  0.26208800  0.16856700  0.46261100  1
  F  F32  1  0.73791200  0.16856700  0.53738900  1
  F  F33  1  0.33334100  0.97146800  0.83189100  1
  F  F34  1  0.66665900  0.97146800  0.16810900  1
  F  F35  1  0.17109700  0.85568100  0.17083200  1
