# generated using pymatgen
data_WO3
_symmetry_space_group_name_H-M   'P 1'
_cell_length_a   7.61600800
_cell_length_b   7.61600800
_cell_length_c   7.61600800
_cell_angle_alpha   90.00000000
_cell_angle_beta   90.00000000
_cell_angle_gamma   90.00000000
_symmetry_Int_Tables_number   1
_chemical_formula_structural   WO3
_chemical_formula_sum   'W8 O24'
_cell_volume   441.75571298
_cell_formula_units_Z   8
loop_
 _symmetry_equiv_pos_site_id
 _symmetry_equiv_pos_as_xyz
  1  'x, y, z'
loop_
 _atom_site_type_symbol
 _atom_site_label
 _atom_site_symmetry_multiplicity
 _atom_site_fract_x
 _atom_site_fract_y
 _atom_site_fract_z
 _atom_site_occupancy
  W  W0  1  0.75000000  0.25000000  0.25000000  1
  W  W1  1  0.25000000  0.75000000  0.25000000  1
  W  W2  1  0.25000000  0.25000000  0.25000000  1
  W  W3  1  0.25000000  0.25000000  0.75000000  1
  W  W4  1  0.25000000  0.75000000  0.75000000  1
  W  W5  1  0.75000000  0.25000000  0.75000000  1
  W  W6  1  0.75000000  0.75000000  0.75000000  1
  W  W7  1  0.75000000  0.75000000  0.25000000  1
  O  O8  1  0.00000000  0.21856750  0.72187550  1
  O  O9  1  0.28143250  0.77812450  0.50000000  1
  O  O10  1  0.00000000  0.21856750  0.27812450  1
  O  O11  1  0.77812450  0.50000000  0.28143250  1
  O  O12  1  0.28143250  0.22187550  0.50000000  1
  O  O13  1  0.27812450  0.00000000  0.21856750  1
  O  O14  1  0.22187550  0.50000000  0.28143250  1
  O  O15  1  0.21856750  0.27812450  0.00000000  1
  O  O16  1  0.72187550  0.00000000  0.21856750  1
  O  O17  1  0.50000000  0.28143250  0.22187550  1
  O  O18  1  0.21856750  0.72187550  0.00000000  1
  O  O19  1  0.50000000  0.28143250  0.77812450  1
  O  O20  1  0.50000000  0.71856750  0.22187550  1
  O  O21  1  0.78143250  0.27812450  0.00000000  1
  O  O22  1  0.50000000  0.71856750  0.77812450  1
  O  O23  1  0.27812450  0.00000000  0.78143250  1
  O  O24  1  0.78143250  0.72187550  0.00000000  1
  O  O25  1  0.77812450  0.50000000  0.71856750  1
  O  O26  1  0.72187550  0.00000000  0.78143250  1
  O  O27  1  0.71856750  0.77812450  0.50000000  1
  O  O28  1  0.22187550  0.50000000  0.71856750  1
  O  O29  1  0.00000000  0.78143250  0.72187550  1
  O  O30  1  0.71856750  0.22187550  0.50000000  1
  O  O31  1  0.00000000  0.78143250  0.27812450  1
