# generated using pymatgen
data_Li2VGaO4
_symmetry_space_group_name_H-M   'P 1'
_cell_length_a   5.16566340
_cell_length_b   5.98940453
_cell_length_c   7.84060576
_cell_angle_alpha   100.59184462
_cell_angle_beta   108.66240746
_cell_angle_gamma   89.76378490
_symmetry_Int_Tables_number   1
_chemical_formula_structural   Li2VGaO4
_chemical_formula_sum   'Li6 V3 Ga3 O12'
_cell_volume   225.52168686
_cell_formula_units_Z   3
loop_
 _symmetry_equiv_pos_site_id
 _symmetry_equiv_pos_as_xyz
  1  'x, y, z'
loop_
 _atom_site_type_symbol
 _atom_site_label
 _atom_site_symmetry_multiplicity
 _atom_site_fract_x
 _atom_site_fract_y
 _atom_site_fract_z
 _atom_site_occupancy
  Li  Li0  1  0.49968350  0.58039700  0.83297200  1
  Li  Li1  1  0.50031650  0.41960300  0.16702800  1
  Li  Li2  1  0.49690200  0.74427150  0.49636150  1
  Li  Li3  1  0.50309800  0.25572850  0.50363850  1
  Li  Li4  1  0.49869750  0.09108250  0.83267550  1
  Li  Li5  1  0.50130250  0.90891750  0.16732450  1
  V  V6  1  0.00000000  0.00000000  0.50000000  1
  V  V7  1  0.99923850  0.83629750  0.83435450  1
  V  V8  1  0.00076150  0.16370250  0.16564550  1
  Ga  Ga9  1  0.00000000  0.50000000  0.50000000  1
  Ga  Ga10  1  0.00150350  0.33819450  0.83296450  1
  Ga  Ga11  1  0.99849650  0.66180550  0.16703550  1
  O  O12  1  0.22864100  0.12739550  0.99316550  1
  O  O13  1  0.77135900  0.87260450  0.00683450  1
  O  O14  1  0.22386350  0.62221000  0.99602500  1
  O  O15  1  0.77613650  0.37779000  0.00397500  1
  O  O16  1  0.22555050  0.94973650  0.32642750  1
  O  O17  1  0.77444950  0.05026350  0.67357250  1
  O  O18  1  0.22538450  0.45642400  0.32908100  1
  O  O19  1  0.77461550  0.54357600  0.67091900  1
  O  O20  1  0.22509200  0.79057350  0.65954250  1
  O  O21  1  0.77490800  0.20942650  0.34045750  1
  O  O22  1  0.22625800  0.29872500  0.66326900  1
  O  O23  1  0.77374200  0.70127500  0.33673100  1
