# generated using pymatgen
data_Li5(NbS2)7
_symmetry_space_group_name_H-M   'P 1'
_cell_length_a   23.64798400
_cell_length_b   5.84954400
_cell_length_c   16.43234633
_cell_angle_alpha   90.00000000
_cell_angle_beta   128.09269750
_cell_angle_gamma   90.00000000
_symmetry_Int_Tables_number   1
_chemical_formula_structural   Li5(NbS2)7
_chemical_formula_sum   'Li20 Nb28 S56'
_cell_volume   1788.94909989
_cell_formula_units_Z   4
loop_
 _symmetry_equiv_pos_site_id
 _symmetry_equiv_pos_as_xyz
  1  'x, y, z'
loop_
 _atom_site_type_symbol
 _atom_site_label
 _atom_site_symmetry_multiplicity
 _atom_site_fract_x
 _atom_site_fract_y
 _atom_site_fract_z
 _atom_site_occupancy
  Li  Li0  1  0.17773700  0.24997500  0.99997100  1
  Li  Li1  1  0.75000000  0.25000000  0.00000000  1
  Li  Li2  1  0.96432650  0.24981850  0.50001600  1
  Li  Li3  1  0.03567350  0.24981850  0.99998400  1
  Li  Li4  1  0.82226300  0.75002500  0.00002900  1
  Li  Li5  1  0.03567350  0.75018150  0.49998400  1
  Li  Li6  1  0.96432650  0.75018150  0.00001600  1
  Li  Li7  1  0.17773700  0.75002500  0.49997100  1
  Li  Li8  1  0.82226300  0.24997500  0.50002900  1
  Li  Li9  1  0.25000000  0.25000000  0.50000000  1
  Li  Li10  1  0.67773700  0.74997500  0.99997100  1
  Li  Li11  1  0.25000000  0.75000000  0.00000000  1
  Li  Li12  1  0.46432650  0.74981850  0.50001600  1
  Li  Li13  1  0.53567350  0.74981850  0.99998400  1
  Li  Li14  1  0.32226300  0.25002500  0.00002900  1
  Li  Li15  1  0.53567350  0.25018150  0.49998400  1
  Li  Li16  1  0.46432650  0.25018150  0.00001600  1
  Li  Li17  1  0.67773700  0.25002500  0.49997100  1
  Li  Li18  1  0.32226300  0.74997500  0.50002900  1
  Li  Li19  1  0.75000000  0.75000000  0.50000000  1
  Nb  Nb20  1  0.85714600  0.25201900  0.25005400  1
  Nb  Nb21  1  0.07116150  0.25083750  0.74986300  1
  Nb  Nb22  1  0.00000000  0.25011800  0.25000000  1
  Nb  Nb23  1  0.92883850  0.74916250  0.25013700  1
  Nb  Nb24  1  0.14285400  0.74798100  0.74994600  1
  Nb  Nb25  1  0.64285400  0.75201900  0.24994600  1
  Nb  Nb26  1  0.28577550  0.75073650  0.75073000  1
  Nb  Nb27  1  0.07116150  0.74916250  0.24986300  1
  Nb  Nb28  1  0.92883850  0.25083750  0.75013700  1
  Nb  Nb29  1  0.21422450  0.25073650  0.74927000  1
  Nb  Nb30  1  0.71422450  0.24926350  0.24927000  1
  Nb  Nb31  1  0.35714600  0.24798100  0.75005400  1
  Nb  Nb32  1  0.00000000  0.74988200  0.75000000  1
  Nb  Nb33  1  0.78577550  0.74926350  0.25073000  1
  Nb  Nb34  1  0.35714600  0.75201900  0.25005400  1
  Nb  Nb35  1  0.57116150  0.75083750  0.74986300  1
  Nb  Nb36  1  0.50000000  0.75011800  0.25000000  1
  Nb  Nb37  1  0.42883850  0.24916250  0.25013700  1
  Nb  Nb38  1  0.64285400  0.24798100  0.74994600  1
  Nb  Nb39  1  0.14285400  0.25201900  0.24994600  1
  Nb  Nb40  1  0.78577550  0.25073650  0.75073000  1
  Nb  Nb41  1  0.57116150  0.24916250  0.24986300  1
  Nb  Nb42  1  0.42883850  0.75083750  0.75013700  1
  Nb  Nb43  1  0.71422450  0.75073650  0.74927000  1
  Nb  Nb44  1  0.21422450  0.74926350  0.24927000  1
  Nb  Nb45  1  0.85714600  0.74798100  0.75005400  1
  Nb  Nb46  1  0.50000000  0.24988200  0.75000000  1
  Nb  Nb47  1  0.28577550  0.24926350  0.25073000  1
  S  S48  1  0.80501150  0.91647250  0.12854800  1
  S  S49  1  0.87690800  0.41607500  0.12878300  1
  S  S50  1  0.98081800  0.41579000  0.37117800  1
  S  S51  1  0.01918200  0.58421000  0.62882200  1
  S  S52  1  0.12309200  0.58392500  0.87121700  1
  S  S53  1  0.01918200  0.41579000  0.12882200  1
  S  S54  1  0.26651950  0.58345050  0.87129300  1
  S  S55  1  0.90871100  0.91609300  0.37085700  1
  S  S56  1  0.16236900  0.58248400  0.62884000  1
  S  S57  1  0.12309200  0.41607500  0.37121700  1
  S  S58  1  0.66236900  0.91751600  0.12884000  1
  S  S59  1  0.94812150  0.91779150  0.12892300  1
  S  S60  1  0.76651950  0.91654950  0.37129300  1
  S  S61  1  0.19498850  0.08352750  0.87145200  1
  S  S62  1  0.30501150  0.58352750  0.62854800  1
  S  S63  1  0.40871100  0.58390700  0.87085700  1
  S  S64  1  0.09128900  0.08390700  0.62914300  1
  S  S65  1  0.05187850  0.91779150  0.37107700  1
  S  S66  1  0.59128900  0.41609300  0.12914300  1
  S  S67  1  0.69498850  0.41647250  0.37145200  1
  S  S68  1  0.33763100  0.08248400  0.87116000  1
  S  S69  1  0.23348050  0.08345050  0.62870700  1
  S  S70  1  0.94812150  0.08220850  0.62892300  1
  S  S71  1  0.73348050  0.41654950  0.12870700  1
  S  S72  1  0.83763100  0.41751600  0.37116000  1
  S  S73  1  0.87690800  0.58392500  0.62878300  1
  S  S74  1  0.98081800  0.58421000  0.87117800  1
  S  S75  1  0.05187850  0.08220850  0.87107700  1
  S  S76  1  0.30501150  0.41647250  0.12854800  1
  S  S77  1  0.37690800  0.91607500  0.12878300  1
  S  S78  1  0.48081800  0.91579000  0.37117800  1
  S  S79  1  0.51918200  0.08421000  0.62882200  1
  S  S80  1  0.62309200  0.08392500  0.87121700  1
  S  S81  1  0.51918200  0.91579000  0.12882200  1
  S  S82  1  0.76651950  0.08345050  0.87129300  1
  S  S83  1  0.40871100  0.41609300  0.37085700  1
  S  S84  1  0.66236900  0.08248400  0.62884000  1
  S  S85  1  0.62309200  0.91607500  0.37121700  1
  S  S86  1  0.16236900  0.41751600  0.12884000  1
  S  S87  1  0.44812150  0.41779150  0.12892300  1
  S  S88  1  0.26651950  0.41654950  0.37129300  1
  S  S89  1  0.69498850  0.58352750  0.87145200  1
  S  S90  1  0.80501150  0.08352750  0.62854800  1
  S  S91  1  0.90871100  0.08390700  0.87085700  1
  S  S92  1  0.59128900  0.58390700  0.62914300  1
  S  S93  1  0.55187850  0.41779150  0.37107700  1
  S  S94  1  0.09128900  0.91609300  0.12914300  1
  S  S95  1  0.19498850  0.91647250  0.37145200  1
  S  S96  1  0.83763100  0.58248400  0.87116000  1
  S  S97  1  0.73348050  0.58345050  0.62870700  1
  S  S98  1  0.44812150  0.58220850  0.62892300  1
  S  S99  1  0.23348050  0.91654950  0.12870700  1
  S  S100  1  0.33763100  0.91751600  0.37116000  1
  S  S101  1  0.37690800  0.08392500  0.62878300  1
  S  S102  1  0.48081800  0.08421000  0.87117800  1
  S  S103  1  0.55187850  0.58220850  0.87107700  1
