# generated using pymatgen
data_LiFe2O2F3
_symmetry_space_group_name_H-M   'P 1'
_cell_length_a   10.33213400
_cell_length_b   5.32672000
_cell_length_c   7.21103532
_cell_angle_alpha   90.00000000
_cell_angle_beta   111.92518699
_cell_angle_gamma   90.00000000
_symmetry_Int_Tables_number   1
_chemical_formula_structural   LiFe2O2F3
_chemical_formula_sum   'Li4 Fe8 O8 F12'
_cell_volume   368.16463042
_cell_formula_units_Z   4
loop_
 _symmetry_equiv_pos_site_id
 _symmetry_equiv_pos_as_xyz
  1  'x, y, z'
loop_
 _atom_site_type_symbol
 _atom_site_label
 _atom_site_symmetry_multiplicity
 _atom_site_fract_x
 _atom_site_fract_y
 _atom_site_fract_z
 _atom_site_occupancy
  Li  Li0  1  0.00352400  0.99607200  0.25193200  1
  Li  Li1  1  0.49647600  0.49607200  0.74806800  1
  Li  Li2  1  0.50352400  0.49607200  0.25193200  1
  Li  Li3  1  0.99647600  0.99607200  0.74806800  1
  Fe  Fe4  1  0.11850250  0.50786550  0.44999400  1
  Fe  Fe5  1  0.11871200  0.48369100  0.95076300  1
  Fe  Fe6  1  0.38149750  0.00786550  0.55000600  1
  Fe  Fe7  1  0.38128800  0.98369100  0.04923700  1
  Fe  Fe8  1  0.61850250  0.00786550  0.44999400  1
  Fe  Fe9  1  0.61871200  0.98369100  0.95076300  1
  Fe  Fe10  1  0.88149750  0.50786550  0.55000600  1
  Fe  Fe11  1  0.88128800  0.48369100  0.04923700  1
  O  O12  1  0.08523900  0.63147500  0.68999400  1
  O  O13  1  0.08483200  0.35786400  0.18918400  1
  O  O14  1  0.41476100  0.13147500  0.31000600  1
  O  O15  1  0.41516800  0.85786400  0.81081600  1
  O  O16  1  0.58523900  0.13147500  0.68999400  1
  O  O17  1  0.58483200  0.85786400  0.18918400  1
  O  O18  1  0.91476100  0.63147500  0.31000600  1
  O  O19  1  0.91516800  0.35786400  0.81081600  1
  F  F20  1  0.19937300  0.83956000  0.40950400  1
  F  F21  1  0.30062700  0.33956000  0.59049600  1
  F  F22  1  0.19787750  0.15033050  0.91127000  1
  F  F23  1  0.30212250  0.65033050  0.08873000  1
  F  F24  1  0.00000000  0.19007400  0.50000000  1
  F  F25  1  0.00000000  0.79848100  0.00000000  1
  F  F26  1  0.69937300  0.33956000  0.40950400  1
  F  F27  1  0.80062700  0.83956000  0.59049600  1
  F  F28  1  0.69787750  0.65033050  0.91127000  1
  F  F29  1  0.80212250  0.15033050  0.08873000  1
  F  F30  1  0.50000000  0.69007400  0.50000000  1
  F  F31  1  0.50000000  0.29848100  0.00000000  1
