# generated using pymatgen
data_NaLi5Fe2P2(CO7)2
_symmetry_space_group_name_H-M   'P 1'
_cell_length_a   8.54731400
_cell_length_b   6.53117400
_cell_length_c   10.07591538
_cell_angle_alpha   90.00000000
_cell_angle_beta   94.09083741
_cell_angle_gamma   90.00000000
_symmetry_Int_Tables_number   1
_chemical_formula_structural   NaLi5Fe2P2(CO7)2
_chemical_formula_sum   'Na2 Li10 Fe4 P4 C4 O28'
_cell_volume   561.04477047
_cell_formula_units_Z   2
loop_
 _symmetry_equiv_pos_site_id
 _symmetry_equiv_pos_as_xyz
  1  'x, y, z'
loop_
 _atom_site_type_symbol
 _atom_site_label
 _atom_site_symmetry_multiplicity
 _atom_site_fract_x
 _atom_site_fract_y
 _atom_site_fract_z
 _atom_site_occupancy
  Na  Na0  1  0.74450400  0.99870900  0.62744400  1
  Na  Na1  1  0.25549600  0.49870900  0.37255600  1
  Li  Li2  1  0.90951000  0.73733900  0.87737400  1
  Li  Li3  1  0.91196800  0.75835700  0.37342400  1
  Li  Li4  1  0.72382800  0.52256300  0.62053000  1
  Li  Li5  1  0.72666100  0.98034600  0.12455300  1
  Li  Li6  1  0.72675000  0.52155400  0.12422300  1
  Li  Li7  1  0.27333900  0.48034600  0.87544700  1
  Li  Li8  1  0.27325000  0.02155400  0.87577700  1
  Li  Li9  1  0.27617200  0.02256300  0.37947000  1
  Li  Li10  1  0.08803200  0.25835700  0.62657600  1
  Li  Li11  1  0.09049000  0.23733900  0.12262600  1
  Fe  Fe12  1  0.66337800  0.24834800  0.89638900  1
  Fe  Fe13  1  0.65719400  0.25675500  0.39078600  1
  Fe  Fe14  1  0.34280600  0.75675500  0.60921400  1
  Fe  Fe15  1  0.33662200  0.74834800  0.10361100  1
  P  P16  1  0.58914100  0.74302500  0.85818800  1
  P  P17  1  0.59111200  0.75692200  0.35411000  1
  P  P18  1  0.40888800  0.25692200  0.64589000  1
  P  P19  1  0.41085900  0.24302500  0.14181200  1
  C  C20  1  0.96606600  0.25237200  0.85885600  1
  C  C21  1  0.95885900  0.24178700  0.35312400  1
  C  C22  1  0.04114100  0.74178700  0.64687600  1
  C  C23  1  0.03393400  0.75237200  0.14114400  1
  O  O24  1  0.89867900  0.71752300  0.67864500  1
  O  O25  1  0.88803800  0.75493700  0.16888500  1
  O  O26  1  0.92488600  0.24587500  0.97979600  1
  O  O27  1  0.92360400  0.24467400  0.47686800  1
  O  O28  1  0.85699500  0.25639000  0.76097100  1
  O  O29  1  0.84726300  0.26435300  0.25864700  1
  O  O30  1  0.69005600  0.93421400  0.90228000  1
  O  O31  1  0.69115600  0.56110500  0.91637800  1
  O  O32  1  0.69879000  0.94286200  0.39423400  1
  O  O33  1  0.68841000  0.56978700  0.41049800  1
  O  O34  1  0.57246800  0.72922200  0.70320800  1
  O  O35  1  0.57087500  0.27148400  0.58844700  1
  O  O36  1  0.56982800  0.74375500  0.19885200  1
  O  O37  1  0.57671400  0.24573900  0.09077800  1
  O  O38  1  0.42328600  0.74573900  0.90922200  1
  O  O39  1  0.43017200  0.24375500  0.80114800  1
  O  O40  1  0.42912500  0.77148400  0.41155300  1
  O  O41  1  0.42753200  0.22922200  0.29679200  1
  O  O42  1  0.30121000  0.44286200  0.60576600  1
  O  O43  1  0.31159000  0.06978700  0.58950200  1
  O  O44  1  0.30994400  0.43421400  0.09772000  1
  O  O45  1  0.30884400  0.06110500  0.08362200  1
  O  O46  1  0.15273700  0.76435300  0.74135300  1
  O  O47  1  0.14300500  0.75639000  0.23902900  1
  O  O48  1  0.07639600  0.74467400  0.52313200  1
  O  O49  1  0.07511400  0.74587500  0.02020400  1
  O  O50  1  0.11196200  0.25493700  0.83111500  1
  O  O51  1  0.10132100  0.21752300  0.32135500  1
