# generated using pymatgen
data_Li2Ni(CO3)2
_symmetry_space_group_name_H-M   'P 1'
_cell_length_a   5.43452740
_cell_length_b   10.75149398
_cell_length_c   16.21216407
_cell_angle_alpha   90.00000000
_cell_angle_beta   90.00000000
_cell_angle_gamma   90.00000000
_symmetry_Int_Tables_number   1
_chemical_formula_structural   Li2Ni(CO3)2
_chemical_formula_sum   'Li16 Ni8 C16 O48'
_cell_volume   947.26521304
_cell_formula_units_Z   8
loop_
 _symmetry_equiv_pos_site_id
 _symmetry_equiv_pos_as_xyz
  1  'x, y, z'
loop_
 _atom_site_type_symbol
 _atom_site_label
 _atom_site_symmetry_multiplicity
 _atom_site_fract_x
 _atom_site_fract_y
 _atom_site_fract_z
 _atom_site_occupancy
  Li  Li0  1  0.66049525  0.54908850  0.67888175  1
  Li  Li1  1  0.91049525  0.70091150  0.92888175  1
  Li  Li2  1  0.91049525  0.79908850  0.57111825  1
  Li  Li3  1  0.66049525  0.95091150  0.82111825  1
  Li  Li4  1  0.16049525  0.54908850  0.17888175  1
  Li  Li5  1  0.41049525  0.70091150  0.42888175  1
  Li  Li6  1  0.41049525  0.79908850  0.07111825  1
  Li  Li7  1  0.16049525  0.95091150  0.32111825  1
  Li  Li8  1  0.16049525  0.04908850  0.67888175  1
  Li  Li9  1  0.41049525  0.20091150  0.92888175  1
  Li  Li10  1  0.41049525  0.29908850  0.57111825  1
  Li  Li11  1  0.16049525  0.45091150  0.82111825  1
  Li  Li12  1  0.66049525  0.04908850  0.17888175  1
  Li  Li13  1  0.91049525  0.20091150  0.42888175  1
  Li  Li14  1  0.91049525  0.29908850  0.07111825  1
  Li  Li15  1  0.66049525  0.45091150  0.32111825  1
  Ni  Ni16  1  0.26117300  0.75000000  0.75000000  1
  Ni  Ni17  1  0.51117300  0.00000000  0.50000000  1
  Ni  Ni18  1  0.76117300  0.75000000  0.25000000  1
  Ni  Ni19  1  0.01117300  0.00000000  0.00000000  1
  Ni  Ni20  1  0.76117300  0.25000000  0.75000000  1
  Ni  Ni21  1  0.01117300  0.50000000  0.50000000  1
  Ni  Ni22  1  0.26117300  0.25000000  0.25000000  1
  Ni  Ni23  1  0.51117300  0.50000000  0.00000000  1
  C  C24  1  0.20764850  0.53273325  0.64729075  1
  C  C25  1  0.45764850  0.71726675  0.89729075  1
  C  C26  1  0.45764850  0.78273325  0.60270925  1
  C  C27  1  0.20764850  0.96726675  0.85270925  1
  C  C28  1  0.70764850  0.53273325  0.14729075  1
  C  C29  1  0.95764850  0.71726675  0.39729075  1
  C  C30  1  0.95764850  0.78273325  0.10270925  1
  C  C31  1  0.70764850  0.96726675  0.35270925  1
  C  C32  1  0.70764850  0.03273325  0.64729075  1
  C  C33  1  0.95764850  0.21726675  0.89729075  1
  C  C34  1  0.95764850  0.28273325  0.60270925  1
  C  C35  1  0.70764850  0.46726675  0.85270925  1
  C  C36  1  0.20764850  0.03273325  0.14729075  1
  C  C37  1  0.45764850  0.21726675  0.39729075  1
  C  C38  1  0.45764850  0.28273325  0.10270925  1
  C  C39  1  0.20764850  0.46726675  0.35270925  1
  O  O40  1  0.88014150  0.99552025  0.59880875  1
  O  O41  1  0.63014150  0.75447975  0.84880875  1
  O  O42  1  0.63014150  0.74552025  0.65119125  1
  O  O43  1  0.88014150  0.50447975  0.90119125  1
  O  O44  1  0.98326275  0.54026100  0.62022675  1
  O  O45  1  0.23326275  0.70973900  0.87022675  1
  O  O46  1  0.23326275  0.79026100  0.62977325  1
  O  O47  1  0.98326275  0.95973900  0.87977325  1
  O  O48  1  0.25841850  0.56415775  0.72365925  1
  O  O49  1  0.50841850  0.68584225  0.97365925  1
  O  O50  1  0.50841850  0.81415775  0.52634075  1
  O  O51  1  0.25841850  0.93584225  0.77634075  1
  O  O52  1  0.38014150  0.99552025  0.09880875  1
  O  O53  1  0.13014150  0.75447975  0.34880875  1
  O  O54  1  0.13014150  0.74552025  0.15119125  1
  O  O55  1  0.38014150  0.50447975  0.40119125  1
  O  O56  1  0.48326275  0.54026100  0.12022675  1
  O  O57  1  0.73326275  0.70973900  0.37022675  1
  O  O58  1  0.73326275  0.79026100  0.12977325  1
  O  O59  1  0.48326275  0.95973900  0.37977325  1
  O  O60  1  0.75841850  0.56415775  0.22365925  1
  O  O61  1  0.00841850  0.68584225  0.47365925  1
  O  O62  1  0.00841850  0.81415775  0.02634075  1
  O  O63  1  0.75841850  0.93584225  0.27634075  1
  O  O64  1  0.38014150  0.49552025  0.59880875  1
  O  O65  1  0.13014150  0.25447975  0.84880875  1
  O  O66  1  0.13014150  0.24552025  0.65119125  1
  O  O67  1  0.38014150  0.00447975  0.90119125  1
  O  O68  1  0.48326275  0.04026100  0.62022675  1
  O  O69  1  0.73326275  0.20973900  0.87022675  1
  O  O70  1  0.73326275  0.29026100  0.62977325  1
  O  O71  1  0.48326275  0.45973900  0.87977325  1
  O  O72  1  0.75841850  0.06415775  0.72365925  1
  O  O73  1  0.00841850  0.18584225  0.97365925  1
  O  O74  1  0.00841850  0.31415775  0.52634075  1
  O  O75  1  0.75841850  0.43584225  0.77634075  1
  O  O76  1  0.88014150  0.49552025  0.09880875  1
  O  O77  1  0.63014150  0.25447975  0.34880875  1
  O  O78  1  0.63014150  0.24552025  0.15119125  1
  O  O79  1  0.88014150  0.00447975  0.40119125  1
  O  O80  1  0.98326275  0.04026100  0.12022675  1
  O  O81  1  0.23326275  0.20973900  0.37022675  1
  O  O82  1  0.23326275  0.29026100  0.12977325  1
  O  O83  1  0.98326275  0.45973900  0.37977325  1
  O  O84  1  0.25841850  0.06415775  0.22365925  1
  O  O85  1  0.50841850  0.18584225  0.47365925  1
  O  O86  1  0.50841850  0.31415775  0.02634075  1
  O  O87  1  0.25841850  0.43584225  0.27634075  1
