# generated using pymatgen
data_Co3(OF2)2
_symmetry_space_group_name_H-M   'P 1'
_cell_length_a   9.23249020
_cell_length_b   6.41404258
_cell_length_c   7.51280302
_cell_angle_alpha   90.00000000
_cell_angle_beta   114.10079398
_cell_angle_gamma   90.00000000
_symmetry_Int_Tables_number   1
_chemical_formula_structural   Co3(OF2)2
_chemical_formula_sum   'Co12 O8 F16'
_cell_volume   406.10832832
_cell_formula_units_Z   4
loop_
 _symmetry_equiv_pos_site_id
 _symmetry_equiv_pos_as_xyz
  1  'x, y, z'
loop_
 _atom_site_type_symbol
 _atom_site_label
 _atom_site_symmetry_multiplicity
 _atom_site_fract_x
 _atom_site_fract_y
 _atom_site_fract_z
 _atom_site_occupancy
  Co  Co0  1  0.15993350  0.51479350  0.16095300  1
  Co  Co1  1  0.16700300  0.48020400  0.66395100  1
  Co  Co2  1  0.83299700  0.48020400  0.33604900  1
  Co  Co3  1  0.84006650  0.51479350  0.83904700  1
  Co  Co4  1  0.00000000  0.01806400  0.50000000  1
  Co  Co5  1  0.00000000  0.01108400  0.00000000  1
  Co  Co6  1  0.65993350  0.01479350  0.16095300  1
  Co  Co7  1  0.66700300  0.98020400  0.66395100  1
  Co  Co8  1  0.33299700  0.98020400  0.33604900  1
  Co  Co9  1  0.34006650  0.01479350  0.83904700  1
  Co  Co10  1  0.50000000  0.51806400  0.50000000  1
  Co  Co11  1  0.50000000  0.51108400  0.00000000  1
  O  O12  1  0.17590700  0.17706300  0.67461300  1
  O  O13  1  0.82409300  0.17706300  0.32538700  1
  O  O14  1  0.00000000  0.72260900  0.00000000  1
  O  O15  1  0.00000000  0.31414200  0.00000000  1
  O  O16  1  0.67590700  0.67706300  0.67461300  1
  O  O17  1  0.32409300  0.67706300  0.32538700  1
  O  O18  1  0.50000000  0.22260900  0.00000000  1
  O  O19  1  0.50000000  0.81414200  0.00000000  1
  F  F20  1  0.16888400  0.79380100  0.66537800  1
  F  F21  1  0.83111600  0.79380100  0.33462200  1
  F  F22  1  0.06521900  0.49424100  0.36767100  1
  F  F23  1  0.40727100  0.50100200  0.69506800  1
  F  F24  1  0.73233900  0.50594600  0.03787300  1
  F  F25  1  0.93478100  0.49424100  0.63232900  1
  F  F26  1  0.26766100  0.50594600  0.96212700  1
  F  F27  1  0.59272900  0.50100200  0.30493200  1
  F  F28  1  0.66888400  0.29380100  0.66537800  1
  F  F29  1  0.33111600  0.29380100  0.33462200  1
  F  F30  1  0.56521900  0.99424100  0.36767100  1
  F  F31  1  0.90727100  0.00100200  0.69506800  1
  F  F32  1  0.23233900  0.00594600  0.03787300  1
  F  F33  1  0.43478100  0.99424100  0.63232900  1
  F  F34  1  0.76766100  0.00594600  0.96212700  1
  F  F35  1  0.09272900  0.00100200  0.30493200  1
