# generated using pymatgen
data_LiCrPO4
_symmetry_space_group_name_H-M   'P 1'
_cell_length_a   8.08810200
_cell_length_b   5.19426200
_cell_length_c   8.87563782
_cell_angle_alpha   90.00000000
_cell_angle_beta   97.74117880
_cell_angle_gamma   90.00000000
_symmetry_Int_Tables_number   1
_chemical_formula_structural   LiCrPO4
_chemical_formula_sum   'Li4 Cr4 P4 O16'
_cell_volume   369.48262414
_cell_formula_units_Z   4
loop_
 _symmetry_equiv_pos_site_id
 _symmetry_equiv_pos_as_xyz
  1  'x, y, z'
loop_
 _atom_site_type_symbol
 _atom_site_label
 _atom_site_symmetry_multiplicity
 _atom_site_fract_x
 _atom_site_fract_y
 _atom_site_fract_z
 _atom_site_occupancy
  Li  Li0  1  0.98064400  0.12566600  0.12492300  1
  Li  Li1  1  0.56956100  0.43304800  0.69557100  1
  Li  Li2  1  0.43043900  0.93304800  0.30442900  1
  Li  Li3  1  0.01935600  0.62566600  0.87507700  1
  Cr  Cr4  1  0.17589400  0.97679800  0.59070800  1
  Cr  Cr5  1  0.37575500  0.52391700  0.06258600  1
  Cr  Cr6  1  0.62424500  0.02391700  0.93741400  1
  Cr  Cr7  1  0.82410600  0.47679800  0.40929200  1
  P  P8  1  0.20872600  0.43660400  0.38131700  1
  P  P9  1  0.26531300  0.07515700  0.93887700  1
  P  P10  1  0.73468700  0.57515700  0.06112300  1
  P  P11  1  0.79127400  0.93660400  0.61868300  1
  O  O12  1  0.03015100  0.36730200  0.30311400  1
  O  O13  1  0.19419300  0.60273700  0.52243000  1
  O  O14  1  0.22506100  0.78755100  0.94840600  1
  O  O15  1  0.12885600  0.25182000  0.98296300  1
  O  O16  1  0.30203300  0.17699700  0.43039400  1
  O  O17  1  0.30825500  0.58949300  0.27331300  1
  O  O18  1  0.31726800  0.14769000  0.78246500  1
  O  O19  1  0.42769500  0.11760800  0.06460400  1
  O  O20  1  0.57230500  0.61760800  0.93539600  1
  O  O21  1  0.68273200  0.64769000  0.21753500  1
  O  O22  1  0.69174500  0.08949300  0.72668700  1
  O  O23  1  0.69796700  0.67699700  0.56960600  1
  O  O24  1  0.87114400  0.75182000  0.01703700  1
  O  O25  1  0.77493900  0.28755100  0.05159400  1
  O  O26  1  0.80580700  0.10273700  0.47757000  1
  O  O27  1  0.96984900  0.86730200  0.69688600  1
