# generated using pymatgen
data_Mn4O7F
_symmetry_space_group_name_H-M   'P 1'
_cell_length_a   8.88208200
_cell_length_b   9.91716000
_cell_length_c   6.96997061
_cell_angle_alpha   90.00000000
_cell_angle_beta   128.29801362
_cell_angle_gamma   90.00000000
_symmetry_Int_Tables_number   1
_chemical_formula_structural   Mn4O7F
_chemical_formula_sum   'Mn16 O28 F4'
_cell_volume   481.82669048
_cell_formula_units_Z   4
loop_
 _symmetry_equiv_pos_site_id
 _symmetry_equiv_pos_as_xyz
  1  'x, y, z'
loop_
 _atom_site_type_symbol
 _atom_site_label
 _atom_site_symmetry_multiplicity
 _atom_site_fract_x
 _atom_site_fract_y
 _atom_site_fract_z
 _atom_site_occupancy
  Mn  Mn0  1  0.55121600  0.74977500  0.85090600  1
  Mn  Mn1  1  0.19873850  0.99908150  0.14646600  1
  Mn  Mn2  1  0.68779700  0.98987200  0.64112300  1
  Mn  Mn3  1  0.55121600  0.25022500  0.35090600  1
  Mn  Mn4  1  0.19873850  0.00091850  0.64646600  1
  Mn  Mn5  1  0.55121850  0.74666550  0.34943000  1
  Mn  Mn6  1  0.55121850  0.25333450  0.84943000  1
  Mn  Mn7  1  0.68779700  0.01012800  0.14112300  1
  Mn  Mn8  1  0.05121600  0.24977500  0.85090600  1
  Mn  Mn9  1  0.69873850  0.49908150  0.14646600  1
  Mn  Mn10  1  0.18779700  0.48987200  0.64112300  1
  Mn  Mn11  1  0.05121600  0.75022500  0.35090600  1
  Mn  Mn12  1  0.69873850  0.50091850  0.64646600  1
  Mn  Mn13  1  0.05121850  0.24666550  0.34943000  1
  Mn  Mn14  1  0.05121850  0.75333450  0.84943000  1
  Mn  Mn15  1  0.18779700  0.51012800  0.14112300  1
  O  O16  1  0.56979400  0.33557700  0.61638300  1
  O  O17  1  0.55996800  0.83341000  0.60633600  1
  O  O18  1  0.19226650  0.08686950  0.89305000  1
  O  O19  1  0.45176050  0.41239850  0.89110900  1
  O  O20  1  0.56979400  0.66442300  0.11638300  1
  O  O21  1  0.29540350  0.16501450  0.60743900  1
  O  O22  1  0.45380100  0.08213000  0.38994100  1
  O  O23  1  0.45176050  0.58760150  0.39110900  1
  O  O24  1  0.29540350  0.83498550  0.10743900  1
  O  O25  1  0.68598000  0.08730000  0.88756600  1
  O  O26  1  0.45380100  0.91787000  0.88994100  1
  O  O27  1  0.55996800  0.16659000  0.10633600  1
  O  O28  1  0.68598000  0.91270000  0.38756600  1
  O  O29  1  0.19226650  0.91313050  0.39305000  1
  O  O30  1  0.06979400  0.83557700  0.61638300  1
  O  O31  1  0.05996800  0.33341000  0.60633600  1
  O  O32  1  0.69226650  0.58686950  0.89305000  1
  O  O33  1  0.95176050  0.91239850  0.89110900  1
  O  O34  1  0.06979400  0.16442300  0.11638300  1
  O  O35  1  0.79540350  0.66501450  0.60743900  1
  O  O36  1  0.95380100  0.58213000  0.38994100  1
  O  O37  1  0.95176050  0.08760150  0.39110900  1
  O  O38  1  0.79540350  0.33498550  0.10743900  1
  O  O39  1  0.18598000  0.58730000  0.88756600  1
  O  O40  1  0.95380100  0.41787000  0.88994100  1
  O  O41  1  0.05996800  0.66659000  0.10633600  1
  O  O42  1  0.18598000  0.41270000  0.38756600  1
  O  O43  1  0.69226650  0.41313050  0.39305000  1
  F  F44  1  0.80247950  0.85248250  0.12027400  1
  F  F45  1  0.80247950  0.14751750  0.62027400  1
  F  F46  1  0.30247950  0.35248250  0.12027400  1
  F  F47  1  0.30247950  0.64751750  0.62027400  1
