# generated using pymatgen
data_Fe(CoO3)2
_symmetry_space_group_name_H-M   'P 1'
_cell_length_a   4.99442800
_cell_length_b   8.67085800
_cell_length_c   9.58140800
_cell_angle_alpha   90.00000000
_cell_angle_beta   90.00000000
_cell_angle_gamma   90.00000000
_symmetry_Int_Tables_number   1
_chemical_formula_structural   Fe(CoO3)2
_chemical_formula_sum   'Fe4 Co8 O24'
_cell_volume   414.93222470
_cell_formula_units_Z   4
loop_
 _symmetry_equiv_pos_site_id
 _symmetry_equiv_pos_as_xyz
  1  'x, y, z'
loop_
 _atom_site_type_symbol
 _atom_site_label
 _atom_site_symmetry_multiplicity
 _atom_site_fract_x
 _atom_site_fract_y
 _atom_site_fract_z
 _atom_site_occupancy
  Fe  Fe0  1  0.50000000  0.00000000  0.50000000  1
  Fe  Fe1  1  0.00000000  0.00000000  0.00000000  1
  Fe  Fe2  1  0.00000000  0.50000000  0.50000000  1
  Fe  Fe3  1  0.50000000  0.50000000  0.00000000  1
  Co  Co4  1  0.00000000  0.16668000  0.50000000  1
  Co  Co5  1  0.50000000  0.16668000  0.00000000  1
  Co  Co6  1  0.00000000  0.33332000  0.00000000  1
  Co  Co7  1  0.50000000  0.33332000  0.50000000  1
  Co  Co8  1  0.50000000  0.66668000  0.50000000  1
  Co  Co9  1  0.00000000  0.66668000  0.00000000  1
  Co  Co10  1  0.50000000  0.83332000  0.00000000  1
  Co  Co11  1  0.00000000  0.83332000  0.50000000  1
  O  O12  1  0.34462100  0.00000000  0.09900300  1
  O  O13  1  0.15537900  0.00000000  0.59900300  1
  O  O14  1  0.84462100  0.00000000  0.40099700  1
  O  O15  1  0.32768500  0.17227800  0.40087700  1
  O  O16  1  0.65537900  0.00000000  0.90099700  1
  O  O17  1  0.17231500  0.17227800  0.90087700  1
  O  O18  1  0.82768500  0.17227800  0.09912300  1
  O  O19  1  0.67231500  0.17227800  0.59912300  1
  O  O20  1  0.17231500  0.32772200  0.59912300  1
  O  O21  1  0.82768500  0.32772200  0.40087700  1
  O  O22  1  0.67231500  0.32772200  0.90087700  1
  O  O23  1  0.32768500  0.32772200  0.09912300  1
  O  O24  1  0.84462100  0.50000000  0.09900300  1
  O  O25  1  0.65537900  0.50000000  0.59900300  1
  O  O26  1  0.34462100  0.50000000  0.40099700  1
  O  O27  1  0.82768500  0.67227800  0.40087700  1
  O  O28  1  0.15537900  0.50000000  0.90099700  1
  O  O29  1  0.67231500  0.67227800  0.90087700  1
  O  O30  1  0.32768500  0.67227800  0.09912300  1
  O  O31  1  0.17231500  0.67227800  0.59912300  1
  O  O32  1  0.67231500  0.82772200  0.59912300  1
  O  O33  1  0.32768500  0.82772200  0.40087700  1
  O  O34  1  0.17231500  0.82772200  0.90087700  1
  O  O35  1  0.82768500  0.82772200  0.09912300  1
