# generated using pymatgen
data_Mn2Fe3P6WO24
_symmetry_space_group_name_H-M   'P 1'
_cell_length_a   8.69174497
_cell_length_b   8.69174497
_cell_length_c   21.26919172
_cell_angle_alpha   90.00000000
_cell_angle_beta   90.00000000
_cell_angle_gamma   120.00000000
_symmetry_Int_Tables_number   1
_chemical_formula_structural   Mn2Fe3P6WO24
_chemical_formula_sum   'Mn6 Fe9 P18 W3 O72'
_cell_volume   1391.53959128
_cell_formula_units_Z   3
loop_
 _symmetry_equiv_pos_site_id
 _symmetry_equiv_pos_as_xyz
  1  'x, y, z'
loop_
 _atom_site_type_symbol
 _atom_site_label
 _atom_site_symmetry_multiplicity
 _atom_site_fract_x
 _atom_site_fract_y
 _atom_site_fract_z
 _atom_site_occupancy
  Mn  Mn0  1  0.33333333  0.66666667  0.66213567  1
  Mn  Mn1  1  0.33333333  0.66666667  0.16608067  1
  Mn  Mn2  1  0.00000000  0.00000000  0.99546900  1
  Mn  Mn3  1  0.00000000  0.00000000  0.49941400  1
  Mn  Mn4  1  0.66666667  0.33333333  0.32880233  1
  Mn  Mn5  1  0.66666667  0.33333333  0.83274733  1
  Fe  Fe6  1  0.33333333  0.66666667  0.31138767  1
  Fe  Fe7  1  0.33333333  0.66666667  0.52045367  1
  Fe  Fe8  1  0.33333333  0.66666667  0.02199767  1
  Fe  Fe9  1  0.00000000  0.00000000  0.64472100  1
  Fe  Fe10  1  0.00000000  0.00000000  0.85378700  1
  Fe  Fe11  1  0.00000000  0.00000000  0.35533100  1
  Fe  Fe12  1  0.66666667  0.33333333  0.97805433  1
  Fe  Fe13  1  0.66666667  0.33333333  0.18712033  1
  Fe  Fe14  1  0.66666667  0.33333333  0.68866433  1
  P  P15  1  0.00126000  0.29641500  0.25203900  1
  P  P16  1  0.70358500  0.70484500  0.25203900  1
  P  P17  1  0.29515500  0.99874000  0.25203900  1
  P  P18  1  0.37872233  0.33813767  0.08352767  1
  P  P19  1  0.95941533  0.62127767  0.08352767  1
  P  P20  1  0.66186233  0.04058467  0.08352767  1
  P  P21  1  0.66792667  0.62974833  0.58537233  1
  P  P22  1  0.37025167  0.03817833  0.58537233  1
  P  P23  1  0.96182167  0.33207333  0.58537233  1
  P  P24  1  0.04538900  0.67147100  0.41686100  1
  P  P25  1  0.62608200  0.95461100  0.41686100  1
  P  P26  1  0.32852900  0.37391800  0.41686100  1
  P  P27  1  0.33459333  0.96308167  0.91870567  1
  P  P28  1  0.03691833  0.37151167  0.91870567  1
  P  P29  1  0.62848833  0.66540667  0.91870567  1
  P  P30  1  0.71205567  0.00480433  0.75019433  1
  P  P31  1  0.29274867  0.28794433  0.75019433  1
  P  P32  1  0.99519567  0.70725133  0.75019433  1
  W  W33  1  0.33333333  0.66666667  0.81034467  1
  W  W34  1  0.00000000  0.00000000  0.14367800  1
  W  W35  1  0.66666667  0.33333333  0.47701133  1
  O  O36  1  0.13586700  0.47426000  0.97669000  1
  O  O37  1  0.52574000  0.66160700  0.97669000  1
  O  O38  1  0.33839300  0.86413300  0.97669000  1
  O  O39  1  0.83254667  0.31339833  0.25450333  1
  O  O40  1  0.99448333  0.19129267  0.19040167  1
  O  O41  1  0.16982800  0.47987200  0.24367100  1
  O  O42  1  0.68660167  0.51914833  0.25450333  1
  O  O43  1  0.52012800  0.68995600  0.24367100  1
  O  O44  1  0.46934867  0.33026333  0.14336833  1
  O  O45  1  0.31004400  0.83017200  0.24367100  1
  O  O46  1  0.18239300  0.16734100  0.08009100  1
  O  O47  1  0.86091467  0.53065133  0.14336833  1
  O  O48  1  0.80870733  0.80319067  0.19040167  1
  O  O49  1  0.48085167  0.16745333  0.25450333  1
  O  O50  1  0.35024233  0.49979067  0.08814967  1
  O  O51  1  0.19680933  0.00551667  0.19040167  1
  O  O52  1  0.14954833  0.64975767  0.08814967  1
  O  O53  1  0.98494800  0.81760700  0.08009100  1
  O  O54  1  0.50020933  0.85045167  0.08814967  1
  O  O55  1  0.66973667  0.13908533  0.14336833  1
  O  O56  1  0.83265900  0.01505200  0.08009100  1
  O  O57  1  0.33950067  0.47340433  0.35675433  1
  O  O58  1  0.13390367  0.66049933  0.35675433  1
  O  O59  1  0.52659567  0.86609633  0.35675433  1
  O  O60  1  0.80253367  0.80759333  0.31002333  1
  O  O61  1  0.19240667  0.99494033  0.31002333  1
  O  O62  1  0.00505967  0.19746633  0.31002333  1
  O  O63  1  0.49921333  0.64673167  0.58783667  1
  O  O64  1  0.66115000  0.52462600  0.52373500  1
  O  O65  1  0.83649467  0.81320533  0.57700433  1
  O  O66  1  0.35326833  0.85248167  0.58783667  1
  O  O67  1  0.18679467  0.02328933  0.57700433  1
  O  O68  1  0.13601533  0.66359667  0.47670167  1
  O  O69  1  0.97671067  0.16350533  0.57700433  1
  O  O70  1  0.84905967  0.50067433  0.41342433  1
  O  O71  1  0.52758133  0.86398467  0.47670167  1
  O  O72  1  0.47537400  0.13652400  0.52373500  1
  O  O73  1  0.14751833  0.50078667  0.58783667  1
  O  O74  1  0.01690900  0.83312400  0.42148300  1
  O  O75  1  0.86347600  0.33885000  0.52373500  1
  O  O76  1  0.81621500  0.98309100  0.42148300  1
  O  O77  1  0.65161467  0.15094033  0.41342433  1
  O  O78  1  0.16687600  0.18378500  0.42148300  1
  O  O79  1  0.33640333  0.47241867  0.47670167  1
  O  O80  1  0.49932567  0.34838533  0.41342433  1
  O  O81  1  0.00616733  0.80673767  0.69008767  1
  O  O82  1  0.80057033  0.99383267  0.69008767  1
  O  O83  1  0.19326233  0.19942967  0.69008767  1
  O  O84  1  0.46920033  0.14092667  0.64335667  1
  O  O85  1  0.85907333  0.32827367  0.64335667  1
  O  O86  1  0.67172633  0.53079967  0.64335667  1
  O  O87  1  0.16588000  0.98006500  0.92117000  1
  O  O88  1  0.32781667  0.85795933  0.85706833  1
  O  O89  1  0.50316133  0.14653867  0.91033767  1
  O  O90  1  0.01993500  0.18581500  0.92117000  1
  O  O91  1  0.85346133  0.35662267  0.91033767  1
  O  O92  1  0.80268200  0.99693000  0.81003500  1
  O  O93  1  0.64337733  0.49683867  0.91033767  1
  O  O94  1  0.51572633  0.83400767  0.74675767  1
  O  O95  1  0.19424800  0.19731800  0.81003500  1
  O  O96  1  0.14204067  0.46985733  0.85706833  1
  O  O97  1  0.81418500  0.83412000  0.92117000  1
  O  O98  1  0.68357567  0.16645733  0.75481633  1
  O  O99  1  0.53014267  0.67218333  0.85706833  1
  O  O100  1  0.48288167  0.31642433  0.75481633  1
  O  O101  1  0.31828133  0.48427367  0.74675767  1
  O  O102  1  0.83354267  0.51711833  0.75481633  1
  O  O103  1  0.00307000  0.80575200  0.81003500  1
  O  O104  1  0.16599233  0.68171867  0.74675767  1
  O  O105  1  0.67283400  0.14007100  0.02342100  1
  O  O106  1  0.46723700  0.32716600  0.02342100  1
  O  O107  1  0.85992900  0.53276300  0.02342100  1
