# generated using pymatgen
data_Li2Fe3(PO4)3
_symmetry_space_group_name_H-M   'P 1'
_cell_length_a   14.46100400
_cell_length_b   8.96990800
_cell_length_c   8.36895142
_cell_angle_alpha   90.00000000
_cell_angle_beta   120.84036357
_cell_angle_gamma   90.00000000
_symmetry_Int_Tables_number   1
_chemical_formula_structural   Li2Fe3(PO4)3
_chemical_formula_sum   'Li8 Fe12 P12 O48'
_cell_volume   932.06852129
_cell_formula_units_Z   4
loop_
 _symmetry_equiv_pos_site_id
 _symmetry_equiv_pos_as_xyz
  1  'x, y, z'
loop_
 _atom_site_type_symbol
 _atom_site_label
 _atom_site_symmetry_multiplicity
 _atom_site_fract_x
 _atom_site_fract_y
 _atom_site_fract_z
 _atom_site_occupancy
  Li  Li0  1  0.50000000  0.14349500  0.50000000  1
  Li  Li1  1  0.50000000  0.84416300  0.00000000  1
  Li  Li2  1  0.20151300  0.95113800  0.40313600  1
  Li  Li3  1  0.79848700  0.95113800  0.59686400  1
  Li  Li4  1  0.00000000  0.64349500  0.50000000  1
  Li  Li5  1  0.00000000  0.34416300  0.00000000  1
  Li  Li6  1  0.70151300  0.45113800  0.40313600  1
  Li  Li7  1  0.29848700  0.45113800  0.59686400  1
  Fe  Fe8  1  0.25282250  0.75128950  0.75698100  1
  Fe  Fe9  1  0.39459800  0.25176500  0.10442200  1
  Fe  Fe10  1  0.40411550  0.74842650  0.59885500  1
  Fe  Fe11  1  0.74717750  0.75128950  0.24301900  1
  Fe  Fe12  1  0.60540200  0.25176500  0.89557800  1
  Fe  Fe13  1  0.59588450  0.74842650  0.40114500  1
  Fe  Fe14  1  0.75282250  0.25128950  0.75698100  1
  Fe  Fe15  1  0.89459800  0.75176500  0.10442200  1
  Fe  Fe16  1  0.90411550  0.24842650  0.59885500  1
  Fe  Fe17  1  0.24717750  0.25128950  0.24301900  1
  Fe  Fe18  1  0.10540200  0.75176500  0.89557800  1
  Fe  Fe19  1  0.09588450  0.24842650  0.40114500  1
  P  P20  1  0.65520100  0.90342500  0.81109100  1
  P  P21  1  0.34479900  0.90342500  0.18890900  1
  P  P22  1  0.50000000  0.44151600  0.50000000  1
  P  P23  1  0.50000000  0.54306200  0.00000000  1
  P  P24  1  0.64430850  0.10348950  0.30088200  1
  P  P25  1  0.35569150  0.10348950  0.69911800  1
  P  P26  1  0.15520100  0.40342500  0.81109100  1
  P  P27  1  0.84479900  0.40342500  0.18890900  1
  P  P28  1  0.00000000  0.94151600  0.50000000  1
  P  P29  1  0.00000000  0.04306200  0.00000000  1
  P  P30  1  0.14430850  0.60348950  0.30088200  1
  P  P31  1  0.85569150  0.60348950  0.69911800  1
  O  O32  1  0.45379400  0.85653900  0.21431000  1
  O  O33  1  0.06430950  0.03228450  0.43525800  1
  O  O34  1  0.67299400  0.85538900  0.65229600  1
  O  O35  1  0.66706600  0.07800000  0.81402500  1
  O  O36  1  0.54620600  0.85653900  0.78569000  1
  O  O37  1  0.74155500  0.83653100  0.00407100  1
  O  O38  1  0.25844500  0.83653100  0.99592900  1
  O  O39  1  0.33293400  0.07800000  0.18597500  1
  O  O40  1  0.55467100  0.44418700  0.92425200  1
  O  O41  1  0.41394450  0.33069350  0.35091800  1
  O  O42  1  0.41175900  0.65055900  0.85062100  1
  O  O43  1  0.64838150  0.16644750  0.13558200  1
  O  O44  1  0.32700600  0.85538900  0.34770400  1
  O  O45  1  0.58605550  0.33069350  0.64908200  1
  O  O46  1  0.58824100  0.65055900  0.14937900  1
  O  O47  1  0.93569050  0.03228450  0.56474200  1
  O  O48  1  0.66659900  0.93128200  0.30982100  1
  O  O49  1  0.73275000  0.16665300  0.49596600  1
  O  O50  1  0.26725000  0.16665300  0.50403400  1
  O  O51  1  0.46449150  0.14428550  0.71797400  1
  O  O52  1  0.33340100  0.93128200  0.69017900  1
  O  O53  1  0.35161850  0.16644750  0.86441800  1
  O  O54  1  0.44532900  0.44418700  0.07574800  1
  O  O55  1  0.53550850  0.14428550  0.28202600  1
  O  O56  1  0.95379400  0.35653900  0.21431000  1
  O  O57  1  0.56430950  0.53228450  0.43525800  1
  O  O58  1  0.17299400  0.35538900  0.65229600  1
  O  O59  1  0.16706600  0.57800000  0.81402500  1
  O  O60  1  0.04620600  0.35653900  0.78569000  1
  O  O61  1  0.24155500  0.33653100  0.00407100  1
  O  O62  1  0.75844500  0.33653100  0.99592900  1
  O  O63  1  0.83293400  0.57800000  0.18597500  1
  O  O64  1  0.05467100  0.94418700  0.92425200  1
  O  O65  1  0.91394450  0.83069350  0.35091800  1
  O  O66  1  0.91175900  0.15055900  0.85062100  1
  O  O67  1  0.14838150  0.66644750  0.13558200  1
  O  O68  1  0.82700600  0.35538900  0.34770400  1
  O  O69  1  0.08605550  0.83069350  0.64908200  1
  O  O70  1  0.08824100  0.15055900  0.14937900  1
  O  O71  1  0.43569050  0.53228450  0.56474200  1
  O  O72  1  0.16659900  0.43128200  0.30982100  1
  O  O73  1  0.23275000  0.66665300  0.49596600  1
  O  O74  1  0.76725000  0.66665300  0.50403400  1
  O  O75  1  0.96449150  0.64428550  0.71797400  1
  O  O76  1  0.83340100  0.43128200  0.69017900  1
  O  O77  1  0.85161850  0.66644750  0.86441800  1
  O  O78  1  0.94532900  0.94418700  0.07574800  1
  O  O79  1  0.03550850  0.64428550  0.28202600  1
