# generated using pymatgen
data_Mn3(O2F)2
_symmetry_space_group_name_H-M   'P 1'
_cell_length_a   6.75911800
_cell_length_b   6.29332400
_cell_length_c   9.08988467
_cell_angle_alpha   90.00000000
_cell_angle_beta   90.51111179
_cell_angle_gamma   90.00000000
_symmetry_Int_Tables_number   1
_chemical_formula_structural   Mn3(O2F)2
_chemical_formula_sum   'Mn12 O16 F8'
_cell_volume   386.64394421
_cell_formula_units_Z   4
loop_
 _symmetry_equiv_pos_site_id
 _symmetry_equiv_pos_as_xyz
  1  'x, y, z'
loop_
 _atom_site_type_symbol
 _atom_site_label
 _atom_site_symmetry_multiplicity
 _atom_site_fract_x
 _atom_site_fract_y
 _atom_site_fract_z
 _atom_site_occupancy
  Mn  Mn0  1  0.98794400  0.00000000  0.82474700  1
  Mn  Mn1  1  0.00000000  0.00000000  0.50000000  1
  Mn  Mn2  1  0.01205600  0.00000000  0.17525300  1
  Mn  Mn3  1  0.50000000  0.00000000  0.00000000  1
  Mn  Mn4  1  0.52113600  0.00000000  0.66560200  1
  Mn  Mn5  1  0.47886400  0.00000000  0.33439800  1
  Mn  Mn6  1  0.48794400  0.50000000  0.82474700  1
  Mn  Mn7  1  0.50000000  0.50000000  0.50000000  1
  Mn  Mn8  1  0.51205600  0.50000000  0.17525300  1
  Mn  Mn9  1  0.00000000  0.50000000  0.00000000  1
  Mn  Mn10  1  0.02113600  0.50000000  0.66560200  1
  Mn  Mn11  1  0.97886400  0.50000000  0.33439800  1
  O  O12  1  0.19121500  0.00000000  0.33853000  1
  O  O13  1  0.51225700  0.19475100  0.83036200  1
  O  O14  1  0.50000000  0.19243450  0.50000000  1
  O  O15  1  0.48774300  0.19475100  0.16963800  1
  O  O16  1  0.51225700  0.80524900  0.83036200  1
  O  O17  1  0.50000000  0.80756550  0.50000000  1
  O  O18  1  0.48774300  0.80524900  0.16963800  1
  O  O19  1  0.80878500  0.00000000  0.66147000  1
  O  O20  1  0.69121500  0.50000000  0.33853000  1
  O  O21  1  0.01225700  0.69475100  0.83036200  1
  O  O22  1  0.00000000  0.69243450  0.50000000  1
  O  O23  1  0.98774300  0.69475100  0.16963800  1
  O  O24  1  0.01225700  0.30524900  0.83036200  1
  O  O25  1  0.00000000  0.30756550  0.50000000  1
  O  O26  1  0.98774300  0.30524900  0.16963800  1
  O  O27  1  0.30878500  0.50000000  0.66147000  1
  F  F28  1  0.22305500  0.00000000  0.66623800  1
  F  F29  1  0.18751200  0.00000000  0.98685800  1
  F  F30  1  0.77694500  0.00000000  0.33376200  1
  F  F31  1  0.81248800  0.00000000  0.01314200  1
  F  F32  1  0.72305500  0.50000000  0.66623800  1
  F  F33  1  0.68751200  0.50000000  0.98685800  1
  F  F34  1  0.27694500  0.50000000  0.33376200  1
  F  F35  1  0.31248800  0.50000000  0.01314200  1
