# generated using pymatgen
data_V3Sb(PO4)6
_symmetry_space_group_name_H-M   'P 1'
_cell_length_a   8.57602753
_cell_length_b   8.57602753
_cell_length_c   21.74577060
_cell_angle_alpha   90.00000000
_cell_angle_beta   90.00000000
_cell_angle_gamma   120.00000000
_symmetry_Int_Tables_number   1
_chemical_formula_structural   V3Sb(PO4)6
_chemical_formula_sum   'V9 Sb3 P18 O72'
_cell_volume   1385.08927603
_cell_formula_units_Z   3
loop_
 _symmetry_equiv_pos_site_id
 _symmetry_equiv_pos_as_xyz
  1  'x, y, z'
loop_
 _atom_site_type_symbol
 _atom_site_label
 _atom_site_symmetry_multiplicity
 _atom_site_fract_x
 _atom_site_fract_y
 _atom_site_fract_z
 _atom_site_occupancy
  V  V0  1  0.00000000  0.00000000  0.14195300  1
  V  V1  1  0.33333333  0.66666667  0.02517267  1
  V  V2  1  0.33333333  0.66666667  0.30738967  1
  V  V3  1  0.66666667  0.33333333  0.47528633  1
  V  V4  1  0.00000000  0.00000000  0.35850600  1
  V  V5  1  0.00000000  0.00000000  0.64072300  1
  V  V6  1  0.33333333  0.66666667  0.80861967  1
  V  V7  1  0.66666667  0.33333333  0.69183933  1
  V  V8  1  0.66666667  0.33333333  0.97405633  1
  Sb  Sb9  1  0.66666667  0.33333333  0.19083533  1
  Sb  Sb10  1  0.33333333  0.66666667  0.52416867  1
  Sb  Sb11  1  0.00000000  0.00000000  0.85750200  1
  P  P12  1  0.95184533  0.33110467  0.08162267  1
  P  P13  1  0.37925933  0.04815467  0.08162267  1
  P  P14  1  0.66889533  0.62074067  0.08162267  1
  P  P15  1  0.00255933  0.71863467  0.25010367  1
  P  P16  1  0.28136533  0.28392467  0.25010367  1
  P  P17  1  0.71607533  0.99744067  0.25010367  1
  P  P18  1  0.61851200  0.66443800  0.41495600  1
  P  P19  1  0.04592600  0.38148800  0.41495600  1
  P  P20  1  0.33556200  0.95407400  0.41495600  1
  P  P21  1  0.66922600  0.05196800  0.58343700  1
  P  P22  1  0.94803200  0.61725800  0.58343700  1
  P  P23  1  0.38274200  0.33077400  0.58343700  1
  P  P24  1  0.28517867  0.99777133  0.74828933  1
  P  P25  1  0.71259267  0.71482133  0.74828933  1
  P  P26  1  0.00222867  0.28740733  0.74828933  1
  P  P27  1  0.33589267  0.38530133  0.91677033  1
  P  P28  1  0.61469867  0.95059133  0.91677033  1
  P  P29  1  0.04940867  0.66410733  0.91677033  1
  O  O30  1  0.83230167  0.02484233  0.30795433  1
  O  O31  1  0.97515767  0.80745933  0.30795433  1
  O  O32  1  0.97145533  0.16522167  0.08998367  1
  O  O33  1  0.19254067  0.16769833  0.30795433  1
  O  O34  1  0.14227633  0.49960667  0.07408367  1
  O  O35  1  0.87853167  0.37341233  0.14162233  1
  O  O36  1  0.19376633  0.02854467  0.08998367  1
  O  O37  1  0.35733033  0.85772367  0.07408367  1
  O  O38  1  0.50039333  0.64266967  0.07408367  1
  O  O39  1  0.02541200  0.82772200  0.19190100  1
  O  O40  1  0.82992333  0.52834367  0.24693167  1
  O  O41  1  0.17227800  0.19769000  0.19190100  1
  O  O42  1  0.49488067  0.12146833  0.14162233  1
  O  O43  1  0.83477833  0.80623367  0.08998367  1
  O  O44  1  0.62658767  0.50511933  0.14162233  1
  O  O45  1  0.16803967  0.69738733  0.25677333  1
  O  O46  1  0.30261267  0.47065233  0.25677333  1
  O  O47  1  0.47165633  0.30157967  0.24693167  1
  O  O48  1  0.80231000  0.97458800  0.19190100  1
  O  O49  1  0.52934767  0.83196033  0.25677333  1
  O  O50  1  0.46885500  0.16620200  0.02612800  1
  O  O51  1  0.69842033  0.17007667  0.24693167  1
  O  O52  1  0.69734700  0.53114500  0.02612800  1
  O  O53  1  0.83379800  0.30265300  0.02612800  1
  O  O54  1  0.49896833  0.35817567  0.64128767  1
  O  O55  1  0.64182433  0.14079267  0.64128767  1
  O  O56  1  0.63812200  0.49855500  0.42331700  1
  O  O57  1  0.85920733  0.50103167  0.64128767  1
  O  O58  1  0.80894300  0.83294000  0.40741700  1
  O  O59  1  0.54519833  0.70674567  0.47495567  1
  O  O60  1  0.86043300  0.36187800  0.42331700  1
  O  O61  1  0.02399700  0.19105700  0.40741700  1
  O  O62  1  0.16706000  0.97600300  0.40741700  1
  O  O63  1  0.69207867  0.16105533  0.52523433  1
  O  O64  1  0.49659000  0.86167700  0.58026500  1
  O  O65  1  0.83894467  0.53102333  0.52523433  1
  O  O66  1  0.16154733  0.45480167  0.47495567  1
  O  O67  1  0.50144500  0.13956700  0.42331700  1
  O  O68  1  0.29325433  0.83845267  0.47495567  1
  O  O69  1  0.83470633  0.03072067  0.59010667  1
  O  O70  1  0.96927933  0.80398567  0.59010667  1
  O  O71  1  0.13832300  0.63491300  0.58026500  1
  O  O72  1  0.46897667  0.30792133  0.52523433  1
  O  O73  1  0.19601433  0.16529367  0.59010667  1
  O  O74  1  0.13552167  0.49953533  0.35946133  1
  O  O75  1  0.36508700  0.50341000  0.58026500  1
  O  O76  1  0.36401367  0.86447833  0.35946133  1
  O  O77  1  0.50046467  0.63598633  0.35946133  1
  O  O78  1  0.16563500  0.69150900  0.97462100  1
  O  O79  1  0.30849100  0.47412600  0.97462100  1
  O  O80  1  0.30478867  0.83188833  0.75665033  1
  O  O81  1  0.52587400  0.83436500  0.97462100  1
  O  O82  1  0.47560967  0.16627333  0.74075033  1
  O  O83  1  0.21186500  0.04007900  0.80828900  1
  O  O84  1  0.52709967  0.69521133  0.75665033  1
  O  O85  1  0.69066367  0.52439033  0.74075033  1
  O  O86  1  0.83372667  0.30933633  0.74075033  1
  O  O87  1  0.35874533  0.49438867  0.85856767  1
  O  O88  1  0.16325667  0.19501033  0.91359833  1
  O  O89  1  0.50561133  0.86435667  0.85856767  1
  O  O90  1  0.82821400  0.78813500  0.80828900  1
  O  O91  1  0.16811167  0.47290033  0.75665033  1
  O  O92  1  0.95992100  0.17178600  0.80828900  1
  O  O93  1  0.50137300  0.36405400  0.92344000  1
  O  O94  1  0.63594600  0.13731900  0.92344000  1
  O  O95  1  0.80498967  0.96824633  0.91359833  1
  O  O96  1  0.13564333  0.64125467  0.85856767  1
  O  O97  1  0.86268100  0.49862700  0.92344000  1
  O  O98  1  0.80218833  0.83286867  0.69279467  1
  O  O99  1  0.03175367  0.83674333  0.91359833  1
  O  O100  1  0.03068033  0.19781167  0.69279467  1
  O  O101  1  0.16713133  0.96931967  0.69279467  1
