# generated using pymatgen
data_Li6VCoP2(CO7)2
_symmetry_space_group_name_H-M   'P 1'
_cell_length_a   5.00123121
_cell_length_b   6.54133251
_cell_length_c   8.49624777
_cell_angle_alpha   90.00000000
_cell_angle_beta   96.32448033
_cell_angle_gamma   90.00000000
_symmetry_Int_Tables_number   1
_chemical_formula_structural   Li6VCoP2(CO7)2
_chemical_formula_sum   'Li6 V1 Co1 P2 C2 O14'
_cell_volume   276.26071196
_cell_formula_units_Z   1
loop_
 _symmetry_equiv_pos_site_id
 _symmetry_equiv_pos_as_xyz
  1  'x, y, z'
loop_
 _atom_site_type_symbol
 _atom_site_label
 _atom_site_symmetry_multiplicity
 _atom_site_fract_x
 _atom_site_fract_y
 _atom_site_fract_z
 _atom_site_occupancy
  Li  Li0  1  0.79328050  0.50000000  0.89412150  1
  Li  Li1  1  0.20482300  0.00000000  0.10384800  1
  Li  Li2  1  0.26771900  0.27236150  0.72214150  1
  Li  Li3  1  0.26771900  0.72763850  0.72214150  1
  Li  Li4  1  0.73408200  0.76857550  0.27636000  1
  Li  Li5  1  0.73408200  0.23142450  0.27636000  1
  V  V6  1  0.79133650  0.00000000  0.67282850  1
  Co  Co7  1  0.21159350  0.50000000  0.32961800  1
  P  P8  1  0.73424350  0.50000000  0.58749750  1
  P  P9  1  0.26941650  0.00000000  0.40968500  1
  C  C10  1  0.67167050  0.00000000  0.96389850  1
  C  C11  1  0.32173100  0.50000000  0.03968100  1
  O  O12  1  0.92036800  0.00000000  0.93337250  1
  O  O13  1  0.39262050  0.50000000  0.89723100  1
  O  O14  1  0.48676600  0.00000000  0.84228850  1
  O  O15  1  0.17005900  0.00000000  0.57487150  1
  O  O16  1  0.41920350  0.50000000  0.56379400  1
  O  O17  1  0.58370450  0.00000000  0.43057400  1
  O  O18  1  0.83833650  0.50000000  0.42349400  1
  O  O19  1  0.50340800  0.50000000  0.16322900  1
  O  O20  1  0.60696850  0.00000000  0.10707450  1
  O  O21  1  0.07252350  0.50000000  0.06719150  1
  O  O22  1  0.83950900  0.31680850  0.69350750  1
  O  O23  1  0.83950900  0.68319150  0.69350750  1
  O  O24  1  0.16254200  0.18613250  0.30582450  1
  O  O25  1  0.16254200  0.81386750  0.30582450  1
