# generated using pymatgen
data_Ce3Th2O9
_symmetry_space_group_name_H-M   'P 1'
_cell_length_a   3.92023600
_cell_length_b   5.62091800
_cell_length_c   19.69236200
_cell_angle_alpha   90.00000000
_cell_angle_beta   90.00000000
_cell_angle_gamma   90.00000000
_symmetry_Int_Tables_number   1
_chemical_formula_structural   Ce3Th2O9
_chemical_formula_sum   'Ce6 Th4 O18'
_cell_volume   433.92759859
_cell_formula_units_Z   2
loop_
 _symmetry_equiv_pos_site_id
 _symmetry_equiv_pos_as_xyz
  1  'x, y, z'
loop_
 _atom_site_type_symbol
 _atom_site_label
 _atom_site_symmetry_multiplicity
 _atom_site_fract_x
 _atom_site_fract_y
 _atom_site_fract_z
 _atom_site_occupancy
  Ce  Ce0  1  0.00000000  0.98969700  0.10487700  1
  Ce  Ce1  1  0.50000000  0.54213400  0.00000000  1
  Ce  Ce2  1  0.50000000  0.48969700  0.39512300  1
  Ce  Ce3  1  0.50000000  0.48969700  0.60487700  1
  Ce  Ce4  1  0.00000000  0.04213400  0.50000000  1
  Ce  Ce5  1  0.00000000  0.98969700  0.89512300  1
  Th  Th6  1  0.00000000  0.99559300  0.30268800  1
  Th  Th7  1  0.50000000  0.49559300  0.19731200  1
  Th  Th8  1  0.50000000  0.49559300  0.80268800  1
  Th  Th9  1  0.00000000  0.99559300  0.69731200  1
  O  O10  1  0.50000000  0.25819950  0.08717950  1
  O  O11  1  0.00000000  0.24379800  0.19835500  1
  O  O12  1  0.00000000  0.74296450  0.20189450  1
  O  O13  1  0.00000000  0.75819950  0.41282050  1
  O  O14  1  0.50000000  0.74379800  0.30164500  1
  O  O15  1  0.50000000  0.75621850  0.10360350  1
  O  O16  1  0.50000000  0.24296450  0.29810550  1
  O  O17  1  0.00000000  0.25621850  0.39639650  1
  O  O18  1  0.00000000  0.76165300  0.00000000  1
  O  O19  1  0.00000000  0.75819950  0.58717950  1
  O  O20  1  0.50000000  0.74379800  0.69835500  1
  O  O21  1  0.50000000  0.24296450  0.70189450  1
  O  O22  1  0.50000000  0.25819950  0.91282050  1
  O  O23  1  0.00000000  0.24379800  0.80164500  1
  O  O24  1  0.00000000  0.25621850  0.60360350  1
  O  O25  1  0.00000000  0.74296450  0.79810550  1
  O  O26  1  0.50000000  0.75621850  0.89639650  1
  O  O27  1  0.50000000  0.26165300  0.50000000  1
