# generated using pymatgen
data_Mn3FeSn2(PO4)6
_symmetry_space_group_name_H-M   'P 1'
_cell_length_a   8.81142482
_cell_length_b   8.81142482
_cell_length_c   20.75449226
_cell_angle_alpha   90.00000000
_cell_angle_beta   90.00000000
_cell_angle_gamma   120.00000000
_symmetry_Int_Tables_number   1
_chemical_formula_structural   Mn3FeSn2(PO4)6
_chemical_formula_sum   'Mn9 Fe3 Sn6 P18 O72'
_cell_volume   1395.51665749
_cell_formula_units_Z   3
loop_
 _symmetry_equiv_pos_site_id
 _symmetry_equiv_pos_as_xyz
  1  'x, y, z'
loop_
 _atom_site_type_symbol
 _atom_site_label
 _atom_site_symmetry_multiplicity
 _atom_site_fract_x
 _atom_site_fract_y
 _atom_site_fract_z
 _atom_site_occupancy
  Mn  Mn0  1  0.33333333  0.66666667  0.51430367  1
  Mn  Mn1  1  0.33333333  0.66666667  0.31992867  1
  Mn  Mn2  1  0.33333333  0.66666667  0.01552667  1
  Mn  Mn3  1  0.00000000  0.00000000  0.84763700  1
  Mn  Mn4  1  0.00000000  0.00000000  0.65326200  1
  Mn  Mn5  1  0.00000000  0.00000000  0.34886000  1
  Mn  Mn6  1  0.66666667  0.33333333  0.18097033  1
  Mn  Mn7  1  0.66666667  0.33333333  0.98659533  1
  Mn  Mn8  1  0.66666667  0.33333333  0.68219333  1
  Fe  Fe9  1  0.33333333  0.66666667  0.81726767  1
  Fe  Fe10  1  0.00000000  0.00000000  0.15060100  1
  Fe  Fe11  1  0.66666667  0.33333333  0.48393433  1
  Sn  Sn12  1  0.33333333  0.66666667  0.66591267  1
  Sn  Sn13  1  0.33333333  0.66666667  0.16655167  1
  Sn  Sn14  1  0.00000000  0.00000000  0.99924600  1
  Sn  Sn15  1  0.00000000  0.00000000  0.49988500  1
  Sn  Sn16  1  0.66666667  0.33333333  0.33257933  1
  Sn  Sn17  1  0.66666667  0.33333333  0.83321833  1
  P  P18  1  0.99935100  0.29920200  0.24973800  1
  P  P19  1  0.70079800  0.70014900  0.24973800  1
  P  P20  1  0.36100867  0.33252033  0.08354533  1
  P  P21  1  0.97151167  0.63899133  0.08354533  1
  P  P22  1  0.66747967  0.02848833  0.08354533  1
  P  P23  1  0.29985100  0.00064900  0.24973800  1
  P  P24  1  0.66601767  0.63253533  0.58307133  1
  P  P25  1  0.36746467  0.03348233  0.58307133  1
  P  P26  1  0.02767533  0.66585367  0.41687867  1
  P  P27  1  0.63817833  0.97232467  0.41687867  1
  P  P28  1  0.33414633  0.36182167  0.41687867  1
  P  P29  1  0.96651767  0.33398233  0.58307133  1
  P  P30  1  0.33268433  0.96586867  0.91640467  1
  P  P31  1  0.03413133  0.36681567  0.91640467  1
  P  P32  1  0.69434200  0.99918700  0.75021200  1
  P  P33  1  0.30484500  0.30565800  0.75021200  1
  P  P34  1  0.00081300  0.69515500  0.75021200  1
  P  P35  1  0.63318433  0.66731567  0.91640467  1
  O  O36  1  0.32482800  0.44607200  0.35521000  1
  O  O37  1  0.12124400  0.67517200  0.35521000  1
  O  O38  1  0.83702267  0.32943133  0.25986133  1
  O  O39  1  0.55392800  0.87875600  0.35521000  1
  O  O40  1  0.31430100  0.85461800  0.85728300  1
  O  O41  1  0.16125367  0.48782533  0.23600833  1
  O  O42  1  0.67056867  0.50759133  0.25986133  1
  O  O43  1  0.51217467  0.67342833  0.23600833  1
  O  O44  1  0.44995267  0.32256133  0.14439233  1
  O  O45  1  0.32657167  0.83874633  0.23600833  1
  O  O46  1  0.16715467  0.16744633  0.07480133  1
  O  O47  1  0.87260867  0.55004733  0.14439233  1
  O  O48  1  0.14538200  0.45968300  0.85728300  1
  O  O49  1  0.49240867  0.16297733  0.25986133  1
  O  O50  1  0.32820267  0.49267033  0.09440133  1
  O  O51  1  0.54031700  0.68569900  0.85728300  1
  O  O52  1  0.16446767  0.67179733  0.09440133  1
  O  O53  1  0.00029167  0.83284533  0.07480133  1
  O  O54  1  0.50732967  0.83553233  0.09440133  1
  O  O55  1  0.67743867  0.12739133  0.14439233  1
  O  O56  1  0.11584700  0.46237600  0.97826200  1
  O  O57  1  0.83255367  0.99970833  0.07480133  1
  O  O58  1  0.53762400  0.65347100  0.97826200  1
  O  O59  1  0.34652900  0.88415300  0.97826200  1
  O  O60  1  0.99149467  0.77940533  0.68854333  1
  O  O61  1  0.78791067  0.00850533  0.68854333  1
  O  O62  1  0.50368933  0.66276467  0.59319467  1
  O  O63  1  0.22059467  0.21208933  0.68854333  1
  O  O64  1  0.98096767  0.18795133  0.19061633  1
  O  O65  1  0.82792033  0.82115867  0.56934167  1
  O  O66  1  0.33723533  0.84092467  0.59319467  1
  O  O67  1  0.17884133  0.00676167  0.56934167  1
  O  O68  1  0.11661933  0.65589467  0.47772567  1
  O  O69  1  0.99323833  0.17207967  0.56934167  1
  O  O70  1  0.83382133  0.50077967  0.40813467  1
  O  O71  1  0.53927533  0.88338067  0.47772567  1
  O  O72  1  0.81204867  0.79301633  0.19061633  1
  O  O73  1  0.15907533  0.49631067  0.59319467  1
  O  O74  1  0.99486933  0.82600367  0.42773467  1
  O  O75  1  0.20698367  0.01903233  0.19061633  1
  O  O76  1  0.83113433  0.00513067  0.42773467  1
  O  O77  1  0.66695833  0.16617867  0.40813467  1
  O  O78  1  0.17399633  0.16886567  0.42773467  1
  O  O79  1  0.34410533  0.46072467  0.47772567  1
  O  O80  1  0.78251367  0.79570933  0.31159533  1
  O  O81  1  0.49922033  0.33304167  0.40813467  1
  O  O82  1  0.20429067  0.98680433  0.31159533  1
  O  O83  1  0.01319567  0.21748633  0.31159533  1
  O  O84  1  0.65816133  0.11273867  0.02187667  1
  O  O85  1  0.45457733  0.34183867  0.02187667  1
  O  O86  1  0.17035600  0.99609800  0.92652800  1
  O  O87  1  0.88726133  0.54542267  0.02187667  1
  O  O88  1  0.64763433  0.52128467  0.52394967  1
  O  O89  1  0.49458700  0.15449200  0.90267500  1
  O  O90  1  0.00390200  0.17425800  0.92652800  1
  O  O91  1  0.84550800  0.34009500  0.90267500  1
  O  O92  1  0.78328600  0.98922800  0.81105900  1
  O  O93  1  0.65990500  0.50541300  0.90267500  1
  O  O94  1  0.50048800  0.83411300  0.74146800  1
  O  O95  1  0.20594200  0.21671400  0.81105900  1
  O  O96  1  0.47871533  0.12634967  0.52394967  1
  O  O97  1  0.82574200  0.82964400  0.92652800  1
  O  O98  1  0.66153600  0.15933700  0.76106800  1
  O  O99  1  0.87365033  0.35236567  0.52394967  1
  O  O100  1  0.49780100  0.33846400  0.76106800  1
  O  O101  1  0.33362500  0.49951200  0.74146800  1
  O  O102  1  0.84066300  0.50219900  0.76106800  1
  O  O103  1  0.01077200  0.79405800  0.81105900  1
  O  O104  1  0.44918033  0.12904267  0.64492867  1
  O  O105  1  0.16588700  0.66637500  0.74146800  1
  O  O106  1  0.87095733  0.32013767  0.64492867  1
  O  O107  1  0.67986233  0.55081967  0.64492867  1
