# generated using pymatgen
data_LiFePO4
_symmetry_space_group_name_H-M   'P 1'
_cell_length_a   4.73602706
_cell_length_b   8.08830424
_cell_length_c   8.53583039
_cell_angle_alpha   90.00000000
_cell_angle_beta   90.00000000
_cell_angle_gamma   90.00000000
_symmetry_Int_Tables_number   1
_chemical_formula_structural   LiFePO4
_chemical_formula_sum   'Li4 Fe4 P4 O16'
_cell_volume   326.97717017
_cell_formula_units_Z   4
loop_
 _symmetry_equiv_pos_site_id
 _symmetry_equiv_pos_as_xyz
  1  'x, y, z'
loop_
 _atom_site_type_symbol
 _atom_site_label
 _atom_site_symmetry_multiplicity
 _atom_site_fract_x
 _atom_site_fract_y
 _atom_site_fract_z
 _atom_site_occupancy
  Li  Li0  1  0.06158300  0.11054250  0.00409050  1
  Li  Li1  1  0.56158300  0.38945750  0.50409050  1
  Li  Li2  1  0.06158300  0.61054250  0.49590950  1
  Li  Li3  1  0.56158300  0.88945750  0.99590950  1
  Fe  Fe4  1  0.95965700  0.56452750  0.84380950  1
  Fe  Fe5  1  0.45965700  0.93547250  0.34380950  1
  Fe  Fe6  1  0.95965700  0.06452750  0.65619050  1
  Fe  Fe7  1  0.45965700  0.43547250  0.15619050  1
  P  P8  1  0.55032400  0.24148050  0.83192750  1
  P  P9  1  0.05032400  0.25851950  0.33192750  1
  P  P10  1  0.55032400  0.74148050  0.66807250  1
  P  P11  1  0.05032400  0.75851950  0.16807250  1
  O  O12  1  0.69135100  0.09661450  0.91873150  1
  O  O13  1  0.19135100  0.40338550  0.41873150  1
  O  O14  1  0.69135100  0.59661450  0.58126850  1
  O  O15  1  0.19135100  0.90338550  0.08126850  1
  O  O16  1  0.11251200  0.09168250  0.42398850  1
  O  O17  1  0.61251200  0.40831750  0.92398850  1
  O  O18  1  0.11251200  0.59168250  0.07601150  1
  O  O19  1  0.61251200  0.90831750  0.57601150  1
  O  O20  1  0.22766600  0.21094850  0.81280750  1
  O  O21  1  0.72766600  0.28905150  0.31280750  1
  O  O22  1  0.22766600  0.71094850  0.68719250  1
  O  O23  1  0.72766600  0.78905150  0.18719250  1
  O  O24  1  0.68854900  0.25836450  0.66879150  1
  O  O25  1  0.18854900  0.24163550  0.16879150  1
  O  O26  1  0.68854900  0.75836450  0.83120850  1
  O  O27  1  0.18854900  0.74163550  0.33120850  1
