# generated using pymatgen
data_Li3CoNi3O8
_symmetry_space_group_name_H-M   'P 1'
_cell_length_a   5.76211005
_cell_length_b   5.76211005
_cell_length_c   14.38461882
_cell_angle_alpha   90.00000000
_cell_angle_beta   90.00000000
_cell_angle_gamma   120.00000000
_symmetry_Int_Tables_number   1
_chemical_formula_structural   Li3CoNi3O8
_chemical_formula_sum   'Li9 Co3 Ni9 O24'
_cell_volume   413.61100681
_cell_formula_units_Z   3
loop_
 _symmetry_equiv_pos_site_id
 _symmetry_equiv_pos_as_xyz
  1  'x, y, z'
loop_
 _atom_site_type_symbol
 _atom_site_label
 _atom_site_symmetry_multiplicity
 _atom_site_fract_x
 _atom_site_fract_y
 _atom_site_fract_z
 _atom_site_occupancy
  Li  Li0  1  0.83333333  0.16666667  0.16666667  1
  Li  Li1  1  0.33333333  0.16666667  0.16666667  1
  Li  Li2  1  0.83333333  0.66666667  0.16666667  1
  Li  Li3  1  0.50000000  0.50000000  0.50000000  1
  Li  Li4  1  0.00000000  0.50000000  0.50000000  1
  Li  Li5  1  0.50000000  0.00000000  0.50000000  1
  Li  Li6  1  0.16666667  0.83333333  0.83333333  1
  Li  Li7  1  0.66666667  0.83333333  0.83333333  1
  Li  Li8  1  0.16666667  0.33333333  0.83333333  1
  Co  Co9  1  0.00000000  0.00000000  0.00000000  1
  Co  Co10  1  0.66666667  0.33333333  0.33333333  1
  Co  Co11  1  0.33333333  0.66666667  0.66666667  1
  Ni  Ni12  1  0.50000000  0.00000000  0.00000000  1
  Ni  Ni13  1  0.50000000  0.50000000  0.00000000  1
  Ni  Ni14  1  0.00000000  0.50000000  0.00000000  1
  Ni  Ni15  1  0.16666667  0.33333333  0.33333333  1
  Ni  Ni16  1  0.16666667  0.83333333  0.33333333  1
  Ni  Ni17  1  0.66666667  0.83333333  0.33333333  1
  Ni  Ni18  1  0.83333333  0.66666667  0.66666667  1
  Ni  Ni19  1  0.83333333  0.16666667  0.66666667  1
  Ni  Ni20  1  0.33333333  0.16666667  0.66666667  1
  O  O21  1  0.97895833  0.48947917  0.26116467  1
  O  O22  1  0.51052083  0.48947917  0.26116467  1
  O  O23  1  0.51052083  0.02104167  0.26116467  1
  O  O24  1  0.00000000  0.00000000  0.26057500  1
  O  O25  1  0.66666667  0.33333333  0.07275833  1
  O  O26  1  0.15614583  0.31229167  0.07216867  1
  O  O27  1  0.15614583  0.84385417  0.07216867  1
  O  O28  1  0.68770833  0.84385417  0.07216867  1
  O  O29  1  0.64562500  0.82281250  0.59449800  1
  O  O30  1  0.17718750  0.82281250  0.59449800  1
  O  O31  1  0.17718750  0.35437500  0.59449800  1
  O  O32  1  0.66666667  0.33333333  0.59390833  1
  O  O33  1  0.33333333  0.66666667  0.40609167  1
  O  O34  1  0.82281250  0.64562500  0.40550200  1
  O  O35  1  0.82281250  0.17718750  0.40550200  1
  O  O36  1  0.35437500  0.17718750  0.40550200  1
  O  O37  1  0.31229167  0.15614583  0.92783133  1
  O  O38  1  0.84385417  0.15614583  0.92783133  1
  O  O39  1  0.84385417  0.68770833  0.92783133  1
  O  O40  1  0.33333333  0.66666667  0.92724167  1
  O  O41  1  0.00000000  0.00000000  0.73942500  1
  O  O42  1  0.48947917  0.97895833  0.73883533  1
  O  O43  1  0.48947917  0.51052083  0.73883533  1
  O  O44  1  0.02104167  0.51052083  0.73883533  1
