# generated using pymatgen
data_Mn2OF3
_symmetry_space_group_name_H-M   'P 1'
_cell_length_a   6.71750800
_cell_length_b   7.11467800
_cell_length_c   12.64426200
_cell_angle_alpha   90.00000000
_cell_angle_beta   90.00000000
_cell_angle_gamma   90.00000000
_symmetry_Int_Tables_number   1
_chemical_formula_structural   Mn2OF3
_chemical_formula_sum   'Mn16 O8 F24'
_cell_volume   604.30603004
_cell_formula_units_Z   8
loop_
 _symmetry_equiv_pos_site_id
 _symmetry_equiv_pos_as_xyz
  1  'x, y, z'
loop_
 _atom_site_type_symbol
 _atom_site_label
 _atom_site_symmetry_multiplicity
 _atom_site_fract_x
 _atom_site_fract_y
 _atom_site_fract_z
 _atom_site_occupancy
  Mn  Mn0  1  0.96889700  0.00000000  0.62517350  1
  Mn  Mn1  1  0.96889700  0.00000000  0.87482650  1
  Mn  Mn2  1  0.03110300  0.00000000  0.12517350  1
  Mn  Mn3  1  0.03110300  0.00000000  0.37482650  1
  Mn  Mn4  1  0.50069100  0.00000000  0.25000000  1
  Mn  Mn5  1  0.49930900  0.00000000  0.75000000  1
  Mn  Mn6  1  0.50000000  0.00000000  0.00000000  1
  Mn  Mn7  1  0.50000000  0.00000000  0.50000000  1
  Mn  Mn8  1  0.46889700  0.50000000  0.62517350  1
  Mn  Mn9  1  0.46889700  0.50000000  0.87482650  1
  Mn  Mn10  1  0.53110300  0.50000000  0.12517350  1
  Mn  Mn11  1  0.53110300  0.50000000  0.37482650  1
  Mn  Mn12  1  0.00069100  0.50000000  0.25000000  1
  Mn  Mn13  1  0.99930900  0.50000000  0.75000000  1
  Mn  Mn14  1  0.00000000  0.50000000  0.00000000  1
  Mn  Mn15  1  0.00000000  0.50000000  0.50000000  1
  O  O16  1  0.32782000  0.00000000  0.12506750  1
  O  O17  1  0.32782000  0.00000000  0.37493250  1
  O  O18  1  0.67218000  0.00000000  0.62506750  1
  O  O19  1  0.67218000  0.00000000  0.87493250  1
  O  O20  1  0.82782000  0.50000000  0.12506750  1
  O  O21  1  0.82782000  0.50000000  0.37493250  1
  O  O22  1  0.17218000  0.50000000  0.62506750  1
  O  O23  1  0.17218000  0.50000000  0.87493250  1
  F  F24  1  0.48114150  0.30507050  0.75000000  1
  F  F25  1  0.50000000  0.29922500  0.00000000  1
  F  F26  1  0.51885850  0.30507050  0.25000000  1
  F  F27  1  0.50000000  0.29922500  0.50000000  1
  F  F28  1  0.28797000  0.00000000  0.63077750  1
  F  F29  1  0.28797000  0.00000000  0.86922250  1
  F  F30  1  0.71203000  0.00000000  0.13077750  1
  F  F31  1  0.71203000  0.00000000  0.36922250  1
  F  F32  1  0.48114150  0.69492950  0.75000000  1
  F  F33  1  0.50000000  0.70077500  0.00000000  1
  F  F34  1  0.51885850  0.69492950  0.25000000  1
  F  F35  1  0.50000000  0.70077500  0.50000000  1
  F  F36  1  0.98114150  0.80507050  0.75000000  1
  F  F37  1  0.00000000  0.79922500  0.00000000  1
  F  F38  1  0.01885850  0.80507050  0.25000000  1
  F  F39  1  0.00000000  0.79922500  0.50000000  1
  F  F40  1  0.78797000  0.50000000  0.63077750  1
  F  F41  1  0.78797000  0.50000000  0.86922250  1
  F  F42  1  0.21203000  0.50000000  0.13077750  1
  F  F43  1  0.21203000  0.50000000  0.36922250  1
  F  F44  1  0.98114150  0.19492950  0.75000000  1
  F  F45  1  0.00000000  0.20077500  0.00000000  1
  F  F46  1  0.01885850  0.19492950  0.25000000  1
  F  F47  1  0.00000000  0.20077500  0.50000000  1
