# generated using pymatgen
data_Na6NiO4
_symmetry_space_group_name_H-M   'P 1'
_cell_length_a   7.49408630
_cell_length_b   7.49408630
_cell_length_c   5.46243319
_cell_angle_alpha   90.00000000
_cell_angle_beta   90.00000000
_cell_angle_gamma   90.00000000
_symmetry_Int_Tables_number   1
_chemical_formula_structural   Na6NiO4
_chemical_formula_sum   'Na12 Ni2 O8'
_cell_volume   306.77751045
_cell_formula_units_Z   2
loop_
 _symmetry_equiv_pos_site_id
 _symmetry_equiv_pos_as_xyz
  1  'x, y, z'
loop_
 _atom_site_type_symbol
 _atom_site_label
 _atom_site_symmetry_multiplicity
 _atom_site_fract_x
 _atom_site_fract_y
 _atom_site_fract_z
 _atom_site_occupancy
  Na  Na0  1  0.00000000  0.50000000  0.40636075  1
  Na  Na1  1  0.50000000  0.00000000  0.59363925  1
  Na  Na2  1  0.00000000  0.50000000  0.90636075  1
  Na  Na3  1  0.50000000  0.00000000  0.09363925  1
  Na  Na4  1  0.28684525  0.28684525  0.50000000  1
  Na  Na5  1  0.71315475  0.28684525  0.50000000  1
  Na  Na6  1  0.28684525  0.71315475  0.50000000  1
  Na  Na7  1  0.71315475  0.71315475  0.50000000  1
  Na  Na8  1  0.78684525  0.78684525  0.00000000  1
  Na  Na9  1  0.21315475  0.78684525  0.00000000  1
  Na  Na10  1  0.78684525  0.21315475  0.00000000  1
  Na  Na11  1  0.21315475  0.21315475  0.00000000  1
  Ni  Ni12  1  0.50000000  0.50000000  0.00000000  1
  Ni  Ni13  1  0.00000000  0.00000000  0.50000000  1
  O  O14  1  0.00000000  0.24457725  0.67788825  1
  O  O15  1  0.00000000  0.75542275  0.67788825  1
  O  O16  1  0.75542275  0.00000000  0.32211175  1
  O  O17  1  0.24457725  0.00000000  0.32211175  1
  O  O18  1  0.74457725  0.50000000  0.17788825  1
  O  O19  1  0.25542275  0.50000000  0.17788825  1
  O  O20  1  0.50000000  0.74457725  0.82211175  1
  O  O21  1  0.50000000  0.25542275  0.82211175  1
