# generated using pymatgen
data_Mn2F5
_symmetry_space_group_name_H-M   'P 1'
_cell_length_a   12.77326000
_cell_length_b   4.87235800
_cell_length_c   5.38218164
_cell_angle_alpha   90.00000000
_cell_angle_beta   97.67904240
_cell_angle_gamma   90.00000000
_symmetry_Int_Tables_number   1
_chemical_formula_structural   Mn2F5
_chemical_formula_sum   'Mn8 F20'
_cell_volume   331.96097680
_cell_formula_units_Z   4
loop_
 _symmetry_equiv_pos_site_id
 _symmetry_equiv_pos_as_xyz
  1  'x, y, z'
loop_
 _atom_site_type_symbol
 _atom_site_label
 _atom_site_symmetry_multiplicity
 _atom_site_fract_x
 _atom_site_fract_y
 _atom_site_fract_z
 _atom_site_occupancy
  Mn  Mn0  1  0.87720450  0.22083850  0.39926500  1
  Mn  Mn1  1  0.62279550  0.72083850  0.10073500  1
  Mn  Mn2  1  0.87720450  0.77916150  0.89926500  1
  Mn  Mn3  1  0.62279550  0.27916150  0.60073500  1
  Mn  Mn4  1  0.37720450  0.72083850  0.39926500  1
  Mn  Mn5  1  0.12279550  0.22083850  0.10073500  1
  Mn  Mn6  1  0.37720450  0.27916150  0.89926500  1
  Mn  Mn7  1  0.12279550  0.77916150  0.60073500  1
  F  F8  1  0.90197300  0.44515800  0.10562100  1
  F  F9  1  0.70320800  0.43451900  0.33160700  1
  F  F10  1  0.00000000  0.02324200  0.75000000  1
  F  F11  1  0.70320800  0.56548100  0.83160700  1
  F  F12  1  0.90197300  0.55484200  0.60562100  1
  F  F13  1  0.59802700  0.94515800  0.39437900  1
  F  F14  1  0.79679200  0.93451900  0.16839300  1
  F  F15  1  0.79679200  0.06548100  0.66839300  1
  F  F16  1  0.59802700  0.05484200  0.89437900  1
  F  F17  1  0.00000000  0.97675800  0.25000000  1
  F  F18  1  0.40197300  0.94515800  0.10562100  1
  F  F19  1  0.20320800  0.93451900  0.33160700  1
  F  F20  1  0.50000000  0.52324200  0.75000000  1
  F  F21  1  0.20320800  0.06548100  0.83160700  1
  F  F22  1  0.40197300  0.05484200  0.60562100  1
  F  F23  1  0.09802700  0.44515800  0.39437900  1
  F  F24  1  0.29679200  0.43451900  0.16839300  1
  F  F25  1  0.29679200  0.56548100  0.66839300  1
  F  F26  1  0.09802700  0.55484200  0.89437900  1
  F  F27  1  0.50000000  0.47675800  0.25000000  1
