# generated using pymatgen
data_MnV3O8
_symmetry_space_group_name_H-M   'P 1'
_cell_length_a   12.03165000
_cell_length_b   3.80823400
_cell_length_c   6.63740217
_cell_angle_alpha   90.00000000
_cell_angle_beta   106.69723919
_cell_angle_gamma   90.00000000
_symmetry_Int_Tables_number   1
_chemical_formula_structural   MnV3O8
_chemical_formula_sum   'Mn2 V6 O16'
_cell_volume   291.29850706
_cell_formula_units_Z   2
loop_
 _symmetry_equiv_pos_site_id
 _symmetry_equiv_pos_as_xyz
  1  'x, y, z'
loop_
 _atom_site_type_symbol
 _atom_site_label
 _atom_site_symmetry_multiplicity
 _atom_site_fract_x
 _atom_site_fract_y
 _atom_site_fract_z
 _atom_site_occupancy
  Mn  Mn0  1  0.20782000  0.50000000  0.30766000  1
  Mn  Mn1  1  0.70782000  0.00000000  0.30766000  1
  V  V2  1  0.40236900  0.00000000  0.29629200  1
  V  V3  1  0.10164300  0.50000000  0.71957400  1
  V  V4  1  0.30015500  0.00000000  0.72229400  1
  V  V5  1  0.90236900  0.50000000  0.29629200  1
  V  V6  1  0.60164300  0.00000000  0.71957400  1
  V  V7  1  0.80015500  0.50000000  0.72229400  1
  O  O8  1  0.13236900  0.00000000  0.68966000  1
  O  O9  1  0.24306300  0.00000000  0.35660000  1
  O  O10  1  0.35987400  0.00000000  0.98883100  1
  O  O11  1  0.44590700  0.00000000  0.63084800  1
  O  O12  1  0.05366300  0.50000000  0.35531400  1
  O  O13  1  0.12972700  0.50000000  0.97753800  1
  O  O14  1  0.25878600  0.50000000  0.66390600  1
  O  O15  1  0.36462500  0.50000000  0.29148400  1
  O  O16  1  0.63236900  0.50000000  0.68966000  1
  O  O17  1  0.74306300  0.50000000  0.35660000  1
  O  O18  1  0.85987400  0.50000000  0.98883100  1
  O  O19  1  0.94590700  0.50000000  0.63084800  1
  O  O20  1  0.55366300  0.00000000  0.35531400  1
  O  O21  1  0.62972700  0.00000000  0.97753800  1
  O  O22  1  0.75878600  0.00000000  0.66390600  1
  O  O23  1  0.86462500  0.00000000  0.29148400  1
