# generated using pymatgen
data_Li7Mn(O2F)2
_symmetry_space_group_name_H-M   'P 1'
_cell_length_a   5.50067134
_cell_length_b   5.51002302
_cell_length_c   5.73429854
_cell_angle_alpha   90.81330656
_cell_angle_beta   116.77307574
_cell_angle_gamma   115.17132252
_symmetry_Int_Tables_number   1
_chemical_formula_structural   Li7Mn(O2F)2
_chemical_formula_sum   'Li7 Mn1 O4 F2'
_cell_volume   135.80259537
_cell_formula_units_Z   1
loop_
 _symmetry_equiv_pos_site_id
 _symmetry_equiv_pos_as_xyz
  1  'x, y, z'
loop_
 _atom_site_type_symbol
 _atom_site_label
 _atom_site_symmetry_multiplicity
 _atom_site_fract_x
 _atom_site_fract_y
 _atom_site_fract_z
 _atom_site_occupancy
  Li  Li0  1  0.60903325  0.11602500  0.33759175  1
  Li  Li1  1  0.88469375  0.76125575  0.35422175  1
  Li  Li2  1  0.73934925  0.50878775  0.68084525  1
  Li  Li3  1  0.16951275  0.47287075  0.30896275  1
  Li  Li4  1  0.11954175  0.20324800  0.63654625  1
  Li  Li5  1  0.44207750  0.94109900  0.67287850  1
  Li  Li6  1  0.27177700  0.65121850  0.96287400  1
  Mn  Mn7  1  0.01757550  0.01069025  0.00723200  1
  O  O8  1  0.88103775  0.08733275  0.24055975  1
  O  O9  1  0.86923350  0.23250500  0.77036550  1
  O  O10  1  0.20116850  0.81552775  0.25086300  1
  O  O11  1  0.10452025  0.87463925  0.75214725  1
  F  F12  1  0.50905225  0.43220125  0.27933225  1
  F  F13  1  0.44497675  0.57946800  0.72375125  1
