# generated using pymatgen
data_Li2CoSn3(PO4)6
_symmetry_space_group_name_H-M   'P 1'
_cell_length_a   8.66698792
_cell_length_b   8.66698792
_cell_length_c   21.68382290
_cell_angle_alpha   90.00000000
_cell_angle_beta   90.00000000
_cell_angle_gamma   120.00000000
_symmetry_Int_Tables_number   1
_chemical_formula_structural   Li2CoSn3(PO4)6
_chemical_formula_sum   'Li6 Co3 Sn9 P18 O72'
_cell_volume   1410.59670837
_cell_formula_units_Z   3
loop_
 _symmetry_equiv_pos_site_id
 _symmetry_equiv_pos_as_xyz
  1  'x, y, z'
loop_
 _atom_site_type_symbol
 _atom_site_label
 _atom_site_symmetry_multiplicity
 _atom_site_fract_x
 _atom_site_fract_y
 _atom_site_fract_z
 _atom_site_occupancy
  Li  Li0  1  0.00000000  0.00000000  0.01684000  1
  Li  Li1  1  0.33333333  0.66666667  0.16809967  1
  Li  Li2  1  0.66666667  0.33333333  0.35017333  1
  Li  Li3  1  0.00000000  0.00000000  0.50143300  1
  Li  Li4  1  0.33333333  0.66666667  0.68350667  1
  Li  Li5  1  0.66666667  0.33333333  0.83476633  1
  Co  Co6  1  0.00000000  0.00000000  0.14318200  1
  Co  Co7  1  0.66666667  0.33333333  0.47651533  1
  Co  Co8  1  0.33333333  0.66666667  0.80984867  1
  Sn  Sn9  1  0.66666667  0.33333333  0.19110833  1
  Sn  Sn10  1  0.33333333  0.66666667  0.30954167  1
  Sn  Sn11  1  0.33333333  0.66666667  0.02257267  1
  Sn  Sn12  1  0.33333333  0.66666667  0.52444167  1
  Sn  Sn13  1  0.00000000  0.00000000  0.64287500  1
  Sn  Sn14  1  0.00000000  0.00000000  0.35590600  1
  Sn  Sn15  1  0.00000000  0.00000000  0.85777500  1
  Sn  Sn16  1  0.66666667  0.33333333  0.97620833  1
  Sn  Sn17  1  0.66666667  0.33333333  0.68923933  1
  P  P18  1  0.00303733  0.28818367  0.24700667  1
  P  P19  1  0.71181633  0.71485367  0.24700667  1
  P  P20  1  0.28514633  0.99696267  0.24700667  1
  P  P21  1  0.36482400  0.32589600  0.08433200  1
  P  P22  1  0.96107200  0.63517600  0.08433200  1
  P  P23  1  0.67410400  0.03892800  0.08433200  1
  P  P24  1  0.66970400  0.62151700  0.58034000  1
  P  P25  1  0.37848300  0.04818700  0.58034000  1
  P  P26  1  0.95181300  0.33029600  0.58034000  1
  P  P27  1  0.03149067  0.65922933  0.41766533  1
  P  P28  1  0.62773867  0.96850933  0.41766533  1
  P  P29  1  0.34077067  0.37226133  0.41766533  1
  P  P30  1  0.33637067  0.95485033  0.91367333  1
  P  P31  1  0.04514967  0.38152033  0.91367333  1
  P  P32  1  0.61847967  0.66362933  0.91367333  1
  P  P33  1  0.69815733  0.99256267  0.75099867  1
  P  P34  1  0.29440533  0.30184267  0.75099867  1
  P  P35  1  0.00743733  0.70559467  0.75099867  1
  O  O36  1  0.68313367  0.13866033  0.02441533  1
  O  O37  1  0.45552667  0.31686633  0.02441533  1
  O  O38  1  0.83782133  0.31286367  0.25090467  1
  O  O39  1  0.86133967  0.54447333  0.02441533  1
  O  O40  1  0.17143433  0.47827367  0.24417067  1
  O  O41  1  0.00946267  0.19248733  0.18905433  1
  O  O42  1  0.68713633  0.52495767  0.25090467  1
  O  O43  1  0.52172633  0.69316067  0.24417067  1
  O  O44  1  0.30683933  0.82856567  0.24417067  1
  O  O45  1  0.47252733  0.34202267  0.14192867  1
  O  O46  1  0.17811300  0.15671300  0.08407000  1
  O  O47  1  0.86949533  0.52747267  0.14192867  1
  O  O48  1  0.80751267  0.81697533  0.18905433  1
  O  O49  1  0.47504233  0.16217867  0.25090467  1
  O  O50  1  0.18302467  0.99053733  0.18905433  1
  O  O51  1  0.34425533  0.49369967  0.08576067  1
  O  O52  1  0.14944433  0.65574467  0.08576067  1
  O  O53  1  0.97860000  0.82188700  0.08407000  1
  O  O54  1  0.65797733  0.13050467  0.14192867  1
  O  O55  1  0.50630033  0.85055567  0.08576067  1
  O  O56  1  0.79922167  0.79834633  0.30901933  1
  O  O57  1  0.84328700  0.02140000  0.08407000  1
  O  O58  1  0.20165367  0.00087533  0.30901933  1
  O  O59  1  0.99912467  0.20077833  0.30901933  1
  O  O60  1  0.34980033  0.47199367  0.35774867  1
  O  O61  1  0.12219333  0.65019967  0.35774867  1
  O  O62  1  0.50448800  0.64619700  0.58423800  1
  O  O63  1  0.52800633  0.87780667  0.35774867  1
  O  O64  1  0.83810100  0.81160700  0.57750400  1
  O  O65  1  0.67612933  0.52582067  0.52238767  1
  O  O66  1  0.35380300  0.85829100  0.58423800  1
  O  O67  1  0.18839300  0.02649400  0.57750400  1
  O  O68  1  0.97350600  0.16189900  0.57750400  1
  O  O69  1  0.13919400  0.67535600  0.47526200  1
  O  O70  1  0.84477967  0.49004633  0.41740333  1
  O  O71  1  0.53616200  0.86080600  0.47526200  1
  O  O72  1  0.47417933  0.15030867  0.52238767  1
  O  O73  1  0.14170900  0.49551200  0.58423800  1
  O  O74  1  0.84969133  0.32387067  0.52238767  1
  O  O75  1  0.01092200  0.82703300  0.41909400  1
  O  O76  1  0.81611100  0.98907800  0.41909400  1
  O  O77  1  0.64526667  0.15522033  0.41740333  1
  O  O78  1  0.32464400  0.46383800  0.47526200  1
  O  O79  1  0.17296700  0.18388900  0.41909400  1
  O  O80  1  0.46588833  0.13167967  0.64235267  1
  O  O81  1  0.50995367  0.35473333  0.41740333  1
  O  O82  1  0.86832033  0.33420867  0.64235267  1
  O  O83  1  0.66579133  0.53411167  0.64235267  1
  O  O84  1  0.01646700  0.80532700  0.69108200  1
  O  O85  1  0.78886000  0.98353300  0.69108200  1
  O  O86  1  0.17115467  0.97953033  0.91757133  1
  O  O87  1  0.19467300  0.21114000  0.69108200  1
  O  O88  1  0.50476767  0.14494033  0.91083733  1
  O  O89  1  0.34279600  0.85915400  0.85572100  1
  O  O90  1  0.02046967  0.19162433  0.91757133  1
  O  O91  1  0.85505967  0.35982733  0.91083733  1
  O  O92  1  0.64017267  0.49523233  0.91083733  1
  O  O93  1  0.80586067  0.00868933  0.80859533  1
  O  O94  1  0.51144633  0.82337967  0.75073667  1
  O  O95  1  0.20282867  0.19413933  0.80859533  1
  O  O96  1  0.14084600  0.48364200  0.85572100  1
  O  O97  1  0.80837567  0.82884533  0.91757133  1
  O  O98  1  0.51635800  0.65720400  0.85572100  1
  O  O99  1  0.67758867  0.16036633  0.75242733  1
  O  O100  1  0.48277767  0.32241133  0.75242733  1
  O  O101  1  0.31193333  0.48855367  0.75073667  1
  O  O102  1  0.99131067  0.79717133  0.80859533  1
  O  O103  1  0.83963367  0.51722233  0.75242733  1
  O  O104  1  0.13255500  0.46501300  0.97568600  1
  O  O105  1  0.17662033  0.68806667  0.75073667  1
  O  O106  1  0.53498700  0.66754200  0.97568600  1
  O  O107  1  0.33245800  0.86744500  0.97568600  1
