# generated using pymatgen
data_LiNiPO4
_symmetry_space_group_name_H-M   'P 1'
_cell_length_a   4.28775106
_cell_length_b   4.76561006
_cell_length_c   14.29166300
_cell_angle_alpha   90.00000000
_cell_angle_beta   90.00000000
_cell_angle_gamma   90.00000000
_symmetry_Int_Tables_number   1
_chemical_formula_structural   LiNiPO4
_chemical_formula_sum   'Li4 Ni4 P4 O16'
_cell_volume   292.03226261
_cell_formula_units_Z   4
loop_
 _symmetry_equiv_pos_site_id
 _symmetry_equiv_pos_as_xyz
  1  'x, y, z'
loop_
 _atom_site_type_symbol
 _atom_site_label
 _atom_site_symmetry_multiplicity
 _atom_site_fract_x
 _atom_site_fract_y
 _atom_site_fract_z
 _atom_site_occupancy
  Li  Li0  1  0.50000000  0.75000000  0.74824000  1
  Li  Li1  1  0.50000000  0.25000000  0.25176000  1
  Li  Li2  1  0.00000000  0.25000000  0.75176000  1
  Li  Li3  1  0.00000000  0.75000000  0.24824000  1
  Ni  Ni4  1  0.00000000  0.75000000  0.93692600  1
  Ni  Ni5  1  0.00000000  0.25000000  0.06307400  1
  Ni  Ni6  1  0.50000000  0.25000000  0.56307400  1
  Ni  Ni7  1  0.50000000  0.75000000  0.43692600  1
  P  P8  1  0.50000000  0.25000000  0.88987000  1
  P  P9  1  0.50000000  0.75000000  0.11013000  1
  P  P10  1  0.00000000  0.25000000  0.38987000  1
  P  P11  1  0.00000000  0.75000000  0.61013000  1
  O  O12  1  0.68555500  0.46669700  0.82977400  1
  O  O13  1  0.68555500  0.96669700  0.17022600  1
  O  O14  1  0.81444500  0.96669700  0.67022600  1
  O  O15  1  0.81444500  0.46669700  0.32977400  1
  O  O16  1  0.18555500  0.53330300  0.67022600  1
  O  O17  1  0.18555500  0.03330300  0.32977400  1
  O  O18  1  0.31444500  0.03330300  0.82977400  1
  O  O19  1  0.31444500  0.53330300  0.17022600  1
  O  O20  1  0.75919700  0.58895900  0.54927900  1
  O  O21  1  0.75919700  0.08895900  0.45072100  1
  O  O22  1  0.74080300  0.08895900  0.95072100  1
  O  O23  1  0.74080300  0.58895900  0.04927900  1
  O  O24  1  0.25919700  0.91104100  0.04927900  1
  O  O25  1  0.25919700  0.41104100  0.95072100  1
  O  O26  1  0.24080300  0.91104100  0.54927900  1
  O  O27  1  0.24080300  0.41104100  0.45072100  1
