# generated using pymatgen
data_Li2Mn3(BO3)3
_symmetry_space_group_name_H-M   'P 1'
_cell_length_a   8.25148917
_cell_length_b   8.25148917
_cell_length_c   9.46723100
_cell_angle_alpha   90.00000000
_cell_angle_beta   90.00000000
_cell_angle_gamma   120.00000000
_symmetry_Int_Tables_number   1
_chemical_formula_structural   Li2Mn3(BO3)3
_chemical_formula_sum   'Li6 Mn9 B9 O27'
_cell_volume   558.23655713
_cell_formula_units_Z   3
loop_
 _symmetry_equiv_pos_site_id
 _symmetry_equiv_pos_as_xyz
  1  'x, y, z'
loop_
 _atom_site_type_symbol
 _atom_site_label
 _atom_site_symmetry_multiplicity
 _atom_site_fract_x
 _atom_site_fract_y
 _atom_site_fract_z
 _atom_site_occupancy
  Li  Li0  1  0.63073200  0.95425700  0.16739300  1
  Li  Li1  1  0.62715200  0.93455600  0.49940300  1
  Li  Li2  1  0.30740400  0.37284800  0.83273633  1
  Li  Li3  1  0.32352500  0.36926800  0.50072633  1
  Li  Li4  1  0.06544400  0.69259600  0.16606967  1
  Li  Li5  1  0.04574300  0.67647500  0.83405967  1
  Mn  Mn6  1  0.33904700  0.03754200  0.33551400  1
  Mn  Mn7  1  0.34944600  0.06283600  0.00172800  1
  Mn  Mn8  1  0.33687300  0.01292000  0.67015300  1
  Mn  Mn9  1  0.67604700  0.66312700  0.00348633  1
  Mn  Mn10  1  0.69849500  0.66095300  0.66884733  1
  Mn  Mn11  1  0.71339000  0.65055400  0.33506133  1
  Mn  Mn12  1  0.93716400  0.28661000  0.66839467  1
  Mn  Mn13  1  0.96245800  0.30150500  0.00218067  1
  Mn  Mn14  1  0.98708000  0.32395300  0.33681967  1
  B  B15  1  0.35675600  0.67247000  0.32750300  1
  B  B16  1  0.99476600  0.00034700  0.49895100  1
  B  B17  1  0.99965300  0.99441900  0.16561767  1
  B  B18  1  0.31571400  0.64324400  0.66083633  1
  B  B19  1  0.00558100  0.00523400  0.83228433  1
  B  B20  1  0.32753000  0.68428600  0.99416967  1
  B  B21  1  0.65475500  0.33053100  0.83782700  1
  B  B22  1  0.66946900  0.32422400  0.50449367  1
  B  B23  1  0.67577600  0.34524500  0.17116033  1
  O  O24  1  0.51766200  0.78460400  0.01436000  1
  O  O25  1  0.50618500  0.74259300  0.64069700  1
  O  O26  1  0.55373800  0.77854200  0.32884500  1
  O  O27  1  0.91070200  0.11055900  0.50944000  1
  O  O28  1  0.92114400  0.10738800  0.16910200  1
  O  O29  1  0.93155300  0.12393000  0.82083100  1
  O  O30  1  0.87607000  0.80762300  0.48749767  1
  O  O31  1  0.88944100  0.80014300  0.17610667  1
  O  O32  1  0.89261200  0.81375600  0.83576867  1
  O  O33  1  0.23640800  0.49381500  0.97403033  1
  O  O34  1  0.26694200  0.48233800  0.34769333  1
  O  O35  1  0.22480400  0.44626200  0.66217833  1
  O  O36  1  0.18624400  0.07885600  0.50243533  1
  O  O37  1  0.19237700  0.06844700  0.15416433  1
  O  O38  1  0.19985700  0.08929800  0.84277333  1
  O  O39  1  0.22145800  0.77519600  0.99551167  1
  O  O40  1  0.21539600  0.73305800  0.68102667  1
  O  O41  1  0.25740700  0.76359200  0.30736367  1
  O  O42  1  0.58353100  0.45076400  0.83995200  1
  O  O43  1  0.59976500  0.44699400  0.48844900  1
  O  O44  1  0.60068000  0.46210000  0.18571100  1
  O  O45  1  0.53790000  0.13858000  0.85237767  1
  O  O46  1  0.54923600  0.13276700  0.50661867  1
  O  O47  1  0.55300600  0.15277100  0.15511567  1
  O  O48  1  0.84722900  0.40023500  0.82178233  1
  O  O49  1  0.86142000  0.39932000  0.51904433  1
  O  O50  1  0.86723300  0.41646900  0.17328533  1
