# generated using pymatgen
data_Co6O7F5
_symmetry_space_group_name_H-M   'P 1'
_cell_length_a   4.53667300
_cell_length_b   8.94499100
_cell_length_c   4.55432801
_cell_angle_alpha   90.00000000
_cell_angle_beta   94.19884234
_cell_angle_gamma   90.00000000
_symmetry_Int_Tables_number   1
_chemical_formula_structural   Co6O7F5
_chemical_formula_sum   'Co6 O7 F5'
_cell_volume   184.32084753
_cell_formula_units_Z   1
loop_
 _symmetry_equiv_pos_site_id
 _symmetry_equiv_pos_as_xyz
  1  'x, y, z'
loop_
 _atom_site_type_symbol
 _atom_site_label
 _atom_site_symmetry_multiplicity
 _atom_site_fract_x
 _atom_site_fract_y
 _atom_site_fract_z
 _atom_site_occupancy
  Co  Co0  1  0.01584800  0.82631700  0.99194900  1
  Co  Co1  1  0.01584800  0.17368300  0.99194900  1
  Co  Co2  1  0.98985900  0.50000000  0.96225400  1
  Co  Co3  1  0.51343300  0.00000000  0.49583700  1
  Co  Co4  1  0.48595100  0.67141200  0.52570900  1
  Co  Co5  1  0.48595100  0.32858800  0.52570900  1
  O  O6  1  0.18542200  0.66028400  0.80765800  1
  O  O7  1  0.18542200  0.33971600  0.80765800  1
  O  O8  1  0.69924300  0.16529500  0.69749700  1
  O  O9  1  0.69924300  0.83470500  0.69749700  1
  O  O10  1  0.68271900  0.50000000  0.69579100  1
  O  O11  1  0.31346800  0.83450700  0.31058400  1
  O  O12  1  0.31346800  0.16549300  0.31058400  1
  F  F13  1  0.21008500  0.00000000  0.79986100  1
  F  F14  1  0.28638900  0.50000000  0.30096400  1
  F  F15  1  0.82415700  0.00000000  0.18567300  1
  F  F16  1  0.79674700  0.65717600  0.19641300  1
  F  F17  1  0.79674700  0.34282400  0.19641300  1
