# generated using pymatgen
data_LiFe2F5
_symmetry_space_group_name_H-M   'P 1'
_cell_length_a   11.74953800
_cell_length_b   5.32735000
_cell_length_c   5.46987241
_cell_angle_alpha   90.00000000
_cell_angle_beta   91.15502887
_cell_angle_gamma   90.00000000
_symmetry_Int_Tables_number   1
_chemical_formula_structural   LiFe2F5
_chemical_formula_sum   'Li4 Fe8 F20'
_cell_volume   342.31108607
_cell_formula_units_Z   4
loop_
 _symmetry_equiv_pos_site_id
 _symmetry_equiv_pos_as_xyz
  1  'x, y, z'
loop_
 _atom_site_type_symbol
 _atom_site_label
 _atom_site_symmetry_multiplicity
 _atom_site_fract_x
 _atom_site_fract_y
 _atom_site_fract_z
 _atom_site_occupancy
  Li  Li0  1  0.75000000  0.25000000  0.50000000  1
  Li  Li1  1  0.75000000  0.75000000  0.00000000  1
  Li  Li2  1  0.25000000  0.75000000  0.50000000  1
  Li  Li3  1  0.25000000  0.25000000  0.00000000  1
  Fe  Fe4  1  0.59490550  0.74617250  0.53830000  1
  Fe  Fe5  1  0.59490550  0.25382750  0.03830000  1
  Fe  Fe6  1  0.90509450  0.24617250  0.96170000  1
  Fe  Fe7  1  0.90509450  0.75382750  0.46170000  1
  Fe  Fe8  1  0.09490550  0.24617250  0.53830000  1
  Fe  Fe9  1  0.09490550  0.75382750  0.03830000  1
  Fe  Fe10  1  0.40509450  0.74617250  0.96170000  1
  Fe  Fe11  1  0.40509450  0.25382750  0.46170000  1
  F  F12  1  0.58835100  0.88038800  0.90607000  1
  F  F13  1  0.58835100  0.11961200  0.40607000  1
  F  F14  1  0.71926300  0.41223700  0.83783000  1
  F  F15  1  0.71926300  0.58776300  0.33783000  1
  F  F16  1  0.78073700  0.91223700  0.66217000  1
  F  F17  1  0.78073700  0.08776300  0.16217000  1
  F  F18  1  0.91164900  0.38038800  0.59393000  1
  F  F19  1  0.91164900  0.61961200  0.09393000  1
  F  F20  1  0.00000000  0.95457100  0.75000000  1
  F  F21  1  0.00000000  0.04542900  0.25000000  1
  F  F22  1  0.08835100  0.38038800  0.90607000  1
  F  F23  1  0.08835100  0.61961200  0.40607000  1
  F  F24  1  0.21926300  0.91223700  0.83783000  1
  F  F25  1  0.21926300  0.08776300  0.33783000  1
  F  F26  1  0.28073700  0.41223700  0.66217000  1
  F  F27  1  0.28073700  0.58776300  0.16217000  1
  F  F28  1  0.41164900  0.88038800  0.59393000  1
  F  F29  1  0.41164900  0.11961200  0.09393000  1
  F  F30  1  0.50000000  0.45457100  0.75000000  1
  F  F31  1  0.50000000  0.54542900  0.25000000  1
