# generated using pymatgen
data_Na3VO3
_symmetry_space_group_name_H-M   'P 1'
_cell_length_a   5.92324257
_cell_length_b   12.78258100
_cell_length_c   6.33314572
_cell_angle_alpha   90.00000000
_cell_angle_beta   122.24643919
_cell_angle_gamma   90.00000000
_symmetry_Int_Tables_number   1
_chemical_formula_structural   Na3VO3
_chemical_formula_sum   'Na12 V4 O12'
_cell_volume   405.55074082
_cell_formula_units_Z   4
loop_
 _symmetry_equiv_pos_site_id
 _symmetry_equiv_pos_as_xyz
  1  'x, y, z'
loop_
 _atom_site_type_symbol
 _atom_site_label
 _atom_site_symmetry_multiplicity
 _atom_site_fract_x
 _atom_site_fract_y
 _atom_site_fract_z
 _atom_site_occupancy
  Na  Na0  1  0.44380050  0.22183900  0.30061800  1
  Na  Na1  1  0.55619950  0.72183900  0.19938200  1
  Na  Na2  1  0.44380050  0.27816100  0.80061800  1
  Na  Na3  1  0.55619950  0.77816100  0.69938200  1
  Na  Na4  1  0.46739950  0.48391400  0.21926800  1
  Na  Na5  1  0.53260050  0.98391400  0.28073200  1
  Na  Na6  1  0.46739950  0.01608600  0.71926800  1
  Na  Na7  1  0.53260050  0.51608600  0.78073200  1
  Na  Na8  1  0.92531950  0.59334000  0.64159700  1
  Na  Na9  1  0.07468050  0.09334000  0.85840300  1
  Na  Na10  1  0.92531950  0.90666000  0.14159700  1
  Na  Na11  1  0.07468050  0.40666000  0.35840300  1
  V  V12  1  0.08064050  0.83533700  0.75247600  1
  V  V13  1  0.08064050  0.66466300  0.25247600  1
  V  V14  1  0.91935950  0.33533700  0.74752400  1
  V  V15  1  0.91935950  0.16466300  0.24752400  1
  O  O16  1  0.55192350  0.37267900  0.54701800  1
  O  O17  1  0.55192350  0.12732100  0.04701800  1
  O  O18  1  0.44807650  0.87267900  0.95298200  1
  O  O19  1  0.44807650  0.62732100  0.45298200  1
  O  O20  1  0.81884550  0.93750200  0.69923800  1
  O  O21  1  0.81884550  0.56249800  0.19923800  1
  O  O22  1  0.18115450  0.43750200  0.80076200  1
  O  O23  1  0.18115450  0.06249800  0.30076200  1
  O  O24  1  0.02711450  0.72603000  0.94623400  1
  O  O25  1  0.97288550  0.22603000  0.55376600  1
  O  O26  1  0.02711450  0.77397000  0.44623400  1
  O  O27  1  0.97288550  0.27397000  0.05376600  1
