# generated using pymatgen
data_Eu2Mn2O7
_symmetry_space_group_name_H-M   'P 1'
_cell_length_a   10.16117400
_cell_length_b   10.16117400
_cell_length_c   10.16117400
_cell_angle_alpha   90.00000000
_cell_angle_beta   90.00000000
_cell_angle_gamma   90.00000000
_symmetry_Int_Tables_number   1
_chemical_formula_structural   Eu2Mn2O7
_chemical_formula_sum   'Eu16 Mn16 O56'
_cell_volume   1049.13569857
_cell_formula_units_Z   8
loop_
 _symmetry_equiv_pos_site_id
 _symmetry_equiv_pos_as_xyz
  1  'x, y, z'
loop_
 _atom_site_type_symbol
 _atom_site_label
 _atom_site_symmetry_multiplicity
 _atom_site_fract_x
 _atom_site_fract_y
 _atom_site_fract_z
 _atom_site_occupancy
  Eu  Eu0  1  0.37500000  0.62500000  0.37500000  1
  Eu  Eu1  1  0.37500000  0.87500000  0.12500000  1
  Eu  Eu2  1  0.12500000  0.87500000  0.37500000  1
  Eu  Eu3  1  0.12500000  0.62500000  0.12500000  1
  Eu  Eu4  1  0.37500000  0.12500000  0.87500000  1
  Eu  Eu5  1  0.37500000  0.37500000  0.62500000  1
  Eu  Eu6  1  0.12500000  0.37500000  0.87500000  1
  Eu  Eu7  1  0.12500000  0.12500000  0.62500000  1
  Eu  Eu8  1  0.87500000  0.62500000  0.87500000  1
  Eu  Eu9  1  0.87500000  0.87500000  0.62500000  1
  Eu  Eu10  1  0.62500000  0.87500000  0.87500000  1
  Eu  Eu11  1  0.62500000  0.62500000  0.62500000  1
  Eu  Eu12  1  0.87500000  0.12500000  0.37500000  1
  Eu  Eu13  1  0.87500000  0.37500000  0.12500000  1
  Eu  Eu14  1  0.62500000  0.37500000  0.37500000  1
  Eu  Eu15  1  0.62500000  0.12500000  0.12500000  1
  Mn  Mn16  1  0.12500000  0.12500000  0.12500000  1
  Mn  Mn17  1  0.62500000  0.87500000  0.37500000  1
  Mn  Mn18  1  0.87500000  0.87500000  0.12500000  1
  Mn  Mn19  1  0.37500000  0.12500000  0.37500000  1
  Mn  Mn20  1  0.12500000  0.62500000  0.62500000  1
  Mn  Mn21  1  0.62500000  0.37500000  0.87500000  1
  Mn  Mn22  1  0.87500000  0.37500000  0.62500000  1
  Mn  Mn23  1  0.37500000  0.62500000  0.87500000  1
  Mn  Mn24  1  0.62500000  0.12500000  0.62500000  1
  Mn  Mn25  1  0.12500000  0.87500000  0.87500000  1
  Mn  Mn26  1  0.37500000  0.87500000  0.62500000  1
  Mn  Mn27  1  0.87500000  0.12500000  0.87500000  1
  Mn  Mn28  1  0.62500000  0.62500000  0.12500000  1
  Mn  Mn29  1  0.12500000  0.37500000  0.37500000  1
  Mn  Mn30  1  0.37500000  0.37500000  0.12500000  1
  Mn  Mn31  1  0.87500000  0.62500000  0.37500000  1
  O  O32  1  0.70103200  0.00000000  0.50000000  1
  O  O33  1  0.45103200  0.25000000  0.25000000  1
  O  O34  1  0.00000000  0.00000000  0.20103200  1
  O  O35  1  0.50000000  0.00000000  0.29896800  1
  O  O36  1  0.00000000  0.00000000  0.50000000  1
  O  O37  1  0.50000000  0.79896800  0.50000000  1
  O  O38  1  0.50000000  0.20103200  0.50000000  1
  O  O39  1  0.25000000  0.45103200  0.25000000  1
  O  O40  1  0.25000000  0.25000000  0.04896800  1
  O  O41  1  0.25000000  0.25000000  0.45103200  1
  O  O42  1  0.25000000  0.75000000  0.25000000  1
  O  O43  1  0.25000000  0.04896800  0.25000000  1
  O  O44  1  0.29896800  0.00000000  0.50000000  1
  O  O45  1  0.04896800  0.25000000  0.25000000  1
  O  O46  1  0.70103200  0.50000000  0.00000000  1
  O  O47  1  0.45103200  0.75000000  0.75000000  1
  O  O48  1  0.00000000  0.50000000  0.70103200  1
  O  O49  1  0.50000000  0.50000000  0.79896800  1
  O  O50  1  0.00000000  0.50000000  0.00000000  1
  O  O51  1  0.50000000  0.29896800  0.00000000  1
  O  O52  1  0.50000000  0.70103200  0.00000000  1
  O  O53  1  0.25000000  0.95103200  0.75000000  1
  O  O54  1  0.25000000  0.75000000  0.54896800  1
  O  O55  1  0.25000000  0.75000000  0.95103200  1
  O  O56  1  0.25000000  0.25000000  0.75000000  1
  O  O57  1  0.25000000  0.54896800  0.75000000  1
  O  O58  1  0.29896800  0.50000000  0.00000000  1
  O  O59  1  0.04896800  0.75000000  0.75000000  1
  O  O60  1  0.20103200  0.00000000  0.00000000  1
  O  O61  1  0.95103200  0.25000000  0.75000000  1
  O  O62  1  0.50000000  0.00000000  0.70103200  1
  O  O63  1  0.00000000  0.00000000  0.79896800  1
  O  O64  1  0.50000000  0.00000000  0.00000000  1
  O  O65  1  0.00000000  0.79896800  0.00000000  1
  O  O66  1  0.00000000  0.20103200  0.00000000  1
  O  O67  1  0.75000000  0.45103200  0.75000000  1
  O  O68  1  0.75000000  0.25000000  0.54896800  1
  O  O69  1  0.75000000  0.25000000  0.95103200  1
  O  O70  1  0.75000000  0.75000000  0.75000000  1
  O  O71  1  0.75000000  0.04896800  0.75000000  1
  O  O72  1  0.79896800  0.00000000  0.00000000  1
  O  O73  1  0.54896800  0.25000000  0.75000000  1
  O  O74  1  0.20103200  0.50000000  0.50000000  1
  O  O75  1  0.95103200  0.75000000  0.25000000  1
  O  O76  1  0.50000000  0.50000000  0.20103200  1
  O  O77  1  0.00000000  0.50000000  0.29896800  1
  O  O78  1  0.50000000  0.50000000  0.50000000  1
  O  O79  1  0.00000000  0.29896800  0.50000000  1
  O  O80  1  0.00000000  0.70103200  0.50000000  1
  O  O81  1  0.75000000  0.95103200  0.25000000  1
  O  O82  1  0.75000000  0.75000000  0.04896800  1
  O  O83  1  0.75000000  0.75000000  0.45103200  1
  O  O84  1  0.75000000  0.25000000  0.25000000  1
  O  O85  1  0.75000000  0.54896800  0.25000000  1
  O  O86  1  0.79896800  0.50000000  0.50000000  1
  O  O87  1  0.54896800  0.75000000  0.25000000  1
