# generated using pymatgen
data_Cr5Sb3O16
_symmetry_space_group_name_H-M   'P 1'
_cell_length_a   10.48588800
_cell_length_b   6.09209600
_cell_length_c   9.07855718
_cell_angle_alpha   90.00000000
_cell_angle_beta   90.16832388
_cell_angle_gamma   90.00000000
_symmetry_Int_Tables_number   1
_chemical_formula_structural   Cr5Sb3O16
_chemical_formula_sum   'Cr10 Sb6 O32'
_cell_volume   579.94513828
_cell_formula_units_Z   2
loop_
 _symmetry_equiv_pos_site_id
 _symmetry_equiv_pos_as_xyz
  1  'x, y, z'
loop_
 _atom_site_type_symbol
 _atom_site_label
 _atom_site_symmetry_multiplicity
 _atom_site_fract_x
 _atom_site_fract_y
 _atom_site_fract_z
 _atom_site_occupancy
  Cr  Cr0  1  0.41676850  0.25055650  0.79380700  1
  Cr  Cr1  1  0.34101500  0.00000000  0.51631800  1
  Cr  Cr2  1  0.41676850  0.74944350  0.79380700  1
  Cr  Cr3  1  0.83091200  0.00000000  0.29056000  1
  Cr  Cr4  1  0.66972700  0.00000000  0.00967100  1
  Cr  Cr5  1  0.91676850  0.75055650  0.79380700  1
  Cr  Cr6  1  0.84101500  0.50000000  0.51631800  1
  Cr  Cr7  1  0.91676850  0.24944350  0.79380700  1
  Cr  Cr8  1  0.33091200  0.50000000  0.29056000  1
  Cr  Cr9  1  0.16972700  0.50000000  0.00967100  1
  Sb  Sb10  1  0.16844000  0.00000000  0.78881100  1
  Sb  Sb11  1  0.58230150  0.24856150  0.28866200  1
  Sb  Sb12  1  0.58230150  0.75143850  0.28866200  1
  Sb  Sb13  1  0.66844000  0.50000000  0.78881100  1
  Sb  Sb14  1  0.08230150  0.74856150  0.28866200  1
  Sb  Sb15  1  0.08230150  0.25143850  0.28866200  1
  O  O16  1  0.41987700  0.24841600  0.39663300  1
  O  O17  1  0.47052500  0.00000000  0.67111600  1
  O  O18  1  0.33198100  0.00000000  0.90455300  1
  O  O19  1  0.99970300  0.00000000  0.68720900  1
  O  O20  1  0.99925300  0.00000000  0.17816100  1
  O  O21  1  0.41987700  0.75158400  0.39663300  1
  O  O22  1  0.26603500  0.21446400  0.65941700  1
  O  O23  1  0.26603500  0.78553600  0.65941700  1
  O  O24  1  0.83078400  0.00000000  0.88807200  1
  O  O25  1  0.16726800  0.00000000  0.39838900  1
  O  O26  1  0.73670700  0.21502700  0.16102100  1
  O  O27  1  0.73670700  0.78497300  0.16102100  1
  O  O28  1  0.66387100  0.00000000  0.40691300  1
  O  O29  1  0.58175850  0.24668050  0.89567900  1
  O  O30  1  0.52077800  0.00000000  0.15409000  1
  O  O31  1  0.58175850  0.75331950  0.89567900  1
  O  O32  1  0.91987700  0.74841600  0.39663300  1
  O  O33  1  0.97052500  0.50000000  0.67111600  1
  O  O34  1  0.83198100  0.50000000  0.90455300  1
  O  O35  1  0.49970300  0.50000000  0.68720900  1
  O  O36  1  0.49925300  0.50000000  0.17816100  1
  O  O37  1  0.91987700  0.25158400  0.39663300  1
  O  O38  1  0.76603500  0.71446400  0.65941700  1
  O  O39  1  0.76603500  0.28553600  0.65941700  1
  O  O40  1  0.33078400  0.50000000  0.88807200  1
  O  O41  1  0.66726800  0.50000000  0.39838900  1
  O  O42  1  0.23670700  0.71502700  0.16102100  1
  O  O43  1  0.23670700  0.28497300  0.16102100  1
  O  O44  1  0.16387100  0.50000000  0.40691300  1
  O  O45  1  0.08175850  0.74668050  0.89567900  1
  O  O46  1  0.02077800  0.50000000  0.15409000  1
  O  O47  1  0.08175850  0.25331950  0.89567900  1
