# generated using pymatgen
data_Fe6O5F7
_symmetry_space_group_name_H-M   'P 1'
_cell_length_a   9.18630400
_cell_length_b   6.69006400
_cell_length_c   7.40481740
_cell_angle_alpha   90.00000000
_cell_angle_beta   112.34793246
_cell_angle_gamma   90.00000000
_symmetry_Int_Tables_number   1
_chemical_formula_structural   Fe6O5F7
_chemical_formula_sum   'Fe12 O10 F14'
_cell_volume   420.89758938
_cell_formula_units_Z   2
loop_
 _symmetry_equiv_pos_site_id
 _symmetry_equiv_pos_as_xyz
  1  'x, y, z'
loop_
 _atom_site_type_symbol
 _atom_site_label
 _atom_site_symmetry_multiplicity
 _atom_site_fract_x
 _atom_site_fract_y
 _atom_site_fract_z
 _atom_site_occupancy
  Fe  Fe0  1  0.19567300  0.50000000  0.16415200  1
  Fe  Fe1  1  0.83812100  0.50000000  0.33198600  1
  Fe  Fe2  1  0.14499000  0.50000000  0.68378000  1
  Fe  Fe3  1  0.82870300  0.50000000  0.83781900  1
  Fe  Fe4  1  0.48039100  0.50000000  0.48395800  1
  Fe  Fe5  1  0.50831400  0.50000000  0.00046400  1
  Fe  Fe6  1  0.69567300  0.00000000  0.16415200  1
  Fe  Fe7  1  0.33812100  0.00000000  0.33198600  1
  Fe  Fe8  1  0.64499000  0.00000000  0.68378000  1
  Fe  Fe9  1  0.32870300  0.00000000  0.83781900  1
  Fe  Fe10  1  0.98039100  0.00000000  0.48395800  1
  Fe  Fe11  1  0.00831400  0.00000000  0.00046400  1
  O  O12  1  0.83579800  0.19761500  0.33304400  1
  O  O13  1  0.72444100  0.50000000  0.04042000  1
  O  O14  1  0.27802000  0.50000000  0.95678800  1
  O  O15  1  0.92906000  0.50000000  0.62571300  1
  O  O16  1  0.83579800  0.80238500  0.33304400  1
  O  O17  1  0.33579800  0.69761500  0.33304400  1
  O  O18  1  0.22444100  0.00000000  0.04042000  1
  O  O19  1  0.77802000  0.00000000  0.95678800  1
  O  O20  1  0.42906000  0.00000000  0.62571300  1
  O  O21  1  0.33579800  0.30238500  0.33304400  1
  F  F22  1  0.15000450  0.19924250  0.65030600  1
  F  F23  1  0.39998100  0.50000000  0.70296800  1
  F  F24  1  0.07367700  0.50000000  0.37522900  1
  F  F25  1  0.59914900  0.50000000  0.30098900  1
  F  F26  1  0.15000450  0.80075750  0.65030600  1
  F  F27  1  0.01393600  0.30388000  0.01451800  1
  F  F28  1  0.01393600  0.69612000  0.01451800  1
  F  F29  1  0.65000450  0.69924250  0.65030600  1
  F  F30  1  0.89998100  0.00000000  0.70296800  1
  F  F31  1  0.57367700  0.00000000  0.37522900  1
  F  F32  1  0.09914900  0.00000000  0.30098900  1
  F  F33  1  0.65000450  0.30075750  0.65030600  1
  F  F34  1  0.51393600  0.80388000  0.01451800  1
  F  F35  1  0.51393600  0.19612000  0.01451800  1
