# generated using pymatgen
data_Li3VF8
_symmetry_space_group_name_H-M   'P 1'
_cell_length_a   7.03680600
_cell_length_b   9.34371400
_cell_length_c   5.59875712
_cell_angle_alpha   90.00000000
_cell_angle_beta   120.76498350
_cell_angle_gamma   90.00000000
_symmetry_Int_Tables_number   1
_chemical_formula_structural   Li3VF8
_chemical_formula_sum   'Li6 V2 F16'
_cell_volume   316.31351133
_cell_formula_units_Z   2
loop_
 _symmetry_equiv_pos_site_id
 _symmetry_equiv_pos_as_xyz
  1  'x, y, z'
loop_
 _atom_site_type_symbol
 _atom_site_label
 _atom_site_symmetry_multiplicity
 _atom_site_fract_x
 _atom_site_fract_y
 _atom_site_fract_z
 _atom_site_occupancy
  Li  Li0  1  0.25000000  0.75000000  0.50000000  1
  Li  Li1  1  0.25000000  0.25000000  0.50000000  1
  Li  Li2  1  0.50000000  0.00000000  0.50000000  1
  Li  Li3  1  0.75000000  0.25000000  0.50000000  1
  Li  Li4  1  0.75000000  0.75000000  0.50000000  1
  Li  Li5  1  0.00000000  0.50000000  0.50000000  1
  V  V6  1  0.00000000  0.00000000  0.00000000  1
  V  V7  1  0.50000000  0.50000000  0.00000000  1
  F  F8  1  0.83669200  0.00000000  0.61576600  1
  F  F9  1  0.50000000  0.30610200  0.00000000  1
  F  F10  1  0.50000000  0.69389800  0.00000000  1
  F  F11  1  0.16330800  0.00000000  0.38423400  1
  F  F12  1  0.74585800  0.00000000  0.00103400  1
  F  F13  1  0.50000000  0.19747300  0.50000000  1
  F  F14  1  0.50000000  0.80252700  0.50000000  1
  F  F15  1  0.25414200  0.00000000  0.99896600  1
  F  F16  1  0.33669200  0.50000000  0.61576600  1
  F  F17  1  0.00000000  0.80610200  0.00000000  1
  F  F18  1  0.00000000  0.19389800  0.00000000  1
  F  F19  1  0.66330800  0.50000000  0.38423400  1
  F  F20  1  0.24585800  0.50000000  0.00103400  1
  F  F21  1  0.00000000  0.69747300  0.50000000  1
  F  F22  1  0.00000000  0.30252700  0.50000000  1
  F  F23  1  0.75414200  0.50000000  0.99896600  1
