# generated using pymatgen
data_Li4Mn5FeO12
_symmetry_space_group_name_H-M   'P 1'
_cell_length_a   5.19787400
_cell_length_b   8.91713600
_cell_length_c   10.28459180
_cell_angle_alpha   90.00000000
_cell_angle_beta   90.05538163
_cell_angle_gamma   90.00000000
_symmetry_Int_Tables_number   1
_chemical_formula_structural   Li4Mn5FeO12
_chemical_formula_sum   'Li8 Mn10 Fe2 O24'
_cell_volume   476.69214365
_cell_formula_units_Z   2
loop_
 _symmetry_equiv_pos_site_id
 _symmetry_equiv_pos_as_xyz
  1  'x, y, z'
loop_
 _atom_site_type_symbol
 _atom_site_label
 _atom_site_symmetry_multiplicity
 _atom_site_fract_x
 _atom_site_fract_y
 _atom_site_fract_z
 _atom_site_occupancy
  Li  Li0  1  0.40367550  0.75075950  0.24890100  1
  Li  Li1  1  0.59632450  0.75075950  0.75109900  1
  Li  Li2  1  0.40367550  0.24924050  0.24890100  1
  Li  Li3  1  0.59632450  0.24924050  0.75109900  1
  Li  Li4  1  0.90367550  0.25075950  0.24890100  1
  Li  Li5  1  0.09632450  0.25075950  0.75109900  1
  Li  Li6  1  0.90367550  0.74924050  0.24890100  1
  Li  Li7  1  0.09632450  0.74924050  0.75109900  1
  Mn  Mn8  1  0.50000000  0.66395500  0.50000000  1
  Mn  Mn9  1  0.50000000  0.16307600  0.00000000  1
  Mn  Mn10  1  0.50000000  0.83692400  0.00000000  1
  Mn  Mn11  1  0.50000000  0.33604500  0.50000000  1
  Mn  Mn12  1  0.50000000  0.00000000  0.50000000  1
  Mn  Mn13  1  0.00000000  0.16395500  0.50000000  1
  Mn  Mn14  1  0.00000000  0.66307600  0.00000000  1
  Mn  Mn15  1  0.00000000  0.33692400  0.00000000  1
  Mn  Mn16  1  0.00000000  0.83604500  0.50000000  1
  Mn  Mn17  1  0.00000000  0.50000000  0.50000000  1
  Fe  Fe18  1  0.00000000  0.00000000  0.00000000  1
  Fe  Fe19  1  0.50000000  0.50000000  0.00000000  1
  O  O20  1  0.34411350  0.67711950  0.89359700  1
  O  O21  1  0.65588650  0.67711950  0.10640300  1
  O  O22  1  0.33945550  0.81806750  0.60728900  1
  O  O23  1  0.33945550  0.18193250  0.60728900  1
  O  O24  1  0.66054450  0.81806750  0.39271100  1
  O  O25  1  0.17387900  0.00000000  0.40849600  1
  O  O26  1  0.66054450  0.18193250  0.39271100  1
  O  O27  1  0.34411350  0.32288050  0.89359700  1
  O  O28  1  0.33771600  0.00000000  0.90432200  1
  O  O29  1  0.65588650  0.32288050  0.10640300  1
  O  O30  1  0.66228400  0.00000000  0.09567800  1
  O  O31  1  0.82612100  0.00000000  0.59150400  1
  O  O32  1  0.84411350  0.17711950  0.89359700  1
  O  O33  1  0.15588650  0.17711950  0.10640300  1
  O  O34  1  0.83945550  0.31806750  0.60728900  1
  O  O35  1  0.83945550  0.68193250  0.60728900  1
  O  O36  1  0.16054450  0.31806750  0.39271100  1
  O  O37  1  0.67387900  0.50000000  0.40849600  1
  O  O38  1  0.16054450  0.68193250  0.39271100  1
  O  O39  1  0.84411350  0.82288050  0.89359700  1
  O  O40  1  0.83771600  0.50000000  0.90432200  1
  O  O41  1  0.15588650  0.82288050  0.10640300  1
  O  O42  1  0.16228400  0.50000000  0.09567800  1
  O  O43  1  0.32612100  0.50000000  0.59150400  1
