# generated using pymatgen
data_Li2VO2F
_symmetry_space_group_name_H-M   'P 1'
_cell_length_a   10.41920600
_cell_length_b   6.02185400
_cell_length_c   8.99466178
_cell_angle_alpha   90.00000000
_cell_angle_beta   125.23462894
_cell_angle_gamma   90.00000000
_symmetry_Int_Tables_number   1
_chemical_formula_structural   Li2VO2F
_chemical_formula_sum   'Li16 V8 O16 F8'
_cell_volume   460.96025116
_cell_formula_units_Z   8
loop_
 _symmetry_equiv_pos_site_id
 _symmetry_equiv_pos_as_xyz
  1  'x, y, z'
loop_
 _atom_site_type_symbol
 _atom_site_label
 _atom_site_symmetry_multiplicity
 _atom_site_fract_x
 _atom_site_fract_y
 _atom_site_fract_z
 _atom_site_occupancy
  Li  Li0  1  0.35516700  0.77378300  0.86196400  1
  Li  Li1  1  0.08917600  0.00000000  0.84501500  1
  Li  Li2  1  0.35516700  0.22621700  0.86196400  1
  Li  Li3  1  0.58241300  0.00000000  0.86280200  1
  Li  Li4  1  0.91580400  0.50000000  0.14350500  1
  Li  Li5  1  0.14911650  0.26824550  0.14254300  1
  Li  Li6  1  0.40686600  0.50000000  0.14852800  1
  Li  Li7  1  0.14911650  0.73175450  0.14254300  1
  Li  Li8  1  0.85516700  0.27378300  0.86196400  1
  Li  Li9  1  0.58917600  0.50000000  0.84501500  1
  Li  Li10  1  0.85516700  0.72621700  0.86196400  1
  Li  Li11  1  0.08241300  0.50000000  0.86280200  1
  Li  Li12  1  0.41580400  0.00000000  0.14350500  1
  Li  Li13  1  0.64911650  0.76824550  0.14254300  1
  Li  Li14  1  0.90686600  0.00000000  0.14852800  1
  Li  Li15  1  0.64911650  0.23175450  0.14254300  1
  V  V16  1  0.49482950  0.74488250  0.49340500  1
  V  V17  1  0.25188500  0.00000000  0.50348300  1
  V  V18  1  0.99482950  0.75511750  0.49340500  1
  V  V19  1  0.24944800  0.50000000  0.49156900  1
  V  V20  1  0.99482950  0.24488250  0.49340500  1
  V  V21  1  0.75188500  0.50000000  0.50348300  1
  V  V22  1  0.49482950  0.25511750  0.49340500  1
  V  V23  1  0.74944800  0.00000000  0.49156900  1
  O  O24  1  0.15295800  0.00000000  0.64718000  1
  O  O25  1  0.40814950  0.74318750  0.64669400  1
  O  O26  1  0.59301550  0.75114850  0.35505300  1
  O  O27  1  0.34676500  0.00000000  0.35581200  1
  O  O28  1  0.00047600  0.50000000  0.00269000  1
  O  O29  1  0.09301550  0.74885150  0.35505300  1
  O  O30  1  0.90814950  0.75681250  0.64669400  1
  O  O31  1  0.33958000  0.50000000  0.34243200  1
  O  O32  1  0.65295800  0.50000000  0.64718000  1
  O  O33  1  0.90814950  0.24318750  0.64669400  1
  O  O34  1  0.09301550  0.25114850  0.35505300  1
  O  O35  1  0.84676500  0.50000000  0.35581200  1
  O  O36  1  0.50047600  0.00000000  0.00269000  1
  O  O37  1  0.59301550  0.24885150  0.35505300  1
  O  O38  1  0.40814950  0.25681250  0.64669400  1
  O  O39  1  0.83958000  0.00000000  0.34243200  1
  F  F40  1  0.24889900  0.74943300  0.99708900  1
  F  F41  1  0.99853800  0.00000000  0.99898300  1
  F  F42  1  0.74889900  0.75056700  0.99708900  1
  F  F43  1  0.16557800  0.50000000  0.66424300  1
  F  F44  1  0.74889900  0.24943300  0.99708900  1
  F  F45  1  0.49853800  0.50000000  0.99898300  1
  F  F46  1  0.24889900  0.25056700  0.99708900  1
  F  F47  1  0.66557800  0.00000000  0.66424300  1
