# generated using pymatgen
data_LiCo(SiO3)2
_symmetry_space_group_name_H-M   'P 1'
_cell_length_a   7.40478000
_cell_length_b   7.30786400
_cell_length_c   10.40773892
_cell_angle_alpha   90.00000000
_cell_angle_beta   109.94509651
_cell_angle_gamma   90.00000000
_symmetry_Int_Tables_number   1
_chemical_formula_structural   LiCo(SiO3)2
_chemical_formula_sum   'Li4 Co4 Si8 O24'
_cell_volume   529.41478626
_cell_formula_units_Z   4
loop_
 _symmetry_equiv_pos_site_id
 _symmetry_equiv_pos_as_xyz
  1  'x, y, z'
loop_
 _atom_site_type_symbol
 _atom_site_label
 _atom_site_symmetry_multiplicity
 _atom_site_fract_x
 _atom_site_fract_y
 _atom_site_fract_z
 _atom_site_occupancy
  Li  Li0  1  0.99675550  0.89807950  0.67064300  1
  Li  Li1  1  0.99675550  0.10192050  0.17064300  1
  Li  Li2  1  0.49675550  0.39807950  0.67064300  1
  Li  Li3  1  0.49675550  0.60192050  0.17064300  1
  Co  Co4  1  0.64570950  0.63162350  0.49565000  1
  Co  Co5  1  0.64570950  0.36837650  0.99565000  1
  Co  Co6  1  0.14570950  0.13162350  0.49565000  1
  Co  Co7  1  0.14570950  0.86837650  0.99565000  1
  Si  Si8  1  0.91937250  0.67239150  0.16603600  1
  Si  Si9  1  0.26469100  0.42803300  0.33827100  1
  Si  Si10  1  0.26469100  0.57196700  0.83827100  1
  Si  Si11  1  0.91937250  0.32760850  0.66603600  1
  Si  Si12  1  0.41937250  0.17239150  0.16603600  1
  Si  Si13  1  0.76469100  0.92803300  0.33827100  1
  Si  Si14  1  0.76469100  0.07196700  0.83827100  1
  Si  Si15  1  0.41937250  0.82760850  0.66603600  1
  O  O16  1  0.04453700  0.84086700  0.13617400  1
  O  O17  1  0.29222150  0.66054250  0.98862000  1
  O  O18  1  0.93495300  0.92942700  0.84010400  1
  O  O19  1  0.80124350  0.56797150  0.02479200  1
  O  O20  1  0.75905250  0.75489250  0.23161700  1
  O  O21  1  0.29222150  0.33945750  0.48862000  1
  O  O22  1  0.05515200  0.52692500  0.27699700  1
  O  O23  1  0.05515200  0.47307500  0.77699700  1
  O  O24  1  0.80124350  0.43202850  0.52479200  1
  O  O25  1  0.04453700  0.15913300  0.63617400  1
  O  O26  1  0.93495300  0.07057300  0.34010400  1
  O  O27  1  0.75905250  0.24510750  0.73161700  1
  O  O28  1  0.54453700  0.34086700  0.13617400  1
  O  O29  1  0.79222150  0.16054250  0.98862000  1
  O  O30  1  0.43495300  0.42942700  0.84010400  1
  O  O31  1  0.30124350  0.06797150  0.02479200  1
  O  O32  1  0.25905250  0.25489250  0.23161700  1
  O  O33  1  0.79222150  0.83945750  0.48862000  1
  O  O34  1  0.55515200  0.02692500  0.27699700  1
  O  O35  1  0.55515200  0.97307500  0.77699700  1
  O  O36  1  0.30124350  0.93202850  0.52479200  1
  O  O37  1  0.54453700  0.65913300  0.63617400  1
  O  O38  1  0.43495300  0.57057300  0.34010400  1
  O  O39  1  0.25905250  0.74510750  0.73161700  1
