# generated using pymatgen
data_Fe5O3F7
_symmetry_space_group_name_H-M   'P 1'
_cell_length_a   6.70180127
_cell_length_b   6.86659657
_cell_length_c   15.68223063
_cell_angle_alpha   90.00000000
_cell_angle_beta   90.43746619
_cell_angle_gamma   90.00000000
_symmetry_Int_Tables_number   1
_chemical_formula_structural   Fe5O3F7
_chemical_formula_sum   'Fe20 O12 F28'
_cell_volume   721.65272431
_cell_formula_units_Z   4
loop_
 _symmetry_equiv_pos_site_id
 _symmetry_equiv_pos_as_xyz
  1  'x, y, z'
loop_
 _atom_site_type_symbol
 _atom_site_label
 _atom_site_symmetry_multiplicity
 _atom_site_fract_x
 _atom_site_fract_y
 _atom_site_fract_z
 _atom_site_occupancy
  Fe  Fe0  1  0.96652700  0.98747500  0.80602100  1
  Fe  Fe1  1  0.03441500  0.00015600  0.60079300  1
  Fe  Fe2  1  0.96558500  0.00015600  0.39920700  1
  Fe  Fe3  1  0.03347300  0.98747500  0.19397900  1
  Fe  Fe4  1  0.50000000  0.47106100  0.00000000  1
  Fe  Fe5  1  0.49684600  0.99625200  0.69920700  1
  Fe  Fe6  1  0.50315400  0.99625200  0.30079300  1
  Fe  Fe7  1  0.50000000  0.99901900  0.50000000  1
  Fe  Fe8  1  0.49403550  0.02010850  0.10476600  1
  Fe  Fe9  1  0.50596450  0.02010850  0.89523400  1
  Fe  Fe10  1  0.46652700  0.48747500  0.80602100  1
  Fe  Fe11  1  0.53441500  0.50015600  0.60079300  1
  Fe  Fe12  1  0.46558500  0.50015600  0.39920700  1
  Fe  Fe13  1  0.53347300  0.48747500  0.19397900  1
  Fe  Fe14  1  0.00000000  0.97106100  0.00000000  1
  Fe  Fe15  1  0.99684600  0.49625200  0.69920700  1
  Fe  Fe16  1  0.00315400  0.49625200  0.30079300  1
  Fe  Fe17  1  0.00000000  0.49901900  0.50000000  1
  Fe  Fe18  1  0.99403550  0.52010850  0.10476600  1
  Fe  Fe19  1  0.00596450  0.52010850  0.89523400  1
  O  O20  1  0.50491750  0.31491950  0.09945400  1
  O  O21  1  0.49508250  0.31491950  0.90054600  1
  O  O22  1  0.33164950  0.99872450  0.59975800  1
  O  O23  1  0.31036650  0.00002850  0.21036000  1
  O  O24  1  0.68963350  0.00002850  0.78964000  1
  O  O25  1  0.66835050  0.99872450  0.40024200  1
  O  O26  1  0.00491750  0.81491950  0.09945400  1
  O  O27  1  0.99508250  0.81491950  0.90054600  1
  O  O28  1  0.83164950  0.49872450  0.59975800  1
  O  O29  1  0.81036650  0.50002850  0.21036000  1
  O  O30  1  0.18963350  0.50002850  0.78964000  1
  O  O31  1  0.16835050  0.49872450  0.40024200  1
  F  F32  1  0.49849850  0.29994250  0.70364500  1
  F  F33  1  0.50000000  0.29444300  0.50000000  1
  F  F34  1  0.50150150  0.29994250  0.29635500  1
  F  F35  1  0.28327950  0.00038550  0.79079100  1
  F  F36  1  0.28762200  0.99891000  0.40180400  1
  F  F37  1  0.29749300  0.00455000  0.99739700  1
  F  F38  1  0.71237800  0.99891000  0.59819600  1
  F  F39  1  0.71672050  0.00038550  0.20920900  1
  F  F40  1  0.70250700  0.00455000  0.00260300  1
  F  F41  1  0.49930500  0.69640600  0.70502000  1
  F  F42  1  0.50069500  0.69640600  0.29498000  1
  F  F43  1  0.50000000  0.70472300  0.50000000  1
  F  F44  1  0.49271450  0.69751850  0.90106700  1
  F  F45  1  0.50728550  0.69751850  0.09893300  1
  F  F46  1  0.99849850  0.79994250  0.70364500  1
  F  F47  1  0.00000000  0.79444300  0.50000000  1
  F  F48  1  0.00150150  0.79994250  0.29635500  1
  F  F49  1  0.78327950  0.50038550  0.79079100  1
  F  F50  1  0.78762200  0.49891000  0.40180400  1
  F  F51  1  0.79749300  0.50455000  0.99739700  1
  F  F52  1  0.21237800  0.49891000  0.59819600  1
  F  F53  1  0.21672050  0.50038550  0.20920900  1
  F  F54  1  0.20250700  0.50455000  0.00260300  1
  F  F55  1  0.99930500  0.19640600  0.70502000  1
  F  F56  1  0.00069500  0.19640600  0.29498000  1
  F  F57  1  0.00000000  0.20472300  0.50000000  1
  F  F58  1  0.99271450  0.19751850  0.90106700  1
  F  F59  1  0.00728550  0.19751850  0.09893300  1
