# generated using pymatgen
data_Fe2C2O7
_symmetry_space_group_name_H-M   'P 1'
_cell_length_a   14.75724800
_cell_length_b   8.55968800
_cell_length_c   8.38375100
_cell_angle_alpha   90.00000000
_cell_angle_beta   90.67686274
_cell_angle_gamma   90.00000000
_symmetry_Int_Tables_number   1
_chemical_formula_structural   Fe2C2O7
_chemical_formula_sum   'Fe12 C12 O42'
_cell_volume   1058.94005663
_cell_formula_units_Z   6
loop_
 _symmetry_equiv_pos_site_id
 _symmetry_equiv_pos_as_xyz
  1  'x, y, z'
loop_
 _atom_site_type_symbol
 _atom_site_label
 _atom_site_symmetry_multiplicity
 _atom_site_fract_x
 _atom_site_fract_y
 _atom_site_fract_z
 _atom_site_occupancy
  Fe  Fe0  1  0.33277000  0.99902200  0.82195200  1
  Fe  Fe1  1  0.66723000  0.99902200  0.17804800  1
  Fe  Fe2  1  0.33363750  0.00008850  0.25598000  1
  Fe  Fe3  1  0.66636250  0.00008850  0.74402000  1
  Fe  Fe4  1  0.49908950  0.50135450  0.28493500  1
  Fe  Fe5  1  0.50091050  0.50135450  0.71506500  1
  Fe  Fe6  1  0.83277000  0.49902200  0.82195200  1
  Fe  Fe7  1  0.16723000  0.49902200  0.17804800  1
  Fe  Fe8  1  0.83363750  0.50008850  0.25598000  1
  Fe  Fe9  1  0.16636250  0.50008850  0.74402000  1
  Fe  Fe10  1  0.99908950  0.00135450  0.28493500  1
  Fe  Fe11  1  0.00091050  0.00135450  0.71506500  1
  C  C12  1  0.82955050  0.16869450  0.27386300  1
  C  C13  1  0.17044950  0.16869450  0.72613700  1
  C  C14  1  0.66819900  0.66826600  0.26801400  1
  C  C15  1  0.33180100  0.66826600  0.73198600  1
  C  C16  1  0.50136900  0.16571600  0.26573600  1
  C  C17  1  0.49863100  0.16571600  0.73426400  1
  C  C18  1  0.32955050  0.66869450  0.27386300  1
  C  C19  1  0.67044950  0.66869450  0.72613700  1
  C  C20  1  0.16819900  0.16826600  0.26801400  1
  C  C21  1  0.83180100  0.16826600  0.73198600  1
  C  C22  1  0.00136900  0.66571600  0.26573600  1
  C  C23  1  0.99863100  0.66571600  0.73426400  1
  O  O24  1  0.50000000  0.50030300  0.50000000  1
  O  O25  1  0.41362800  0.65426300  0.78724800  1
  O  O26  1  0.58637200  0.65426300  0.21275200  1
  O  O27  1  0.36883950  0.79380050  0.32887300  1
  O  O28  1  0.63116050  0.79380050  0.67112700  1
  O  O29  1  0.29210600  0.80259700  0.73211900  1
  O  O30  1  0.70789400  0.80259700  0.26788100  1
  O  O31  1  0.33040050  0.00013750  0.03831500  1
  O  O32  1  0.66959950  0.00013750  0.96168500  1
  O  O33  1  0.78842250  0.04770350  0.67621100  1
  O  O34  1  0.21157750  0.04770350  0.32378900  1
  O  O35  1  0.45187750  0.03816650  0.73603600  1
  O  O36  1  0.54812250  0.03816650  0.26396400  1
  O  O37  1  0.12298650  0.05520650  0.78345100  1
  O  O38  1  0.87701350  0.05520650  0.21654900  1
  O  O39  1  0.25771400  0.15903700  0.72390800  1
  O  O40  1  0.74228600  0.15903700  0.27609200  1
  O  O41  1  0.41884200  0.16209600  0.31804100  1
  O  O42  1  0.58115800  0.16209600  0.68195900  1
  O  O43  1  0.46395950  0.29496550  0.78438400  1
  O  O44  1  0.53604050  0.29496550  0.21561600  1
  O  O45  1  0.00000000  0.00030300  0.50000000  1
  O  O46  1  0.91362800  0.15426300  0.78724800  1
  O  O47  1  0.08637200  0.15426300  0.21275200  1
  O  O48  1  0.86883950  0.29380050  0.32887300  1
  O  O49  1  0.13116050  0.29380050  0.67112700  1
  O  O50  1  0.79210600  0.30259700  0.73211900  1
  O  O51  1  0.20789400  0.30259700  0.26788100  1
  O  O52  1  0.83040050  0.50013750  0.03831500  1
  O  O53  1  0.16959950  0.50013750  0.96168500  1
  O  O54  1  0.28842250  0.54770350  0.67621100  1
  O  O55  1  0.71157750  0.54770350  0.32378900  1
  O  O56  1  0.95187750  0.53816650  0.73603600  1
  O  O57  1  0.04812250  0.53816650  0.26396400  1
  O  O58  1  0.62298650  0.55520650  0.78345100  1
  O  O59  1  0.37701350  0.55520650  0.21654900  1
  O  O60  1  0.75771400  0.65903700  0.72390800  1
  O  O61  1  0.24228600  0.65903700  0.27609200  1
  O  O62  1  0.91884200  0.66209600  0.31804100  1
  O  O63  1  0.08115800  0.66209600  0.68195900  1
  O  O64  1  0.96395950  0.79496550  0.78438400  1
  O  O65  1  0.03604050  0.79496550  0.21561600  1
