# generated using pymatgen
data_VOF3
_symmetry_space_group_name_H-M   'P 1'
_cell_length_a   5.29786600
_cell_length_b   7.90121700
_cell_length_c   9.09324561
_cell_angle_alpha   90.00000000
_cell_angle_beta   110.00681160
_cell_angle_gamma   90.00000000
_symmetry_Int_Tables_number   1
_chemical_formula_structural   VOF3
_chemical_formula_sum   'V4 O4 F12'
_cell_volume   357.66867135
_cell_formula_units_Z   4
loop_
 _symmetry_equiv_pos_site_id
 _symmetry_equiv_pos_as_xyz
  1  'x, y, z'
loop_
 _atom_site_type_symbol
 _atom_site_label
 _atom_site_symmetry_multiplicity
 _atom_site_fract_x
 _atom_site_fract_y
 _atom_site_fract_z
 _atom_site_occupancy
  V  V0  1  0.13641800  0.32443500  0.54809100  1
  V  V1  1  0.13641800  0.17556500  0.04809100  1
  V  V2  1  0.86358200  0.82443500  0.95190900  1
  V  V3  1  0.86358200  0.67556500  0.45190900  1
  O  O4  1  0.06884100  0.05995900  0.88920300  1
  O  O5  1  0.06884100  0.44004100  0.38920300  1
  O  O6  1  0.93115900  0.55995900  0.61079700  1
  O  O7  1  0.93115900  0.94004100  0.11079700  1
  F  F8  1  0.14892900  0.73001500  0.92928700  1
  F  F9  1  0.14892900  0.76998500  0.42928700  1
  F  F10  1  0.28751400  0.14287500  0.50607800  1
  F  F11  1  0.40770600  0.40526300  0.70426500  1
  F  F12  1  0.59229400  0.90526300  0.79573500  1
  F  F13  1  0.71248600  0.64287500  0.99392200  1
  F  F14  1  0.28751400  0.35712500  0.00607800  1
  F  F15  1  0.40770600  0.09473700  0.20426500  1
  F  F16  1  0.59229400  0.59473700  0.29573500  1
  F  F17  1  0.71248600  0.85712500  0.49392200  1
  F  F18  1  0.85107100  0.23001500  0.57071300  1
  F  F19  1  0.85107100  0.26998500  0.07071300  1
