# generated using pymatgen
data_LiFe2OF3
_symmetry_space_group_name_H-M   'P 1'
_cell_length_a   10.03910200
_cell_length_b   6.36175800
_cell_length_c   6.08717386
_cell_angle_alpha   90.00000000
_cell_angle_beta   121.94007694
_cell_angle_gamma   90.00000000
_symmetry_Int_Tables_number   1
_chemical_formula_structural   LiFe2OF3
_chemical_formula_sum   'Li4 Fe8 O4 F12'
_cell_volume   329.90712253
_cell_formula_units_Z   4
loop_
 _symmetry_equiv_pos_site_id
 _symmetry_equiv_pos_as_xyz
  1  'x, y, z'
loop_
 _atom_site_type_symbol
 _atom_site_label
 _atom_site_symmetry_multiplicity
 _atom_site_fract_x
 _atom_site_fract_y
 _atom_site_fract_z
 _atom_site_occupancy
  Li  Li0  1  0.00000000  0.50000000  0.00000000  1
  Li  Li1  1  0.00000000  0.50000000  0.50000000  1
  Li  Li2  1  0.50000000  0.00000000  0.00000000  1
  Li  Li3  1  0.50000000  0.00000000  0.50000000  1
  Fe  Fe4  1  0.39415900  0.50000000  0.55891500  1
  Fe  Fe5  1  0.75000000  0.75000000  0.00000000  1
  Fe  Fe6  1  0.60584100  0.50000000  0.44108500  1
  Fe  Fe7  1  0.25000000  0.75000000  0.00000000  1
  Fe  Fe8  1  0.89415900  0.00000000  0.55891500  1
  Fe  Fe9  1  0.25000000  0.25000000  0.00000000  1
  Fe  Fe10  1  0.10584100  0.00000000  0.44108500  1
  Fe  Fe11  1  0.75000000  0.25000000  0.00000000  1
  O  O12  1  0.24432500  0.50000000  0.19454200  1
  O  O13  1  0.75567500  0.50000000  0.80545800  1
  O  O14  1  0.74432500  0.00000000  0.19454200  1
  O  O15  1  0.25567500  0.00000000  0.80545800  1
  F  F16  1  0.00547150  0.72688050  0.25716100  1
  F  F17  1  0.25171100  0.50000000  0.73834400  1
  F  F18  1  0.00547150  0.27311950  0.25716100  1
  F  F19  1  0.99452850  0.72688050  0.74283900  1
  F  F20  1  0.99452850  0.27311950  0.74283900  1
  F  F21  1  0.74828900  0.50000000  0.26165600  1
  F  F22  1  0.50547150  0.22688050  0.25716100  1
  F  F23  1  0.75171100  0.00000000  0.73834400  1
  F  F24  1  0.50547150  0.77311950  0.25716100  1
  F  F25  1  0.49452850  0.22688050  0.74283900  1
  F  F26  1  0.49452850  0.77311950  0.74283900  1
  F  F27  1  0.24828900  0.00000000  0.26165600  1
