# generated using pymatgen
data_Ti2Nb2(CuO4)3
_symmetry_space_group_name_H-M   'P 1'
_cell_length_a   10.58216200
_cell_length_b   7.54183600
_cell_length_c   7.52828692
_cell_angle_alpha   90.00000000
_cell_angle_beta   134.60934658
_cell_angle_gamma   90.00000000
_symmetry_Int_Tables_number   1
_chemical_formula_structural   Ti2Nb2(CuO4)3
_chemical_formula_sum   'Ti4 Nb4 Cu6 O24'
_cell_volume   427.73388707
_cell_formula_units_Z   2
loop_
 _symmetry_equiv_pos_site_id
 _symmetry_equiv_pos_as_xyz
  1  'x, y, z'
loop_
 _atom_site_type_symbol
 _atom_site_label
 _atom_site_symmetry_multiplicity
 _atom_site_fract_x
 _atom_site_fract_y
 _atom_site_fract_z
 _atom_site_occupancy
  Ti  Ti0  1  0.25000000  0.25000000  0.50000000  1
  Ti  Ti1  1  0.25000000  0.75000000  0.50000000  1
  Ti  Ti2  1  0.75000000  0.75000000  0.50000000  1
  Ti  Ti3  1  0.75000000  0.25000000  0.50000000  1
  Nb  Nb4  1  0.25000000  0.75000000  0.00000000  1
  Nb  Nb5  1  0.75000000  0.75000000  0.00000000  1
  Nb  Nb6  1  0.75000000  0.25000000  0.00000000  1
  Nb  Nb7  1  0.25000000  0.25000000  0.00000000  1
  Cu  Cu8  1  0.00000000  0.50000000  0.00000000  1
  Cu  Cu9  1  0.50000000  0.00000000  0.50000000  1
  Cu  Cu10  1  0.00000000  0.00000000  0.50000000  1
  Cu  Cu11  1  0.50000000  0.00000000  0.00000000  1
  Cu  Cu12  1  0.00000000  0.50000000  0.50000000  1
  Cu  Cu13  1  0.50000000  0.50000000  0.50000000  1
  O  O14  1  0.18356900  0.00000000  0.49482500  1
  O  O15  1  0.68830950  0.81890450  0.68670600  1
  O  O16  1  0.31169050  0.81890450  0.31329400  1
  O  O17  1  0.00189650  0.68819750  0.18292900  1
  O  O18  1  0.00189650  0.31180250  0.18292900  1
  O  O19  1  0.17810700  0.00000000  0.86545100  1
  O  O20  1  0.32189300  0.50000000  0.13454900  1
  O  O21  1  0.49810350  0.18819750  0.81707100  1
  O  O22  1  0.49810350  0.81180250  0.81707100  1
  O  O23  1  0.18830950  0.68109550  0.68670600  1
  O  O24  1  0.81169050  0.68109550  0.31329400  1
  O  O25  1  0.31643100  0.50000000  0.50517500  1
  O  O26  1  0.68356900  0.50000000  0.49482500  1
  O  O27  1  0.18830950  0.31890450  0.68670600  1
  O  O28  1  0.81169050  0.31890450  0.31329400  1
  O  O29  1  0.50189650  0.18819750  0.18292900  1
  O  O30  1  0.50189650  0.81180250  0.18292900  1
  O  O31  1  0.67810700  0.50000000  0.86545100  1
  O  O32  1  0.82189300  0.00000000  0.13454900  1
  O  O33  1  0.99810350  0.68819750  0.81707100  1
  O  O34  1  0.99810350  0.31180250  0.81707100  1
  O  O35  1  0.68830950  0.18109550  0.68670600  1
  O  O36  1  0.31169050  0.18109550  0.31329400  1
  O  O37  1  0.81643100  0.00000000  0.50517500  1
