# generated using pymatgen
data_Fe2O3F
_symmetry_space_group_name_H-M   'P 1'
_cell_length_a   6.01691400
_cell_length_b   13.81642400
_cell_length_c   6.39059200
_cell_angle_alpha   90.00000000
_cell_angle_beta   90.00000000
_cell_angle_gamma   90.00000000
_symmetry_Int_Tables_number   1
_chemical_formula_structural   Fe2O3F
_chemical_formula_sum   'Fe16 O24 F8'
_cell_volume   531.26419590
_cell_formula_units_Z   8
loop_
 _symmetry_equiv_pos_site_id
 _symmetry_equiv_pos_as_xyz
  1  'x, y, z'
loop_
 _atom_site_type_symbol
 _atom_site_label
 _atom_site_symmetry_multiplicity
 _atom_site_fract_x
 _atom_site_fract_y
 _atom_site_fract_z
 _atom_site_occupancy
  Fe  Fe0  1  0.24867200  0.87575300  0.75000000  1
  Fe  Fe1  1  0.75132800  0.87575300  0.75000000  1
  Fe  Fe2  1  0.50000000  0.88601800  0.25000000  1
  Fe  Fe3  1  0.00000000  0.87238700  0.25000000  1
  Fe  Fe4  1  0.50000000  0.62761300  0.75000000  1
  Fe  Fe5  1  0.00000000  0.61398200  0.75000000  1
  Fe  Fe6  1  0.74867200  0.62424700  0.25000000  1
  Fe  Fe7  1  0.25132800  0.62424700  0.25000000  1
  Fe  Fe8  1  0.74867200  0.37575300  0.75000000  1
  Fe  Fe9  1  0.25132800  0.37575300  0.75000000  1
  Fe  Fe10  1  0.00000000  0.38601800  0.25000000  1
  Fe  Fe11  1  0.50000000  0.37238700  0.25000000  1
  Fe  Fe12  1  0.00000000  0.12761300  0.75000000  1
  Fe  Fe13  1  0.50000000  0.11398200  0.75000000  1
  Fe  Fe14  1  0.24867200  0.12424700  0.25000000  1
  Fe  Fe15  1  0.75132800  0.12424700  0.25000000  1
  O  O16  1  0.50000000  0.96554000  0.75000000  1
  O  O17  1  0.25054950  0.87534550  0.44461700  1
  O  O18  1  0.74945050  0.87534550  0.44461700  1
  O  O19  1  0.25054950  0.87534550  0.05538300  1
  O  O20  1  0.75054950  0.62465450  0.55538300  1
  O  O21  1  0.24945050  0.62465450  0.55538300  1
  O  O22  1  0.74945050  0.87534550  0.05538300  1
  O  O23  1  0.00000000  0.78905500  0.75000000  1
  O  O24  1  0.00000000  0.53446000  0.25000000  1
  O  O25  1  0.50000000  0.71094500  0.25000000  1
  O  O26  1  0.75054950  0.62465450  0.94461700  1
  O  O27  1  0.24945050  0.62465450  0.94461700  1
  O  O28  1  0.00000000  0.46554000  0.75000000  1
  O  O29  1  0.75054950  0.37534550  0.44461700  1
  O  O30  1  0.24945050  0.37534550  0.44461700  1
  O  O31  1  0.75054950  0.37534550  0.05538300  1
  O  O32  1  0.25054950  0.12465450  0.55538300  1
  O  O33  1  0.74945050  0.12465450  0.55538300  1
  O  O34  1  0.24945050  0.37534550  0.05538300  1
  O  O35  1  0.50000000  0.28905500  0.75000000  1
  O  O36  1  0.50000000  0.03446000  0.25000000  1
  O  O37  1  0.00000000  0.21094500  0.25000000  1
  O  O38  1  0.25054950  0.12465450  0.94461700  1
  O  O39  1  0.74945050  0.12465450  0.94461700  1
  F  F40  1  0.00000000  0.97817400  0.75000000  1
  F  F41  1  0.50000000  0.77519400  0.75000000  1
  F  F42  1  0.50000000  0.52182600  0.25000000  1
  F  F43  1  0.00000000  0.72480600  0.25000000  1
  F  F44  1  0.50000000  0.47817400  0.75000000  1
  F  F45  1  0.00000000  0.27519400  0.75000000  1
  F  F46  1  0.00000000  0.02182600  0.25000000  1
  F  F47  1  0.50000000  0.22480600  0.25000000  1
