# generated using pymatgen
data_V3Cu2Ni(PO4)6
_symmetry_space_group_name_H-M   'P 1'
_cell_length_a   8.61128660
_cell_length_b   8.61128660
_cell_length_c   20.96837190
_cell_angle_alpha   90.00000000
_cell_angle_beta   90.00000000
_cell_angle_gamma   120.00000000
_symmetry_Int_Tables_number   1
_chemical_formula_structural   V3Cu2Ni(PO4)6
_chemical_formula_sum   'V9 Cu6 Ni3 P18 O72'
_cell_volume   1346.57773473
_cell_formula_units_Z   3
loop_
 _symmetry_equiv_pos_site_id
 _symmetry_equiv_pos_as_xyz
  1  'x, y, z'
loop_
 _atom_site_type_symbol
 _atom_site_label
 _atom_site_symmetry_multiplicity
 _atom_site_fract_x
 _atom_site_fract_y
 _atom_site_fract_z
 _atom_site_occupancy
  V  V0  1  0.33333333  0.66666667  0.30938167  1
  V  V1  1  0.33333333  0.66666667  0.52516867  1
  V  V2  1  0.33333333  0.66666667  0.02321467  1
  V  V3  1  0.00000000  0.00000000  0.64271500  1
  V  V4  1  0.00000000  0.00000000  0.85850200  1
  V  V5  1  0.00000000  0.00000000  0.35654800  1
  V  V6  1  0.66666667  0.33333333  0.97604833  1
  V  V7  1  0.66666667  0.33333333  0.19183533  1
  V  V8  1  0.66666667  0.33333333  0.68988133  1
  Cu  Cu9  1  0.33333333  0.66666667  0.66946867  1
  Cu  Cu10  1  0.33333333  0.66666667  0.16637067  1
  Cu  Cu11  1  0.00000000  0.00000000  0.00280200  1
  Cu  Cu12  1  0.00000000  0.00000000  0.49970400  1
  Cu  Cu13  1  0.66666667  0.33333333  0.33613533  1
  Cu  Cu14  1  0.66666667  0.33333333  0.83303733  1
  Ni  Ni15  1  0.33333333  0.66666667  0.80832667  1
  Ni  Ni16  1  0.00000000  0.00000000  0.14166000  1
  Ni  Ni17  1  0.66666667  0.33333333  0.47499333  1
  P  P18  1  0.70976233  0.70894867  0.24924067  1
  P  P19  1  0.29105133  0.00081367  0.24924067  1
  P  P20  1  0.99918633  0.29023767  0.24924067  1
  P  P21  1  0.66744600  0.04280900  0.08310500  1
  P  P22  1  0.37536300  0.33255400  0.08310500  1
  P  P23  1  0.95719100  0.62463700  0.08310500  1
  P  P24  1  0.37642900  0.04228200  0.58257400  1
  P  P25  1  0.95771800  0.33414700  0.58257400  1
  P  P26  1  0.66585300  0.62357100  0.58257400  1
  P  P27  1  0.33411267  0.37614233  0.41643833  1
  P  P28  1  0.04202967  0.66588733  0.41643833  1
  P  P29  1  0.62385767  0.95797033  0.41643833  1
  P  P30  1  0.04309567  0.37561533  0.91590733  1
  P  P31  1  0.62438467  0.66748033  0.91590733  1
  P  P32  1  0.33251967  0.95690433  0.91590733  1
  P  P33  1  0.00077933  0.70947567  0.74977167  1
  P  P34  1  0.70869633  0.99922067  0.74977167  1
  P  P35  1  0.29052433  0.29130367  0.74977167  1
  O  O36  1  0.52734333  0.67189567  0.97777667  1
  O  O37  1  0.32810433  0.85544767  0.97777667  1
  O  O38  1  0.14455233  0.47265667  0.97777667  1
  O  O39  1  0.68540900  0.51572000  0.25479500  1
  O  O40  1  0.79374200  0.80471000  0.18845000  1
  O  O41  1  0.51277567  0.67981833  0.25046433  1
  O  O42  1  0.48428000  0.16968900  0.25479500  1
  O  O43  1  0.32018167  0.83295733  0.25046433  1
  O  O44  1  0.66288267  0.14128433  0.14411533  1
  O  O45  1  0.16704267  0.48722433  0.25046433  1
  O  O46  1  0.83538133  0.02808867  0.07486167  1
  O  O47  1  0.47840167  0.33711733  0.14411533  1
  O  O48  1  0.19529000  0.98903200  0.18845000  1
  O  O49  1  0.83031100  0.31459100  0.25479500  1
  O  O50  1  0.49368200  0.85447400  0.08623000  1
  O  O51  1  0.01096800  0.20625800  0.18845000  1
  O  O52  1  0.36079200  0.50631800  0.08623000  1
  O  O53  1  0.19270733  0.16461867  0.07486167  1
  O  O54  1  0.14552600  0.63920800  0.08623000  1
  O  O55  1  0.85871567  0.52159833  0.14411533  1
  O  O56  1  0.97191133  0.80729267  0.07486167  1
  O  O57  1  0.51790033  0.84417767  0.35698467  1
  O  O58  1  0.32627733  0.48209967  0.35698467  1
  O  O59  1  0.15582233  0.67372267  0.35698467  1
  O  O60  1  0.19401000  0.00522900  0.31111000  1
  O  O61  1  0.99477100  0.18878100  0.31111000  1
  O  O62  1  0.81121900  0.80599000  0.31111000  1
  O  O63  1  0.35207567  0.84905333  0.58812833  1
  O  O64  1  0.46040867  0.13804333  0.52178333  1
  O  O65  1  0.17944233  0.01315167  0.58379767  1
  O  O66  1  0.15094667  0.50302233  0.58812833  1
  O  O67  1  0.98684833  0.16629067  0.58379767  1
  O  O68  1  0.32954933  0.47461767  0.47744867  1
  O  O69  1  0.83370933  0.82055767  0.58379767  1
  O  O70  1  0.50204800  0.36142200  0.40819500  1
  O  O71  1  0.14506833  0.67045067  0.47744867  1
  O  O72  1  0.86195667  0.32236533  0.52178333  1
  O  O73  1  0.49697767  0.64792433  0.58812833  1
  O  O74  1  0.16034867  0.18780733  0.41956333  1
  O  O75  1  0.67763467  0.53959133  0.52178333  1
  O  O76  1  0.02745867  0.83965133  0.41956333  1
  O  O77  1  0.85937400  0.49795200  0.40819500  1
  O  O78  1  0.81219267  0.97254133  0.41956333  1
  O  O79  1  0.52538233  0.85493167  0.47744867  1
  O  O80  1  0.63857800  0.14062600  0.40819500  1
  O  O81  1  0.18456700  0.17751100  0.69031800  1
  O  O82  1  0.99294400  0.81543300  0.69031800  1
  O  O83  1  0.82248900  0.00705600  0.69031800  1
  O  O84  1  0.86067667  0.33856233  0.64444333  1
  O  O85  1  0.66143767  0.52211433  0.64444333  1
  O  O86  1  0.47788567  0.13932333  0.64444333  1
  O  O87  1  0.01874233  0.18238667  0.92146167  1
  O  O88  1  0.12707533  0.47137667  0.85511667  1
  O  O89  1  0.84610900  0.34648500  0.91713100  1
  O  O90  1  0.81761333  0.83635567  0.92146167  1
  O  O91  1  0.65351500  0.49962400  0.91713100  1
  O  O92  1  0.99621600  0.80795100  0.81078200  1
  O  O93  1  0.50037600  0.15389100  0.91713100  1
  O  O94  1  0.16871467  0.69475533  0.74152833  1
  O  O95  1  0.81173500  0.00378400  0.81078200  1
  O  O96  1  0.52862333  0.65569867  0.85511667  1
  O  O97  1  0.16364433  0.98125767  0.92146167  1
  O  O98  1  0.82701533  0.52114067  0.75289667  1
  O  O99  1  0.34430133  0.87292467  0.85511667  1
  O  O100  1  0.69412533  0.17298467  0.75289667  1
  O  O101  1  0.52604067  0.83128533  0.74152833  1
  O  O102  1  0.47885933  0.30587467  0.75289667  1
  O  O103  1  0.19204900  0.18826500  0.81078200  1
  O  O104  1  0.30524467  0.47395933  0.74152833  1
  O  O105  1  0.85123367  0.51084433  0.02365133  1
  O  O106  1  0.65961067  0.14876633  0.02365133  1
  O  O107  1  0.48915567  0.34038933  0.02365133  1
