# generated using pymatgen
data_Mn3Cr2Cu(PO4)6
_symmetry_space_group_name_H-M   'P 1'
_cell_length_a   8.61841810
_cell_length_b   8.61841810
_cell_length_c   20.33933230
_cell_angle_alpha   90.00000000
_cell_angle_beta   90.00000000
_cell_angle_gamma   120.00000000
_symmetry_Int_Tables_number   1
_chemical_formula_structural   Mn3Cr2Cu(PO4)6
_chemical_formula_sum   'Mn9 Cr6 Cu3 P18 O72'
_cell_volume   1308.34548814
_cell_formula_units_Z   3
loop_
 _symmetry_equiv_pos_site_id
 _symmetry_equiv_pos_as_xyz
  1  'x, y, z'
loop_
 _atom_site_type_symbol
 _atom_site_label
 _atom_site_symmetry_multiplicity
 _atom_site_fract_x
 _atom_site_fract_y
 _atom_site_fract_z
 _atom_site_occupancy
  Mn  Mn0  1  0.33333333  0.66666667  0.52325267  1
  Mn  Mn1  1  0.33333333  0.66666667  0.31078767  1
  Mn  Mn2  1  0.33333333  0.66666667  0.02214567  1
  Mn  Mn3  1  0.00000000  0.00000000  0.85658600  1
  Mn  Mn4  1  0.00000000  0.00000000  0.64412100  1
  Mn  Mn5  1  0.00000000  0.00000000  0.35547900  1
  Mn  Mn6  1  0.66666667  0.33333333  0.18991933  1
  Mn  Mn7  1  0.66666667  0.33333333  0.97745433  1
  Mn  Mn8  1  0.66666667  0.33333333  0.68881233  1
  Cr  Cr9  1  0.33333333  0.66666667  0.66862067  1
  Cr  Cr10  1  0.33333333  0.66666667  0.16672767  1
  Cr  Cr11  1  0.00000000  0.00000000  0.00195400  1
  Cr  Cr12  1  0.00000000  0.00000000  0.50006100  1
  Cr  Cr13  1  0.66666667  0.33333333  0.33528733  1
  Cr  Cr14  1  0.66666667  0.33333333  0.83339433  1
  Cu  Cu15  1  0.33333333  0.66666667  0.81269367  1
  Cu  Cu16  1  0.00000000  0.00000000  0.14602700  1
  Cu  Cu17  1  0.66666667  0.33333333  0.47936033  1
  P  P18  1  0.70294000  0.70222900  0.24963000  1
  P  P19  1  0.29777100  0.00071100  0.24963000  1
  P  P20  1  0.99928900  0.29706000  0.24963000  1
  P  P21  1  0.66772633  0.03834967  0.08312967  1
  P  P22  1  0.37062333  0.33227367  0.08312967  1
  P  P23  1  0.96165033  0.62937667  0.08312967  1
  P  P24  1  0.36960667  0.03556233  0.58296333  1
  P  P25  1  0.96443767  0.33404433  0.58296333  1
  P  P26  1  0.66595567  0.63039333  0.58296333  1
  P  P27  1  0.33439300  0.37168300  0.41646300  1
  P  P28  1  0.03729000  0.66560700  0.41646300  1
  P  P29  1  0.62831700  0.96271000  0.41646300  1
  P  P30  1  0.03627333  0.36889567  0.91629667  1
  P  P31  1  0.63110433  0.66737767  0.91629667  1
  P  P32  1  0.33262233  0.96372667  0.91629667  1
  P  P33  1  0.00105967  0.70501633  0.74979633  1
  P  P34  1  0.70395667  0.99894033  0.74979633  1
  P  P35  1  0.29498367  0.29604333  0.74979633  1
  O  O36  1  0.53539167  0.86005433  0.35416233  1
  O  O37  1  0.32466267  0.46460833  0.35416233  1
  O  O38  1  0.67556000  0.50909300  0.26176900  1
  O  O39  1  0.13994567  0.67533733  0.35416233  1
  O  O40  1  0.79488667  0.79115233  0.18607933  1
  O  O41  1  0.50828000  0.67686500  0.24053100  1
  O  O42  1  0.49090700  0.16646700  0.26176900  1
  O  O43  1  0.32313500  0.83141500  0.24053100  1
  O  O44  1  0.67118467  0.13472433  0.14587333  1
  O  O45  1  0.16858500  0.49172000  0.24053100  1
  O  O46  1  0.83250633  0.01213667  0.07095567  1
  O  O47  1  0.46353967  0.32881533  0.14587333  1
  O  O48  1  0.20884767  0.00373433  0.18607933  1
  O  O49  1  0.83353300  0.32444000  0.26176900  1
  O  O50  1  0.49857767  0.84489733  0.09397133  1
  O  O51  1  0.99626567  0.20511333  0.18607933  1
  O  O52  1  0.34631967  0.50142233  0.09397133  1
  O  O53  1  0.17963033  0.16749367  0.07095567  1
  O  O54  1  0.15510267  0.65368033  0.09397133  1
  O  O55  1  0.86527567  0.53646033  0.14587333  1
  O  O56  1  0.53206567  0.66185233  0.97915533  1
  O  O57  1  0.98786333  0.82036967  0.07095567  1
  O  O58  1  0.33814767  0.87021333  0.97915533  1
  O  O59  1  0.12978667  0.46793433  0.97915533  1
  O  O60  1  0.20205833  0.19338767  0.68749567  1
  O  O61  1  0.99132933  0.79794167  0.68749567  1
  O  O62  1  0.34222667  0.84242633  0.59510233  1
  O  O63  1  0.80661233  0.00867067  0.68749567  1
  O  O64  1  0.46155333  0.12448567  0.51941267  1
  O  O65  1  0.17494667  0.01019833  0.57386433  1
  O  O66  1  0.15757367  0.49980033  0.59510233  1
  O  O67  1  0.98980167  0.16474833  0.57386433  1
  O  O68  1  0.33785133  0.46805767  0.47920667  1
  O  O69  1  0.83525167  0.82505333  0.57386433  1
  O  O70  1  0.49917300  0.34547000  0.40428900  1
  O  O71  1  0.13020633  0.66214867  0.47920667  1
  O  O72  1  0.87551433  0.33706767  0.51941267  1
  O  O73  1  0.50019967  0.65777333  0.59510233  1
  O  O74  1  0.16524433  0.17823067  0.42730467  1
  O  O75  1  0.66293233  0.53844667  0.51941267  1
  O  O76  1  0.01298633  0.83475567  0.42730467  1
  O  O77  1  0.84629700  0.50082700  0.40428900  1
  O  O78  1  0.82176933  0.98701367  0.42730467  1
  O  O79  1  0.53194233  0.86979367  0.47920667  1
  O  O80  1  0.19873233  0.99518567  0.31248867  1
  O  O81  1  0.65453000  0.15370300  0.40428900  1
  O  O82  1  0.00481433  0.20354667  0.31248867  1
  O  O83  1  0.79645333  0.80126767  0.31248867  1
  O  O84  1  0.86872500  0.52672100  0.02082900  1
  O  O85  1  0.65799600  0.13127500  0.02082900  1
  O  O86  1  0.00889333  0.17575967  0.92843567  1
  O  O87  1  0.47327900  0.34200400  0.02082900  1
  O  O88  1  0.12822000  0.45781900  0.85274600  1
  O  O89  1  0.84161333  0.34353167  0.90719767  1
  O  O90  1  0.82424033  0.83313367  0.92843567  1
  O  O91  1  0.65646833  0.49808167  0.90719767  1
  O  O92  1  0.00451800  0.80139100  0.81254000  1
  O  O93  1  0.50191833  0.15838667  0.90719767  1
  O  O94  1  0.16583967  0.67880333  0.73762233  1
  O  O95  1  0.79687300  0.99548200  0.81254000  1
  O  O96  1  0.54218100  0.67040100  0.85274600  1
  O  O97  1  0.16686633  0.99110667  0.92843567  1
  O  O98  1  0.83191100  0.51156400  0.76063800  1
  O  O99  1  0.32959900  0.87178000  0.85274600  1
  O  O100  1  0.67965300  0.16808900  0.76063800  1
  O  O101  1  0.51296367  0.83416033  0.73762233  1
  O  O102  1  0.48843600  0.32034700  0.76063800  1
  O  O103  1  0.19860900  0.20312700  0.81254000  1
  O  O104  1  0.86539900  0.32851900  0.64582200  1
  O  O105  1  0.32119667  0.48703633  0.73762233  1
  O  O106  1  0.67148100  0.53688000  0.64582200  1
  O  O107  1  0.46312000  0.13460100  0.64582200  1
