# generated using pymatgen
data_Li6Mn(OF2)2
_symmetry_space_group_name_H-M   'P 1'
_cell_length_a   7.07222200
_cell_length_b   8.41839000
_cell_length_c   11.04768801
_cell_angle_alpha   90.00000000
_cell_angle_beta   108.41120450
_cell_angle_gamma   90.00000000
_symmetry_Int_Tables_number   1
_chemical_formula_structural   Li6Mn(OF2)2
_chemical_formula_sum   'Li24 Mn4 O8 F16'
_cell_volume   624.07607559
_cell_formula_units_Z   4
loop_
 _symmetry_equiv_pos_site_id
 _symmetry_equiv_pos_as_xyz
  1  'x, y, z'
loop_
 _atom_site_type_symbol
 _atom_site_label
 _atom_site_symmetry_multiplicity
 _atom_site_fract_x
 _atom_site_fract_y
 _atom_site_fract_z
 _atom_site_occupancy
  Li  Li0  1  0.16137250  0.84191050  0.81321000  1
  Li  Li1  1  0.68867150  0.28649950  0.33379500  1
  Li  Li2  1  0.51277350  0.15560550  0.99261000  1
  Li  Li3  1  0.48722650  0.15560550  0.50739000  1
  Li  Li4  1  0.16137250  0.15808950  0.31321000  1
  Li  Li5  1  0.68867150  0.71350050  0.83379500  1
  Li  Li6  1  0.31132850  0.28649950  0.16620500  1
  Li  Li7  1  0.83862750  0.84191050  0.68679000  1
  Li  Li8  1  0.51277350  0.84439450  0.49261000  1
  Li  Li9  1  0.48722650  0.84439450  0.00739000  1
  Li  Li10  1  0.31132850  0.71350050  0.66620500  1
  Li  Li11  1  0.83862750  0.15808950  0.18679000  1
  Li  Li12  1  0.66137250  0.34191050  0.81321000  1
  Li  Li13  1  0.18867150  0.78649950  0.33379500  1
  Li  Li14  1  0.01277350  0.65560550  0.99261000  1
  Li  Li15  1  0.98722650  0.65560550  0.50739000  1
  Li  Li16  1  0.66137250  0.65808950  0.31321000  1
  Li  Li17  1  0.18867150  0.21350050  0.83379500  1
  Li  Li18  1  0.81132850  0.78649950  0.16620500  1
  Li  Li19  1  0.33862750  0.34191050  0.68679000  1
  Li  Li20  1  0.01277350  0.34439450  0.49261000  1
  Li  Li21  1  0.98722650  0.34439450  0.00739000  1
  Li  Li22  1  0.81132850  0.21350050  0.66620500  1
  Li  Li23  1  0.33862750  0.65808950  0.18679000  1
  Mn  Mn24  1  0.00000000  0.00000000  0.00000000  1
  Mn  Mn25  1  0.00000000  0.00000000  0.50000000  1
  Mn  Mn26  1  0.50000000  0.50000000  0.00000000  1
  Mn  Mn27  1  0.50000000  0.50000000  0.50000000  1
  O  O28  1  0.56462400  0.32664300  0.62948400  1
  O  O29  1  0.43537600  0.32664300  0.87051600  1
  O  O30  1  0.56462400  0.67335700  0.12948400  1
  O  O31  1  0.43537600  0.67335700  0.37051600  1
  O  O32  1  0.06462400  0.82664300  0.62948400  1
  O  O33  1  0.93537600  0.82664300  0.87051600  1
  O  O34  1  0.06462400  0.17335700  0.12948400  1
  O  O35  1  0.93537600  0.17335700  0.37051600  1
  F  F36  1  0.58042150  0.27671650  0.15023900  1
  F  F37  1  0.41957850  0.27671650  0.34976100  1
  F  F38  1  0.70708400  0.98775700  0.06659400  1
  F  F39  1  0.70708400  0.01224300  0.56659400  1
  F  F40  1  0.29291600  0.98775700  0.43340600  1
  F  F41  1  0.29291600  0.01224300  0.93340600  1
  F  F42  1  0.58042150  0.72328350  0.65023900  1
  F  F43  1  0.41957850  0.72328350  0.84976100  1
  F  F44  1  0.08042150  0.77671650  0.15023900  1
  F  F45  1  0.91957850  0.77671650  0.34976100  1
  F  F46  1  0.20708400  0.48775700  0.06659400  1
  F  F47  1  0.20708400  0.51224300  0.56659400  1
  F  F48  1  0.79291600  0.48775700  0.43340600  1
  F  F49  1  0.79291600  0.51224300  0.93340600  1
  F  F50  1  0.08042150  0.22328350  0.65023900  1
  F  F51  1  0.91957850  0.22328350  0.84976100  1
