# generated using pymatgen
data_LiCuPO4
_symmetry_space_group_name_H-M   'P 1'
_cell_length_a   17.36632400
_cell_length_b   9.85284000
_cell_length_c   16.38568839
_cell_angle_alpha   90.00000000
_cell_angle_beta   98.98501996
_cell_angle_gamma   90.00000000
_symmetry_Int_Tables_number   1
_chemical_formula_structural   LiCuPO4
_chemical_formula_sum   'Li32 Cu32 P32 O128'
_cell_volume   2769.31218877
_cell_formula_units_Z   32
loop_
 _symmetry_equiv_pos_site_id
 _symmetry_equiv_pos_as_xyz
  1  'x, y, z'
loop_
 _atom_site_type_symbol
 _atom_site_label
 _atom_site_symmetry_multiplicity
 _atom_site_fract_x
 _atom_site_fract_y
 _atom_site_fract_z
 _atom_site_occupancy
  Li  Li0  1  0.57639200  0.69375100  0.87269900  1
  Li  Li1  1  0.60771150  0.16319150  0.87389900  1
  Li  Li2  1  0.57639200  0.30624900  0.37269900  1
  Li  Li3  1  0.60771150  0.83680850  0.37389900  1
  Li  Li4  1  0.66414000  0.66067400  0.62273700  1
  Li  Li5  1  0.69579450  0.18688950  0.62123000  1
  Li  Li6  1  0.66414000  0.33932600  0.12273700  1
  Li  Li7  1  0.69579450  0.81311050  0.12123000  1
  Li  Li8  1  0.82645150  0.44636850  0.87367300  1
  Li  Li9  1  0.85680300  0.91368500  0.87193600  1
  Li  Li10  1  0.82645150  0.55363150  0.37367300  1
  Li  Li11  1  0.85680300  0.08631500  0.37193600  1
  Li  Li12  1  0.91594200  0.91057600  0.62136100  1
  Li  Li13  1  0.94374300  0.43838600  0.62125400  1
  Li  Li14  1  0.91594200  0.08942400  0.12136100  1
  Li  Li15  1  0.94374300  0.56161400  0.12125400  1
  Li  Li16  1  0.07639200  0.19375100  0.87269900  1
  Li  Li17  1  0.10771150  0.66319150  0.87389900  1
  Li  Li18  1  0.07639200  0.80624900  0.37269900  1
  Li  Li19  1  0.10771150  0.33680850  0.37389900  1
  Li  Li20  1  0.16414000  0.16067400  0.62273700  1
  Li  Li21  1  0.19579450  0.68688950  0.62123000  1
  Li  Li22  1  0.16414000  0.83932600  0.12273700  1
  Li  Li23  1  0.19579450  0.31311050  0.12123000  1
  Li  Li24  1  0.32645150  0.94636850  0.87367300  1
  Li  Li25  1  0.35680300  0.41368500  0.87193600  1
  Li  Li26  1  0.32645150  0.05363150  0.37367300  1
  Li  Li27  1  0.35680300  0.58631500  0.37193600  1
  Li  Li28  1  0.41594200  0.41057600  0.62136100  1
  Li  Li29  1  0.44374300  0.93838600  0.62125400  1
  Li  Li30  1  0.41594200  0.58942400  0.12136100  1
  Li  Li31  1  0.44374300  0.06161400  0.12125400  1
  Cu  Cu32  1  0.50571400  0.30938400  0.99793400  1
  Cu  Cu33  1  0.50571400  0.69061600  0.49793400  1
  Cu  Cu34  1  0.63951650  0.93980850  0.74797700  1
  Cu  Cu35  1  0.66490250  0.41137450  0.75116300  1
  Cu  Cu36  1  0.72797550  0.58600750  0.99959600  1
  Cu  Cu37  1  0.63951650  0.06019150  0.24797700  1
  Cu  Cu38  1  0.75662200  0.05821800  0.99741900  1
  Cu  Cu39  1  0.66490250  0.58862550  0.25116300  1
  Cu  Cu40  1  0.72797550  0.41399250  0.49959600  1
  Cu  Cu41  1  0.75662200  0.94178200  0.49741900  1
  Cu  Cu42  1  0.88703250  0.68553350  0.74808200  1
  Cu  Cu43  1  0.91759250  0.16471250  0.74972100  1
  Cu  Cu44  1  0.97807350  0.33776050  0.99857300  1
  Cu  Cu45  1  0.88703250  0.31446650  0.24808200  1
  Cu  Cu46  1  0.91759250  0.83528750  0.24972100  1
  Cu  Cu47  1  0.97807350  0.66223950  0.49857300  1
  Cu  Cu48  1  0.00571400  0.80938400  0.99793400  1
  Cu  Cu49  1  0.00571400  0.19061600  0.49793400  1
  Cu  Cu50  1  0.13951650  0.43980850  0.74797700  1
  Cu  Cu51  1  0.16490250  0.91137450  0.75116300  1
  Cu  Cu52  1  0.22797550  0.08600750  0.99959600  1
  Cu  Cu53  1  0.13951650  0.56019150  0.24797700  1
  Cu  Cu54  1  0.25662200  0.55821800  0.99741900  1
  Cu  Cu55  1  0.16490250  0.08862550  0.25116300  1
  Cu  Cu56  1  0.22797550  0.91399250  0.49959600  1
  Cu  Cu57  1  0.25662200  0.44178200  0.49741900  1
  Cu  Cu58  1  0.38703250  0.18553350  0.74808200  1
  Cu  Cu59  1  0.41759250  0.66471250  0.74972100  1
  Cu  Cu60  1  0.47807350  0.83776050  0.99857300  1
  Cu  Cu61  1  0.38703250  0.81446650  0.24808200  1
  Cu  Cu62  1  0.41759250  0.33528750  0.24972100  1
  Cu  Cu63  1  0.47807350  0.16223950  0.49857300  1
  P  P64  1  0.50726100  0.40674800  0.80840100  1
  P  P65  1  0.50726100  0.59325200  0.30840100  1
  P  P66  1  0.57481300  0.40854000  0.55968200  1
  P  P67  1  0.60313550  0.93853450  0.55922900  1
  P  P68  1  0.57481300  0.59146000  0.05968200  1
  P  P69  1  0.60313550  0.06146550  0.05922900  1
  P  P70  1  0.73026650  0.68589050  0.81008600  1
  P  P71  1  0.75873950  0.15827450  0.80805900  1
  P  P72  1  0.73026650  0.31410950  0.31008600  1
  P  P73  1  0.75873950  0.84172550  0.30805900  1
  P  P74  1  0.82422450  0.65840850  0.56052000  1
  P  P75  1  0.85289200  0.18950800  0.55824600  1
  P  P76  1  0.82422450  0.34159150  0.06052000  1
  P  P77  1  0.85289200  0.81049200  0.05824600  1
  P  P78  1  0.98203350  0.43534750  0.80974900  1
  P  P79  1  0.98203350  0.56465250  0.30974900  1
  P  P80  1  0.00726100  0.90674800  0.80840100  1
  P  P81  1  0.00726100  0.09325200  0.30840100  1
  P  P82  1  0.07481300  0.90854000  0.55968200  1
  P  P83  1  0.10313550  0.43853450  0.55922900  1
  P  P84  1  0.07481300  0.09146000  0.05968200  1
  P  P85  1  0.10313550  0.56146550  0.05922900  1
  P  P86  1  0.23026650  0.18589050  0.81008600  1
  P  P87  1  0.25873950  0.65827450  0.80805900  1
  P  P88  1  0.23026650  0.81410950  0.31008600  1
  P  P89  1  0.25873950  0.34172550  0.30805900  1
  P  P90  1  0.32422450  0.15840850  0.56052000  1
  P  P91  1  0.35289200  0.68950800  0.55824600  1
  P  P92  1  0.32422450  0.84159150  0.06052000  1
  P  P93  1  0.35289200  0.31049200  0.05824600  1
  P  P94  1  0.48203350  0.93534750  0.80974900  1
  P  P95  1  0.48203350  0.06465250  0.30974900  1
  O  O96  1  0.50052800  0.83820900  0.88458300  1
  O  O97  1  0.51566650  0.56191650  0.79677200  1
  O  O98  1  0.55370500  0.02410200  0.79955100  1
  O  O99  1  0.58227900  0.16100300  0.98559000  1
  O  O100  1  0.50052800  0.16179100  0.38458300  1
  O  O101  1  0.53183650  0.02493950  0.57389500  1
  O  O102  1  0.61246900  0.62280100  0.98195000  1
  O  O103  1  0.58952650  0.34044250  0.81803000  1
  O  O104  1  0.51566650  0.43808350  0.29677200  1
  O  O105  1  0.56793450  0.56463850  0.57258300  1
  O  O106  1  0.55370500  0.97589800  0.29955100  1
  O  O107  1  0.58227900  0.83899700  0.48559000  1
  O  O108  1  0.53183650  0.97506050  0.07389500  1
  O  O109  1  0.62880750  0.85183650  0.63830700  1
  O  O110  1  0.62910900  0.35022300  0.63555900  1
  O  O111  1  0.66160600  0.78058000  0.82240300  1
  O  O112  1  0.61246900  0.37719900  0.48195000  1
  O  O113  1  0.58952650  0.65955750  0.31803000  1
  O  O114  1  0.56793450  0.43536150  0.07258300  1
  O  O115  1  0.66970450  0.03377350  0.54160100  1
  O  O116  1  0.72039350  0.12191850  0.88463500  1
  O  O117  1  0.70673300  0.59304200  0.73308800  1
  O  O118  1  0.70503700  0.10022500  0.73093600  1
  O  O119  1  0.62880750  0.14816350  0.13830700  1
  O  O120  1  0.62910900  0.64977700  0.13555900  1
  O  O121  1  0.66160600  0.21942000  0.32240300  1
  O  O122  1  0.75084950  0.59188550  0.88598000  1
  O  O123  1  0.76489350  0.31443050  0.79852600  1
  O  O124  1  0.74105800  0.59748600  0.55057700  1
  O  O125  1  0.66970450  0.96622650  0.04160100  1
  O  O126  1  0.72039350  0.87808150  0.38463500  1
  O  O127  1  0.70673300  0.40695800  0.23308800  1
  O  O128  1  0.70503700  0.89977500  0.23093600  1
  O  O129  1  0.80190950  0.77346250  0.79752100  1
  O  O130  1  0.83203600  0.90891400  0.98399100  1
  O  O131  1  0.75084950  0.40811450  0.38598000  1
  O  O132  1  0.78218750  0.27588350  0.57369700  1
  O  O133  1  0.86244250  0.37658950  0.98370800  1
  O  O134  1  0.84187450  0.09525250  0.81778600  1
  O  O135  1  0.76489350  0.68556950  0.29852600  1
  O  O136  1  0.74105800  0.40251400  0.05057700  1
  O  O137  1  0.81899050  0.81485450  0.57255400  1
  O  O138  1  0.80190950  0.22653750  0.29752100  1
  O  O139  1  0.83203600  0.09108600  0.48399100  1
  O  O140  1  0.78218750  0.72411650  0.07369700  1
  O  O141  1  0.87764450  0.59967750  0.63760300  1
  O  O142  1  0.87848900  0.10087100  0.63617600  1
  O  O143  1  0.86244250  0.62341050  0.48370800  1
  O  O144  1  0.91260550  0.52814850  0.82270500  1
  O  O145  1  0.84187450  0.90474750  0.31778600  1
  O  O146  1  0.81899050  0.18514550  0.07255400  1
  O  O147  1  0.91961650  0.28532650  0.54087800  1
  O  O148  1  0.96962100  0.87519900  0.88617200  1
  O  O149  1  0.95164550  0.84764350  0.73322000  1
  O  O150  1  0.96060500  0.34611800  0.73064700  1
  O  O151  1  0.87764450  0.40032250  0.13760300  1
  O  O152  1  0.87848900  0.89912900  0.13617600  1
  O  O153  1  0.91260550  0.47185150  0.32270500  1
  O  O154  1  0.91961650  0.71467350  0.04087800  1
  O  O155  1  0.99233200  0.84490400  0.55004200  1
  O  O156  1  0.96962100  0.12480100  0.38617200  1
  O  O157  1  0.95164550  0.15235650  0.23322000  1
  O  O158  1  0.96060500  0.65388200  0.23064700  1
  O  O159  1  0.99233200  0.15509600  0.05004200  1
  O  O160  1  0.00052800  0.33820900  0.88458300  1
  O  O161  1  0.01566650  0.06191650  0.79677200  1
  O  O162  1  0.05370500  0.52410200  0.79955100  1
  O  O163  1  0.08227900  0.66100300  0.98559000  1
  O  O164  1  0.00052800  0.66179100  0.38458300  1
  O  O165  1  0.03183650  0.52493950  0.57389500  1
  O  O166  1  0.11246900  0.12280100  0.98195000  1
  O  O167  1  0.08952650  0.84044250  0.81803000  1
  O  O168  1  0.01566650  0.93808350  0.29677200  1
  O  O169  1  0.06793450  0.06463850  0.57258300  1
  O  O170  1  0.05370500  0.47589800  0.29955100  1
  O  O171  1  0.08227900  0.33899700  0.48559000  1
  O  O172  1  0.03183650  0.47506050  0.07389500  1
  O  O173  1  0.12880750  0.35183650  0.63830700  1
  O  O174  1  0.12910900  0.85022300  0.63555900  1
  O  O175  1  0.16160600  0.28058000  0.82240300  1
  O  O176  1  0.11246900  0.87719900  0.48195000  1
  O  O177  1  0.08952650  0.15955750  0.31803000  1
  O  O178  1  0.06793450  0.93536150  0.07258300  1
  O  O179  1  0.16970450  0.53377350  0.54160100  1
  O  O180  1  0.22039350  0.62191850  0.88463500  1
  O  O181  1  0.20673300  0.09304200  0.73308800  1
  O  O182  1  0.20503700  0.60022500  0.73093600  1
  O  O183  1  0.12880750  0.64816350  0.13830700  1
  O  O184  1  0.12910900  0.14977700  0.13555900  1
  O  O185  1  0.16160600  0.71942000  0.32240300  1
  O  O186  1  0.25084950  0.09188550  0.88598000  1
  O  O187  1  0.26489350  0.81443050  0.79852600  1
  O  O188  1  0.24105800  0.09748600  0.55057700  1
  O  O189  1  0.16970450  0.46622650  0.04160100  1
  O  O190  1  0.22039350  0.37808150  0.38463500  1
  O  O191  1  0.20673300  0.90695800  0.23308800  1
  O  O192  1  0.20503700  0.39977500  0.23093600  1
  O  O193  1  0.30190950  0.27346250  0.79752100  1
  O  O194  1  0.33203600  0.40891400  0.98399100  1
  O  O195  1  0.25084950  0.90811450  0.38598000  1
  O  O196  1  0.28218750  0.77588350  0.57369700  1
  O  O197  1  0.36244250  0.87658950  0.98370800  1
  O  O198  1  0.34187450  0.59525250  0.81778600  1
  O  O199  1  0.26489350  0.18556950  0.29852600  1
  O  O200  1  0.24105800  0.90251400  0.05057700  1
  O  O201  1  0.31899050  0.31485450  0.57255400  1
  O  O202  1  0.30190950  0.72653750  0.29752100  1
  O  O203  1  0.33203600  0.59108600  0.48399100  1
  O  O204  1  0.28218750  0.22411650  0.07369700  1
  O  O205  1  0.37764450  0.09967750  0.63760300  1
  O  O206  1  0.37848900  0.60087100  0.63617600  1
  O  O207  1  0.36244250  0.12341050  0.48370800  1
  O  O208  1  0.41260550  0.02814850  0.82270500  1
  O  O209  1  0.34187450  0.40474750  0.31778600  1
  O  O210  1  0.31899050  0.68514550  0.07255400  1
  O  O211  1  0.41961650  0.78532650  0.54087800  1
  O  O212  1  0.46962100  0.37519900  0.88617200  1
  O  O213  1  0.45164550  0.34764350  0.73322000  1
  O  O214  1  0.46060500  0.84611800  0.73064700  1
  O  O215  1  0.37764450  0.90032250  0.13760300  1
  O  O216  1  0.37848900  0.39912900  0.13617600  1
  O  O217  1  0.41260550  0.97185150  0.32270500  1
  O  O218  1  0.41961650  0.21467350  0.04087800  1
  O  O219  1  0.49233200  0.34490400  0.55004200  1
  O  O220  1  0.46962100  0.62480100  0.38617200  1
  O  O221  1  0.45164550  0.65235650  0.23322000  1
  O  O222  1  0.46060500  0.15388200  0.23064700  1
  O  O223  1  0.49233200  0.65509600  0.05004200  1
