# generated using pymatgen
data_Li3V3O3F5
_symmetry_space_group_name_H-M   'P 1'
_cell_length_a   10.58486662
_cell_length_b   6.02298439
_cell_length_c   6.06291788
_cell_angle_alpha   90.00000000
_cell_angle_beta   124.16774124
_cell_angle_gamma   90.00000000
_symmetry_Int_Tables_number   1
_chemical_formula_structural   Li3V3O3F5
_chemical_formula_sum   'Li6 V6 O6 F10'
_cell_volume   319.81049174
_cell_formula_units_Z   2
loop_
 _symmetry_equiv_pos_site_id
 _symmetry_equiv_pos_as_xyz
  1  'x, y, z'
loop_
 _atom_site_type_symbol
 _atom_site_label
 _atom_site_symmetry_multiplicity
 _atom_site_fract_x
 _atom_site_fract_y
 _atom_site_fract_z
 _atom_site_occupancy
  Li  Li0  1  0.50801350  0.50000000  0.98442650  1
  Li  Li1  1  0.88764200  0.50000000  0.64080900  1
  Li  Li2  1  0.73845400  0.00000000  0.24340050  1
  Li  Li3  1  0.00801350  0.00000000  0.98442650  1
  Li  Li4  1  0.38764200  0.00000000  0.64080900  1
  Li  Li5  1  0.23845400  0.50000000  0.24340050  1
  V  V6  1  0.87539600  0.50000000  0.12322850  1
  V  V7  1  0.62730975  0.75896125  0.63790250  1
  V  V8  1  0.62730975  0.24103875  0.63790250  1
  V  V9  1  0.37539600  0.00000000  0.12322850  1
  V  V10  1  0.12730975  0.25896125  0.63790250  1
  V  V11  1  0.12730975  0.74103875  0.63790250  1
  O  O12  1  0.63428650  0.50000000  0.84480950  1
  O  O13  1  0.61518650  0.00000000  0.39776100  1
  O  O14  1  0.61952625  0.00000000  0.84364800  1
  O  O15  1  0.13428650  0.00000000  0.84480950  1
  O  O16  1  0.11518650  0.50000000  0.39776100  1
  O  O17  1  0.11952625  0.50000000  0.84364800  1
  F  F18  1  0.63375800  0.50000000  0.40062750  1
  F  F19  1  0.88441900  0.74080750  0.39165550  1
  F  F20  1  0.88441900  0.25919250  0.39165550  1
  F  F21  1  0.86634375  0.25582325  0.85714050  1
  F  F22  1  0.86634375  0.74417675  0.85714050  1
  F  F23  1  0.13375800  0.00000000  0.40062750  1
  F  F24  1  0.38441900  0.24080750  0.39165550  1
  F  F25  1  0.38441900  0.75919250  0.39165550  1
  F  F26  1  0.36634375  0.75582325  0.85714050  1
  F  F27  1  0.36634375  0.24417675  0.85714050  1
