# generated using pymatgen
data_Li4Ti2Nb3Cr3O16
_symmetry_space_group_name_H-M   'P 1'
_cell_length_a   10.51340200
_cell_length_b   6.00607200
_cell_length_c   9.75156805
_cell_angle_alpha   90.00000000
_cell_angle_beta   90.40535725
_cell_angle_gamma   90.00000000
_symmetry_Int_Tables_number   1
_chemical_formula_structural   Li4Ti2Nb3Cr3O16
_chemical_formula_sum   'Li8 Ti4 Nb6 Cr6 O32'
_cell_volume   615.74003441
_cell_formula_units_Z   2
loop_
 _symmetry_equiv_pos_site_id
 _symmetry_equiv_pos_as_xyz
  1  'x, y, z'
loop_
 _atom_site_type_symbol
 _atom_site_label
 _atom_site_symmetry_multiplicity
 _atom_site_fract_x
 _atom_site_fract_y
 _atom_site_fract_z
 _atom_site_occupancy
  Li  Li0  1  0.66738700  0.00000000  0.09552800  1
  Li  Li1  1  0.50988700  0.50000000  0.00742300  1
  Li  Li2  1  0.50621800  0.50000000  0.50463400  1
  Li  Li3  1  0.83404000  0.50000000  0.61389900  1
  Li  Li4  1  0.16738700  0.50000000  0.09552800  1
  Li  Li5  1  0.00988700  0.00000000  0.00742300  1
  Li  Li6  1  0.00621800  0.00000000  0.50463400  1
  Li  Li7  1  0.33404000  0.00000000  0.61389900  1
  Ti  Ti8  1  0.66280400  0.00000000  0.51153400  1
  Ti  Ti9  1  0.82918400  0.50000000  0.00373500  1
  Ti  Ti10  1  0.16280400  0.50000000  0.51153400  1
  Ti  Ti11  1  0.32918400  0.00000000  0.00373500  1
  Nb  Nb12  1  0.83238300  0.00000000  0.78204500  1
  Nb  Nb13  1  0.91201200  0.27461700  0.28669200  1
  Nb  Nb14  1  0.91201200  0.72538300  0.28669200  1
  Nb  Nb15  1  0.33238300  0.50000000  0.78204500  1
  Nb  Nb16  1  0.41201200  0.77461700  0.28669200  1
  Nb  Nb17  1  0.41201200  0.22538300  0.28669200  1
  Cr  Cr18  1  0.58593500  0.75566600  0.78564600  1
  Cr  Cr19  1  0.58593500  0.24433400  0.78564600  1
  Cr  Cr20  1  0.66552400  0.50000000  0.28901600  1
  Cr  Cr21  1  0.08593500  0.25566600  0.78564600  1
  Cr  Cr22  1  0.08593500  0.74433400  0.78564600  1
  Cr  Cr23  1  0.16552400  0.00000000  0.28901600  1
  O  O24  1  0.58077950  0.75375450  0.40315300  1
  O  O25  1  0.52376000  0.00000000  0.65896300  1
  O  O26  1  0.66996100  0.00000000  0.89369600  1
  O  O27  1  0.50316300  0.50000000  0.68869100  1
  O  O28  1  0.50167300  0.50000000  0.19168500  1
  O  O29  1  0.58077950  0.24624550  0.40315300  1
  O  O30  1  0.74008000  0.78016200  0.65907800  1
  O  O31  1  0.74008000  0.21983800  0.65907800  1
  O  O32  1  0.66949200  0.50000000  0.90237700  1
  O  O33  1  0.83141000  0.00000000  0.40862800  1
  O  O34  1  0.76140600  0.28105800  0.15884900  1
  O  O35  1  0.76140600  0.71894200  0.15884900  1
  O  O36  1  0.81851500  0.50000000  0.41376100  1
  O  O37  1  0.91535300  0.24583700  0.90025500  1
  O  O38  1  0.98389800  0.50000000  0.13919200  1
  O  O39  1  0.91535300  0.75416300  0.90025500  1
  O  O40  1  0.08077950  0.25375450  0.40315300  1
  O  O41  1  0.02376000  0.50000000  0.65896300  1
  O  O42  1  0.16996100  0.50000000  0.89369600  1
  O  O43  1  0.00316300  0.00000000  0.68869100  1
  O  O44  1  0.00167300  0.00000000  0.19168500  1
  O  O45  1  0.08077950  0.74624550  0.40315300  1
  O  O46  1  0.24008000  0.28016200  0.65907800  1
  O  O47  1  0.24008000  0.71983800  0.65907800  1
  O  O48  1  0.16949200  0.00000000  0.90237700  1
  O  O49  1  0.33141000  0.50000000  0.40862800  1
  O  O50  1  0.26140600  0.78105800  0.15884900  1
  O  O51  1  0.26140600  0.21894200  0.15884900  1
  O  O52  1  0.31851500  0.00000000  0.41376100  1
  O  O53  1  0.41535300  0.74583700  0.90025500  1
  O  O54  1  0.48389800  0.00000000  0.13919200  1
  O  O55  1  0.41535300  0.25416300  0.90025500  1
