# generated using pymatgen
data_Li11Fe6F29
_symmetry_space_group_name_H-M   'P 1'
_cell_length_a   27.78868400
_cell_length_b   5.55034000
_cell_length_c   7.45014231
_cell_angle_alpha   90.00000000
_cell_angle_beta   90.39417516
_cell_angle_gamma   90.00000000
_symmetry_Int_Tables_number   1
_chemical_formula_structural   Li11Fe6F29
_chemical_formula_sum   'Li22 Fe12 F58'
_cell_volume   1149.05775638
_cell_formula_units_Z   2
loop_
 _symmetry_equiv_pos_site_id
 _symmetry_equiv_pos_as_xyz
  1  'x, y, z'
loop_
 _atom_site_type_symbol
 _atom_site_label
 _atom_site_symmetry_multiplicity
 _atom_site_fract_x
 _atom_site_fract_y
 _atom_site_fract_z
 _atom_site_occupancy
  Li  Li0  1  0.55939300  0.00000000  0.45458700  1
  Li  Li1  1  0.59413100  0.50000000  0.59912600  1
  Li  Li2  1  0.67670300  0.00000000  0.94819700  1
  Li  Li3  1  0.65565100  0.00000000  0.41845200  1
  Li  Li4  1  0.72749300  0.50000000  0.08340300  1
  Li  Li5  1  0.77250700  0.00000000  0.91659700  1
  Li  Li6  1  0.84434900  0.50000000  0.58154800  1
  Li  Li7  1  0.82329700  0.50000000  0.05180300  1
  Li  Li8  1  0.90586900  0.00000000  0.40087400  1
  Li  Li9  1  0.94060700  0.50000000  0.54541300  1
  Li  Li10  1  0.00000000  0.00000000  0.00000000  1
  Li  Li11  1  0.05939300  0.50000000  0.45458700  1
  Li  Li12  1  0.09413100  0.00000000  0.59912600  1
  Li  Li13  1  0.17670300  0.50000000  0.94819700  1
  Li  Li14  1  0.15565100  0.50000000  0.41845200  1
  Li  Li15  1  0.22749300  0.00000000  0.08340300  1
  Li  Li16  1  0.27250700  0.50000000  0.91659700  1
  Li  Li17  1  0.34434900  0.00000000  0.58154800  1
  Li  Li18  1  0.32329700  0.00000000  0.05180300  1
  Li  Li19  1  0.40586900  0.50000000  0.40087400  1
  Li  Li20  1  0.44060700  0.00000000  0.54541300  1
  Li  Li21  1  0.50000000  0.50000000  0.00000000  1
  Fe  Fe22  1  0.56307400  0.00000000  0.84121200  1
  Fe  Fe23  1  0.59748800  0.50000000  0.19418500  1
  Fe  Fe24  1  0.73109300  0.50000000  0.68079900  1
  Fe  Fe25  1  0.76890700  0.00000000  0.31920100  1
  Fe  Fe26  1  0.90251200  0.00000000  0.80581500  1
  Fe  Fe27  1  0.93692600  0.50000000  0.15878800  1
  Fe  Fe28  1  0.06307400  0.50000000  0.84121200  1
  Fe  Fe29  1  0.09748800  0.00000000  0.19418500  1
  Fe  Fe30  1  0.23109300  0.00000000  0.68079900  1
  Fe  Fe31  1  0.26890700  0.50000000  0.31920100  1
  Fe  Fe32  1  0.40251200  0.50000000  0.80581500  1
  Fe  Fe33  1  0.43692600  0.00000000  0.15878800  1
  F  F34  1  0.54749100  0.22999900  0.65573000  1
  F  F35  1  0.54749100  0.77000100  0.65573000  1
  F  F36  1  0.52987300  0.50000000  0.22740900  1
  F  F37  1  0.58262350  0.25879950  0.00259700  1
  F  F38  1  0.58262350  0.74120050  0.00259700  1
  F  F39  1  0.62951200  0.00000000  0.75990200  1
  F  F40  1  0.60624750  0.24492750  0.37553700  1
  F  F41  1  0.60624750  0.75507250  0.37553700  1
  F  F42  1  0.66291700  0.50000000  0.12964700  1
  F  F43  1  0.66545900  0.50000000  0.61569100  1
  F  F44  1  0.72132550  0.24836650  0.86238700  1
  F  F45  1  0.72132550  0.75163350  0.86238700  1
  F  F46  1  0.70056700  0.00000000  0.22957100  1
  F  F47  1  0.75000000  0.25000000  0.50000000  1
  F  F48  1  0.75000000  0.75000000  0.50000000  1
  F  F49  1  0.79943300  0.50000000  0.77042900  1
  F  F50  1  0.77867450  0.74836650  0.13761300  1
  F  F51  1  0.77867450  0.25163350  0.13761300  1
  F  F52  1  0.83454100  0.00000000  0.38430900  1
  F  F53  1  0.83708300  0.00000000  0.87035300  1
  F  F54  1  0.89375250  0.25507250  0.62446300  1
  F  F55  1  0.89375250  0.74492750  0.62446300  1
  F  F56  1  0.87048800  0.50000000  0.24009800  1
  F  F57  1  0.91737650  0.24120050  0.99740300  1
  F  F58  1  0.91737650  0.75879950  0.99740300  1
  F  F59  1  0.97012700  0.00000000  0.77259100  1
  F  F60  1  0.95250900  0.27000100  0.34427000  1
  F  F61  1  0.95250900  0.72999900  0.34427000  1
  F  F62  1  0.00000000  0.50000000  0.00000000  1
  F  F63  1  0.04749100  0.72999900  0.65573000  1
  F  F64  1  0.04749100  0.27000100  0.65573000  1
  F  F65  1  0.02987300  0.00000000  0.22740900  1
  F  F66  1  0.08262350  0.75879950  0.00259700  1
  F  F67  1  0.08262350  0.24120050  0.00259700  1
  F  F68  1  0.12951200  0.50000000  0.75990200  1
  F  F69  1  0.10624750  0.74492750  0.37553700  1
  F  F70  1  0.10624750  0.25507250  0.37553700  1
  F  F71  1  0.16291700  0.00000000  0.12964700  1
  F  F72  1  0.16545900  0.00000000  0.61569100  1
  F  F73  1  0.22132550  0.74836650  0.86238700  1
  F  F74  1  0.22132550  0.25163350  0.86238700  1
  F  F75  1  0.20056700  0.50000000  0.22957100  1
  F  F76  1  0.25000000  0.75000000  0.50000000  1
  F  F77  1  0.25000000  0.25000000  0.50000000  1
  F  F78  1  0.29943300  0.00000000  0.77042900  1
  F  F79  1  0.27867450  0.24836650  0.13761300  1
  F  F80  1  0.27867450  0.75163350  0.13761300  1
  F  F81  1  0.33454100  0.50000000  0.38430900  1
  F  F82  1  0.33708300  0.50000000  0.87035300  1
  F  F83  1  0.39375250  0.75507250  0.62446300  1
  F  F84  1  0.39375250  0.24492750  0.62446300  1
  F  F85  1  0.37048800  0.00000000  0.24009800  1
  F  F86  1  0.41737650  0.74120050  0.99740300  1
  F  F87  1  0.41737650  0.25879950  0.99740300  1
  F  F88  1  0.47012700  0.50000000  0.77259100  1
  F  F89  1  0.45250900  0.77000100  0.34427000  1
  F  F90  1  0.45250900  0.22999900  0.34427000  1
  F  F91  1  0.50000000  0.00000000  0.00000000  1
