# generated using pymatgen
data_Na2LiMnPCO7
_symmetry_space_group_name_H-M   'P 1'
_cell_length_a   5.17723258
_cell_length_b   6.80434075
_cell_length_c   8.90182768
_cell_angle_alpha   92.40644113
_cell_angle_beta   91.56128590
_cell_angle_gamma   90.13001155
_symmetry_Int_Tables_number   1
_chemical_formula_structural   Na2LiMnPCO7
_chemical_formula_sum   'Na4 Li2 Mn2 P2 C2 O14'
_cell_volume   313.19581504
_cell_formula_units_Z   2
loop_
 _symmetry_equiv_pos_site_id
 _symmetry_equiv_pos_as_xyz
  1  'x, y, z'
loop_
 _atom_site_type_symbol
 _atom_site_label
 _atom_site_symmetry_multiplicity
 _atom_site_fract_x
 _atom_site_fract_y
 _atom_site_fract_z
 _atom_site_occupancy
  Na  Na0  1  0.24379800  0.27053600  0.08697200  1
  Na  Na1  1  0.74542200  0.98450300  0.24481000  1
  Na  Na2  1  0.25358500  0.51075100  0.74639100  1
  Na  Na3  1  0.25014500  0.00064000  0.74774500  1
  Li  Li4  1  0.77253300  0.45155200  0.29057400  1
  Li  Li5  1  0.76483500  0.73635100  0.89526000  1
  Mn  Mn6  1  0.77377900  0.25445500  0.64428500  1
  Mn  Mn7  1  0.21443000  0.74134200  0.36113400  1
  P  P8  1  0.27774900  0.24820700  0.41411400  1
  P  P9  1  0.70525500  0.74826800  0.58671000  1
  C  C10  1  0.28364900  0.75209800  0.04546800  1
  C  C11  1  0.73249400  0.26495200  0.94924000  1
  O  O12  1  0.71124200  0.26667700  0.09431500  1
  O  O13  1  0.03468100  0.75875200  0.06015500  1
  O  O14  1  0.43738600  0.73261800  0.16245600  1
  O  O15  1  0.20137100  0.05765300  0.32149700  1
  O  O16  1  0.16410900  0.42301100  0.32594500  1
  O  O17  1  0.58040800  0.26670600  0.42560200  1
  O  O18  1  0.81539000  0.72852900  0.42554500  1
  O  O19  1  0.17388600  0.24913800  0.57579600  1
  O  O20  1  0.40445600  0.74658200  0.57140900  1
  O  O21  1  0.79285800  0.57642800  0.68764000  1
  O  O22  1  0.79597200  0.93942800  0.67432100  1
  O  O23  1  0.52687300  0.26236800  0.86062000  1
  O  O24  1  0.95772100  0.26495700  0.88769100  1
  O  O25  1  0.38597500  0.76349700  0.91431000  1
