# generated using pymatgen
data_Li5Mn4O8
_symmetry_space_group_name_H-M   'P 1'
_cell_length_a   11.25395207
_cell_length_b   5.80729500
_cell_length_c   5.87601610
_cell_angle_alpha   90.00000000
_cell_angle_beta   120.50919947
_cell_angle_gamma   90.00000000
_symmetry_Int_Tables_number   1
_chemical_formula_structural   Li5Mn4O8
_chemical_formula_sum   'Li10 Mn8 O16'
_cell_volume   330.85768982
_cell_formula_units_Z   2
loop_
 _symmetry_equiv_pos_site_id
 _symmetry_equiv_pos_as_xyz
  1  'x, y, z'
loop_
 _atom_site_type_symbol
 _atom_site_label
 _atom_site_symmetry_multiplicity
 _atom_site_fract_x
 _atom_site_fract_y
 _atom_site_fract_z
 _atom_site_occupancy
  Li  Li0  1  0.00000000  0.00000000  0.50000000  1
  Li  Li1  1  0.41745025  0.50000000  0.81313100  1
  Li  Li2  1  0.08254975  0.00000000  0.18686900  1
  Li  Li3  1  0.25000000  0.25000000  0.50000000  1
  Li  Li4  1  0.25000000  0.75000000  0.50000000  1
  Li  Li5  1  0.50000000  0.50000000  0.50000000  1
  Li  Li6  1  0.91745025  0.00000000  0.81313100  1
  Li  Li7  1  0.58254975  0.50000000  0.18686900  1
  Li  Li8  1  0.75000000  0.75000000  0.50000000  1
  Li  Li9  1  0.75000000  0.25000000  0.50000000  1
  Mn  Mn10  1  0.50000000  0.00000000  0.00000000  1
  Mn  Mn11  1  0.00000000  0.50000000  0.50000000  1
  Mn  Mn12  1  0.25000000  0.25000000  0.00000000  1
  Mn  Mn13  1  0.25000000  0.75000000  0.00000000  1
  Mn  Mn14  1  0.00000000  0.50000000  0.00000000  1
  Mn  Mn15  1  0.50000000  0.00000000  0.50000000  1
  Mn  Mn16  1  0.75000000  0.75000000  0.00000000  1
  Mn  Mn17  1  0.75000000  0.25000000  0.00000000  1
  O  O18  1  0.25336100  0.50000000  0.23539600  1
  O  O19  1  0.24663900  0.00000000  0.76460400  1
  O  O20  1  0.23909750  0.50000000  0.75327000  1
  O  O21  1  0.26090250  0.00000000  0.24673000  1
  O  O22  1  0.00150000  0.25951650  0.76629500  1
  O  O23  1  0.00150000  0.74048350  0.76629500  1
  O  O24  1  0.49850000  0.75951650  0.23370500  1
  O  O25  1  0.49850000  0.24048350  0.23370500  1
  O  O26  1  0.75336100  0.00000000  0.23539600  1
  O  O27  1  0.74663900  0.50000000  0.76460400  1
  O  O28  1  0.73909750  0.00000000  0.75327000  1
  O  O29  1  0.76090250  0.50000000  0.24673000  1
  O  O30  1  0.50150000  0.75951650  0.76629500  1
  O  O31  1  0.50150000  0.24048350  0.76629500  1
  O  O32  1  0.99850000  0.25951650  0.23370500  1
  O  O33  1  0.99850000  0.74048350  0.23370500  1
