# generated using pymatgen
data_LiMnPO4
_symmetry_space_group_name_H-M   'P 1'
_cell_length_a   5.21209203
_cell_length_b   8.46580913
_cell_length_c   10.92332119
_cell_angle_alpha   90.00000000
_cell_angle_beta   90.00000000
_cell_angle_gamma   90.00000000
_symmetry_Int_Tables_number   1
_chemical_formula_structural   LiMnPO4
_chemical_formula_sum   'Li4 Mn4 P4 O16'
_cell_volume   481.98691905
_cell_formula_units_Z   4
loop_
 _symmetry_equiv_pos_site_id
 _symmetry_equiv_pos_as_xyz
  1  'x, y, z'
loop_
 _atom_site_type_symbol
 _atom_site_label
 _atom_site_symmetry_multiplicity
 _atom_site_fract_x
 _atom_site_fract_y
 _atom_site_fract_z
 _atom_site_occupancy
  Li  Li0  1  0.94457700  0.19811500  0.74742900  1
  Li  Li1  1  0.44457700  0.69811500  0.75257100  1
  Li  Li2  1  0.94457700  0.30188500  0.24742900  1
  Li  Li3  1  0.44457700  0.80188500  0.25257100  1
  Mn  Mn4  1  0.96366100  0.85041700  0.88147000  1
  Mn  Mn5  1  0.96366100  0.64958300  0.38147000  1
  Mn  Mn6  1  0.46366100  0.35041700  0.61853000  1
  Mn  Mn7  1  0.46366100  0.14958300  0.11853000  1
  P  P8  1  0.96918800  0.55524400  0.68162000  1
  P  P9  1  0.46918800  0.05524400  0.81838000  1
  P  P10  1  0.96918800  0.94475600  0.18162000  1
  P  P11  1  0.46918800  0.44475600  0.31838000  1
  O  O12  1  0.04062900  0.64170800  0.56248500  1
  O  O13  1  0.54062900  0.14170800  0.93751500  1
  O  O14  1  0.04062900  0.85829200  0.06248500  1
  O  O15  1  0.54062900  0.35829200  0.43751500  1
  O  O16  1  0.08784600  0.38517800  0.68058700  1
  O  O17  1  0.58784600  0.88517800  0.81941300  1
  O  O18  1  0.08784600  0.11482200  0.18058700  1
  O  O19  1  0.58784600  0.61482200  0.31941300  1
  O  O20  1  0.67382500  0.53857800  0.69875400  1
  O  O21  1  0.17382500  0.03857800  0.80124600  1
  O  O22  1  0.67382500  0.96142200  0.19875400  1
  O  O23  1  0.17382500  0.46142200  0.30124600  1
  O  O24  1  0.58838600  0.14942800  0.70962300  1
  O  O25  1  0.08838600  0.64942800  0.79037700  1
  O  O26  1  0.58838600  0.35057200  0.20962300  1
  O  O27  1  0.08838600  0.85057200  0.29037700  1
