# generated using pymatgen
data_MnPO4
_symmetry_space_group_name_H-M   'P 1'
_cell_length_a   11.99323600
_cell_length_b   12.03354000
_cell_length_c   6.88497549
_cell_angle_alpha   90.00000000
_cell_angle_beta   118.52605000
_cell_angle_gamma   90.00000000
_symmetry_Int_Tables_number   1
_chemical_formula_structural   MnPO4
_chemical_formula_sum   'Mn12 P12 O48'
_cell_volume   873.01844894
_cell_formula_units_Z   12
loop_
 _symmetry_equiv_pos_site_id
 _symmetry_equiv_pos_as_xyz
  1  'x, y, z'
loop_
 _atom_site_type_symbol
 _atom_site_label
 _atom_site_symmetry_multiplicity
 _atom_site_fract_x
 _atom_site_fract_y
 _atom_site_fract_z
 _atom_site_occupancy
  Mn  Mn0  1  0.77751950  0.84159750  0.86328800  1
  Mn  Mn1  1  0.50000000  0.77321800  0.25000000  1
  Mn  Mn2  1  0.77751950  0.15840250  0.36328800  1
  Mn  Mn3  1  0.22248050  0.84159750  0.63671200  1
  Mn  Mn4  1  0.50000000  0.22678200  0.75000000  1
  Mn  Mn5  1  0.22248050  0.15840250  0.13671200  1
  Mn  Mn6  1  0.27751950  0.34159750  0.86328800  1
  Mn  Mn7  1  0.00000000  0.27321800  0.25000000  1
  Mn  Mn8  1  0.27751950  0.65840250  0.36328800  1
  Mn  Mn9  1  0.72248050  0.34159750  0.63671200  1
  Mn  Mn10  1  0.00000000  0.72678200  0.75000000  1
  Mn  Mn11  1  0.72248050  0.65840250  0.13671200  1
  P  P12  1  0.76598100  0.11321700  0.87954000  1
  P  P13  1  0.50000000  0.20703600  0.25000000  1
  P  P14  1  0.76598100  0.88678300  0.37954000  1
  P  P15  1  0.23401900  0.11321700  0.62046000  1
  P  P16  1  0.50000000  0.79296400  0.75000000  1
  P  P17  1  0.23401900  0.88678300  0.12046000  1
  P  P18  1  0.26598100  0.61321700  0.87954000  1
  P  P19  1  0.00000000  0.70703600  0.25000000  1
  P  P20  1  0.26598100  0.38678300  0.37954000  1
  P  P21  1  0.73401900  0.61321700  0.62046000  1
  P  P22  1  0.00000000  0.29296400  0.75000000  1
  P  P23  1  0.73401900  0.38678300  0.12046000  1
  O  O24  1  0.81777500  0.99717700  0.88245700  1
  O  O25  1  0.54725150  0.28179250  0.46110800  1
  O  O26  1  0.77509950  0.18336150  0.69543700  1
  O  O27  1  0.39895000  0.12860800  0.25297400  1
  O  O28  1  0.37300050  0.89052650  0.16519300  1
  O  O29  1  0.35088400  0.66857100  0.11035200  1
  O  O30  1  0.64911600  0.66857100  0.38964800  1
  O  O31  1  0.62699950  0.89052650  0.33480700  1
  O  O32  1  0.60105000  0.12860800  0.24702600  1
  O  O33  1  0.22490050  0.18336150  0.80456300  1
  O  O34  1  0.45274850  0.28179250  0.03889200  1
  O  O35  1  0.81777500  0.00282300  0.38245700  1
  O  O36  1  0.18222500  0.99717700  0.61754300  1
  O  O37  1  0.54725150  0.71820750  0.96110800  1
  O  O38  1  0.77509950  0.81663850  0.19543700  1
  O  O39  1  0.39895000  0.87139200  0.75297400  1
  O  O40  1  0.37300050  0.10947350  0.66519300  1
  O  O41  1  0.35088400  0.33142900  0.61035200  1
  O  O42  1  0.64911600  0.33142900  0.88964800  1
  O  O43  1  0.62699950  0.10947350  0.83480700  1
  O  O44  1  0.60105000  0.87139200  0.74702600  1
  O  O45  1  0.22490050  0.81663850  0.30456300  1
  O  O46  1  0.45274850  0.71820750  0.53889200  1
  O  O47  1  0.18222500  0.00282300  0.11754300  1
  O  O48  1  0.31777500  0.49717700  0.88245700  1
  O  O49  1  0.04725150  0.78179250  0.46110800  1
  O  O50  1  0.27509950  0.68336150  0.69543700  1
  O  O51  1  0.89895000  0.62860800  0.25297400  1
  O  O52  1  0.87300050  0.39052650  0.16519300  1
  O  O53  1  0.85088400  0.16857100  0.11035200  1
  O  O54  1  0.14911600  0.16857100  0.38964800  1
  O  O55  1  0.12699950  0.39052650  0.33480700  1
  O  O56  1  0.10105000  0.62860800  0.24702600  1
  O  O57  1  0.72490050  0.68336150  0.80456300  1
  O  O58  1  0.95274850  0.78179250  0.03889200  1
  O  O59  1  0.31777500  0.50282300  0.38245700  1
  O  O60  1  0.68222500  0.49717700  0.61754300  1
  O  O61  1  0.04725150  0.21820750  0.96110800  1
  O  O62  1  0.27509950  0.31663850  0.19543700  1
  O  O63  1  0.89895000  0.37139200  0.75297400  1
  O  O64  1  0.87300050  0.60947350  0.66519300  1
  O  O65  1  0.85088400  0.83142900  0.61035200  1
  O  O66  1  0.14911600  0.83142900  0.88964800  1
  O  O67  1  0.12699950  0.60947350  0.83480700  1
  O  O68  1  0.10105000  0.37139200  0.74702600  1
  O  O69  1  0.72490050  0.31663850  0.30456300  1
  O  O70  1  0.95274850  0.21820750  0.53889200  1
  O  O71  1  0.68222500  0.50282300  0.11754300  1
