# generated using pymatgen
data_TiMn3O8
_symmetry_space_group_name_H-M   'P 1'
_cell_length_a   5.89093387
_cell_length_b   5.89093387
_cell_length_c   14.71643943
_cell_angle_alpha   90.00000000
_cell_angle_beta   90.00000000
_cell_angle_gamma   120.00000000
_symmetry_Int_Tables_number   1
_chemical_formula_structural   TiMn3O8
_chemical_formula_sum   'Ti3 Mn9 O24'
_cell_volume   442.28445353
_cell_formula_units_Z   3
loop_
 _symmetry_equiv_pos_site_id
 _symmetry_equiv_pos_as_xyz
  1  'x, y, z'
loop_
 _atom_site_type_symbol
 _atom_site_label
 _atom_site_symmetry_multiplicity
 _atom_site_fract_x
 _atom_site_fract_y
 _atom_site_fract_z
 _atom_site_occupancy
  Ti  Ti0  1  0.00000000  0.00000000  0.00000000  1
  Ti  Ti1  1  0.66666667  0.33333333  0.33333333  1
  Ti  Ti2  1  0.33333333  0.66666667  0.66666667  1
  Mn  Mn3  1  0.50000000  0.00000000  0.00000000  1
  Mn  Mn4  1  0.50000000  0.50000000  0.00000000  1
  Mn  Mn5  1  0.00000000  0.50000000  0.00000000  1
  Mn  Mn6  1  0.16666667  0.33333333  0.33333333  1
  Mn  Mn7  1  0.16666667  0.83333333  0.33333333  1
  Mn  Mn8  1  0.66666667  0.83333333  0.33333333  1
  Mn  Mn9  1  0.83333333  0.66666667  0.66666667  1
  Mn  Mn10  1  0.83333333  0.16666667  0.66666667  1
  Mn  Mn11  1  0.33333333  0.16666667  0.66666667  1
  O  O12  1  0.66666667  0.33333333  0.06521433  1
  O  O13  1  0.16939067  0.33878133  0.06533033  1
  O  O14  1  0.16939067  0.83060933  0.06533033  1
  O  O15  1  0.00000000  0.00000000  0.26811900  1
  O  O16  1  0.66121867  0.83060933  0.06533033  1
  O  O17  1  0.49727600  0.99455200  0.26800300  1
  O  O18  1  0.49727600  0.50272400  0.26800300  1
  O  O19  1  0.00544800  0.50272400  0.26800300  1
  O  O20  1  0.33333333  0.66666667  0.39854767  1
  O  O21  1  0.83605733  0.67211467  0.39866367  1
  O  O22  1  0.83605733  0.16394267  0.39866367  1
  O  O23  1  0.66666667  0.33333333  0.60145233  1
  O  O24  1  0.32788533  0.16394267  0.39866367  1
  O  O25  1  0.16394267  0.32788533  0.60133633  1
  O  O26  1  0.16394267  0.83605733  0.60133633  1
  O  O27  1  0.67211467  0.83605733  0.60133633  1
  O  O28  1  0.00000000  0.00000000  0.73188100  1
  O  O29  1  0.50272400  0.00544800  0.73199700  1
  O  O30  1  0.50272400  0.49727600  0.73199700  1
  O  O31  1  0.33333333  0.66666667  0.93478567  1
  O  O32  1  0.99455200  0.49727600  0.73199700  1
  O  O33  1  0.83060933  0.66121867  0.93466967  1
  O  O34  1  0.83060933  0.16939067  0.93466967  1
  O  O35  1  0.33878133  0.16939067  0.93466967  1
