# generated using pymatgen
data_Li2Fe2SnO6
_symmetry_space_group_name_H-M   'P 1'
_cell_length_a   5.19975800
_cell_length_b   8.94547600
_cell_length_c   10.12327100
_cell_angle_alpha   90.00000000
_cell_angle_beta   90.00000000
_cell_angle_gamma   90.00000000
_symmetry_Int_Tables_number   1
_chemical_formula_structural   Li2Fe2SnO6
_chemical_formula_sum   'Li8 Fe8 Sn4 O24'
_cell_volume   470.87696950
_cell_formula_units_Z   4
loop_
 _symmetry_equiv_pos_site_id
 _symmetry_equiv_pos_as_xyz
  1  'x, y, z'
loop_
 _atom_site_type_symbol
 _atom_site_label
 _atom_site_symmetry_multiplicity
 _atom_site_fract_x
 _atom_site_fract_y
 _atom_site_fract_z
 _atom_site_occupancy
  Li  Li0  1  0.41046400  0.25000000  0.75000000  1
  Li  Li1  1  0.58953600  0.25000000  0.25000000  1
  Li  Li2  1  0.41046400  0.75000000  0.75000000  1
  Li  Li3  1  0.58953600  0.75000000  0.25000000  1
  Li  Li4  1  0.91046400  0.75000000  0.75000000  1
  Li  Li5  1  0.08953600  0.75000000  0.25000000  1
  Li  Li6  1  0.91046400  0.25000000  0.75000000  1
  Li  Li7  1  0.08953600  0.25000000  0.25000000  1
  Fe  Fe8  1  0.50000000  0.33644300  0.50000000  1
  Fe  Fe9  1  0.50000000  0.16355700  0.00000000  1
  Fe  Fe10  1  0.50000000  0.83644300  0.00000000  1
  Fe  Fe11  1  0.50000000  0.66355700  0.50000000  1
  Fe  Fe12  1  0.00000000  0.83644300  0.50000000  1
  Fe  Fe13  1  0.00000000  0.66355700  0.00000000  1
  Fe  Fe14  1  0.00000000  0.33644300  0.00000000  1
  Fe  Fe15  1  0.00000000  0.16355700  0.50000000  1
  Sn  Sn16  1  0.00000000  0.00000000  0.00000000  1
  Sn  Sn17  1  0.50000000  0.00000000  0.50000000  1
  Sn  Sn18  1  0.50000000  0.50000000  0.00000000  1
  Sn  Sn19  1  0.00000000  0.50000000  0.50000000  1
  O  O20  1  0.33021750  0.32100950  0.10506500  1
  O  O21  1  0.66978250  0.67899050  0.89493500  1
  O  O22  1  0.33021750  0.17899050  0.39493500  1
  O  O23  1  0.66978250  0.17899050  0.60506500  1
  O  O24  1  0.15453800  0.00000000  0.59975200  1
  O  O25  1  0.34546200  0.00000000  0.09975200  1
  O  O26  1  0.65453800  0.00000000  0.90024800  1
  O  O27  1  0.66978250  0.32100950  0.89493500  1
  O  O28  1  0.84546200  0.00000000  0.40024800  1
  O  O29  1  0.33021750  0.82100950  0.39493500  1
  O  O30  1  0.66978250  0.82100950  0.60506500  1
  O  O31  1  0.33021750  0.67899050  0.10506500  1
  O  O32  1  0.83021750  0.82100950  0.10506500  1
  O  O33  1  0.16978250  0.17899050  0.89493500  1
  O  O34  1  0.83021750  0.67899050  0.39493500  1
  O  O35  1  0.16978250  0.67899050  0.60506500  1
  O  O36  1  0.65453800  0.50000000  0.59975200  1
  O  O37  1  0.84546200  0.50000000  0.09975200  1
  O  O38  1  0.15453800  0.50000000  0.90024800  1
  O  O39  1  0.16978250  0.82100950  0.89493500  1
  O  O40  1  0.34546200  0.50000000  0.40024800  1
  O  O41  1  0.83021750  0.32100950  0.39493500  1
  O  O42  1  0.16978250  0.32100950  0.60506500  1
  O  O43  1  0.83021750  0.17899050  0.10506500  1
