# generated using pymatgen
data_Ag7(PbO3)3
_symmetry_space_group_name_H-M   'P 1'
_cell_length_a   14.32905200
_cell_length_b   10.42862000
_cell_length_c   8.91005287
_cell_angle_alpha   90.00000000
_cell_angle_beta   112.18728101
_cell_angle_gamma   90.00000000
_symmetry_Int_Tables_number   1
_chemical_formula_structural   Ag7(PbO3)3
_chemical_formula_sum   'Ag28 Pb12 O36'
_cell_volume   1232.86124368
_cell_formula_units_Z   4
loop_
 _symmetry_equiv_pos_site_id
 _symmetry_equiv_pos_as_xyz
  1  'x, y, z'
loop_
 _atom_site_type_symbol
 _atom_site_label
 _atom_site_symmetry_multiplicity
 _atom_site_fract_x
 _atom_site_fract_y
 _atom_site_fract_z
 _atom_site_occupancy
  Ag  Ag0  1  0.25000000  0.75000000  0.00000000  1
  Ag  Ag1  1  0.41678050  0.75208150  0.33393700  1
  Ag  Ag2  1  0.16668100  0.00000000  0.83334300  1
  Ag  Ag3  1  0.58321950  0.24791850  0.66606300  1
  Ag  Ag4  1  0.25438300  0.00000000  0.24571900  1
  Ag  Ag5  1  0.07835000  0.00000000  0.42170400  1
  Ag  Ag6  1  0.92165000  0.00000000  0.57829600  1
  Ag  Ag7  1  0.74561700  0.00000000  0.75428100  1
  Ag  Ag8  1  0.58471900  0.00000000  0.90641600  1
  Ag  Ag9  1  0.41528100  0.00000000  0.09358400  1
  Ag  Ag10  1  0.83331900  0.00000000  0.16665700  1
  Ag  Ag11  1  0.25000000  0.25000000  0.00000000  1
  Ag  Ag12  1  0.41678050  0.24791850  0.33393700  1
  Ag  Ag13  1  0.58321950  0.75208150  0.66606300  1
  Ag  Ag14  1  0.75000000  0.25000000  0.00000000  1
  Ag  Ag15  1  0.91678050  0.25208150  0.33393700  1
  Ag  Ag16  1  0.66668100  0.50000000  0.83334300  1
  Ag  Ag17  1  0.08321950  0.74791850  0.66606300  1
  Ag  Ag18  1  0.75438300  0.50000000  0.24571900  1
  Ag  Ag19  1  0.57835000  0.50000000  0.42170400  1
  Ag  Ag20  1  0.42165000  0.50000000  0.57829600  1
  Ag  Ag21  1  0.24561700  0.50000000  0.75428100  1
  Ag  Ag22  1  0.08471900  0.50000000  0.90641600  1
  Ag  Ag23  1  0.91528100  0.50000000  0.09358400  1
  Ag  Ag24  1  0.33331900  0.50000000  0.16665700  1
  Ag  Ag25  1  0.75000000  0.75000000  0.00000000  1
  Ag  Ag26  1  0.91678050  0.74791850  0.33393700  1
  Ag  Ag27  1  0.08321950  0.25208150  0.66606300  1
  Pb  Pb28  1  0.33564150  0.83650150  0.66526200  1
  Pb  Pb29  1  0.50000000  0.66756400  0.00000000  1
  Pb  Pb30  1  0.66435850  0.16349850  0.33473800  1
  Pb  Pb31  1  0.50000000  0.33243600  0.00000000  1
  Pb  Pb32  1  0.66435850  0.83650150  0.33473800  1
  Pb  Pb33  1  0.33564150  0.16349850  0.66526200  1
  Pb  Pb34  1  0.83564150  0.33650150  0.66526200  1
  Pb  Pb35  1  0.00000000  0.16756400  0.00000000  1
  Pb  Pb36  1  0.16435850  0.66349850  0.33473800  1
  Pb  Pb37  1  0.00000000  0.83243600  0.00000000  1
  Pb  Pb38  1  0.16435850  0.33650150  0.33473800  1
  Pb  Pb39  1  0.83564150  0.66349850  0.66526200  1
  O  O40  1  0.37315350  0.81202050  0.93676000  1
  O  O41  1  0.46012700  0.68828500  0.72844500  1
  O  O42  1  0.62684650  0.18797950  0.06324000  1
  O  O43  1  0.29185900  0.81067500  0.39414100  1
  O  O44  1  0.10491700  0.00000000  0.01862800  1
  O  O45  1  0.22712600  0.00000000  0.64682000  1
  O  O46  1  0.53987300  0.68828500  0.27155500  1
  O  O47  1  0.70814100  0.18932500  0.60585900  1
  O  O48  1  0.89508300  0.00000000  0.98137200  1
  O  O49  1  0.43778600  0.00000000  0.68688600  1
  O  O50  1  0.77287400  0.00000000  0.35318000  1
  O  O51  1  0.62684650  0.81202050  0.06324000  1
  O  O52  1  0.46012700  0.31171500  0.72844500  1
  O  O53  1  0.56221400  0.00000000  0.31311400  1
  O  O54  1  0.37315350  0.18797950  0.93676000  1
  O  O55  1  0.70814100  0.81067500  0.60585900  1
  O  O56  1  0.53987300  0.31171500  0.27155500  1
  O  O57  1  0.29185900  0.18932500  0.39414100  1
  O  O58  1  0.87315350  0.31202050  0.93676000  1
  O  O59  1  0.96012700  0.18828500  0.72844500  1
  O  O60  1  0.12684650  0.68797950  0.06324000  1
  O  O61  1  0.79185900  0.31067500  0.39414100  1
  O  O62  1  0.60491700  0.50000000  0.01862800  1
  O  O63  1  0.72712600  0.50000000  0.64682000  1
  O  O64  1  0.03987300  0.18828500  0.27155500  1
  O  O65  1  0.20814100  0.68932500  0.60585900  1
  O  O66  1  0.39508300  0.50000000  0.98137200  1
  O  O67  1  0.93778600  0.50000000  0.68688600  1
  O  O68  1  0.27287400  0.50000000  0.35318000  1
  O  O69  1  0.12684650  0.31202050  0.06324000  1
  O  O70  1  0.96012700  0.81171500  0.72844500  1
  O  O71  1  0.06221400  0.50000000  0.31311400  1
  O  O72  1  0.87315350  0.68797950  0.93676000  1
  O  O73  1  0.20814100  0.31067500  0.60585900  1
  O  O74  1  0.03987300  0.81171500  0.27155500  1
  O  O75  1  0.79185900  0.68932500  0.39414100  1
