# generated using pymatgen
data_FeOF
_symmetry_space_group_name_H-M   'P 1'
_cell_length_a   9.48969511
_cell_length_b   3.09614500
_cell_length_c   14.22878627
_cell_angle_alpha   90.00000000
_cell_angle_beta   90.33745134
_cell_angle_gamma   90.00000000
_symmetry_Int_Tables_number   1
_chemical_formula_structural   FeOF
_chemical_formula_sum   'Fe12 O12 F12'
_cell_volume   418.05543553
_cell_formula_units_Z   12
loop_
 _symmetry_equiv_pos_site_id
 _symmetry_equiv_pos_as_xyz
  1  'x, y, z'
loop_
 _atom_site_type_symbol
 _atom_site_label
 _atom_site_symmetry_multiplicity
 _atom_site_fract_x
 _atom_site_fract_y
 _atom_site_fract_z
 _atom_site_occupancy
  Fe  Fe0  1  0.98932300  0.00000000  0.00843000  1
  Fe  Fe1  1  0.50342100  0.00000000  0.00604800  1
  Fe  Fe2  1  0.27884800  0.50000000  0.16637600  1
  Fe  Fe3  1  0.74722500  0.50000000  0.15267900  1
  Fe  Fe4  1  0.99583000  0.00000000  0.34290900  1
  Fe  Fe5  1  0.48735500  0.00000000  0.33505700  1
  Fe  Fe6  1  0.77479800  0.50000000  0.50428700  1
  Fe  Fe7  1  0.25275300  0.50000000  0.48203200  1
  Fe  Fe8  1  0.99864800  0.00000000  0.66918300  1
  Fe  Fe9  1  0.49660000  0.00000000  0.67874600  1
  Fe  Fe10  1  0.24321900  0.50000000  0.81869600  1
  Fe  Fe11  1  0.71674300  0.50000000  0.83592300  1
  O  O12  1  0.39730500  0.50000000  0.06087400  1
  O  O13  1  0.90518600  0.50000000  0.06555800  1
  O  O14  1  0.65347200  0.00000000  0.10522300  1
  O  O15  1  0.35081600  0.00000000  0.23347000  1
  O  O16  1  0.41392100  0.50000000  0.40138800  1
  O  O17  1  0.90046100  0.50000000  0.39633100  1
  O  O18  1  0.15433000  0.00000000  0.43332300  1
  O  O19  1  0.85386600  0.00000000  0.57134600  1
  O  O20  1  0.40042200  0.50000000  0.73055300  1
  O  O21  1  0.14226600  0.00000000  0.76643700  1
  O  O22  1  0.65765700  0.00000000  0.76347300  1
  O  O23  1  0.59262900  0.50000000  0.93606600  1
  F  F24  1  0.15239000  0.00000000  0.10013600  1
  F  F25  1  0.85203100  0.00000000  0.23149300  1
  F  F26  1  0.09388500  0.50000000  0.26324500  1
  F  F27  1  0.60751100  0.50000000  0.27304600  1
  F  F28  1  0.65891800  0.00000000  0.43824100  1
  F  F29  1  0.34661700  0.00000000  0.56495000  1
  F  F30  1  0.10026900  0.50000000  0.60361700  1
  F  F31  1  0.59462600  0.50000000  0.59726100  1
  F  F32  1  0.90422800  0.50000000  0.73535800  1
  F  F33  1  0.33351000  0.00000000  0.89469100  1
  F  F34  1  0.85209000  0.00000000  0.89735200  1
  F  F35  1  0.09683300  0.50000000  0.93620400  1
