# generated using pymatgen
data_LiMn2OF3
_symmetry_space_group_name_H-M   'P 1'
_cell_length_a   5.26219000
_cell_length_b   6.35659500
_cell_length_c   10.70937500
_cell_angle_alpha   90.00000000
_cell_angle_beta   90.00000000
_cell_angle_gamma   90.00000000
_symmetry_Int_Tables_number   1
_chemical_formula_structural   LiMn2OF3
_chemical_formula_sum   'Li4 Mn8 O4 F12'
_cell_volume   358.22442398
_cell_formula_units_Z   4
loop_
 _symmetry_equiv_pos_site_id
 _symmetry_equiv_pos_as_xyz
  1  'x, y, z'
loop_
 _atom_site_type_symbol
 _atom_site_label
 _atom_site_symmetry_multiplicity
 _atom_site_fract_x
 _atom_site_fract_y
 _atom_site_fract_z
 _atom_site_occupancy
  Li  Li0  1  0.47677050  0.25000000  0.58786750  1
  Li  Li1  1  0.97677050  0.75000000  0.91213250  1
  Li  Li2  1  0.02322950  0.25000000  0.08786750  1
  Li  Li3  1  0.52322950  0.75000000  0.41213250  1
  Mn  Mn4  1  0.48914750  0.75000000  0.74045750  1
  Mn  Mn5  1  0.98914750  0.25000000  0.75954250  1
  Mn  Mn6  1  0.01085250  0.75000000  0.24045750  1
  Mn  Mn7  1  0.51085250  0.25000000  0.25954250  1
  Mn  Mn8  1  0.00000000  0.00000000  0.50000000  1
  Mn  Mn9  1  0.00000000  0.50000000  0.50000000  1
  Mn  Mn10  1  0.50000000  0.00000000  0.00000000  1
  Mn  Mn11  1  0.50000000  0.50000000  0.00000000  1
  O  O12  1  0.83285150  0.25000000  0.58439650  1
  O  O13  1  0.33285150  0.75000000  0.91560350  1
  O  O14  1  0.66714850  0.25000000  0.08439650  1
  O  O15  1  0.16714850  0.75000000  0.41560350  1
  F  F16  1  0.71145350  0.75000000  0.57249350  1
  F  F17  1  0.21145350  0.25000000  0.92750650  1
  F  F18  1  0.78854650  0.75000000  0.07249350  1
  F  F19  1  0.28854650  0.25000000  0.42750650  1
  F  F20  1  0.28273050  0.47997100  0.66698350  1
  F  F21  1  0.28273050  0.02002900  0.66698350  1
  F  F22  1  0.78273050  0.97997100  0.83301650  1
  F  F23  1  0.78273050  0.52002900  0.83301650  1
  F  F24  1  0.21726950  0.02002900  0.16698350  1
  F  F25  1  0.21726950  0.47997100  0.16698350  1
  F  F26  1  0.71726950  0.52002900  0.33301650  1
  F  F27  1  0.71726950  0.97997100  0.33301650  1
