# generated using pymatgen
data_Li3Mn(NiO3)2
_symmetry_space_group_name_H-M   'P 1'
_cell_length_a   12.91675155
_cell_length_b   2.88999747
_cell_length_c   5.89424881
_cell_angle_alpha   90.00000000
_cell_angle_beta   103.21073388
_cell_angle_gamma   90.00000000
_symmetry_Int_Tables_number   1
_chemical_formula_structural   Li3Mn(NiO3)2
_chemical_formula_sum   'Li6 Mn2 Ni4 O12'
_cell_volume   214.20583465
_cell_formula_units_Z   2
loop_
 _symmetry_equiv_pos_site_id
 _symmetry_equiv_pos_as_xyz
  1  'x, y, z'
loop_
 _atom_site_type_symbol
 _atom_site_label
 _atom_site_symmetry_multiplicity
 _atom_site_fract_x
 _atom_site_fract_y
 _atom_site_fract_z
 _atom_site_occupancy
  Li  Li0  1  0.50000000  0.00000000  0.50000000  1
  Li  Li1  1  0.16875600  0.00000000  0.82788100  1
  Li  Li2  1  0.33124400  0.50000000  0.17211900  1
  Li  Li3  1  0.00000000  0.50000000  0.50000000  1
  Li  Li4  1  0.66875600  0.50000000  0.82788100  1
  Li  Li5  1  0.83124400  0.00000000  0.17211900  1
  Mn  Mn6  1  0.50000000  0.00000000  0.00000000  1
  Mn  Mn7  1  0.00000000  0.50000000  0.00000000  1
  Ni  Ni8  1  0.16856400  0.00000000  0.33797200  1
  Ni  Ni9  1  0.33143600  0.50000000  0.66202800  1
  Ni  Ni10  1  0.66856400  0.50000000  0.33797200  1
  Ni  Ni11  1  0.83143600  0.00000000  0.66202800  1
  O  O12  1  0.65421350  0.00000000  0.08886050  1
  O  O13  1  0.34578650  0.00000000  0.91113950  1
  O  O14  1  0.33340800  0.00000000  0.42912150  1
  O  O15  1  0.66659200  0.00000000  0.57087850  1
  O  O16  1  0.50212700  0.50000000  0.77999100  1
  O  O17  1  0.49787300  0.50000000  0.22000900  1
  O  O18  1  0.15421350  0.50000000  0.08886050  1
  O  O19  1  0.84578650  0.50000000  0.91113950  1
  O  O20  1  0.83340800  0.50000000  0.42912150  1
  O  O21  1  0.16659200  0.50000000  0.57087850  1
  O  O22  1  0.00212700  0.00000000  0.77999100  1
  O  O23  1  0.99787300  0.00000000  0.22000900  1
