# generated using pymatgen
data_LiCo5O7F
_symmetry_space_group_name_H-M   'P 1'
_cell_length_a   5.95257513
_cell_length_b   5.95257513
_cell_length_c   14.21243529
_cell_angle_alpha   90.00000000
_cell_angle_beta   90.00000000
_cell_angle_gamma   120.00000000
_symmetry_Int_Tables_number   1
_chemical_formula_structural   LiCo5O7F
_chemical_formula_sum   'Li3 Co15 O21 F3'
_cell_volume   436.12291136
_cell_formula_units_Z   3
loop_
 _symmetry_equiv_pos_site_id
 _symmetry_equiv_pos_as_xyz
  1  'x, y, z'
loop_
 _atom_site_type_symbol
 _atom_site_label
 _atom_site_symmetry_multiplicity
 _atom_site_fract_x
 _atom_site_fract_y
 _atom_site_fract_z
 _atom_site_occupancy
  Li  Li0  1  0.00000000  0.00000000  0.98600800  1
  Li  Li1  1  0.66666667  0.33333333  0.31934133  1
  Li  Li2  1  0.33333333  0.66666667  0.65267467  1
  Co  Co3  1  0.00000000  0.00000000  0.75980233  1
  Co  Co4  1  0.83599475  0.16400525  0.54550800  1
  Co  Co5  1  0.83599475  0.67198950  0.54550800  1
  Co  Co6  1  0.00000000  0.00000000  0.37369000  1
  Co  Co7  1  0.32801050  0.16400525  0.54550800  1
  Co  Co8  1  0.66666667  0.33333333  0.09313567  1
  Co  Co9  1  0.50266142  0.49733858  0.87884133  1
  Co  Co10  1  0.50266142  0.00532283  0.87884133  1
  Co  Co11  1  0.66666667  0.33333333  0.70702333  1
  Co  Co12  1  0.99467717  0.49733858  0.87884133  1
  Co  Co13  1  0.33333333  0.66666667  0.42646900  1
  Co  Co14  1  0.16932808  0.83067192  0.21217467  1
  Co  Co15  1  0.16932808  0.33865617  0.21217467  1
  Co  Co16  1  0.33333333  0.66666667  0.04035667  1
  Co  Co17  1  0.66134383  0.83067192  0.21217467  1
  O  O18  1  0.00000000  0.00000000  0.62580967  1
  O  O19  1  0.14961542  0.29923083  0.47054133  1
  O  O20  1  0.14961542  0.85038458  0.47054133  1
  O  O21  1  0.70076917  0.85038458  0.47054133  1
  O  O22  1  0.28895833  0.14447917  0.28352967  1
  O  O23  1  0.85552083  0.14447917  0.28352967  1
  O  O24  1  0.85552083  0.71104167  0.28352967  1
  O  O25  1  0.66666667  0.33333333  0.95914300  1
  O  O26  1  0.81628208  0.63256417  0.80387467  1
  O  O27  1  0.81628208  0.18371792  0.80387467  1
  O  O28  1  0.36743583  0.18371792  0.80387467  1
  O  O29  1  0.95562500  0.47781250  0.61686300  1
  O  O30  1  0.52218750  0.47781250  0.61686300  1
  O  O31  1  0.52218750  0.04437500  0.61686300  1
  O  O32  1  0.33333333  0.66666667  0.29247633  1
  O  O33  1  0.48294875  0.96589750  0.13720800  1
  O  O34  1  0.48294875  0.51705125  0.13720800  1
  O  O35  1  0.03410250  0.51705125  0.13720800  1
  O  O36  1  0.62229167  0.81114583  0.95019633  1
  O  O37  1  0.18885417  0.81114583  0.95019633  1
  O  O38  1  0.18885417  0.37770833  0.95019633  1
  F  F39  1  0.00000000  0.00000000  0.11848467  1
  F  F40  1  0.66666667  0.33333333  0.45181800  1
  F  F41  1  0.33333333  0.66666667  0.78515133  1
