# generated using pymatgen
data_LiMnOF2
_symmetry_space_group_name_H-M   'P 1'
_cell_length_a   5.24271800
_cell_length_b   8.95343600
_cell_length_c   10.44455511
_cell_angle_alpha   90.00000000
_cell_angle_beta   103.31204546
_cell_angle_gamma   90.00000000
_symmetry_Int_Tables_number   1
_chemical_formula_structural   LiMnOF2
_chemical_formula_sum   'Li8 Mn8 O8 F16'
_cell_volume   477.09762663
_cell_formula_units_Z   8
loop_
 _symmetry_equiv_pos_site_id
 _symmetry_equiv_pos_as_xyz
  1  'x, y, z'
loop_
 _atom_site_type_symbol
 _atom_site_label
 _atom_site_symmetry_multiplicity
 _atom_site_fract_x
 _atom_site_fract_y
 _atom_site_fract_z
 _atom_site_occupancy
  Li  Li0  1  0.25212700  0.41461400  0.05853100  1
  Li  Li1  1  0.75212700  0.58538600  0.05853100  1
  Li  Li2  1  0.14405700  0.58985400  0.42388700  1
  Li  Li3  1  0.64405700  0.41014600  0.42388700  1
  Li  Li4  1  0.32672000  0.08945200  0.54335300  1
  Li  Li5  1  0.82672000  0.91054800  0.54335300  1
  Li  Li6  1  0.26007100  0.90532600  0.96782900  1
  Li  Li7  1  0.76007100  0.09467400  0.96782900  1
  Mn  Mn8  1  0.06681200  0.90690300  0.25472200  1
  Mn  Mn9  1  0.06863800  0.24174900  0.25471600  1
  Mn  Mn10  1  0.56681200  0.09309700  0.25472200  1
  Mn  Mn11  1  0.56863800  0.75825100  0.25471600  1
  Mn  Mn12  1  0.44460200  0.80288000  0.74378600  1
  Mn  Mn13  1  0.45053200  0.41003900  0.74257200  1
  Mn  Mn14  1  0.94460200  0.19712000  0.74378600  1
  Mn  Mn15  1  0.95053200  0.58996100  0.74257200  1
  O  O16  1  0.33460700  0.22824900  0.15688300  1
  O  O17  1  0.35231200  0.91503500  0.16001100  1
  O  O18  1  0.83460700  0.77175100  0.15688300  1
  O  O19  1  0.85231200  0.08496500  0.16001100  1
  O  O20  1  0.29158300  0.76158700  0.34659100  1
  O  O21  1  0.27518800  0.08176900  0.34995400  1
  O  O22  1  0.79158300  0.23841300  0.34659100  1
  O  O23  1  0.77518800  0.91823100  0.34995400  1
  F  F24  1  0.43325500  0.59564900  0.13396900  1
  F  F25  1  0.93325500  0.40435100  0.13396900  1
  F  F26  1  0.26196700  0.39216900  0.37496500  1
  F  F27  1  0.76196700  0.60783100  0.37496500  1
  F  F28  1  0.18353900  0.92397100  0.60815300  1
  F  F29  1  0.23890700  0.58802900  0.62413000  1
  F  F30  1  0.21689700  0.24633200  0.63525700  1
  F  F31  1  0.68353900  0.07602900  0.60815300  1
  F  F32  1  0.73890700  0.41197100  0.62413000  1
  F  F33  1  0.71689700  0.75366800  0.63525700  1
  F  F34  1  0.03504200  0.04759400  0.89008600  1
  F  F35  1  0.17051400  0.40714700  0.86316300  1
  F  F36  1  0.19262900  0.72977700  0.86744200  1
  F  F37  1  0.53504200  0.95240600  0.89008600  1
  F  F38  1  0.67051400  0.59285300  0.86316300  1
  F  F39  1  0.69262900  0.27022300  0.86744200  1
