# generated using pymatgen
data_Mn2OF4
_symmetry_space_group_name_H-M   'P 1'
_cell_length_a   3.03778800
_cell_length_b   10.16290000
_cell_length_c   12.11815700
_cell_angle_alpha   90.00000000
_cell_angle_beta   90.00000000
_cell_angle_gamma   90.00000000
_symmetry_Int_Tables_number   1
_chemical_formula_structural   Mn2OF4
_chemical_formula_sum   'Mn8 O4 F16'
_cell_volume   374.12065781
_cell_formula_units_Z   4
loop_
 _symmetry_equiv_pos_site_id
 _symmetry_equiv_pos_as_xyz
  1  'x, y, z'
loop_
 _atom_site_type_symbol
 _atom_site_label
 _atom_site_symmetry_multiplicity
 _atom_site_fract_x
 _atom_site_fract_y
 _atom_site_fract_z
 _atom_site_occupancy
  Mn  Mn0  1  0.00000000  0.08312300  0.80073600  1
  Mn  Mn1  1  0.00000000  0.25197900  0.09223400  1
  Mn  Mn2  1  0.50000000  0.24802100  0.59223400  1
  Mn  Mn3  1  0.50000000  0.41687700  0.30073600  1
  Mn  Mn4  1  0.50000000  0.58312300  0.80073600  1
  Mn  Mn5  1  0.50000000  0.75197900  0.09223400  1
  Mn  Mn6  1  0.00000000  0.74802100  0.59223400  1
  Mn  Mn7  1  0.00000000  0.91687700  0.30073600  1
  O  O8  1  0.00000000  0.32268600  0.23882000  1
  O  O9  1  0.50000000  0.17731400  0.73882000  1
  O  O10  1  0.50000000  0.82268600  0.23882000  1
  O  O11  1  0.00000000  0.67731400  0.73882000  1
  F  F12  1  0.00000000  0.18100300  0.94914600  1
  F  F13  1  0.00000000  0.12702500  0.55632400  1
  F  F14  1  0.00000000  0.47459500  0.85025300  1
  F  F15  1  0.00000000  0.36923100  0.63516400  1
  F  F16  1  0.50000000  0.13076900  0.13516400  1
  F  F17  1  0.50000000  0.02540500  0.35025300  1
  F  F18  1  0.50000000  0.31899700  0.44914600  1
  F  F19  1  0.50000000  0.37297500  0.05632400  1
  F  F20  1  0.50000000  0.68100300  0.94914600  1
  F  F21  1  0.50000000  0.62702500  0.55632400  1
  F  F22  1  0.50000000  0.97459500  0.85025300  1
  F  F23  1  0.50000000  0.86923100  0.63516400  1
  F  F24  1  0.00000000  0.63076900  0.13516400  1
  F  F25  1  0.00000000  0.52540500  0.35025300  1
  F  F26  1  0.00000000  0.81899700  0.44914600  1
  F  F27  1  0.00000000  0.87297500  0.05632400  1
