# generated using pymatgen
data_LiCoP2O7
_symmetry_space_group_name_H-M   'P 1'
_cell_length_a   8.00699500
_cell_length_b   5.19275100
_cell_length_c   13.77230612
_cell_angle_alpha   90.00000000
_cell_angle_beta   111.56502303
_cell_angle_gamma   90.00000000
_symmetry_Int_Tables_number   1
_chemical_formula_structural   LiCoP2O7
_chemical_formula_sum   'Li4 Co4 P8 O28'
_cell_volume   532.54603599
_cell_formula_units_Z   4
loop_
 _symmetry_equiv_pos_site_id
 _symmetry_equiv_pos_as_xyz
  1  'x, y, z'
loop_
 _atom_site_type_symbol
 _atom_site_label
 _atom_site_symmetry_multiplicity
 _atom_site_fract_x
 _atom_site_fract_y
 _atom_site_fract_z
 _atom_site_occupancy
  Li  Li0  1  0.41872600  0.47955500  0.17402500  1
  Li  Li1  1  0.97305700  0.08634700  0.83028000  1
  Li  Li2  1  0.97305700  0.91365300  0.33028000  1
  Li  Li3  1  0.41872600  0.52044500  0.67402500  1
  Co  Co4  1  0.73013400  0.96538000  0.62852700  1
  Co  Co5  1  0.73013400  0.03462000  0.12852700  1
  Co  Co6  1  0.26857400  0.48468100  0.85484300  1
  Co  Co7  1  0.26857400  0.51531900  0.35484300  1
  P  P8  1  0.81952600  0.55218700  0.80289100  1
  P  P9  1  0.30282800  0.96587200  0.01786000  1
  P  P10  1  0.69890900  0.45820300  0.48235500  1
  P  P11  1  0.81952600  0.44781300  0.30289100  1
  P  P12  1  0.17912800  0.01800600  0.69363500  1
  P  P13  1  0.30282800  0.03412800  0.51786000  1
  P  P14  1  0.69890900  0.54179700  0.98235500  1
  P  P15  1  0.17912800  0.98199400  0.19363500  1
  O  O16  1  0.27188100  0.72132500  0.22771000  1
  O  O17  1  0.15652500  0.01516800  0.07252800  1
  O  O18  1  0.28105000  0.21678500  0.25236300  1
  O  O19  1  0.51697100  0.54983400  0.40441500  1
  O  O20  1  0.31200800  0.67588200  0.00176400  1
  O  O21  1  0.69558500  0.17197800  0.50728200  1
  O  O22  1  0.77424200  0.63056500  0.57775800  1
  O  O23  1  0.47713100  0.08465500  0.09697900  1
  O  O24  1  0.01397100  0.49200300  0.81275700  1
  O  O25  1  0.68462700  0.63736600  0.23429100  1
  O  O26  1  0.98631300  0.03398200  0.69166500  1
  O  O27  1  0.83843500  0.48619600  0.42368100  1
  O  O28  1  0.77268800  0.16392700  0.27692900  1
  O  O29  1  0.22630700  0.11680900  0.91633900  1
  O  O30  1  0.77424200  0.36943500  0.07775800  1
  O  O31  1  0.27188100  0.27867500  0.72771000  1
  O  O32  1  0.15652500  0.98483200  0.57252800  1
  O  O33  1  0.01397100  0.50799700  0.31275700  1
  O  O34  1  0.28105000  0.78321500  0.75236300  1
  O  O35  1  0.98631300  0.96601800  0.19166500  1
  O  O36  1  0.51697100  0.45016600  0.90441500  1
  O  O37  1  0.22630700  0.88319100  0.41633900  1
  O  O38  1  0.31200800  0.32411800  0.50176400  1
  O  O39  1  0.69558500  0.82802200  0.00728200  1
  O  O40  1  0.47713100  0.91534500  0.59697900  1
  O  O41  1  0.68462700  0.36263400  0.73429100  1
  O  O42  1  0.83843500  0.51380400  0.92368100  1
  O  O43  1  0.77268800  0.83607300  0.77692900  1
