# generated using pymatgen
data_Li3CrO4
_symmetry_space_group_name_H-M   'P 1'
_cell_length_a   8.19290400
_cell_length_b   8.21295200
_cell_length_c   9.06364990
_cell_angle_alpha   90.00000000
_cell_angle_beta   115.53197740
_cell_angle_gamma   90.00000000
_symmetry_Int_Tables_number   1
_chemical_formula_structural   Li3CrO4
_chemical_formula_sum   'Li24 Cr8 O32'
_cell_volume   550.31687030
_cell_formula_units_Z   8
loop_
 _symmetry_equiv_pos_site_id
 _symmetry_equiv_pos_as_xyz
  1  'x, y, z'
loop_
 _atom_site_type_symbol
 _atom_site_label
 _atom_site_symmetry_multiplicity
 _atom_site_fract_x
 _atom_site_fract_y
 _atom_site_fract_z
 _atom_site_occupancy
  Li  Li0  1  0.81775400  0.87722300  0.13308400  1
  Li  Li1  1  0.81775400  0.12277700  0.63308400  1
  Li  Li2  1  0.69032700  0.87170400  0.38067500  1
  Li  Li3  1  0.55434950  0.11516750  0.12422300  1
  Li  Li4  1  0.44565050  0.11516750  0.37577700  1
  Li  Li5  1  0.30967300  0.87170400  0.11932500  1
  Li  Li6  1  0.69032700  0.12829600  0.88067500  1
  Li  Li7  1  0.55434950  0.88483250  0.62422300  1
  Li  Li8  1  0.44565050  0.88483250  0.87577700  1
  Li  Li9  1  0.30967300  0.12829600  0.61932500  1
  Li  Li10  1  0.18224600  0.87722300  0.36691600  1
  Li  Li11  1  0.18224600  0.12277700  0.86691600  1
  Li  Li12  1  0.31775400  0.37722300  0.13308400  1
  Li  Li13  1  0.31775400  0.62277700  0.63308400  1
  Li  Li14  1  0.19032700  0.37170400  0.38067500  1
  Li  Li15  1  0.05434950  0.61516750  0.12422300  1
  Li  Li16  1  0.94565050  0.61516750  0.37577700  1
  Li  Li17  1  0.80967300  0.37170400  0.11932500  1
  Li  Li18  1  0.19032700  0.62829600  0.88067500  1
  Li  Li19  1  0.05434950  0.38483250  0.62422300  1
  Li  Li20  1  0.94565050  0.38483250  0.87577700  1
  Li  Li21  1  0.80967300  0.62829600  0.61932500  1
  Li  Li22  1  0.68224600  0.37722300  0.36691600  1
  Li  Li23  1  0.68224600  0.62277700  0.86691600  1
  Cr  Cr24  1  0.57720100  0.63832400  0.12350400  1
  Cr  Cr25  1  0.57720100  0.36167600  0.62350400  1
  Cr  Cr26  1  0.42279900  0.63832400  0.37649600  1
  Cr  Cr27  1  0.42279900  0.36167600  0.87649600  1
  Cr  Cr28  1  0.07720100  0.13832400  0.12350400  1
  Cr  Cr29  1  0.07720100  0.86167600  0.62350400  1
  Cr  Cr30  1  0.92279900  0.13832400  0.37649600  1
  Cr  Cr31  1  0.92279900  0.86167600  0.87649600  1
  O  O32  1  0.84011950  0.11977350  0.14473600  1
  O  O33  1  0.84011950  0.88022650  0.64473600  1
  O  O34  1  0.70394800  0.12501200  0.36718700  1
  O  O35  1  0.55987700  0.85527300  0.11765900  1
  O  O36  1  0.55592800  0.38809900  0.10486000  1
  O  O37  1  0.70394800  0.87498800  0.86718700  1
  O  O38  1  0.55987700  0.14472700  0.61765900  1
  O  O39  1  0.55592800  0.61190100  0.60486000  1
  O  O40  1  0.44407200  0.38809900  0.39514000  1
  O  O41  1  0.44012300  0.85527300  0.38234100  1
  O  O42  1  0.29605200  0.12501200  0.13281300  1
  O  O43  1  0.44407200  0.61190100  0.89514000  1
  O  O44  1  0.44012300  0.14472700  0.88234100  1
  O  O45  1  0.29605200  0.87498800  0.63281300  1
  O  O46  1  0.15988050  0.11977350  0.35526400  1
  O  O47  1  0.15988050  0.88022650  0.85526400  1
  O  O48  1  0.34011950  0.61977350  0.14473600  1
  O  O49  1  0.34011950  0.38022650  0.64473600  1
  O  O50  1  0.20394800  0.62501200  0.36718700  1
  O  O51  1  0.05987700  0.35527300  0.11765900  1
  O  O52  1  0.05592800  0.88809900  0.10486000  1
  O  O53  1  0.20394800  0.37498800  0.86718700  1
  O  O54  1  0.05987700  0.64472700  0.61765900  1
  O  O55  1  0.05592800  0.11190100  0.60486000  1
  O  O56  1  0.94407200  0.88809900  0.39514000  1
  O  O57  1  0.94012300  0.35527300  0.38234100  1
  O  O58  1  0.79605200  0.62501200  0.13281300  1
  O  O59  1  0.94407200  0.11190100  0.89514000  1
  O  O60  1  0.94012300  0.64472700  0.88234100  1
  O  O61  1  0.79605200  0.37498800  0.63281300  1
  O  O62  1  0.65988050  0.61977350  0.35526400  1
  O  O63  1  0.65988050  0.38022650  0.85526400  1
