# generated using pymatgen
data_Li4Mn3V2Cu3O16
_symmetry_space_group_name_H-M   'P 1'
_cell_length_a   10.21204600
_cell_length_b   5.81907600
_cell_length_c   9.60741332
_cell_angle_alpha   90.00000000
_cell_angle_beta   91.70876534
_cell_angle_gamma   90.00000000
_symmetry_Int_Tables_number   1
_chemical_formula_structural   Li4Mn3V2Cu3O16
_chemical_formula_sum   'Li8 Mn6 V4 Cu6 O32'
_cell_volume   570.66350207
_cell_formula_units_Z   2
loop_
 _symmetry_equiv_pos_site_id
 _symmetry_equiv_pos_as_xyz
  1  'x, y, z'
loop_
 _atom_site_type_symbol
 _atom_site_label
 _atom_site_symmetry_multiplicity
 _atom_site_fract_x
 _atom_site_fract_y
 _atom_site_fract_z
 _atom_site_occupancy
  Li  Li0  1  0.67178500  0.00000000  0.09827000  1
  Li  Li1  1  0.99766800  0.00000000  0.00533400  1
  Li  Li2  1  0.50065600  0.50000000  0.51301100  1
  Li  Li3  1  0.82431800  0.50000000  0.59458500  1
  Li  Li4  1  0.17178500  0.50000000  0.09827000  1
  Li  Li5  1  0.49766800  0.50000000  0.00533400  1
  Li  Li6  1  0.00065600  0.00000000  0.51301100  1
  Li  Li7  1  0.32431800  0.00000000  0.59458500  1
  Mn  Mn8  1  0.82449300  0.00000000  0.78122400  1
  Mn  Mn9  1  0.91604250  0.25176050  0.28287900  1
  Mn  Mn10  1  0.91604250  0.74823950  0.28287900  1
  Mn  Mn11  1  0.32449300  0.50000000  0.78122400  1
  Mn  Mn12  1  0.41604250  0.75176050  0.28287900  1
  Mn  Mn13  1  0.41604250  0.24823950  0.28287900  1
  V  V14  1  0.63902300  0.00000000  0.51937800  1
  V  V15  1  0.83382200  0.50000000  0.00681200  1
  V  V16  1  0.13902300  0.50000000  0.51937800  1
  V  V17  1  0.33382200  0.00000000  0.00681200  1
  Cu  Cu18  1  0.58093150  0.75392450  0.79259100  1
  Cu  Cu19  1  0.58093150  0.24607550  0.79259100  1
  Cu  Cu20  1  0.67109700  0.50000000  0.28707200  1
  Cu  Cu21  1  0.08093150  0.25392450  0.79259100  1
  Cu  Cu22  1  0.08093150  0.74607550  0.79259100  1
  Cu  Cu23  1  0.17109700  0.00000000  0.28707200  1
  O  O24  1  0.58212350  0.76093850  0.41040600  1
  O  O25  1  0.51025100  0.00000000  0.62906500  1
  O  O26  1  0.66754100  0.00000000  0.88621100  1
  O  O27  1  0.99620100  0.00000000  0.70373700  1
  O  O28  1  0.50253300  0.50000000  0.19397600  1
  O  O29  1  0.58212350  0.23906150  0.41040600  1
  O  O30  1  0.74365950  0.78712850  0.65343400  1
  O  O31  1  0.74365950  0.21287150  0.65343400  1
  O  O32  1  0.67810500  0.50000000  0.93619800  1
  O  O33  1  0.84351300  0.00000000  0.39120900  1
  O  O34  1  0.77642100  0.26946400  0.15090700  1
  O  O35  1  0.77642100  0.73053600  0.15090700  1
  O  O36  1  0.83777700  0.50000000  0.38432700  1
  O  O37  1  0.90842100  0.25365500  0.90708400  1
  O  O38  1  0.98593500  0.50000000  0.16680300  1
  O  O39  1  0.90842100  0.74634500  0.90708400  1
  O  O40  1  0.08212350  0.26093850  0.41040600  1
  O  O41  1  0.01025100  0.50000000  0.62906500  1
  O  O42  1  0.16754100  0.50000000  0.88621100  1
  O  O43  1  0.49620100  0.50000000  0.70373700  1
  O  O44  1  0.00253300  0.00000000  0.19397600  1
  O  O45  1  0.08212350  0.73906150  0.41040600  1
  O  O46  1  0.24365950  0.28712850  0.65343400  1
  O  O47  1  0.24365950  0.71287150  0.65343400  1
  O  O48  1  0.17810500  0.00000000  0.93619800  1
  O  O49  1  0.34351300  0.50000000  0.39120900  1
  O  O50  1  0.27642100  0.76946400  0.15090700  1
  O  O51  1  0.27642100  0.23053600  0.15090700  1
  O  O52  1  0.33777700  0.00000000  0.38432700  1
  O  O53  1  0.40842100  0.75365500  0.90708400  1
  O  O54  1  0.48593500  0.00000000  0.16680300  1
  O  O55  1  0.40842100  0.24634500  0.90708400  1
