# generated using pymatgen
data_Li2NiP2O7
_symmetry_space_group_name_H-M   'P 1'
_cell_length_a   14.46527000
_cell_length_b   5.57600800
_cell_length_c   7.90129899
_cell_angle_alpha   90.00000000
_cell_angle_beta   117.67441733
_cell_angle_gamma   90.00000000
_symmetry_Int_Tables_number   1
_chemical_formula_structural   Li2NiP2O7
_chemical_formula_sum   'Li8 Ni4 P8 O28'
_cell_volume   564.39943604
_cell_formula_units_Z   4
loop_
 _symmetry_equiv_pos_site_id
 _symmetry_equiv_pos_as_xyz
  1  'x, y, z'
loop_
 _atom_site_type_symbol
 _atom_site_label
 _atom_site_symmetry_multiplicity
 _atom_site_fract_x
 _atom_site_fract_y
 _atom_site_fract_z
 _atom_site_occupancy
  Li  Li0  1  0.21839200  0.84633400  0.80574600  1
  Li  Li1  1  0.28160800  0.34633400  0.69425400  1
  Li  Li2  1  0.21839200  0.15366600  0.30574600  1
  Li  Li3  1  0.28160800  0.65366600  0.19425400  1
  Li  Li4  1  0.71839200  0.34633400  0.80574600  1
  Li  Li5  1  0.78160800  0.84633400  0.69425400  1
  Li  Li6  1  0.71839200  0.65366600  0.30574600  1
  Li  Li7  1  0.78160800  0.15366600  0.19425400  1
  Ni  Ni8  1  0.00000000  0.00000000  0.50000000  1
  Ni  Ni9  1  0.00000000  0.00000000  0.00000000  1
  Ni  Ni10  1  0.50000000  0.50000000  0.50000000  1
  Ni  Ni11  1  0.50000000  0.50000000  0.00000000  1
  P  P12  1  0.11166450  0.35702950  0.85793400  1
  P  P13  1  0.11166450  0.64297050  0.35793400  1
  P  P14  1  0.38833550  0.85702950  0.64206600  1
  P  P15  1  0.38833550  0.14297050  0.14206600  1
  P  P16  1  0.61166450  0.85702950  0.85793400  1
  P  P17  1  0.61166450  0.14297050  0.35793400  1
  P  P18  1  0.88833550  0.35702950  0.64206600  1
  P  P19  1  0.88833550  0.64297050  0.14206600  1
  O  O20  1  0.11667850  0.17633050  0.71368700  1
  O  O21  1  0.19481700  0.54678100  0.91983000  1
  O  O22  1  0.10921150  0.77418250  0.52811000  1
  O  O23  1  0.11667850  0.82366950  0.21368700  1
  O  O24  1  0.19481700  0.45321900  0.41983000  1
  O  O25  1  0.10921150  0.22581750  0.02811000  1
  O  O26  1  0.39078850  0.27418250  0.97189000  1
  O  O27  1  0.30518300  0.04678100  0.58017000  1
  O  O28  1  0.38332150  0.67633050  0.78631300  1
  O  O29  1  0.39078850  0.72581750  0.47189000  1
  O  O30  1  0.30518300  0.95321900  0.08017000  1
  O  O31  1  0.38332150  0.32366950  0.28631300  1
  O  O32  1  0.00000000  0.49688000  0.75000000  1
  O  O33  1  0.00000000  0.50312000  0.25000000  1
  O  O34  1  0.61667850  0.67633050  0.71368700  1
  O  O35  1  0.69481700  0.04678100  0.91983000  1
  O  O36  1  0.60921150  0.27418250  0.52811000  1
  O  O37  1  0.61667850  0.32366950  0.21368700  1
  O  O38  1  0.69481700  0.95321900  0.41983000  1
  O  O39  1  0.60921150  0.72581750  0.02811000  1
  O  O40  1  0.89078850  0.77418250  0.97189000  1
  O  O41  1  0.80518300  0.54678100  0.58017000  1
  O  O42  1  0.88332150  0.17633050  0.78631300  1
  O  O43  1  0.89078850  0.22581750  0.47189000  1
  O  O44  1  0.80518300  0.45321900  0.08017000  1
  O  O45  1  0.88332150  0.82366950  0.28631300  1
  O  O46  1  0.50000000  0.99688000  0.75000000  1
  O  O47  1  0.50000000  0.00312000  0.25000000  1
