# generated using pymatgen
data_K3Li2Ta6(PO8)3
_symmetry_space_group_name_H-M   'P 1'
_cell_length_a   13.30045494
_cell_length_b   13.30045494
_cell_length_c   10.77424553
_cell_angle_alpha   90.00000000
_cell_angle_beta   90.00000000
_cell_angle_gamma   120.00000000
_symmetry_Int_Tables_number   1
_chemical_formula_structural   K3Li2Ta6(PO8)3
_chemical_formula_sum   'K9 Li6 Ta18 P9 O72'
_cell_volume   1650.63288215
_cell_formula_units_Z   3
loop_
 _symmetry_equiv_pos_site_id
 _symmetry_equiv_pos_as_xyz
  1  'x, y, z'
loop_
 _atom_site_type_symbol
 _atom_site_label
 _atom_site_symmetry_multiplicity
 _atom_site_fract_x
 _atom_site_fract_y
 _atom_site_fract_z
 _atom_site_occupancy
  K  K0  1  0.30562067  0.30818833  0.39366533  1
  K  K1  1  0.00256767  0.69437933  0.39366533  1
  K  K2  1  0.69181167  0.99743233  0.39366533  1
  K  K3  1  0.97228733  0.64152167  0.72699867  1
  K  K4  1  0.66923433  0.02771267  0.72699867  1
  K  K5  1  0.35847833  0.33076567  0.72699867  1
  K  K6  1  0.63895400  0.97485500  0.06033200  1
  K  K7  1  0.33590100  0.36104600  0.06033200  1
  K  K8  1  0.02514500  0.66409900  0.06033200  1
  Li  Li9  1  0.00000000  0.00000000  0.63828700  1
  Li  Li10  1  0.00000000  0.00000000  0.36223500  1
  Li  Li11  1  0.66666667  0.33333333  0.97162033  1
  Li  Li12  1  0.66666667  0.33333333  0.69556833  1
  Li  Li13  1  0.33333333  0.66666667  0.30495367  1
  Li  Li14  1  0.33333333  0.66666667  0.02890167  1
  Ta  Ta15  1  0.15149200  0.98069100  0.82372000  1
  Ta  Ta16  1  0.01930900  0.17080100  0.82372000  1
  Ta  Ta17  1  0.17074667  0.01908533  0.17586533  1
  Ta  Ta18  1  0.82919900  0.84850800  0.82372000  1
  Ta  Ta19  1  0.98091467  0.15166133  0.17586533  1
  Ta  Ta20  1  0.84833867  0.82925333  0.17586533  1
  Ta  Ta21  1  0.81815867  0.31402433  0.15705333  1
  Ta  Ta22  1  0.68597567  0.50413433  0.15705333  1
  Ta  Ta23  1  0.83741333  0.35241867  0.50919867  1
  Ta  Ta24  1  0.49586567  0.18184133  0.15705333  1
  Ta  Ta25  1  0.64758133  0.48499467  0.50919867  1
  Ta  Ta26  1  0.51500533  0.16258667  0.50919867  1
  Ta  Ta27  1  0.48482533  0.64735767  0.49038667  1
  Ta  Ta28  1  0.35264233  0.83746767  0.49038667  1
  Ta  Ta29  1  0.50408000  0.68575200  0.84253200  1
  Ta  Ta30  1  0.16253233  0.51517467  0.49038667  1
  Ta  Ta31  1  0.31424800  0.81832800  0.84253200  1
  Ta  Ta32  1  0.18167200  0.49592000  0.84253200  1
  P  P33  1  0.21794400  0.00042800  0.50066300  1
  P  P34  1  0.99957200  0.21751600  0.50066300  1
  P  P35  1  0.78248400  0.78205600  0.50066300  1
  P  P36  1  0.88461067  0.33376133  0.83399633  1
  P  P37  1  0.66623867  0.55084933  0.83399633  1
  P  P38  1  0.44915067  0.11538933  0.83399633  1
  P  P39  1  0.55127733  0.66709467  0.16732967  1
  P  P40  1  0.33290533  0.88418267  0.16732967  1
  P  P41  1  0.11581733  0.44872267  0.16732967  1
  O  O42  1  0.47522000  0.00019400  0.50057000  1
  O  O43  1  0.66701600  0.48803300  0.33344500  1
  O  O44  1  0.33777900  0.10946800  0.52620600  1
  O  O45  1  0.12772233  0.11716567  0.80165367  1
  O  O46  1  0.51196700  0.17898300  0.33344500  1
  O  O47  1  0.22908300  0.89194300  0.47315100  1
  O  O48  1  0.13799567  0.97695333  0.61471033  1
  O  O49  1  0.16104833  0.02437667  0.38642267  1
  O  O50  1  0.98944333  0.87227767  0.80165367  1
  O  O51  1  0.10805700  0.33714000  0.47315100  1
  O  O52  1  0.02304667  0.16104233  0.61471033  1
  O  O53  1  0.88283433  0.01055667  0.80165367  1
  O  O54  1  0.99980600  0.47502600  0.50057000  1
  O  O55  1  0.11777733  0.12827667  0.19896067  1
  O  O56  1  0.97562333  0.13667167  0.38642267  1
  O  O57  1  0.89053200  0.22831100  0.52620600  1
  O  O58  1  0.01049933  0.88222267  0.19896067  1
  O  O59  1  0.83895767  0.86200433  0.61471033  1
  O  O60  1  0.86332833  0.83895167  0.38642267  1
  O  O61  1  0.77168900  0.66222100  0.52620600  1
  O  O62  1  0.87172333  0.98950067  0.19896067  1
  O  O63  1  0.66286000  0.77091700  0.47315100  1
  O  O64  1  0.82101700  0.33298400  0.33344500  1
  O  O65  1  0.52497400  0.52478000  0.50057000  1
  O  O66  1  0.14188667  0.33352733  0.83390333  1
  O  O67  1  0.33368267  0.82136633  0.66677833  1
  O  O68  1  0.00444567  0.44280133  0.85953933  1
  O  O69  1  0.79438900  0.45049900  0.13498700  1
  O  O70  1  0.17863367  0.51231633  0.66677833  1
  O  O71  1  0.89574967  0.22527633  0.80648433  1
  O  O72  1  0.80466233  0.31028667  0.94804367  1
  O  O73  1  0.82771500  0.35771000  0.71975600  1
  O  O74  1  0.65611000  0.20561100  0.13498700  1
  O  O75  1  0.77472367  0.67047333  0.80648433  1
  O  O76  1  0.68971333  0.49437567  0.94804367  1
  O  O77  1  0.54950100  0.34389000  0.13498700  1
  O  O78  1  0.66647267  0.80835933  0.83390333  1
  O  O79  1  0.78444400  0.46161000  0.53229400  1
  O  O80  1  0.64229000  0.47000500  0.71975600  1
  O  O81  1  0.55719867  0.56164433  0.85953933  1
  O  O82  1  0.67716600  0.21555600  0.53229400  1
  O  O83  1  0.50562433  0.19533767  0.94804367  1
  O  O84  1  0.52999500  0.17228500  0.71975600  1
  O  O85  1  0.43835567  0.99555433  0.85953933  1
  O  O86  1  0.53839000  0.32283400  0.53229400  1
  O  O87  1  0.32952667  0.10425033  0.80648433  1
  O  O88  1  0.48768367  0.66631733  0.66677833  1
  O  O89  1  0.19164067  0.85811333  0.83390333  1
  O  O90  1  0.80855333  0.66686067  0.16723667  1
  O  O91  1  0.00034933  0.15469967  0.00011167  1
  O  O92  1  0.67111233  0.77613467  0.19287267  1
  O  O93  1  0.46105567  0.78383233  0.46832033  1
  O  O94  1  0.84530033  0.84564967  0.00011167  1
  O  O95  1  0.56241633  0.55860967  0.13981767  1
  O  O96  1  0.47132900  0.64362000  0.28137700  1
  O  O97  1  0.49438167  0.69104333  0.05308933  1
  O  O98  1  0.32277667  0.53894433  0.46832033  1
  O  O99  1  0.44139033  0.00380667  0.13981767  1
  O  O100  1  0.35638000  0.82770900  0.28137700  1
  O  O101  1  0.21616767  0.67722333  0.46832033  1
  O  O102  1  0.33313933  0.14169267  0.16723667  1
  O  O103  1  0.45111067  0.79494333  0.86562733  1
  O  O104  1  0.30895667  0.80333833  0.05308933  1
  O  O105  1  0.22386533  0.89497767  0.19287267  1
  O  O106  1  0.34383267  0.54888933  0.86562733  1
  O  O107  1  0.17229100  0.52867100  0.28137700  1
  O  O108  1  0.19666167  0.50561833  0.05308933  1
  O  O109  1  0.10502233  0.32888767  0.19287267  1
  O  O110  1  0.20505667  0.65616733  0.86562733  1
  O  O111  1  0.99619333  0.43758367  0.13981767  1
  O  O112  1  0.15435033  0.99965067  0.00011167  1
  O  O113  1  0.85830733  0.19144667  0.16723667  1
