# generated using pymatgen
data_Li2Mn3(PO4)3
_symmetry_space_group_name_H-M   'P 1'
_cell_length_a   14.71279200
_cell_length_b   8.93764400
_cell_length_c   8.53394979
_cell_angle_alpha   90.00000000
_cell_angle_beta   121.14418176
_cell_angle_gamma   90.00000000
_symmetry_Int_Tables_number   1
_chemical_formula_structural   Li2Mn3(PO4)3
_chemical_formula_sum   'Li8 Mn12 P12 O48'
_cell_volume   960.45115857
_cell_formula_units_Z   4
loop_
 _symmetry_equiv_pos_site_id
 _symmetry_equiv_pos_as_xyz
  1  'x, y, z'
loop_
 _atom_site_type_symbol
 _atom_site_label
 _atom_site_symmetry_multiplicity
 _atom_site_fract_x
 _atom_site_fract_y
 _atom_site_fract_z
 _atom_site_occupancy
  Li  Li0  1  0.50000000  0.14428800  0.50000000  1
  Li  Li1  1  0.50000000  0.84123000  0.00000000  1
  Li  Li2  1  0.19908950  0.95300050  0.39914300  1
  Li  Li3  1  0.80091050  0.95300050  0.60085700  1
  Li  Li4  1  0.00000000  0.64428800  0.50000000  1
  Li  Li5  1  0.00000000  0.34123000  0.00000000  1
  Li  Li6  1  0.69908950  0.45300050  0.39914300  1
  Li  Li7  1  0.30091050  0.45300050  0.60085700  1
  Mn  Mn8  1  0.25386950  0.75588150  0.75831600  1
  Mn  Mn9  1  0.39700550  0.24735150  0.10350800  1
  Mn  Mn10  1  0.40465700  0.75169200  0.59350400  1
  Mn  Mn11  1  0.74613050  0.75588150  0.24168400  1
  Mn  Mn12  1  0.60299450  0.24735150  0.89649200  1
  Mn  Mn13  1  0.59534300  0.75169200  0.40649600  1
  Mn  Mn14  1  0.75386950  0.25588150  0.75831600  1
  Mn  Mn15  1  0.89700550  0.74735150  0.10350800  1
  Mn  Mn16  1  0.90465700  0.25169200  0.59350400  1
  Mn  Mn17  1  0.24613050  0.25588150  0.24168400  1
  Mn  Mn18  1  0.10299450  0.74735150  0.89649200  1
  Mn  Mn19  1  0.09534300  0.25169200  0.40649600  1
  P  P20  1  0.65476000  0.90539300  0.81686500  1
  P  P21  1  0.34524000  0.90539300  0.18313500  1
  P  P22  1  0.50000000  0.44043900  0.50000000  1
  P  P23  1  0.50000000  0.53734500  0.00000000  1
  P  P24  1  0.64664900  0.10254900  0.30631500  1
  P  P25  1  0.35335100  0.10254900  0.69368500  1
  P  P26  1  0.15476000  0.40539300  0.81686500  1
  P  P27  1  0.84524000  0.40539300  0.18313500  1
  P  P28  1  0.00000000  0.94043900  0.50000000  1
  P  P29  1  0.00000000  0.03734500  0.00000000  1
  P  P30  1  0.14664900  0.60254900  0.30631500  1
  P  P31  1  0.85335100  0.60254900  0.69368500  1
  O  O32  1  0.45239200  0.85475700  0.21097600  1
  O  O33  1  0.06120650  0.03280150  0.43426600  1
  O  O34  1  0.67027700  0.86669900  0.65660100  1
  O  O35  1  0.66471100  0.08296300  0.82348200  1
  O  O36  1  0.54760800  0.85475700  0.78902400  1
  O  O37  1  0.74170500  0.84085300  0.00268400  1
  O  O38  1  0.25829500  0.84085300  0.99731600  1
  O  O39  1  0.33528900  0.08296300  0.17651800  1
  O  O40  1  0.55308500  0.43959000  0.92253400  1
  O  O41  1  0.41394350  0.33121150  0.35253000  1
  O  O42  1  0.41246400  0.64408700  0.85270600  1
  O  O43  1  0.65146500  0.16168500  0.14388200  1
  O  O44  1  0.32972300  0.86669900  0.34339900  1
  O  O45  1  0.58605650  0.33121150  0.64747000  1
  O  O46  1  0.58753600  0.64408700  0.14729400  1
  O  O47  1  0.93879350  0.03280150  0.56573400  1
  O  O48  1  0.66796750  0.92856450  0.31736300  1
  O  O49  1  0.73688350  0.16590850  0.49639200  1
  O  O50  1  0.26311650  0.16590850  0.50360800  1
  O  O51  1  0.45852700  0.14186100  0.70667200  1
  O  O52  1  0.33203250  0.92856450  0.68263700  1
  O  O53  1  0.34853500  0.16168500  0.85611800  1
  O  O54  1  0.44691500  0.43959000  0.07746600  1
  O  O55  1  0.54147300  0.14186100  0.29332800  1
  O  O56  1  0.95239200  0.35475700  0.21097600  1
  O  O57  1  0.56120650  0.53280150  0.43426600  1
  O  O58  1  0.17027700  0.36669900  0.65660100  1
  O  O59  1  0.16471100  0.58296300  0.82348200  1
  O  O60  1  0.04760800  0.35475700  0.78902400  1
  O  O61  1  0.24170500  0.34085300  0.00268400  1
  O  O62  1  0.75829500  0.34085300  0.99731600  1
  O  O63  1  0.83528900  0.58296300  0.17651800  1
  O  O64  1  0.05308500  0.93959000  0.92253400  1
  O  O65  1  0.91394350  0.83121150  0.35253000  1
  O  O66  1  0.91246400  0.14408700  0.85270600  1
  O  O67  1  0.15146500  0.66168500  0.14388200  1
  O  O68  1  0.82972300  0.36669900  0.34339900  1
  O  O69  1  0.08605650  0.83121150  0.64747000  1
  O  O70  1  0.08753600  0.14408700  0.14729400  1
  O  O71  1  0.43879350  0.53280150  0.56573400  1
  O  O72  1  0.16796750  0.42856450  0.31736300  1
  O  O73  1  0.23688350  0.66590850  0.49639200  1
  O  O74  1  0.76311650  0.66590850  0.50360800  1
  O  O75  1  0.95852700  0.64186100  0.70667200  1
  O  O76  1  0.83203250  0.42856450  0.68263700  1
  O  O77  1  0.84853500  0.66168500  0.85611800  1
  O  O78  1  0.94691500  0.93959000  0.07746600  1
  O  O79  1  0.04147300  0.64186100  0.29332800  1
