# generated using pymatgen
data_K3Li2Nb6(PO8)3
_symmetry_space_group_name_H-M   'P 1'
_cell_length_a   13.35685713
_cell_length_b   13.35685713
_cell_length_c   10.86836875
_cell_angle_alpha   90.00000000
_cell_angle_beta   90.00000000
_cell_angle_gamma   120.00000000
_symmetry_Int_Tables_number   1
_chemical_formula_structural   K3Li2Nb6(PO8)3
_chemical_formula_sum   'K9 Li6 Nb18 P9 O72'
_cell_volume   1679.20437879
_cell_formula_units_Z   3
loop_
 _symmetry_equiv_pos_site_id
 _symmetry_equiv_pos_as_xyz
  1  'x, y, z'
loop_
 _atom_site_type_symbol
 _atom_site_label
 _atom_site_symmetry_multiplicity
 _atom_site_fract_x
 _atom_site_fract_y
 _atom_site_fract_z
 _atom_site_occupancy
  K  K0  1  0.69511967  0.99015033  0.39330833  1
  K  K1  1  0.29503067  0.30488033  0.39330833  1
  K  K2  1  0.00984967  0.70496933  0.39330833  1
  K  K3  1  0.36178633  0.32348367  0.72664167  1
  K  K4  1  0.96169733  0.63821367  0.72664167  1
  K  K5  1  0.67651633  0.03830267  0.72664167  1
  K  K6  1  0.02845300  0.65681700  0.05997500  1
  K  K7  1  0.62836400  0.97154700  0.05997500  1
  K  K8  1  0.34318300  0.37163600  0.05997500  1
  Li  Li9  1  0.00000000  0.00000000  0.63373900  1
  Li  Li10  1  0.00000000  0.00000000  0.36629800  1
  Li  Li11  1  0.66666667  0.33333333  0.96707233  1
  Li  Li12  1  0.66666667  0.33333333  0.69963133  1
  Li  Li13  1  0.33333333  0.66666667  0.30040567  1
  Li  Li14  1  0.33333333  0.66666667  0.03296467  1
  Nb  Nb15  1  0.02057600  0.17116000  0.82412800  1
  Nb  Nb16  1  0.82884000  0.84941600  0.82412800  1
  Nb  Nb17  1  0.98006800  0.15085700  0.17466600  1
  Nb  Nb18  1  0.15058400  0.97942400  0.82412800  1
  Nb  Nb19  1  0.84914300  0.82921100  0.17466600  1
  Nb  Nb20  1  0.17078900  0.01993200  0.17466600  1
  Nb  Nb21  1  0.68724267  0.50449333  0.15746133  1
  Nb  Nb22  1  0.49550667  0.18274933  0.15746133  1
  Nb  Nb23  1  0.64673467  0.48419033  0.50799933  1
  Nb  Nb24  1  0.81725067  0.31275733  0.15746133  1
  Nb  Nb25  1  0.51580967  0.16254433  0.50799933  1
  Nb  Nb26  1  0.83745567  0.35326533  0.50799933  1
  Nb  Nb27  1  0.35390933  0.83782667  0.49079467  1
  Nb  Nb28  1  0.16217333  0.51608267  0.49079467  1
  Nb  Nb29  1  0.31340133  0.81752367  0.84133267  1
  Nb  Nb30  1  0.48391733  0.64609067  0.49079467  1
  Nb  Nb31  1  0.18247633  0.49587767  0.84133267  1
  Nb  Nb32  1  0.50412233  0.68659867  0.84133267  1
  P  P33  1  0.99930067  0.21634833  0.50075833  1
  P  P34  1  0.78365167  0.78295233  0.50075833  1
  P  P35  1  0.21704767  0.00069933  0.50075833  1
  P  P36  1  0.66596733  0.54968167  0.83409167  1
  P  P37  1  0.45031833  0.11628567  0.83409167  1
  P  P38  1  0.88371433  0.33403267  0.83409167  1
  P  P39  1  0.33263400  0.88301500  0.16742500  1
  P  P40  1  0.11698500  0.44961900  0.16742500  1
  P  P41  1  0.55038100  0.66736600  0.16742500  1
  O  O42  1  0.99974833  0.47503467  0.50061767  1
  O  O43  1  0.51358033  0.18042067  0.33328967  1
  O  O44  1  0.89083267  0.22808033  0.52550133  1
  O  O45  1  0.88196033  0.01030867  0.80200967  1
  O  O46  1  0.81957933  0.33315967  0.33328967  1
  O  O47  1  0.10731533  0.33635967  0.47416767  1
  O  O48  1  0.02290600  0.16017700  0.61360700  1
  O  O49  1  0.97572300  0.13584400  0.38798900  1
  O  O50  1  0.12834833  0.11803967  0.80200967  1
  O  O51  1  0.66364033  0.77095567  0.47416767  1
  O  O52  1  0.83982300  0.86272900  0.61360700  1
  O  O53  1  0.98969133  0.87165167  0.80200967  1
  O  O54  1  0.52496533  0.52471367  0.50061767  1
  O  O55  1  0.87126767  0.98992433  0.19881833  1
  O  O56  1  0.86415600  0.83987900  0.38798900  1
  O  O57  1  0.77191967  0.66275233  0.52550133  1
  O  O58  1  0.11865667  0.12873233  0.19881833  1
  O  O59  1  0.13727100  0.97709400  0.61360700  1
  O  O60  1  0.16012100  0.02427700  0.38798900  1
  O  O61  1  0.33724767  0.10916733  0.52550133  1
  O  O62  1  0.01007567  0.88134333  0.19881833  1
  O  O63  1  0.22904433  0.89268467  0.47416767  1
  O  O64  1  0.66684033  0.48641967  0.33328967  1
  O  O65  1  0.47528633  0.00025167  0.50061767  1
  O  O66  1  0.66641500  0.80836800  0.83395100  1
  O  O67  1  0.18024700  0.51375400  0.66662300  1
  O  O68  1  0.55749933  0.56141367  0.85883467  1
  O  O69  1  0.54862700  0.34364200  0.13534300  1
  O  O70  1  0.48624600  0.66649300  0.66662300  1
  O  O71  1  0.77398200  0.66969300  0.80750100  1
  O  O72  1  0.68957267  0.49351033  0.94694033  1
  O  O73  1  0.64238967  0.46917733  0.72132233  1
  O  O74  1  0.79501500  0.45137300  0.13534300  1
  O  O75  1  0.33030700  0.10428900  0.80750100  1
  O  O76  1  0.50648967  0.19606233  0.94694033  1
  O  O77  1  0.65635800  0.20498500  0.13534300  1
  O  O78  1  0.19163200  0.85804700  0.83395100  1
  O  O79  1  0.53793433  0.32325767  0.53215167  1
  O  O80  1  0.53082267  0.17321233  0.72132233  1
  O  O81  1  0.43858633  0.99608567  0.85883467  1
  O  O82  1  0.78532333  0.46206567  0.53215167  1
  O  O83  1  0.80393767  0.31042733  0.94694033  1
  O  O84  1  0.82678767  0.35761033  0.72132233  1
  O  O85  1  0.00391433  0.44250067  0.85883467  1
  O  O86  1  0.67674233  0.21467667  0.53215167  1
  O  O87  1  0.89571100  0.22601800  0.80750100  1
  O  O88  1  0.33350700  0.81975300  0.66662300  1
  O  O89  1  0.14195300  0.33358500  0.83395100  1
  O  O90  1  0.33308167  0.14170133  0.16728433  1
  O  O91  1  0.84691367  0.84708733  0.99995633  1
  O  O92  1  0.22416600  0.89474700  0.19216800  1
  O  O93  1  0.21529367  0.67697533  0.46867633  1
  O  O94  1  0.15291267  0.99982633  0.99995633  1
  O  O95  1  0.44064867  0.00302633  0.14083433  1
  O  O96  1  0.35623933  0.82684367  0.28027367  1
  O  O97  1  0.30905633  0.80251067  0.05465567  1
  O  O98  1  0.46168167  0.78470633  0.46867633  1
  O  O99  1  0.99697367  0.43762233  0.14083433  1
  O  O100  1  0.17315633  0.52939567  0.28027367  1
  O  O101  1  0.32302467  0.53831833  0.46867633  1
  O  O102  1  0.85829867  0.19138033  0.16728433  1
  O  O103  1  0.20460100  0.65659100  0.86548500  1
  O  O104  1  0.19748933  0.50654567  0.05465567  1
  O  O105  1  0.10525300  0.32941900  0.19216800  1
  O  O106  1  0.45199000  0.79539900  0.86548500  1
  O  O107  1  0.47060433  0.64376067  0.28027367  1
  O  O108  1  0.49345433  0.69094367  0.05465567  1
  O  O109  1  0.67058100  0.77583400  0.19216800  1
  O  O110  1  0.34340900  0.54801000  0.86548500  1
  O  O111  1  0.56237767  0.55935133  0.14083433  1
  O  O112  1  0.00017367  0.15308633  0.99995633  1
  O  O113  1  0.80861967  0.66691833  0.16728433  1
