# generated using pymatgen
data_LiAg2F4
_symmetry_space_group_name_H-M   'P 1'
_cell_length_a   5.83477800
_cell_length_b   5.83477800
_cell_length_c   12.15846600
_cell_angle_alpha   90.00000000
_cell_angle_beta   90.00000000
_cell_angle_gamma   90.00000000
_symmetry_Int_Tables_number   1
_chemical_formula_structural   LiAg2F4
_chemical_formula_sum   'Li4 Ag8 F16'
_cell_volume   413.93052873
_cell_formula_units_Z   4
loop_
 _symmetry_equiv_pos_site_id
 _symmetry_equiv_pos_as_xyz
  1  'x, y, z'
loop_
 _atom_site_type_symbol
 _atom_site_label
 _atom_site_symmetry_multiplicity
 _atom_site_fract_x
 _atom_site_fract_y
 _atom_site_fract_z
 _atom_site_occupancy
  Li  Li0  1  0.00000000  0.50000000  0.25000000  1
  Li  Li1  1  0.00000000  0.00000000  0.00000000  1
  Li  Li2  1  0.50000000  0.00000000  0.75000000  1
  Li  Li3  1  0.50000000  0.50000000  0.50000000  1
  Ag  Ag4  1  0.75000000  0.00000000  0.37500000  1
  Ag  Ag5  1  0.25000000  0.00000000  0.37500000  1
  Ag  Ag6  1  0.50000000  0.75000000  0.12500000  1
  Ag  Ag7  1  0.50000000  0.25000000  0.12500000  1
  Ag  Ag8  1  0.25000000  0.50000000  0.87500000  1
  Ag  Ag9  1  0.75000000  0.50000000  0.87500000  1
  Ag  Ag10  1  0.00000000  0.25000000  0.62500000  1
  Ag  Ag11  1  0.00000000  0.75000000  0.62500000  1
  F  F12  1  0.80962050  0.78417950  0.22711350  1
  F  F13  1  0.80962050  0.28417950  0.02288650  1
  F  F14  1  0.28417950  0.69037950  0.27288650  1
  F  F15  1  0.78417950  0.69037950  0.47711350  1
  F  F16  1  0.71582050  0.30962050  0.27288650  1
  F  F17  1  0.21582050  0.30962050  0.47711350  1
  F  F18  1  0.19037950  0.21582050  0.22711350  1
  F  F19  1  0.19037950  0.71582050  0.02288650  1
  F  F20  1  0.30962050  0.28417950  0.72711350  1
  F  F21  1  0.30962050  0.78417950  0.52288650  1
  F  F22  1  0.78417950  0.19037950  0.77288650  1
  F  F23  1  0.28417950  0.19037950  0.97711350  1
  F  F24  1  0.21582050  0.80962050  0.77288650  1
  F  F25  1  0.71582050  0.80962050  0.97711350  1
  F  F26  1  0.69037950  0.71582050  0.72711350  1
  F  F27  1  0.69037950  0.21582050  0.52288650  1
