# generated using pymatgen
data_Mn3CoO8
_symmetry_space_group_name_H-M   'P 1'
_cell_length_a   5.80126660
_cell_length_b   5.80126660
_cell_length_c   14.13794769
_cell_angle_alpha   90.00000000
_cell_angle_beta   90.00000000
_cell_angle_gamma   120.00000000
_symmetry_Int_Tables_number   1
_chemical_formula_structural   Mn3CoO8
_chemical_formula_sum   'Mn9 Co3 O24'
_cell_volume   412.06208049
_cell_formula_units_Z   3
loop_
 _symmetry_equiv_pos_site_id
 _symmetry_equiv_pos_as_xyz
  1  'x, y, z'
loop_
 _atom_site_type_symbol
 _atom_site_label
 _atom_site_symmetry_multiplicity
 _atom_site_fract_x
 _atom_site_fract_y
 _atom_site_fract_z
 _atom_site_occupancy
  Mn  Mn0  1  0.50000000  0.50000000  0.00000000  1
  Mn  Mn1  1  0.16666667  0.33333333  0.33333333  1
  Mn  Mn2  1  0.00000000  0.50000000  0.00000000  1
  Mn  Mn3  1  0.16666667  0.83333333  0.33333333  1
  Mn  Mn4  1  0.83333333  0.66666667  0.66666667  1
  Mn  Mn5  1  0.66666667  0.83333333  0.33333333  1
  Mn  Mn6  1  0.83333333  0.16666667  0.66666667  1
  Mn  Mn7  1  0.50000000  0.00000000  0.00000000  1
  Mn  Mn8  1  0.33333333  0.16666667  0.66666667  1
  Co  Co9  1  0.00000000  0.00000000  0.00000000  1
  Co  Co10  1  0.66666667  0.33333333  0.33333333  1
  Co  Co11  1  0.33333333  0.66666667  0.66666667  1
  O  O12  1  0.16418950  0.83581050  0.06733600  1
  O  O13  1  0.33333333  0.66666667  0.40153833  1
  O  O14  1  0.67162100  0.83581050  0.06733600  1
  O  O15  1  0.16418950  0.32837900  0.06733600  1
  O  O16  1  0.50247717  0.00495433  0.26599733  1
  O  O17  1  0.99504567  0.49752283  0.26599733  1
  O  O18  1  0.33333333  0.66666667  0.93179500  1
  O  O19  1  0.50247717  0.49752283  0.26599733  1
  O  O20  1  0.83085617  0.16914383  0.40066933  1
  O  O21  1  0.00000000  0.00000000  0.73487167  1
  O  O22  1  0.33828767  0.16914383  0.40066933  1
  O  O23  1  0.83085617  0.66171233  0.40066933  1
  O  O24  1  0.16914383  0.33828767  0.59933067  1
  O  O25  1  0.66171233  0.83085617  0.59933067  1
  O  O26  1  0.00000000  0.00000000  0.26512833  1
  O  O27  1  0.16914383  0.83085617  0.59933067  1
  O  O28  1  0.49752283  0.50247717  0.73400267  1
  O  O29  1  0.66666667  0.33333333  0.06820500  1
  O  O30  1  0.00495433  0.50247717  0.73400267  1
  O  O31  1  0.49752283  0.99504567  0.73400267  1
  O  O32  1  0.83581050  0.67162100  0.93266400  1
  O  O33  1  0.32837900  0.16418950  0.93266400  1
  O  O34  1  0.66666667  0.33333333  0.59846167  1
  O  O35  1  0.83581050  0.16418950  0.93266400  1
