# generated using pymatgen
data_Li3Fe4NiO8
_symmetry_space_group_name_H-M   'P 1'
_cell_length_a   10.41968400
_cell_length_b   5.94748600
_cell_length_c   5.98749598
_cell_angle_alpha   90.00000000
_cell_angle_beta   124.82280673
_cell_angle_gamma   90.00000000
_symmetry_Int_Tables_number   1
_chemical_formula_structural   Li3Fe4NiO8
_chemical_formula_sum   'Li6 Fe8 Ni2 O16'
_cell_volume   304.60364121
_cell_formula_units_Z   2
loop_
 _symmetry_equiv_pos_site_id
 _symmetry_equiv_pos_as_xyz
  1  'x, y, z'
loop_
 _atom_site_type_symbol
 _atom_site_label
 _atom_site_symmetry_multiplicity
 _atom_site_fract_x
 _atom_site_fract_y
 _atom_site_fract_z
 _atom_site_occupancy
  Li  Li0  1  0.25000000  0.25000000  0.00000000  1
  Li  Li1  1  0.00000000  0.00000000  0.50000000  1
  Li  Li2  1  0.25000000  0.75000000  0.00000000  1
  Li  Li3  1  0.75000000  0.75000000  0.00000000  1
  Li  Li4  1  0.50000000  0.50000000  0.50000000  1
  Li  Li5  1  0.75000000  0.25000000  0.00000000  1
  Fe  Fe6  1  0.00000000  0.50000000  0.50000000  1
  Fe  Fe7  1  0.00000000  0.00000000  0.00000000  1
  Fe  Fe8  1  0.25000000  0.25000000  0.50000000  1
  Fe  Fe9  1  0.25000000  0.75000000  0.50000000  1
  Fe  Fe10  1  0.50000000  0.00000000  0.50000000  1
  Fe  Fe11  1  0.50000000  0.50000000  0.00000000  1
  Fe  Fe12  1  0.75000000  0.75000000  0.50000000  1
  Fe  Fe13  1  0.75000000  0.25000000  0.50000000  1
  Ni  Ni14  1  0.00000000  0.50000000  0.00000000  1
  Ni  Ni15  1  0.50000000  0.00000000  0.00000000  1
  O  O16  1  0.25367700  0.00000000  0.73436300  1
  O  O17  1  0.00717850  0.74357750  0.26269300  1
  O  O18  1  0.00717850  0.25642250  0.26269300  1
  O  O19  1  0.24224400  0.50000000  0.73382000  1
  O  O20  1  0.25775600  0.00000000  0.26618000  1
  O  O21  1  0.49282150  0.24357750  0.73730700  1
  O  O22  1  0.49282150  0.75642250  0.73730700  1
  O  O23  1  0.24632300  0.50000000  0.26563700  1
  O  O24  1  0.75367700  0.50000000  0.73436300  1
  O  O25  1  0.50717850  0.24357750  0.26269300  1
  O  O26  1  0.50717850  0.75642250  0.26269300  1
  O  O27  1  0.74224400  0.00000000  0.73382000  1
  O  O28  1  0.75775600  0.50000000  0.26618000  1
  O  O29  1  0.99282150  0.74357750  0.73730700  1
  O  O30  1  0.99282150  0.25642250  0.73730700  1
  O  O31  1  0.74632300  0.00000000  0.26563700  1
