# generated using pymatgen
data_Li5Fe2Co5O12
_symmetry_space_group_name_H-M   'P 1'
_cell_length_a   5.05045800
_cell_length_b   8.89504600
_cell_length_c   9.84056987
_cell_angle_alpha   90.00000000
_cell_angle_beta   101.17373267
_cell_angle_gamma   90.00000000
_symmetry_Int_Tables_number   1
_chemical_formula_structural   Li5Fe2Co5O12
_chemical_formula_sum   'Li10 Fe4 Co10 O24'
_cell_volume   433.69832135
_cell_formula_units_Z   2
loop_
 _symmetry_equiv_pos_site_id
 _symmetry_equiv_pos_as_xyz
  1  'x, y, z'
loop_
 _atom_site_type_symbol
 _atom_site_label
 _atom_site_symmetry_multiplicity
 _atom_site_fract_x
 _atom_site_fract_y
 _atom_site_fract_z
 _atom_site_occupancy
  Li  Li0  1  0.74538700  0.92101900  0.24093200  1
  Li  Li1  1  0.24901050  0.57861450  0.76074900  1
  Li  Li2  1  0.25461300  0.92101900  0.75906800  1
  Li  Li3  1  0.75098950  0.57861450  0.23925100  1
  Li  Li4  1  0.00000000  0.91606200  0.00000000  1
  Li  Li5  1  0.24538700  0.42101900  0.24093200  1
  Li  Li6  1  0.74901050  0.07861450  0.76074900  1
  Li  Li7  1  0.75461300  0.42101900  0.75906800  1
  Li  Li8  1  0.25098950  0.07861450  0.23925100  1
  Li  Li9  1  0.50000000  0.41606200  0.00000000  1
  Fe  Fe10  1  0.00000000  0.75107500  0.50000000  1
  Fe  Fe11  1  0.50000000  0.75112500  0.00000000  1
  Fe  Fe12  1  0.50000000  0.25107500  0.50000000  1
  Fe  Fe13  1  0.00000000  0.25112500  0.00000000  1
  Co  Co14  1  0.50000000  0.58940000  0.50000000  1
  Co  Co15  1  0.75619550  0.75392650  0.75866800  1
  Co  Co16  1  0.24380450  0.75392650  0.24133200  1
  Co  Co17  1  0.50000000  0.91564800  0.50000000  1
  Co  Co18  1  0.00000000  0.58074600  0.00000000  1
  Co  Co19  1  0.00000000  0.08940000  0.50000000  1
  Co  Co20  1  0.25619550  0.25392650  0.75866800  1
  Co  Co21  1  0.74380450  0.25392650  0.24133200  1
  Co  Co22  1  0.00000000  0.41564800  0.50000000  1
  Co  Co23  1  0.50000000  0.08074600  0.00000000  1
  O  O24  1  0.61134700  0.76001000  0.37444900  1
  O  O25  1  0.61347150  0.91773550  0.88543600  1
  O  O26  1  0.38865300  0.76001000  0.62555100  1
  O  O27  1  0.86121500  0.90889300  0.61251700  1
  O  O28  1  0.38652850  0.91773550  0.11456400  1
  O  O29  1  0.35683900  0.59238400  0.11886300  1
  O  O30  1  0.13878500  0.90889300  0.38748300  1
  O  O31  1  0.11728800  0.59190100  0.38713300  1
  O  O32  1  0.12066900  0.73649700  0.88304600  1
  O  O33  1  0.64316100  0.59238400  0.88113700  1
  O  O34  1  0.88271200  0.59190100  0.61286700  1
  O  O35  1  0.87933100  0.73649700  0.11695400  1
  O  O36  1  0.11134700  0.26001000  0.37444900  1
  O  O37  1  0.11347150  0.41773550  0.88543600  1
  O  O38  1  0.88865300  0.26001000  0.62555100  1
  O  O39  1  0.36121500  0.40889300  0.61251700  1
  O  O40  1  0.88652850  0.41773550  0.11456400  1
  O  O41  1  0.85683900  0.09238400  0.11886300  1
  O  O42  1  0.63878500  0.40889300  0.38748300  1
  O  O43  1  0.61728800  0.09190100  0.38713300  1
  O  O44  1  0.62066900  0.23649700  0.88304600  1
  O  O45  1  0.14316100  0.09238400  0.88113700  1
  O  O46  1  0.38271200  0.09190100  0.61286700  1
  O  O47  1  0.37933100  0.23649700  0.11695400  1
