# generated using pymatgen
data_Li(FeO2)3
_symmetry_space_group_name_H-M   'P 1'
_cell_length_a   5.60625962
_cell_length_b   9.25089405
_cell_length_c   16.78099659
_cell_angle_alpha   90.00000000
_cell_angle_beta   90.00000000
_cell_angle_gamma   90.00000000
_symmetry_Int_Tables_number   1
_chemical_formula_structural   Li(FeO2)3
_chemical_formula_sum   'Li8 Fe24 O48'
_cell_volume   870.31138007
_cell_formula_units_Z   8
loop_
 _symmetry_equiv_pos_site_id
 _symmetry_equiv_pos_as_xyz
  1  'x, y, z'
loop_
 _atom_site_type_symbol
 _atom_site_label
 _atom_site_symmetry_multiplicity
 _atom_site_fract_x
 _atom_site_fract_y
 _atom_site_fract_z
 _atom_site_occupancy
  Li  Li0  1  0.75000000  0.25000000  0.75000000  1
  Li  Li1  1  0.00000000  0.00000000  0.00000000  1
  Li  Li2  1  0.75000000  0.75000000  0.25000000  1
  Li  Li3  1  0.00000000  0.50000000  0.50000000  1
  Li  Li4  1  0.25000000  0.25000000  0.25000000  1
  Li  Li5  1  0.50000000  0.00000000  0.50000000  1
  Li  Li6  1  0.25000000  0.75000000  0.75000000  1
  Li  Li7  1  0.50000000  0.50000000  0.00000000  1
  Fe  Fe8  1  0.25000000  0.25000000  0.08111250  1
  Fe  Fe9  1  0.50000000  0.00000000  0.66888750  1
  Fe  Fe10  1  0.75000000  0.75000000  0.75000000  1
  Fe  Fe11  1  0.00000000  0.00000000  0.83111250  1
  Fe  Fe12  1  0.25000000  0.75000000  0.91888750  1
  Fe  Fe13  1  0.50000000  0.00000000  0.00000000  1
  Fe  Fe14  1  0.25000000  0.75000000  0.58111250  1
  Fe  Fe15  1  0.50000000  0.50000000  0.16888750  1
  Fe  Fe16  1  0.75000000  0.25000000  0.25000000  1
  Fe  Fe17  1  0.00000000  0.50000000  0.33111250  1
  Fe  Fe18  1  0.25000000  0.25000000  0.41888750  1
  Fe  Fe19  1  0.50000000  0.50000000  0.50000000  1
  Fe  Fe20  1  0.75000000  0.25000000  0.58111250  1
  Fe  Fe21  1  0.00000000  0.00000000  0.16888750  1
  Fe  Fe22  1  0.25000000  0.75000000  0.25000000  1
  Fe  Fe23  1  0.50000000  0.00000000  0.33111250  1
  Fe  Fe24  1  0.75000000  0.75000000  0.41888750  1
  Fe  Fe25  1  0.00000000  0.00000000  0.50000000  1
  Fe  Fe26  1  0.75000000  0.75000000  0.08111250  1
  Fe  Fe27  1  0.00000000  0.50000000  0.66888750  1
  Fe  Fe28  1  0.25000000  0.25000000  0.75000000  1
  Fe  Fe29  1  0.50000000  0.50000000  0.83111250  1
  Fe  Fe30  1  0.75000000  0.25000000  0.91888750  1
  Fe  Fe31  1  0.00000000  0.50000000  0.00000000  1
  O  O32  1  0.25886950  0.45760300  0.08068350  1
  O  O33  1  0.24113050  0.04239700  0.08068350  1
  O  O34  1  0.00886950  0.70760300  0.66931650  1
  O  O35  1  0.75000000  0.96905600  0.75000000  1
  O  O36  1  0.99113050  0.29239700  0.66931650  1
  O  O37  1  0.25000000  0.03094400  0.75000000  1
  O  O38  1  0.00886950  0.79239700  0.83068350  1
  O  O39  1  0.99113050  0.20760300  0.83068350  1
  O  O40  1  0.75886950  0.04239700  0.91931650  1
  O  O41  1  0.24113050  0.95760300  0.91931650  1
  O  O42  1  0.00000000  0.71905600  0.00000000  1
  O  O43  1  0.00000000  0.28094400  0.00000000  1
  O  O44  1  0.25886950  0.95760300  0.58068350  1
  O  O45  1  0.24113050  0.54239700  0.58068350  1
  O  O46  1  0.00886950  0.20760300  0.16931650  1
  O  O47  1  0.75000000  0.46905600  0.25000000  1
  O  O48  1  0.99113050  0.79239700  0.16931650  1
  O  O49  1  0.25000000  0.53094400  0.25000000  1
  O  O50  1  0.00886950  0.29239700  0.33068350  1
  O  O51  1  0.99113050  0.70760300  0.33068350  1
  O  O52  1  0.75886950  0.54239700  0.41931650  1
  O  O53  1  0.24113050  0.45760300  0.41931650  1
  O  O54  1  0.00000000  0.21905600  0.50000000  1
  O  O55  1  0.00000000  0.78094400  0.50000000  1
  O  O56  1  0.75886950  0.45760300  0.58068350  1
  O  O57  1  0.74113050  0.04239700  0.58068350  1
  O  O58  1  0.50886950  0.70760300  0.16931650  1
  O  O59  1  0.25000000  0.96905600  0.25000000  1
  O  O60  1  0.49113050  0.29239700  0.16931650  1
  O  O61  1  0.75000000  0.03094400  0.25000000  1
  O  O62  1  0.50886950  0.79239700  0.33068350  1
  O  O63  1  0.49113050  0.20760300  0.33068350  1
  O  O64  1  0.25886950  0.04239700  0.41931650  1
  O  O65  1  0.74113050  0.95760300  0.41931650  1
  O  O66  1  0.50000000  0.71905600  0.50000000  1
  O  O67  1  0.50000000  0.28094400  0.50000000  1
  O  O68  1  0.75886950  0.95760300  0.08068350  1
  O  O69  1  0.74113050  0.54239700  0.08068350  1
  O  O70  1  0.50886950  0.20760300  0.66931650  1
  O  O71  1  0.25000000  0.46905600  0.75000000  1
  O  O72  1  0.49113050  0.79239700  0.66931650  1
  O  O73  1  0.75000000  0.53094400  0.75000000  1
  O  O74  1  0.50886950  0.29239700  0.83068350  1
  O  O75  1  0.49113050  0.70760300  0.83068350  1
  O  O76  1  0.25886950  0.54239700  0.91931650  1
  O  O77  1  0.74113050  0.45760300  0.91931650  1
  O  O78  1  0.50000000  0.21905600  0.00000000  1
  O  O79  1  0.50000000  0.78094400  0.00000000  1
