# generated using pymatgen
data_Ti2(SO4)3
_symmetry_space_group_name_H-M   'P 1'
_cell_length_a   8.58491405
_cell_length_b   8.58491405
_cell_length_c   22.53230923
_cell_angle_alpha   90.00000000
_cell_angle_beta   90.00000000
_cell_angle_gamma   120.00000000
_symmetry_Int_Tables_number   1
_chemical_formula_structural   Ti2(SO4)3
_chemical_formula_sum   'Ti12 S18 O72'
_cell_volume   1438.16341612
_cell_formula_units_Z   6
loop_
 _symmetry_equiv_pos_site_id
 _symmetry_equiv_pos_as_xyz
  1  'x, y, z'
loop_
 _atom_site_type_symbol
 _atom_site_label
 _atom_site_symmetry_multiplicity
 _atom_site_fract_x
 _atom_site_fract_y
 _atom_site_fract_z
 _atom_site_occupancy
  Ti  Ti0  1  0.00000000  0.00000000  0.14451900  1
  Ti  Ti1  1  0.66666667  0.33333333  0.18881433  1
  Ti  Ti2  1  0.33333333  0.66666667  0.01816867  1
  Ti  Ti3  1  0.33333333  0.66666667  0.31516467  1
  Ti  Ti4  1  0.66666667  0.33333333  0.47785233  1
  Ti  Ti5  1  0.33333333  0.66666667  0.52214767  1
  Ti  Ti6  1  0.00000000  0.00000000  0.35150200  1
  Ti  Ti7  1  0.00000000  0.00000000  0.64849800  1
  Ti  Ti8  1  0.33333333  0.66666667  0.81118567  1
  Ti  Ti9  1  0.00000000  0.00000000  0.85548100  1
  Ti  Ti10  1  0.66666667  0.33333333  0.68483533  1
  Ti  Ti11  1  0.66666667  0.33333333  0.98183133  1
  S  S12  1  0.28802833  0.28723667  0.25012467  1
  S  S13  1  0.99920833  0.71197167  0.25012467  1
  S  S14  1  0.71276333  0.00079167  0.25012467  1
  S  S15  1  0.37863833  0.04609667  0.08320867  1
  S  S16  1  0.66745833  0.62136167  0.08320867  1
  S  S17  1  0.95390333  0.33254167  0.08320867  1
  S  S18  1  0.95469500  0.62057000  0.58345800  1
  S  S19  1  0.66587500  0.04530500  0.58345800  1
  S  S20  1  0.37943000  0.33412500  0.58345800  1
  S  S21  1  0.04530500  0.37943000  0.41654200  1
  S  S22  1  0.33412500  0.95469500  0.41654200  1
  S  S23  1  0.62057000  0.66587500  0.41654200  1
  S  S24  1  0.62136167  0.95390333  0.91679133  1
  S  S25  1  0.33254167  0.37863833  0.91679133  1
  S  S26  1  0.04609667  0.66745833  0.91679133  1
  S  S27  1  0.71197167  0.71276333  0.74987533  1
  S  S28  1  0.00079167  0.28802833  0.74987533  1
  S  S29  1  0.28723667  0.99920833  0.74987533  1
  O  O30  1  0.18902833  0.20431167  0.19442367  1
  O  O31  1  0.01528333  0.81097167  0.19442367  1
  O  O32  1  0.79568833  0.98471667  0.19442367  1
  O  O33  1  0.47763833  0.12902167  0.13890967  1
  O  O34  1  0.65138333  0.52236167  0.13890967  1
  O  O35  1  0.87097833  0.34861667  0.13890967  1
  O  O36  1  0.21500733  0.15539967  0.29966967  1
  O  O37  1  0.94039233  0.78499267  0.29966967  1
  O  O38  1  0.84460033  0.05960767  0.29966967  1
  O  O39  1  0.45165933  0.17793367  0.03366367  1
  O  O40  1  0.72627433  0.54834067  0.03366367  1
  O  O41  1  0.82206633  0.27372567  0.03366367  1
  O  O42  1  0.47980400  0.34235600  0.24316200  1
  O  O43  1  0.86255200  0.52019600  0.24316200  1
  O  O44  1  0.65764400  0.13744800  0.24316200  1
  O  O45  1  0.18686267  0.99097733  0.09017133  1
  O  O46  1  0.80411467  0.81313733  0.09017133  1
  O  O47  1  0.00902267  0.19588533  0.09017133  1
  O  O48  1  0.26933900  0.44607300  0.26322200  1
  O  O49  1  0.17673400  0.73066100  0.26322200  1
  O  O50  1  0.55392700  0.82326600  0.26322200  1
  O  O51  1  0.39732767  0.88726033  0.07011133  1
  O  O52  1  0.48993267  0.60267233  0.07011133  1
  O  O53  1  0.11273967  0.51006733  0.07011133  1
  O  O54  1  0.85569500  0.53764500  0.52775700  1
  O  O55  1  0.68195000  0.14430500  0.52775700  1
  O  O56  1  0.46235500  0.31805000  0.52775700  1
  O  O57  1  0.14430500  0.46235500  0.47224300  1
  O  O58  1  0.31805000  0.85569500  0.47224300  1
  O  O59  1  0.53764500  0.68195000  0.47224300  1
  O  O60  1  0.88167400  0.48873300  0.63300300  1
  O  O61  1  0.60705900  0.11832600  0.63300300  1
  O  O62  1  0.51126700  0.39294100  0.63300300  1
  O  O63  1  0.11832600  0.51126700  0.36699700  1
  O  O64  1  0.39294100  0.88167400  0.36699700  1
  O  O65  1  0.48873300  0.60705900  0.36699700  1
  O  O66  1  0.14647067  0.67568933  0.57649533  1
  O  O67  1  0.52921867  0.85352933  0.57649533  1
  O  O68  1  0.32431067  0.47078133  0.57649533  1
  O  O69  1  0.85352933  0.32431067  0.42350467  1
  O  O70  1  0.47078133  0.14647067  0.42350467  1
  O  O71  1  0.67568933  0.52921867  0.42350467  1
  O  O72  1  0.93600567  0.77940633  0.59655533  1
  O  O73  1  0.84340067  0.06399433  0.59655533  1
  O  O74  1  0.22059367  0.15659933  0.59655533  1
  O  O75  1  0.06399433  0.22059367  0.40344467  1
  O  O76  1  0.15659933  0.93600567  0.40344467  1
  O  O77  1  0.77940633  0.84340067  0.40344467  1
  O  O78  1  0.52236167  0.87097833  0.86109033  1
  O  O79  1  0.34861667  0.47763833  0.86109033  1
  O  O80  1  0.12902167  0.65138333  0.86109033  1
  O  O81  1  0.81097167  0.79568833  0.80557633  1
  O  O82  1  0.98471667  0.18902833  0.80557633  1
  O  O83  1  0.20431167  0.01528333  0.80557633  1
  O  O84  1  0.54834067  0.82206633  0.96633633  1
  O  O85  1  0.27372567  0.45165933  0.96633633  1
  O  O86  1  0.17793367  0.72627433  0.96633633  1
  O  O87  1  0.78499267  0.84460033  0.70033033  1
  O  O88  1  0.05960767  0.21500733  0.70033033  1
  O  O89  1  0.15539967  0.94039233  0.70033033  1
  O  O90  1  0.81313733  0.00902267  0.90982867  1
  O  O91  1  0.19588533  0.18686267  0.90982867  1
  O  O92  1  0.99097733  0.80411467  0.90982867  1
  O  O93  1  0.52019600  0.65764400  0.75683800  1
  O  O94  1  0.13744800  0.47980400  0.75683800  1
  O  O95  1  0.34235600  0.86255200  0.75683800  1
  O  O96  1  0.60267233  0.11273967  0.92988867  1
  O  O97  1  0.51006733  0.39732767  0.92988867  1
  O  O98  1  0.88726033  0.48993267  0.92988867  1
  O  O99  1  0.73066100  0.55392700  0.73677800  1
  O  O100  1  0.82326600  0.26933900  0.73677800  1
  O  O101  1  0.44607300  0.17673400  0.73677800  1
