# generated using pymatgen
data_Li4Mn2Ni3Sb3O16
_symmetry_space_group_name_H-M   'P 1'
_cell_length_a   10.50772200
_cell_length_b   6.10029200
_cell_length_c   9.69804755
_cell_angle_alpha   90.00000000
_cell_angle_beta   92.85703775
_cell_angle_gamma   90.00000000
_symmetry_Int_Tables_number   1
_chemical_formula_structural   Li4Mn2Ni3Sb3O16
_chemical_formula_sum   'Li8 Mn4 Ni6 Sb6 O32'
_cell_volume   620.87382170
_cell_formula_units_Z   2
loop_
 _symmetry_equiv_pos_site_id
 _symmetry_equiv_pos_as_xyz
  1  'x, y, z'
loop_
 _atom_site_type_symbol
 _atom_site_label
 _atom_site_symmetry_multiplicity
 _atom_site_fract_x
 _atom_site_fract_y
 _atom_site_fract_z
 _atom_site_occupancy
  Li  Li0  1  0.33247800  0.00000000  0.11329300  1
  Li  Li1  1  0.02599500  0.00000000  0.01645600  1
  Li  Li2  1  0.01923100  0.00000000  0.49687000  1
  Li  Li3  1  0.66935700  0.00000000  0.59448100  1
  Li  Li4  1  0.83247800  0.50000000  0.11329300  1
  Li  Li5  1  0.52599500  0.50000000  0.01645600  1
  Li  Li6  1  0.51923100  0.50000000  0.49687000  1
  Li  Li7  1  0.16935700  0.50000000  0.59448100  1
  Mn  Mn8  1  0.32720000  0.00000000  0.49856900  1
  Mn  Mn9  1  0.65056900  0.00000000  0.02583400  1
  Mn  Mn10  1  0.82720000  0.50000000  0.49856900  1
  Mn  Mn11  1  0.15056900  0.50000000  0.02583400  1
  Ni  Ni12  1  0.16851800  0.00000000  0.78596400  1
  Ni  Ni13  1  0.58185900  0.24486600  0.28586500  1
  Ni  Ni14  1  0.58185900  0.75513400  0.28586500  1
  Ni  Ni15  1  0.66851800  0.50000000  0.78596400  1
  Ni  Ni16  1  0.08185900  0.74486600  0.28586500  1
  Ni  Ni17  1  0.08185900  0.25513400  0.28586500  1
  Sb  Sb18  1  0.41273000  0.24786300  0.78671400  1
  Sb  Sb19  1  0.41273000  0.75213700  0.78671400  1
  Sb  Sb20  1  0.82960700  0.00000000  0.28759100  1
  Sb  Sb21  1  0.91273000  0.74786300  0.78671400  1
  Sb  Sb22  1  0.91273000  0.25213700  0.78671400  1
  Sb  Sb23  1  0.32960700  0.50000000  0.28759100  1
  O  O24  1  0.41437750  0.26170550  0.40270500  1
  O  O25  1  0.48002100  0.00000000  0.66227900  1
  O  O26  1  0.33920600  0.00000000  0.90047300  1
  O  O27  1  0.99431900  0.00000000  0.68464400  1
  O  O28  1  0.99403100  0.00000000  0.19363400  1
  O  O29  1  0.41437750  0.73829450  0.40270500  1
  O  O30  1  0.25807100  0.22993900  0.66545700  1
  O  O31  1  0.25807100  0.77006100  0.66545700  1
  O  O32  1  0.84723100  0.00000000  0.90183000  1
  O  O33  1  0.17204600  0.00000000  0.39622500  1
  O  O34  1  0.73958750  0.21368050  0.14832700  1
  O  O35  1  0.73958750  0.78631950  0.14832700  1
  O  O36  1  0.67097400  0.00000000  0.39192900  1
  O  O37  1  0.57607350  0.24812350  0.90305200  1
  O  O38  1  0.51488600  0.00000000  0.15792300  1
  O  O39  1  0.57607350  0.75187650  0.90305200  1
  O  O40  1  0.91437750  0.76170550  0.40270500  1
  O  O41  1  0.98002100  0.50000000  0.66227900  1
  O  O42  1  0.83920600  0.50000000  0.90047300  1
  O  O43  1  0.49431900  0.50000000  0.68464400  1
  O  O44  1  0.49403100  0.50000000  0.19363400  1
  O  O45  1  0.91437750  0.23829450  0.40270500  1
  O  O46  1  0.75807100  0.72993900  0.66545700  1
  O  O47  1  0.75807100  0.27006100  0.66545700  1
  O  O48  1  0.34723100  0.50000000  0.90183000  1
  O  O49  1  0.67204600  0.50000000  0.39622500  1
  O  O50  1  0.23958750  0.71368050  0.14832700  1
  O  O51  1  0.23958750  0.28631950  0.14832700  1
  O  O52  1  0.17097400  0.50000000  0.39192900  1
  O  O53  1  0.07607350  0.74812350  0.90305200  1
  O  O54  1  0.01488600  0.50000000  0.15792300  1
  O  O55  1  0.07607350  0.25187650  0.90305200  1
