# generated using pymatgen
data_LiMnPO4
_symmetry_space_group_name_H-M   'P 1'
_cell_length_a   5.10743600
_cell_length_b   6.08161640
_cell_length_c   11.53089576
_cell_angle_alpha   90.00000000
_cell_angle_beta   90.00000000
_cell_angle_gamma   90.00000000
_symmetry_Int_Tables_number   1
_chemical_formula_structural   LiMnPO4
_chemical_formula_sum   'Li4 Mn4 P4 O16'
_cell_volume   358.16653288
_cell_formula_units_Z   4
loop_
 _symmetry_equiv_pos_site_id
 _symmetry_equiv_pos_as_xyz
  1  'x, y, z'
loop_
 _atom_site_type_symbol
 _atom_site_label
 _atom_site_symmetry_multiplicity
 _atom_site_fract_x
 _atom_site_fract_y
 _atom_site_fract_z
 _atom_site_occupancy
  Li  Li0  1  0.00640400  0.78439150  0.56210350  1
  Li  Li1  1  0.50640400  0.28439150  0.93789650  1
  Li  Li2  1  0.00640400  0.71560850  0.06210350  1
  Li  Li3  1  0.50640400  0.21560850  0.43789650  1
  Mn  Mn4  1  0.01030100  0.03113550  0.83096150  1
  Mn  Mn5  1  0.51030100  0.96886450  0.16903850  1
  Mn  Mn6  1  0.51030100  0.53113550  0.66903850  1
  Mn  Mn7  1  0.01030100  0.46886450  0.33096150  1
  P  P8  1  0.00319300  0.26515750  0.58552450  1
  P  P9  1  0.50319300  0.76515750  0.91447550  1
  P  P10  1  0.00319300  0.23484250  0.08552450  1
  P  P11  1  0.50319300  0.73484250  0.41447550  1
  O  O12  1  0.61746900  0.75725450  0.53909750  1
  O  O13  1  0.11746900  0.25725450  0.96090250  1
  O  O14  1  0.61746900  0.74274550  0.03909750  1
  O  O15  1  0.11746900  0.24274550  0.46090250  1
  O  O16  1  0.70009600  0.27968750  0.58092950  1
  O  O17  1  0.20009600  0.77968750  0.91907050  1
  O  O18  1  0.70009600  0.22031250  0.08092950  1
  O  O19  1  0.20009600  0.72031250  0.41907050  1
  O  O20  1  0.08370100  0.05676750  0.65607850  1
  O  O21  1  0.58370100  0.55676750  0.84392150  1
  O  O22  1  0.08370100  0.44323250  0.15607850  1
  O  O23  1  0.58370100  0.94323250  0.34392150  1
  O  O24  1  0.10834600  0.47849450  0.64534050  1
  O  O25  1  0.60834600  0.97849450  0.85465950  1
  O  O26  1  0.10834600  0.02150550  0.14534050  1
  O  O27  1  0.60834600  0.52150550  0.35465950  1
