# generated using pymatgen
data_LiVF3
_symmetry_space_group_name_H-M   'P 1'
_cell_length_a   5.35485989
_cell_length_b   5.35485989
_cell_length_c   14.28490754
_cell_angle_alpha   90.00000000
_cell_angle_beta   90.00000000
_cell_angle_gamma   120.00000000
_symmetry_Int_Tables_number   1
_chemical_formula_structural   LiVF3
_chemical_formula_sum   'Li6 V6 F18'
_cell_volume   354.73520290
_cell_formula_units_Z   6
loop_
 _symmetry_equiv_pos_site_id
 _symmetry_equiv_pos_as_xyz
  1  'x, y, z'
loop_
 _atom_site_type_symbol
 _atom_site_label
 _atom_site_symmetry_multiplicity
 _atom_site_fract_x
 _atom_site_fract_y
 _atom_site_fract_z
 _atom_site_occupancy
  Li  Li0  1  0.00000000  0.00000000  0.13858400  1
  Li  Li1  1  0.66666667  0.33333333  0.19474933  1
  Li  Li2  1  0.66666667  0.33333333  0.47191733  1
  Li  Li3  1  0.33333333  0.66666667  0.52808267  1
  Li  Li4  1  0.33333333  0.66666667  0.80525067  1
  Li  Li5  1  0.00000000  0.00000000  0.86141600  1
  V  V6  1  0.33333333  0.66666667  0.01077367  1
  V  V7  1  0.33333333  0.66666667  0.32255967  1
  V  V8  1  0.00000000  0.00000000  0.34410700  1
  V  V9  1  0.00000000  0.00000000  0.65589300  1
  V  V10  1  0.66666667  0.33333333  0.67744033  1
  V  V11  1  0.66666667  0.33333333  0.98922633  1
  F  F12  1  0.35481300  0.02502700  0.08290700  1
  F  F13  1  0.97497300  0.32978600  0.08290700  1
  F  F14  1  0.99645267  0.68814633  0.25042633  1
  F  F15  1  0.67021400  0.64518700  0.08290700  1
  F  F16  1  0.69169367  0.00354733  0.25042633  1
  F  F17  1  0.31185367  0.30830633  0.25042633  1
  F  F18  1  0.02147967  0.35836033  0.41624033  1
  F  F19  1  0.64163967  0.66311933  0.41624033  1
  F  F20  1  0.66311933  0.02147967  0.58375967  1
  F  F21  1  0.33688067  0.97852033  0.41624033  1
  F  F22  1  0.35836033  0.33688067  0.58375967  1
  F  F23  1  0.97852033  0.64163967  0.58375967  1
  F  F24  1  0.68814633  0.69169367  0.74957367  1
  F  F25  1  0.30830633  0.99645267  0.74957367  1
  F  F26  1  0.32978600  0.35481300  0.91709300  1
  F  F27  1  0.00354733  0.31185367  0.74957367  1
  F  F28  1  0.02502700  0.67021400  0.91709300  1
  F  F29  1  0.64518700  0.97497300  0.91709300  1
