# generated using pymatgen
data_Li5FeS4
_symmetry_space_group_name_H-M   'P 1'
_cell_length_a   3.72287600
_cell_length_b   6.75025200
_cell_length_c   13.35190800
_cell_angle_alpha   90.00000000
_cell_angle_beta   90.00000000
_cell_angle_gamma   90.00000000
_symmetry_Int_Tables_number   1
_chemical_formula_structural   Li5FeS4
_chemical_formula_sum   'Li10 Fe2 S8'
_cell_volume   335.53813676
_cell_formula_units_Z   2
loop_
 _symmetry_equiv_pos_site_id
 _symmetry_equiv_pos_as_xyz
  1  'x, y, z'
loop_
 _atom_site_type_symbol
 _atom_site_label
 _atom_site_symmetry_multiplicity
 _atom_site_fract_x
 _atom_site_fract_y
 _atom_site_fract_z
 _atom_site_occupancy
  Li  Li0  1  0.50000000  0.28160650  0.32349650  1
  Li  Li1  1  0.50000000  0.71839350  0.32349650  1
  Li  Li2  1  0.00000000  0.78468100  0.17941600  1
  Li  Li3  1  0.00000000  0.21531900  0.17941600  1
  Li  Li4  1  0.50000000  0.50000000  0.00386800  1
  Li  Li5  1  0.00000000  0.78160650  0.82349650  1
  Li  Li6  1  0.00000000  0.21839350  0.82349650  1
  Li  Li7  1  0.50000000  0.28468100  0.67941600  1
  Li  Li8  1  0.50000000  0.71531900  0.67941600  1
  Li  Li9  1  0.00000000  0.00000000  0.50386800  1
  Fe  Fe10  1  0.50000000  0.00000000  0.00460700  1
  Fe  Fe11  1  0.00000000  0.50000000  0.50460700  1
  S  S12  1  0.00000000  0.24712200  0.00002800  1
  S  S13  1  0.00000000  0.50000000  0.29716400  1
  S  S14  1  0.50000000  0.00000000  0.20255900  1
  S  S15  1  0.00000000  0.75287800  0.00002800  1
  S  S16  1  0.50000000  0.74712200  0.50002800  1
  S  S17  1  0.50000000  0.00000000  0.79716400  1
  S  S18  1  0.00000000  0.50000000  0.70255900  1
  S  S19  1  0.50000000  0.25287800  0.50002800  1
