# generated using pymatgen
data_Li2NbVO4
_symmetry_space_group_name_H-M   'P 1'
_cell_length_a   5.89036000
_cell_length_b   6.33398200
_cell_length_c   8.55876200
_cell_angle_alpha   90.00000000
_cell_angle_beta   90.00000000
_cell_angle_gamma   90.00000000
_symmetry_Int_Tables_number   1
_chemical_formula_structural   Li2NbVO4
_chemical_formula_sum   'Li8 Nb4 V4 O16'
_cell_volume   319.32256779
_cell_formula_units_Z   4
loop_
 _symmetry_equiv_pos_site_id
 _symmetry_equiv_pos_as_xyz
  1  'x, y, z'
loop_
 _atom_site_type_symbol
 _atom_site_label
 _atom_site_symmetry_multiplicity
 _atom_site_fract_x
 _atom_site_fract_y
 _atom_site_fract_z
 _atom_site_occupancy
  Li  Li0  1  0.75000000  0.25000000  0.25000000  1
  Li  Li1  1  0.50000000  0.00000000  0.00000000  1
  Li  Li2  1  0.25000000  0.25000000  0.25000000  1
  Li  Li3  1  0.00000000  0.00000000  0.50000000  1
  Li  Li4  1  0.25000000  0.75000000  0.75000000  1
  Li  Li5  1  0.00000000  0.50000000  0.50000000  1
  Li  Li6  1  0.75000000  0.75000000  0.75000000  1
  Li  Li7  1  0.50000000  0.50000000  0.00000000  1
  Nb  Nb8  1  0.75000000  0.75000000  0.25000000  1
  Nb  Nb9  1  0.25000000  0.75000000  0.25000000  1
  Nb  Nb10  1  0.25000000  0.25000000  0.75000000  1
  Nb  Nb11  1  0.75000000  0.25000000  0.75000000  1
  V  V12  1  0.50000000  0.00000000  0.50000000  1
  V  V13  1  0.00000000  0.00000000  0.00000000  1
  V  V14  1  0.00000000  0.50000000  0.00000000  1
  V  V15  1  0.50000000  0.50000000  0.50000000  1
  O  O16  1  0.00000000  0.99765200  0.74902000  1
  O  O17  1  0.25311450  0.75000000  0.48689950  1
  O  O18  1  0.50000000  0.00234800  0.24902000  1
  O  O19  1  0.74688550  0.75000000  0.48689950  1
  O  O20  1  0.25311450  0.25000000  0.51310050  1
  O  O21  1  0.50000000  0.99765200  0.75098000  1
  O  O22  1  0.74688550  0.25000000  0.51310050  1
  O  O23  1  0.00000000  0.00234800  0.25098000  1
  O  O24  1  0.50000000  0.49765200  0.24902000  1
  O  O25  1  0.75311450  0.25000000  0.98689950  1
  O  O26  1  0.00000000  0.50234800  0.74902000  1
  O  O27  1  0.24688550  0.25000000  0.98689950  1
  O  O28  1  0.75311450  0.75000000  0.01310050  1
  O  O29  1  0.00000000  0.49765200  0.25098000  1
  O  O30  1  0.24688550  0.75000000  0.01310050  1
  O  O31  1  0.50000000  0.50234800  0.75098000  1
