# generated using pymatgen
data_Na6Ti11O24
_symmetry_space_group_name_H-M   'P 1'
_cell_length_a   10.83252600
_cell_length_b   6.09673600
_cell_length_c   15.08421205
_cell_angle_alpha   90.00000000
_cell_angle_beta   91.20232550
_cell_angle_gamma   90.00000000
_symmetry_Int_Tables_number   1
_chemical_formula_structural   Na6Ti11O24
_chemical_formula_sum   'Na12 Ti22 O48'
_cell_volume   995.98805698
_cell_formula_units_Z   2
loop_
 _symmetry_equiv_pos_site_id
 _symmetry_equiv_pos_as_xyz
  1  'x, y, z'
loop_
 _atom_site_type_symbol
 _atom_site_label
 _atom_site_symmetry_multiplicity
 _atom_site_fract_x
 _atom_site_fract_y
 _atom_site_fract_z
 _atom_site_occupancy
  Na  Na0  1  0.66309800  0.00000000  0.08388400  1
  Na  Na1  1  0.66988900  0.00000000  0.33637100  1
  Na  Na2  1  0.83326400  0.00000000  0.54198600  1
  Na  Na3  1  0.83478900  0.50000000  0.41494500  1
  Na  Na4  1  0.83158700  0.50000000  0.66783200  1
  Na  Na5  1  0.99737000  0.00000000  0.74964300  1
  Na  Na6  1  0.16309800  0.50000000  0.08388400  1
  Na  Na7  1  0.16988900  0.50000000  0.33637100  1
  Na  Na8  1  0.33326400  0.50000000  0.54198600  1
  Na  Na9  1  0.33478900  0.00000000  0.41494500  1
  Na  Na10  1  0.33158700  0.00000000  0.66783200  1
  Na  Na11  1  0.49737000  0.50000000  0.74964300  1
  Ti  Ti12  1  0.91804300  0.75174900  0.20485100  1
  Ti  Ti13  1  0.83461300  0.50000000  0.03822600  1
  Ti  Ti14  1  0.91804300  0.24825100  0.20485100  1
  Ti  Ti15  1  0.58333900  0.24901900  0.54285700  1
  Ti  Ti16  1  0.66393600  0.50000000  0.20435000  1
  Ti  Ti17  1  0.50166700  0.50000000  0.38034300  1
  Ti  Ti18  1  0.58333900  0.75098100  0.54285700  1
  Ti  Ti19  1  0.66674700  0.00000000  0.70590000  1
  Ti  Ti20  1  0.74923250  0.74865150  0.87861600  1
  Ti  Ti21  1  0.50042300  0.00000000  0.87791000  1
  Ti  Ti22  1  0.74923250  0.25134850  0.87861600  1
  Ti  Ti23  1  0.41804300  0.25174900  0.20485100  1
  Ti  Ti24  1  0.33461300  0.00000000  0.03822600  1
  Ti  Ti25  1  0.41804300  0.74825100  0.20485100  1
  Ti  Ti26  1  0.08333900  0.74901900  0.54285700  1
  Ti  Ti27  1  0.16393600  0.00000000  0.20435000  1
  Ti  Ti28  1  0.00166700  0.00000000  0.38034300  1
  Ti  Ti29  1  0.08333900  0.25098100  0.54285700  1
  Ti  Ti30  1  0.16674700  0.50000000  0.70590000  1
  Ti  Ti31  1  0.24923250  0.24865150  0.87861600  1
  Ti  Ti32  1  0.00042300  0.50000000  0.87791000  1
  Ti  Ti33  1  0.24923250  0.75134850  0.87861600  1
  O  O34  1  0.86282500  0.00000000  0.28436900  1
  O  O35  1  0.57534700  0.28607800  0.27837900  1
  O  O36  1  0.97443000  0.50000000  0.13123500  1
  O  O37  1  0.76415100  0.71331600  0.13027400  1
  O  O38  1  0.76415100  0.28668400  0.13027400  1
  O  O39  1  0.83424500  0.50000000  0.27017300  1
  O  O40  1  0.94801600  0.77815200  0.45179200  1
  O  O41  1  0.71805200  0.22230500  0.63145700  1
  O  O42  1  0.57534700  0.71392200  0.27837900  1
  O  O43  1  0.64794200  0.00000000  0.47932700  1
  O  O44  1  0.99800200  0.00000000  0.14046800  1
  O  O45  1  0.71805200  0.77769500  0.63145700  1
  O  O46  1  0.51725200  0.00000000  0.61886900  1
  O  O47  1  0.59220800  0.21194400  0.80369700  1
  O  O48  1  0.94801600  0.22184800  0.45179200  1
  O  O49  1  0.80370400  0.00000000  0.79786900  1
  O  O50  1  0.64864500  0.50000000  0.46402400  1
  O  O51  1  0.59220800  0.78805600  0.80369700  1
  O  O52  1  0.66904200  0.00000000  0.94151900  1
  O  O53  1  0.51829400  0.50000000  0.60488100  1
  O  O54  1  0.90306450  0.71370150  0.95369900  1
  O  O55  1  0.83295900  0.50000000  0.81256100  1
  O  O56  1  0.90306450  0.28629850  0.95369900  1
  O  O57  1  0.69237100  0.50000000  0.95207400  1
  O  O58  1  0.36282500  0.50000000  0.28436900  1
  O  O59  1  0.07534700  0.78607800  0.27837900  1
  O  O60  1  0.47443000  0.00000000  0.13123500  1
  O  O61  1  0.26415100  0.21331600  0.13027400  1
  O  O62  1  0.26415100  0.78668400  0.13027400  1
  O  O63  1  0.33424500  0.00000000  0.27017300  1
  O  O64  1  0.44801600  0.27815200  0.45179200  1
  O  O65  1  0.21805200  0.72230500  0.63145700  1
  O  O66  1  0.07534700  0.21392200  0.27837900  1
  O  O67  1  0.14794200  0.50000000  0.47932700  1
  O  O68  1  0.49800200  0.50000000  0.14046800  1
  O  O69  1  0.21805200  0.27769500  0.63145700  1
  O  O70  1  0.01725200  0.50000000  0.61886900  1
  O  O71  1  0.09220800  0.71194400  0.80369700  1
  O  O72  1  0.44801600  0.72184800  0.45179200  1
  O  O73  1  0.30370400  0.50000000  0.79786900  1
  O  O74  1  0.14864500  0.00000000  0.46402400  1
  O  O75  1  0.09220800  0.28805600  0.80369700  1
  O  O76  1  0.16904200  0.50000000  0.94151900  1
  O  O77  1  0.01829400  0.00000000  0.60488100  1
  O  O78  1  0.40306450  0.21370150  0.95369900  1
  O  O79  1  0.33295900  0.00000000  0.81256100  1
  O  O80  1  0.40306450  0.78629850  0.95369900  1
  O  O81  1  0.19237100  0.00000000  0.95207400  1
