# generated using pymatgen
data_Mn3CrTe2(PO4)6
_symmetry_space_group_name_H-M   'P 1'
_cell_length_a   8.82177381
_cell_length_b   8.82177381
_cell_length_c   21.46564601
_cell_angle_alpha   90.00000000
_cell_angle_beta   90.00000000
_cell_angle_gamma   120.00000000
_symmetry_Int_Tables_number   1
_chemical_formula_structural   Mn3CrTe2(PO4)6
_chemical_formula_sum   'Mn9 Cr3 Te6 P18 O72'
_cell_volume   1446.72648407
_cell_formula_units_Z   3
loop_
 _symmetry_equiv_pos_site_id
 _symmetry_equiv_pos_as_xyz
  1  'x, y, z'
loop_
 _atom_site_type_symbol
 _atom_site_label
 _atom_site_symmetry_multiplicity
 _atom_site_fract_x
 _atom_site_fract_y
 _atom_site_fract_z
 _atom_site_occupancy
  Mn  Mn0  1  0.33333333  0.66666667  0.51164567  1
  Mn  Mn1  1  0.33333333  0.66666667  0.32045067  1
  Mn  Mn2  1  0.33333333  0.66666667  0.01597867  1
  Mn  Mn3  1  0.00000000  0.00000000  0.84497900  1
  Mn  Mn4  1  0.00000000  0.00000000  0.65378400  1
  Mn  Mn5  1  0.00000000  0.00000000  0.34931200  1
  Mn  Mn6  1  0.66666667  0.33333333  0.17831233  1
  Mn  Mn7  1  0.66666667  0.33333333  0.98711733  1
  Mn  Mn8  1  0.66666667  0.33333333  0.68264533  1
  Cr  Cr9  1  0.33333333  0.66666667  0.81232867  1
  Cr  Cr10  1  0.00000000  0.00000000  0.14566200  1
  Cr  Cr11  1  0.66666667  0.33333333  0.47899533  1
  Te  Te12  1  0.33333333  0.66666667  0.65934067  1
  Te  Te13  1  0.33333333  0.66666667  0.16600767  1
  Te  Te14  1  0.00000000  0.00000000  0.99267400  1
  Te  Te15  1  0.00000000  0.00000000  0.49934100  1
  Te  Te16  1  0.66666667  0.33333333  0.32600733  1
  Te  Te17  1  0.66666667  0.33333333  0.83267433  1
  P  P18  1  0.70690333  0.70751167  0.24935967  1
  P  P19  1  0.29248833  0.99939167  0.24935967  1
  P  P20  1  0.00060833  0.29309667  0.24935967  1
  P  P21  1  0.66873467  0.03133933  0.08448733  1
  P  P22  1  0.36260467  0.33126533  0.08448733  1
  P  P23  1  0.96866067  0.63739533  0.08448733  1
  P  P24  1  0.37357000  0.04084500  0.58269300  1
  P  P25  1  0.95915500  0.33272500  0.58269300  1
  P  P26  1  0.66727500  0.62643000  0.58269300  1
  P  P27  1  0.33540133  0.36467267  0.41782067  1
  P  P28  1  0.02927133  0.66459867  0.41782067  1
  P  P29  1  0.63532733  0.97072867  0.41782067  1
  P  P30  1  0.04023667  0.37417833  0.91602633  1
  P  P31  1  0.62582167  0.66605833  0.91602633  1
  P  P32  1  0.33394167  0.95976333  0.91602633  1
  P  P33  1  0.00206800  0.69800600  0.75115400  1
  P  P34  1  0.69593800  0.99793200  0.75115400  1
  P  P35  1  0.30199400  0.30406200  0.75115400  1
  O  O36  1  0.54831667  0.88326033  0.35749033  1
  O  O37  1  0.33494367  0.45168333  0.35749033  1
  O  O38  1  0.67939200  0.51150000  0.25593800  1
  O  O39  1  0.11673967  0.66505633  0.35749033  1
  O  O40  1  0.51510433  0.67533267  0.24101767  1
  O  O41  1  0.14258500  0.46468300  0.85789900  1
  O  O42  1  0.48850000  0.16789200  0.25593800  1
  O  O43  1  0.32466733  0.83977167  0.24101767  1
  O  O44  1  0.16022833  0.48489567  0.24101767  1
  O  O45  1  0.66681867  0.12333733  0.14378333  1
  O  O46  1  0.83231267  0.00301733  0.08059233  1
  O  O47  1  0.45651867  0.33318133  0.14378333  1
  O  O48  1  0.53531700  0.67790200  0.85789900  1
  O  O49  1  0.83210800  0.32060800  0.25593800  1
  O  O50  1  0.32209800  0.85741500  0.85789900  1
  O  O51  1  0.50404333  0.83821267  0.09055667  1
  O  O52  1  0.33416933  0.49595667  0.09055667  1
  O  O53  1  0.17070467  0.16768733  0.08059233  1
  O  O54  1  0.87666267  0.54348133  0.14378333  1
  O  O55  1  0.16178733  0.66583067  0.09055667  1
  O  O56  1  0.53798167  0.66059633  0.97695833  1
  O  O57  1  0.99698267  0.82929533  0.08059233  1
  O  O58  1  0.33940367  0.87738533  0.97695833  1
  O  O59  1  0.12261467  0.46201833  0.97695833  1
  O  O60  1  0.21498333  0.21659367  0.69082367  1
  O  O61  1  0.00161033  0.78501667  0.69082367  1
  O  O62  1  0.34605867  0.84483333  0.58927133  1
  O  O63  1  0.78340633  0.99838967  0.69082367  1
  O  O64  1  0.18177100  0.00866600  0.57435100  1
  O  O65  1  0.80925167  0.79801633  0.19123233  1
  O  O66  1  0.15516667  0.50122533  0.58927133  1
  O  O67  1  0.99133400  0.17310500  0.57435100  1
  O  O68  1  0.82689500  0.81822900  0.57435100  1
  O  O69  1  0.33348533  0.45667067  0.47711667  1
  O  O70  1  0.49897933  0.33635067  0.41392567  1
  O  O71  1  0.12318533  0.66651467  0.47711667  1
  O  O72  1  0.20198367  0.01123533  0.19123233  1
  O  O73  1  0.49877467  0.65394133  0.58927133  1
  O  O74  1  0.98876467  0.19074833  0.19123233  1
  O  O75  1  0.17071000  0.17154600  0.42389000  1
  O  O76  1  0.00083600  0.82929000  0.42389000  1
  O  O77  1  0.83737133  0.50102067  0.41392567  1
  O  O78  1  0.54332933  0.87681467  0.47711667  1
  O  O79  1  0.82845400  0.99916400  0.42389000  1
  O  O80  1  0.20464833  0.99392967  0.31029167  1
  O  O81  1  0.66364933  0.16262867  0.41392567  1
  O  O82  1  0.00607033  0.21071867  0.31029167  1
  O  O83  1  0.78928133  0.79535167  0.31029167  1
  O  O84  1  0.88165000  0.54992700  0.02415700  1
  O  O85  1  0.66827700  0.11835000  0.02415700  1
  O  O86  1  0.01272533  0.17816667  0.92260467  1
  O  O87  1  0.45007300  0.33172300  0.02415700  1
  O  O88  1  0.84843767  0.34199933  0.90768433  1
  O  O89  1  0.47591833  0.13134967  0.52456567  1
  O  O90  1  0.82183333  0.83455867  0.92260467  1
  O  O91  1  0.65800067  0.50643833  0.90768433  1
  O  O92  1  0.49356167  0.15156233  0.90768433  1
  O  O93  1  0.00015200  0.79000400  0.81045000  1
  O  O94  1  0.16564600  0.66968400  0.74725900  1
  O  O95  1  0.78985200  0.99984800  0.81045000  1
  O  O96  1  0.86865033  0.34456867  0.52456567  1
  O  O97  1  0.16544133  0.98727467  0.92260467  1
  O  O98  1  0.65543133  0.52408167  0.52456567  1
  O  O99  1  0.83737667  0.50487933  0.75722333  1
  O  O100  1  0.66750267  0.16262333  0.75722333  1
  O  O101  1  0.50403800  0.83435400  0.74725900  1
  O  O102  1  0.20999600  0.21014800  0.81045000  1
  O  O103  1  0.49512067  0.33249733  0.75722333  1
  O  O104  1  0.87131500  0.32726300  0.64362500  1
  O  O105  1  0.33031600  0.49596200  0.74725900  1
  O  O106  1  0.67273700  0.54405200  0.64362500  1
  O  O107  1  0.45594800  0.12868500  0.64362500  1
