# generated using pymatgen
data_Li2MnV(PO4)2
_symmetry_space_group_name_H-M   'P 1'
_cell_length_a   4.78581572
_cell_length_b   6.14373304
_cell_length_c   10.55667696
_cell_angle_alpha   90.00000000
_cell_angle_beta   90.09778655
_cell_angle_gamma   90.00000000
_symmetry_Int_Tables_number   1
_chemical_formula_structural   Li2MnV(PO4)2
_chemical_formula_sum   'Li4 Mn2 V2 P4 O16'
_cell_volume   310.39513622
_cell_formula_units_Z   2
loop_
 _symmetry_equiv_pos_site_id
 _symmetry_equiv_pos_as_xyz
  1  'x, y, z'
loop_
 _atom_site_type_symbol
 _atom_site_label
 _atom_site_symmetry_multiplicity
 _atom_site_fract_x
 _atom_site_fract_y
 _atom_site_fract_z
 _atom_site_occupancy
  Li  Li0  1  0.00000000  0.00000000  0.50000000  1
  Li  Li1  1  0.00000000  0.50000000  0.50000000  1
  Li  Li2  1  0.50000000  0.00000000  0.00000000  1
  Li  Li3  1  0.50000000  0.50000000  0.00000000  1
  Mn  Mn4  1  0.02339800  0.75000000  0.22241100  1
  Mn  Mn5  1  0.97660200  0.25000000  0.77758900  1
  V  V6  1  0.47964500  0.75000000  0.72295900  1
  V  V7  1  0.52035500  0.25000000  0.27704100  1
  P  P8  1  0.41130300  0.25000000  0.58958400  1
  P  P9  1  0.58869700  0.75000000  0.41041600  1
  P  P10  1  0.91123400  0.75000000  0.90685600  1
  P  P11  1  0.08876600  0.25000000  0.09314400  1
  O  O12  1  0.71053900  0.75000000  0.54714900  1
  O  O13  1  0.28946100  0.25000000  0.45285100  1
  O  O14  1  0.73217900  0.25000000  0.59512200  1
  O  O15  1  0.26782100  0.75000000  0.40487800  1
  O  O16  1  0.23250200  0.75000000  0.90242400  1
  O  O17  1  0.76749800  0.25000000  0.09757600  1
  O  O18  1  0.20775200  0.25000000  0.95626200  1
  O  O19  1  0.79224800  0.75000000  0.04373800  1
  O  O20  1  0.27748100  0.04845100  0.65884100  1
  O  O21  1  0.27748100  0.45154900  0.65884100  1
  O  O22  1  0.72251900  0.54845100  0.34115900  1
  O  O23  1  0.72251900  0.95154900  0.34115900  1
  O  O24  1  0.77608400  0.54859800  0.83764200  1
  O  O25  1  0.77608400  0.95140200  0.83764200  1
  O  O26  1  0.22391600  0.04859800  0.16235800  1
  O  O27  1  0.22391600  0.45140200  0.16235800  1
