# generated using pymatgen
data_LiV2FeO6
_symmetry_space_group_name_H-M   'P 1'
_cell_length_a   10.86793447
_cell_length_b   8.62493486
_cell_length_c   5.75047016
_cell_angle_alpha   90.00000000
_cell_angle_beta   113.23801646
_cell_angle_gamma   90.00000000
_symmetry_Int_Tables_number   1
_chemical_formula_structural   LiV2FeO6
_chemical_formula_sum   'Li4 V8 Fe4 O24'
_cell_volume   495.29282215
_cell_formula_units_Z   4
loop_
 _symmetry_equiv_pos_site_id
 _symmetry_equiv_pos_as_xyz
  1  'x, y, z'
loop_
 _atom_site_type_symbol
 _atom_site_label
 _atom_site_symmetry_multiplicity
 _atom_site_fract_x
 _atom_site_fract_y
 _atom_site_fract_z
 _atom_site_occupancy
  Li  Li0  1  0.00000000  0.71954100  0.25000000  1
  Li  Li1  1  0.00000000  0.28045900  0.75000000  1
  Li  Li2  1  0.50000000  0.21954100  0.25000000  1
  Li  Li3  1  0.50000000  0.78045900  0.75000000  1
  V  V4  1  0.21783850  0.59724450  0.75048600  1
  V  V5  1  0.21783850  0.40275550  0.25048600  1
  V  V6  1  0.78216150  0.59724450  0.74951400  1
  V  V7  1  0.78216150  0.40275550  0.24951400  1
  V  V8  1  0.71783850  0.09724450  0.75048600  1
  V  V9  1  0.71783850  0.90275550  0.25048600  1
  V  V10  1  0.28216150  0.09724450  0.74951400  1
  V  V11  1  0.28216150  0.90275550  0.24951400  1
  Fe  Fe12  1  0.00000000  0.91620000  0.75000000  1
  Fe  Fe13  1  0.00000000  0.08380000  0.25000000  1
  Fe  Fe14  1  0.50000000  0.41620000  0.75000000  1
  Fe  Fe15  1  0.50000000  0.58380000  0.25000000  1
  O  O16  1  0.40090500  0.59259500  0.84995500  1
  O  O17  1  0.13862300  0.77537200  0.74685000  1
  O  O18  1  0.40090500  0.40740500  0.34995500  1
  O  O19  1  0.15142100  0.45225100  0.90996300  1
  O  O20  1  0.86137700  0.77537200  0.75315000  1
  O  O21  1  0.15142100  0.54774900  0.40996300  1
  O  O22  1  0.84857900  0.45225100  0.59003700  1
  O  O23  1  0.13862300  0.22462800  0.24685000  1
  O  O24  1  0.84857900  0.54774900  0.09003700  1
  O  O25  1  0.59909500  0.59259500  0.65004500  1
  O  O26  1  0.86137700  0.22462800  0.25315000  1
  O  O27  1  0.59909500  0.40740500  0.15004500  1
  O  O28  1  0.90090500  0.09259500  0.84995500  1
  O  O29  1  0.63862300  0.27537200  0.74685000  1
  O  O30  1  0.90090500  0.90740500  0.34995500  1
  O  O31  1  0.65142100  0.95225100  0.90996300  1
  O  O32  1  0.36137700  0.27537200  0.75315000  1
  O  O33  1  0.65142100  0.04774900  0.40996300  1
  O  O34  1  0.34857900  0.95225100  0.59003700  1
  O  O35  1  0.63862300  0.72462800  0.24685000  1
  O  O36  1  0.34857900  0.04774900  0.09003700  1
  O  O37  1  0.09909500  0.09259500  0.65004500  1
  O  O38  1  0.36137700  0.72462800  0.25315000  1
  O  O39  1  0.09909500  0.90740500  0.15004500  1
