# generated using pymatgen
data_Li3CrPCO7
_symmetry_space_group_name_H-M   'P 1'
_cell_length_a   5.11580700
_cell_length_b   6.47225600
_cell_length_c   8.55451024
_cell_angle_alpha   90.00000000
_cell_angle_beta   91.94336329
_cell_angle_gamma   90.00000000
_symmetry_Int_Tables_number   1
_chemical_formula_structural   Li3CrPCO7
_chemical_formula_sum   'Li6 Cr2 P2 C2 O14'
_cell_volume   283.08387187
_cell_formula_units_Z   2
loop_
 _symmetry_equiv_pos_site_id
 _symmetry_equiv_pos_as_xyz
  1  'x, y, z'
loop_
 _atom_site_type_symbol
 _atom_site_label
 _atom_site_symmetry_multiplicity
 _atom_site_fract_x
 _atom_site_fract_y
 _atom_site_fract_z
 _atom_site_occupancy
  Li  Li0  1  0.03086700  0.48545000  0.99749500  1
  Li  Li1  1  0.44048400  0.80942600  0.81340200  1
  Li  Li2  1  0.44553600  0.58818600  0.47798800  1
  Li  Li3  1  0.55446400  0.08818600  0.52201200  1
  Li  Li4  1  0.55951600  0.30942600  0.18659800  1
  Li  Li5  1  0.96913300  0.98545000  0.00250500  1
  Cr  Cr6  1  0.02530200  0.24662300  0.72559000  1
  Cr  Cr7  1  0.97469800  0.74662300  0.27441000  1
  P  P8  1  0.95828100  0.74989200  0.66334500  1
  P  P9  1  0.04171900  0.24989200  0.33665500  1
  C  C10  1  0.52448000  0.26132900  0.87989500  1
  C  C11  1  0.47552000  0.76132900  0.12010500  1
  O  O12  1  0.35211400  0.28927100  0.98487800  1
  O  O13  1  0.77048900  0.24222200  0.92496100  1
  O  O14  1  0.07623500  0.93341100  0.76324800  1
  O  O15  1  0.00996900  0.55641100  0.76674900  1
  O  O16  1  0.45910000  0.24899300  0.73229300  1
  O  O17  1  0.66237100  0.78698600  0.62715300  1
  O  O18  1  0.11104200  0.72720100  0.51201400  1
  O  O19  1  0.88895800  0.22720100  0.48798600  1
  O  O20  1  0.33762900  0.28698600  0.37284700  1
  O  O21  1  0.54090000  0.74899300  0.26770700  1
  O  O22  1  0.99003100  0.05641100  0.23325100  1
  O  O23  1  0.92376500  0.43341100  0.23675200  1
  O  O24  1  0.22951100  0.74222200  0.07503900  1
  O  O25  1  0.64788600  0.78927100  0.01512200  1
