# generated using pymatgen
data_Mn6O7F5
_symmetry_space_group_name_H-M   'P 1'
_cell_length_a   9.06841800
_cell_length_b   6.51101400
_cell_length_c   7.32999819
_cell_angle_alpha   90.00000000
_cell_angle_beta   111.65996849
_cell_angle_gamma   90.00000000
_symmetry_Int_Tables_number   1
_chemical_formula_structural   Mn6O7F5
_chemical_formula_sum   'Mn12 O14 F10'
_cell_volume   402.23729900
_cell_formula_units_Z   2
loop_
 _symmetry_equiv_pos_site_id
 _symmetry_equiv_pos_as_xyz
  1  'x, y, z'
loop_
 _atom_site_type_symbol
 _atom_site_label
 _atom_site_symmetry_multiplicity
 _atom_site_fract_x
 _atom_site_fract_y
 _atom_site_fract_z
 _atom_site_occupancy
  Mn  Mn0  1  0.19835900  0.50000000  0.17290600  1
  Mn  Mn1  1  0.83766600  0.50000000  0.32683900  1
  Mn  Mn2  1  0.14817400  0.50000000  0.68262400  1
  Mn  Mn3  1  0.81450800  0.50000000  0.81949700  1
  Mn  Mn4  1  0.49750300  0.50000000  0.50532000  1
  Mn  Mn5  1  0.50544300  0.50000000  0.99940400  1
  Mn  Mn6  1  0.69835900  0.00000000  0.17290600  1
  Mn  Mn7  1  0.33766600  0.00000000  0.32683900  1
  Mn  Mn8  1  0.64817400  0.00000000  0.68262400  1
  Mn  Mn9  1  0.31450800  0.00000000  0.81949700  1
  Mn  Mn10  1  0.99750300  0.00000000  0.50532000  1
  Mn  Mn11  1  0.00544300  0.00000000  0.99940400  1
  O  O12  1  0.84099750  0.19379750  0.33452700  1
  O  O13  1  0.15275800  0.19745900  0.66719000  1
  O  O14  1  0.72924300  0.50000000  0.03312600  1
  O  O15  1  0.28297000  0.50000000  0.97662400  1
  O  O16  1  0.92234000  0.50000000  0.62113700  1
  O  O17  1  0.15275800  0.80254100  0.66719000  1
  O  O18  1  0.84099750  0.80620250  0.33452700  1
  O  O19  1  0.34099750  0.69379750  0.33452700  1
  O  O20  1  0.65275800  0.69745900  0.66719000  1
  O  O21  1  0.22924300  0.00000000  0.03312600  1
  O  O22  1  0.78297000  0.00000000  0.97662400  1
  O  O23  1  0.42234000  0.00000000  0.62113700  1
  O  O24  1  0.65275800  0.30254100  0.66719000  1
  O  O25  1  0.34099750  0.30620250  0.33452700  1
  F  F26  1  0.38071800  0.50000000  0.70526400  1
  F  F27  1  0.07779300  0.50000000  0.35997200  1
  F  F28  1  0.60125600  0.50000000  0.29224400  1
  F  F29  1  0.00825850  0.31501950  0.00080500  1
  F  F30  1  0.00825850  0.68498050  0.00080500  1
  F  F31  1  0.88071800  0.00000000  0.70526400  1
  F  F32  1  0.57779300  0.00000000  0.35997200  1
  F  F33  1  0.10125600  0.00000000  0.29224400  1
  F  F34  1  0.50825850  0.81501950  0.00080500  1
  F  F35  1  0.50825850  0.18498050  0.00080500  1
