# generated using pymatgen
data_Li2FeOF3
_symmetry_space_group_name_H-M   'P 1'
_cell_length_a   9.96027400
_cell_length_b   2.98026600
_cell_length_c   10.45326405
_cell_angle_alpha   90.00000000
_cell_angle_beta   102.35069672
_cell_angle_gamma   90.00000000
_symmetry_Int_Tables_number   1
_chemical_formula_structural   Li2FeOF3
_chemical_formula_sum   'Li8 Fe4 O4 F12'
_cell_volume   303.11616198
_cell_formula_units_Z   4
loop_
 _symmetry_equiv_pos_site_id
 _symmetry_equiv_pos_as_xyz
  1  'x, y, z'
loop_
 _atom_site_type_symbol
 _atom_site_label
 _atom_site_symmetry_multiplicity
 _atom_site_fract_x
 _atom_site_fract_y
 _atom_site_fract_z
 _atom_site_occupancy
  Li  Li0  1  0.77489200  0.50000000  0.61236600  1
  Li  Li1  1  0.00000000  0.50000000  0.00000000  1
  Li  Li2  1  0.00000000  0.50000000  0.50000000  1
  Li  Li3  1  0.72510800  0.00000000  0.38763400  1
  Li  Li4  1  0.27489200  0.00000000  0.61236600  1
  Li  Li5  1  0.50000000  0.00000000  0.00000000  1
  Li  Li6  1  0.50000000  0.00000000  0.50000000  1
  Li  Li7  1  0.22510800  0.50000000  0.38763400  1
  Fe  Fe8  1  0.77269300  0.50000000  0.12827400  1
  Fe  Fe9  1  0.72730700  0.00000000  0.87172600  1
  Fe  Fe10  1  0.27269300  0.00000000  0.12827400  1
  Fe  Fe11  1  0.22730700  0.50000000  0.87172600  1
  O  O12  1  0.63803800  0.50000000  0.94423800  1
  O  O13  1  0.86196200  0.00000000  0.05576200  1
  O  O14  1  0.13803800  0.00000000  0.94423800  1
  O  O15  1  0.36196200  0.50000000  0.05576200  1
  F  F16  1  0.62980300  0.50000000  0.45050300  1
  F  F17  1  0.85992300  0.50000000  0.82915400  1
  F  F18  1  0.84946600  0.50000000  0.31213800  1
  F  F19  1  0.65053400  0.00000000  0.68786200  1
  F  F20  1  0.64007700  0.00000000  0.17084600  1
  F  F21  1  0.87019700  0.00000000  0.54949700  1
  F  F22  1  0.12980300  0.00000000  0.45050300  1
  F  F23  1  0.35992300  0.00000000  0.82915400  1
  F  F24  1  0.34946600  0.00000000  0.31213800  1
  F  F25  1  0.15053400  0.50000000  0.68786200  1
  F  F26  1  0.14007700  0.50000000  0.17084600  1
  F  F27  1  0.37019700  0.50000000  0.54949700  1
