# generated using pymatgen
data_LiMnP2(HO4)2
_symmetry_space_group_name_H-M   'P 1'
_cell_length_a   5.28102550
_cell_length_b   7.00523700
_cell_length_c   8.04589500
_cell_angle_alpha   90.00000000
_cell_angle_beta   90.00000000
_cell_angle_gamma   90.00000000
_symmetry_Int_Tables_number   1
_chemical_formula_structural   LiMnP2(HO4)2
_chemical_formula_sum   'Li2 Mn2 P4 H4 O16'
_cell_volume   297.65656024
_cell_formula_units_Z   2
loop_
 _symmetry_equiv_pos_site_id
 _symmetry_equiv_pos_as_xyz
  1  'x, y, z'
loop_
 _atom_site_type_symbol
 _atom_site_label
 _atom_site_symmetry_multiplicity
 _atom_site_fract_x
 _atom_site_fract_y
 _atom_site_fract_z
 _atom_site_occupancy
  Li  Li0  1  0.08248650  0.50000000  0.50000000  1
  Li  Li1  1  0.91751350  0.00000000  0.00000000  1
  Mn  Mn2  1  0.76570850  0.50000000  0.00000000  1
  Mn  Mn3  1  0.23429150  0.00000000  0.50000000  1
  P  P4  1  0.73088650  0.21468050  0.35211750  1
  P  P5  1  0.73088650  0.78531950  0.64788250  1
  P  P6  1  0.26911350  0.28531950  0.85211750  1
  P  P7  1  0.26911350  0.71468050  0.14788250  1
  H  H8  1  0.54758750  0.00822400  0.78972800  1
  H  H9  1  0.54758750  0.99177600  0.21027200  1
  H  H10  1  0.45241250  0.50822400  0.71027200  1
  H  H11  1  0.45241250  0.49177600  0.28972800  1
  O  O12  1  0.72726950  0.94914500  0.78449750  1
  O  O13  1  0.72726950  0.05085500  0.21550250  1
  O  O14  1  0.27273050  0.44914500  0.71550250  1
  O  O15  1  0.27273050  0.55085500  0.28449750  1
  O  O16  1  0.72450950  0.41519000  0.27393700  1
  O  O17  1  0.72450950  0.58481000  0.72606300  1
  O  O18  1  0.27549050  0.08481000  0.77393700  1
  O  O19  1  0.27549050  0.91519000  0.22606300  1
  O  O20  1  0.49291650  0.80843900  0.53907300  1
  O  O21  1  0.49291650  0.19156100  0.46092700  1
  O  O22  1  0.50708350  0.30843900  0.96092700  1
  O  O23  1  0.50708350  0.69156100  0.03907300  1
  O  O24  1  0.01924350  0.69983150  0.04727550  1
  O  O25  1  0.01924350  0.30016850  0.95272450  1
  O  O26  1  0.98075650  0.80016850  0.54727550  1
  O  O27  1  0.98075650  0.19983150  0.45272450  1
