# generated using pymatgen
data_Li4V2Cr3Sn3O16
_symmetry_space_group_name_H-M   'P 1'
_cell_length_a   10.54572600
_cell_length_b   6.13265600
_cell_length_c   9.63924380
_cell_angle_alpha   90.00000000
_cell_angle_beta   90.58695766
_cell_angle_gamma   90.00000000
_symmetry_Int_Tables_number   1
_chemical_formula_structural   Li4V2Cr3Sn3O16
_chemical_formula_sum   'Li8 V4 Cr6 Sn6 O32'
_cell_volume   623.36908903
_cell_formula_units_Z   2
loop_
 _symmetry_equiv_pos_site_id
 _symmetry_equiv_pos_as_xyz
  1  'x, y, z'
loop_
 _atom_site_type_symbol
 _atom_site_label
 _atom_site_symmetry_multiplicity
 _atom_site_fract_x
 _atom_site_fract_y
 _atom_site_fract_z
 _atom_site_occupancy
  Li  Li0  1  0.67055300  0.00000000  0.11254600  1
  Li  Li1  1  0.98708400  0.00000000  0.00932800  1
  Li  Li2  1  0.99303000  0.00000000  0.49868700  1
  Li  Li3  1  0.33495900  0.00000000  0.60130700  1
  Li  Li4  1  0.17055300  0.50000000  0.11254600  1
  Li  Li5  1  0.48708400  0.50000000  0.00932800  1
  Li  Li6  1  0.49303000  0.50000000  0.49868700  1
  Li  Li7  1  0.83495900  0.50000000  0.60130700  1
  V  V8  1  0.67709900  0.00000000  0.50285400  1
  V  V9  1  0.33865500  0.00000000  0.01532500  1
  V  V10  1  0.17709900  0.50000000  0.50285400  1
  V  V11  1  0.83865500  0.50000000  0.01532500  1
  Cr  Cr12  1  0.83040100  0.00000000  0.78545900  1
  Cr  Cr13  1  0.41665700  0.76067200  0.28503800  1
  Cr  Cr14  1  0.41665700  0.23932800  0.28503800  1
  Cr  Cr15  1  0.33040100  0.50000000  0.78545900  1
  Cr  Cr16  1  0.91665700  0.26067200  0.28503800  1
  Cr  Cr17  1  0.91665700  0.73932800  0.28503800  1
  Sn  Sn18  1  0.58439650  0.75377050  0.78635300  1
  Sn  Sn19  1  0.58439650  0.24622950  0.78635300  1
  Sn  Sn20  1  0.17038900  0.00000000  0.28598400  1
  Sn  Sn21  1  0.08439650  0.25377050  0.78635300  1
  Sn  Sn22  1  0.08439650  0.74622950  0.78635300  1
  Sn  Sn23  1  0.67038900  0.50000000  0.28598400  1
  O  O24  1  0.58159900  0.75245200  0.40634200  1
  O  O25  1  0.52146800  0.00000000  0.65059600  1
  O  O26  1  0.67161500  0.00000000  0.90130500  1
  O  O27  1  0.99475600  0.00000000  0.68381100  1
  O  O28  1  0.99452800  0.00000000  0.19469100  1
  O  O29  1  0.58159900  0.24754800  0.40634200  1
  O  O30  1  0.74180850  0.78539050  0.65468100  1
  O  O31  1  0.74180850  0.21460950  0.65468100  1
  O  O32  1  0.16254700  0.00000000  0.90546000  1
  O  O33  1  0.82343800  0.00000000  0.40320000  1
  O  O34  1  0.26376750  0.77655450  0.15788000  1
  O  O35  1  0.26376750  0.22344550  0.15788000  1
  O  O36  1  0.33855500  0.00000000  0.39657900  1
  O  O37  1  0.41713600  0.74476100  0.89996100  1
  O  O38  1  0.48001800  0.00000000  0.16449400  1
  O  O39  1  0.41713600  0.25523900  0.89996100  1
  O  O40  1  0.08159900  0.25245200  0.40634200  1
  O  O41  1  0.02146800  0.50000000  0.65059600  1
  O  O42  1  0.17161500  0.50000000  0.90130500  1
  O  O43  1  0.49475600  0.50000000  0.68381100  1
  O  O44  1  0.49452800  0.50000000  0.19469100  1
  O  O45  1  0.08159900  0.74754800  0.40634200  1
  O  O46  1  0.24180850  0.28539050  0.65468100  1
  O  O47  1  0.24180850  0.71460950  0.65468100  1
  O  O48  1  0.66254700  0.50000000  0.90546000  1
  O  O49  1  0.32343800  0.50000000  0.40320000  1
  O  O50  1  0.76376750  0.27655450  0.15788000  1
  O  O51  1  0.76376750  0.72344550  0.15788000  1
  O  O52  1  0.83855500  0.50000000  0.39657900  1
  O  O53  1  0.91713600  0.24476100  0.89996100  1
  O  O54  1  0.98001800  0.50000000  0.16449400  1
  O  O55  1  0.91713600  0.75523900  0.89996100  1
