# generated using pymatgen
data_LiMn2F5
_symmetry_space_group_name_H-M   'P 1'
_cell_length_a   14.67373200
_cell_length_b   6.69437200
_cell_length_c   10.10624460
_cell_angle_alpha   90.00000000
_cell_angle_beta   119.93357433
_cell_angle_gamma   90.00000000
_symmetry_Int_Tables_number   1
_chemical_formula_structural   LiMn2F5
_chemical_formula_sum   'Li8 Mn16 F40'
_cell_volume   860.32227501
_cell_formula_units_Z   8
loop_
 _symmetry_equiv_pos_site_id
 _symmetry_equiv_pos_as_xyz
  1  'x, y, z'
loop_
 _atom_site_type_symbol
 _atom_site_label
 _atom_site_symmetry_multiplicity
 _atom_site_fract_x
 _atom_site_fract_y
 _atom_site_fract_z
 _atom_site_occupancy
  Li  Li0  1  0.68902450  0.61289950  0.31861100  1
  Li  Li1  1  0.81097550  0.11289950  0.18138900  1
  Li  Li2  1  0.18902450  0.88710050  0.81861100  1
  Li  Li3  1  0.31097550  0.38710050  0.68138900  1
  Li  Li4  1  0.18902450  0.11289950  0.31861100  1
  Li  Li5  1  0.31097550  0.61289950  0.18138900  1
  Li  Li6  1  0.68902450  0.38710050  0.81861100  1
  Li  Li7  1  0.81097550  0.88710050  0.68138900  1
  Mn  Mn8  1  0.85770050  0.36357650  0.64878400  1
  Mn  Mn9  1  0.05041850  0.77753650  0.98598500  1
  Mn  Mn10  1  0.94958150  0.77753650  0.51401500  1
  Mn  Mn11  1  0.85770050  0.63642350  0.14878400  1
  Mn  Mn12  1  0.14229950  0.36357650  0.85121600  1
  Mn  Mn13  1  0.05041850  0.22246350  0.48598500  1
  Mn  Mn14  1  0.94958150  0.22246350  0.01401500  1
  Mn  Mn15  1  0.14229950  0.63642350  0.35121600  1
  Mn  Mn16  1  0.35770050  0.86357650  0.64878400  1
  Mn  Mn17  1  0.55041850  0.27753650  0.98598500  1
  Mn  Mn18  1  0.44958150  0.27753650  0.51401500  1
  Mn  Mn19  1  0.35770050  0.13642350  0.14878400  1
  Mn  Mn20  1  0.64229950  0.86357650  0.85121600  1
  Mn  Mn21  1  0.55041850  0.72246350  0.48598500  1
  Mn  Mn22  1  0.44958150  0.72246350  0.01401500  1
  Mn  Mn23  1  0.64229950  0.13642350  0.35121600  1
  F  F24  1  0.57508050  0.52600850  0.13793100  1
  F  F25  1  0.80037950  0.07987150  0.53932500  1
  F  F26  1  0.88155550  0.67963150  0.64256700  1
  F  F27  1  0.68703950  0.15917650  0.18364900  1
  F  F28  1  0.81296050  0.65917650  0.31635100  1
  F  F29  1  0.01655200  0.37011900  0.89763600  1
  F  F30  1  0.98344800  0.37011900  0.60236400  1
  F  F31  1  0.92491950  0.02600850  0.36206900  1
  F  F32  1  0.80037950  0.92012850  0.03932500  1
  F  F33  1  0.11844450  0.67963150  0.85743300  1
  F  F34  1  0.88155550  0.32036850  0.14256700  1
  F  F35  1  0.19962050  0.07987150  0.96067500  1
  F  F36  1  0.07508050  0.97399150  0.63793100  1
  F  F37  1  0.01655200  0.62988100  0.39763600  1
  F  F38  1  0.98344800  0.62988100  0.10236400  1
  F  F39  1  0.18703950  0.34082350  0.68364900  1
  F  F40  1  0.31296050  0.84082350  0.81635100  1
  F  F41  1  0.11844450  0.32036850  0.35743300  1
  F  F42  1  0.19962050  0.92012850  0.46067500  1
  F  F43  1  0.42491950  0.47399150  0.86206900  1
  F  F44  1  0.07508050  0.02600850  0.13793100  1
  F  F45  1  0.30037950  0.57987150  0.53932500  1
  F  F46  1  0.38155550  0.17963150  0.64256700  1
  F  F47  1  0.18703950  0.65917650  0.18364900  1
  F  F48  1  0.31296050  0.15917650  0.31635100  1
  F  F49  1  0.51655200  0.87011900  0.89763600  1
  F  F50  1  0.48344800  0.87011900  0.60236400  1
  F  F51  1  0.42491950  0.52600850  0.36206900  1
  F  F52  1  0.30037950  0.42012850  0.03932500  1
  F  F53  1  0.61844450  0.17963150  0.85743300  1
  F  F54  1  0.38155550  0.82036850  0.14256700  1
  F  F55  1  0.69962050  0.57987150  0.96067500  1
  F  F56  1  0.57508050  0.47399150  0.63793100  1
  F  F57  1  0.51655200  0.12988100  0.39763600  1
  F  F58  1  0.48344800  0.12988100  0.10236400  1
  F  F59  1  0.68703950  0.84082350  0.68364900  1
  F  F60  1  0.81296050  0.34082350  0.81635100  1
  F  F61  1  0.61844450  0.82036850  0.35743300  1
  F  F62  1  0.69962050  0.42012850  0.46067500  1
  F  F63  1  0.92491950  0.97399150  0.86206900  1
