# generated using pymatgen
data_Li4V7(PO4)6
_symmetry_space_group_name_H-M   'P 1'
_cell_length_a   11.05778400
_cell_length_b   14.30998800
_cell_length_c   6.65955188
_cell_angle_alpha   90.00000000
_cell_angle_beta   103.87055770
_cell_angle_gamma   90.00000000
_symmetry_Int_Tables_number   1
_chemical_formula_structural   Li4V7(PO4)6
_chemical_formula_sum   'Li8 V14 P12 O48'
_cell_volume   1023.05727854
_cell_formula_units_Z   2
loop_
 _symmetry_equiv_pos_site_id
 _symmetry_equiv_pos_as_xyz
  1  'x, y, z'
loop_
 _atom_site_type_symbol
 _atom_site_label
 _atom_site_symmetry_multiplicity
 _atom_site_fract_x
 _atom_site_fract_y
 _atom_site_fract_z
 _atom_site_occupancy
  Li  Li0  1  0.24287600  0.00000000  0.48921300  1
  Li  Li1  1  0.60454050  0.84676650  0.53040200  1
  Li  Li2  1  0.60454050  0.15323350  0.53040200  1
  Li  Li3  1  0.93792100  0.00000000  0.54921000  1
  Li  Li4  1  0.74287600  0.50000000  0.48921300  1
  Li  Li5  1  0.10454050  0.34676650  0.53040200  1
  Li  Li6  1  0.10454050  0.65323350  0.53040200  1
  Li  Li7  1  0.43792100  0.50000000  0.54921000  1
  V  V8  1  0.33394250  0.69529450  0.19177600  1
  V  V9  1  0.33394250  0.30470550  0.19177600  1
  V  V10  1  0.50345650  0.87914250  0.99742200  1
  V  V11  1  0.50345650  0.12085750  0.99742200  1
  V  V12  1  0.00186600  0.00000000  0.00111400  1
  V  V13  1  0.66809800  0.68636900  0.80941600  1
  V  V14  1  0.66809800  0.31363100  0.80941600  1
  V  V15  1  0.83394250  0.19529450  0.19177600  1
  V  V16  1  0.83394250  0.80470550  0.19177600  1
  V  V17  1  0.00345650  0.37914250  0.99742200  1
  V  V18  1  0.00345650  0.62085750  0.99742200  1
  V  V19  1  0.50186600  0.50000000  0.00111400  1
  V  V20  1  0.16809800  0.18636900  0.80941600  1
  V  V21  1  0.16809800  0.81363100  0.80941600  1
  P  P22  1  0.40518550  0.30654250  0.71139800  1
  P  P23  1  0.40518550  0.69345750  0.71139800  1
  P  P24  1  0.31328700  0.00000000  0.04136300  1
  P  P25  1  0.69744100  0.00000000  0.96577400  1
  P  P26  1  0.59741800  0.68553900  0.28367900  1
  P  P27  1  0.59741800  0.31446100  0.28367900  1
  P  P28  1  0.90518550  0.80654250  0.71139800  1
  P  P29  1  0.90518550  0.19345750  0.71139800  1
  P  P30  1  0.81328700  0.50000000  0.04136300  1
  P  P31  1  0.19744100  0.50000000  0.96577400  1
  P  P32  1  0.09741800  0.18553900  0.28367900  1
  P  P33  1  0.09741800  0.81446100  0.28367900  1
  O  O34  1  0.30739350  0.08636150  0.89523100  1
  O  O35  1  0.30739350  0.91363850  0.89523100  1
  O  O36  1  0.21223300  0.00000000  0.16435000  1
  O  O37  1  0.32361800  0.71322500  0.86570100  1
  O  O38  1  0.32361800  0.28677500  0.86570100  1
  O  O39  1  0.49611250  0.39365250  0.76651200  1
  O  O40  1  0.49611250  0.60634750  0.76651200  1
  O  O41  1  0.50104000  0.77809300  0.72776100  1
  O  O42  1  0.50104000  0.22190700  0.72776100  1
  O  O43  1  0.45036500  0.00000000  0.17949300  1
  O  O44  1  0.56327200  0.00000000  0.81223300  1
  O  O45  1  0.49588500  0.39209100  0.21450000  1
  O  O46  1  0.49588500  0.60790900  0.21450000  1
  O  O47  1  0.51677500  0.22163100  0.27883800  1
  O  O48  1  0.51677500  0.77836900  0.27883800  1
  O  O49  1  0.17508150  0.15729050  0.49844400  1
  O  O50  1  0.17508150  0.84270950  0.49844400  1
  O  O51  1  0.80306600  0.00000000  0.85518100  1
  O  O52  1  0.68235900  0.70271500  0.13414200  1
  O  O53  1  0.68235900  0.29728500  0.13414200  1
  O  O54  1  0.69751250  0.91100850  0.10269000  1
  O  O55  1  0.69751250  0.08899150  0.10269000  1
  O  O56  1  0.81792200  0.82767200  0.50028600  1
  O  O57  1  0.81792200  0.17232800  0.50028600  1
  O  O58  1  0.80739350  0.58636150  0.89523100  1
  O  O59  1  0.80739350  0.41363850  0.89523100  1
  O  O60  1  0.71223300  0.50000000  0.16435000  1
  O  O61  1  0.82361800  0.21322500  0.86570100  1
  O  O62  1  0.82361800  0.78677500  0.86570100  1
  O  O63  1  0.99611250  0.89365250  0.76651200  1
  O  O64  1  0.99611250  0.10634750  0.76651200  1
  O  O65  1  0.00104000  0.27809300  0.72776100  1
  O  O66  1  0.00104000  0.72190700  0.72776100  1
  O  O67  1  0.95036500  0.50000000  0.17949300  1
  O  O68  1  0.06327200  0.50000000  0.81223300  1
  O  O69  1  0.99588500  0.89209100  0.21450000  1
  O  O70  1  0.99588500  0.10790900  0.21450000  1
  O  O71  1  0.01677500  0.72163100  0.27883800  1
  O  O72  1  0.01677500  0.27836900  0.27883800  1
  O  O73  1  0.67508150  0.65729050  0.49844400  1
  O  O74  1  0.67508150  0.34270950  0.49844400  1
  O  O75  1  0.30306600  0.50000000  0.85518100  1
  O  O76  1  0.18235900  0.20271500  0.13414200  1
  O  O77  1  0.18235900  0.79728500  0.13414200  1
  O  O78  1  0.19751250  0.41100850  0.10269000  1
  O  O79  1  0.19751250  0.58899150  0.10269000  1
  O  O80  1  0.31792200  0.32767200  0.50028600  1
  O  O81  1  0.31792200  0.67232800  0.50028600  1
