# generated using pymatgen
data_Li4Mn3Cr3(TeO8)2
_symmetry_space_group_name_H-M   'P 1'
_cell_length_a   10.50299000
_cell_length_b   6.00699600
_cell_length_c   9.81677289
_cell_angle_alpha   90.00000000
_cell_angle_beta   91.78861152
_cell_angle_gamma   90.00000000
_symmetry_Int_Tables_number   1
_chemical_formula_structural   Li4Mn3Cr3(TeO8)2
_chemical_formula_sum   'Li8 Mn6 Cr6 Te4 O32'
_cell_volume   619.05237151
_cell_formula_units_Z   2
loop_
 _symmetry_equiv_pos_site_id
 _symmetry_equiv_pos_as_xyz
  1  'x, y, z'
loop_
 _atom_site_type_symbol
 _atom_site_label
 _atom_site_symmetry_multiplicity
 _atom_site_fract_x
 _atom_site_fract_y
 _atom_site_fract_z
 _atom_site_occupancy
  Li  Li0  1  0.66164500  0.00000000  0.90974400  1
  Li  Li1  1  0.99482000  0.00000000  0.98550700  1
  Li  Li2  1  0.50373900  0.50000000  0.48819300  1
  Li  Li3  1  0.83652100  0.50000000  0.40438400  1
  Li  Li4  1  0.16164500  0.50000000  0.90974400  1
  Li  Li5  1  0.49482000  0.50000000  0.98550700  1
  Li  Li6  1  0.00373900  0.00000000  0.48819300  1
  Li  Li7  1  0.33652100  0.00000000  0.40438400  1
  Mn  Mn8  1  0.83427600  0.00000000  0.21159000  1
  Mn  Mn9  1  0.91735000  0.74259900  0.71243800  1
  Mn  Mn10  1  0.91735000  0.25740100  0.71243800  1
  Mn  Mn11  1  0.33427600  0.50000000  0.21159000  1
  Mn  Mn12  1  0.41735000  0.24259900  0.71243800  1
  Mn  Mn13  1  0.41735000  0.75740100  0.71243800  1
  Cr  Cr14  1  0.58530950  0.24835950  0.21331500  1
  Cr  Cr15  1  0.58530950  0.75164050  0.21331500  1
  Cr  Cr16  1  0.67266000  0.50000000  0.71518400  1
  Cr  Cr17  1  0.08530950  0.74835950  0.21331500  1
  Cr  Cr18  1  0.08530950  0.25164050  0.21331500  1
  Cr  Cr19  1  0.17266000  0.00000000  0.71518400  1
  Te  Te20  1  0.67161800  0.00000000  0.48273100  1
  Te  Te21  1  0.82926800  0.50000000  0.98645800  1
  Te  Te22  1  0.17161800  0.50000000  0.48273100  1
  Te  Te23  1  0.32926800  0.00000000  0.98645800  1
  O  O24  1  0.59287300  0.24469600  0.58538000  1
  O  O25  1  0.52347900  0.00000000  0.34447200  1
  O  O26  1  0.66946500  0.00000000  0.11576500  1
  O  O27  1  0.99870400  0.00000000  0.30462400  1
  O  O28  1  0.50211900  0.50000000  0.79596600  1
  O  O29  1  0.59287300  0.75530400  0.58538000  1
  O  O30  1  0.73811100  0.22436800  0.35072000  1
  O  O31  1  0.73811100  0.77563200  0.35072000  1
  O  O32  1  0.65338100  0.50000000  0.10087000  1
  O  O33  1  0.83498500  0.00000000  0.58715300  1
  O  O34  1  0.74757250  0.72061050  0.84797400  1
  O  O35  1  0.74757250  0.27938950  0.84797400  1
  O  O36  1  0.83148900  0.50000000  0.61278000  1
  O  O37  1  0.92093100  0.75893300  0.09637000  1
  O  O38  1  0.97700500  0.50000000  0.85002700  1
  O  O39  1  0.92093100  0.24106700  0.09637000  1
  O  O40  1  0.09287300  0.74469600  0.58538000  1
  O  O41  1  0.02347900  0.50000000  0.34447200  1
  O  O42  1  0.16946500  0.50000000  0.11576500  1
  O  O43  1  0.49870400  0.50000000  0.30462400  1
  O  O44  1  0.00211900  0.00000000  0.79596600  1
  O  O45  1  0.09287300  0.25530400  0.58538000  1
  O  O46  1  0.23811100  0.72436800  0.35072000  1
  O  O47  1  0.23811100  0.27563200  0.35072000  1
  O  O48  1  0.15338100  0.00000000  0.10087000  1
  O  O49  1  0.33498500  0.50000000  0.58715300  1
  O  O50  1  0.24757250  0.22061050  0.84797400  1
  O  O51  1  0.24757250  0.77938950  0.84797400  1
  O  O52  1  0.33148900  0.00000000  0.61278000  1
  O  O53  1  0.42093100  0.25893300  0.09637000  1
  O  O54  1  0.47700500  0.00000000  0.85002700  1
  O  O55  1  0.42093100  0.74106700  0.09637000  1
