# generated using pymatgen
data_Y2Bi2O7
_symmetry_space_group_name_H-M   'P 1'
_cell_length_a   8.23469300
_cell_length_b   5.76184400
_cell_length_c   14.02065145
_cell_angle_alpha   90.00000000
_cell_angle_beta   99.30285790
_cell_angle_gamma   90.00000000
_symmetry_Int_Tables_number   1
_chemical_formula_structural   Y2Bi2O7
_chemical_formula_sum   'Y8 Bi8 O28'
_cell_volume   656.48863907
_cell_formula_units_Z   4
loop_
 _symmetry_equiv_pos_site_id
 _symmetry_equiv_pos_as_xyz
  1  'x, y, z'
loop_
 _atom_site_type_symbol
 _atom_site_label
 _atom_site_symmetry_multiplicity
 _atom_site_fract_x
 _atom_site_fract_y
 _atom_site_fract_z
 _atom_site_occupancy
  Y  Y0  1  0.86641500  0.19012900  0.44257200  1
  Y  Y1  1  0.75219800  0.72345900  0.06788000  1
  Y  Y2  1  0.70608000  0.26047700  0.86838200  1
  Y  Y3  1  0.63620600  0.71426400  0.61180000  1
  Y  Y4  1  0.36379400  0.21426400  0.38820000  1
  Y  Y5  1  0.29392000  0.76047700  0.13161800  1
  Y  Y6  1  0.24780200  0.22345900  0.93212000  1
  Y  Y7  1  0.13358500  0.69012900  0.55742800  1
  Bi  Bi8  1  0.92158400  0.23838700  0.68228400  1
  Bi  Bi9  1  0.97663800  0.73921800  0.88241900  1
  Bi  Bi10  1  0.59286100  0.72078600  0.33076100  1
  Bi  Bi11  1  0.54115900  0.23718900  0.13117200  1
  Bi  Bi12  1  0.45884100  0.73718900  0.86882800  1
  Bi  Bi13  1  0.40713900  0.22078600  0.66923900  1
  Bi  Bi14  1  0.02336200  0.23921800  0.11758100  1
  Bi  Bi15  1  0.07841600  0.73838700  0.31771600  1
  O  O16  1  0.93245900  0.95204600  0.58303000  1
  O  O17  1  0.01091100  0.11486400  0.82427200  1
  O  O18  1  0.83960800  0.86443500  0.34710300  1
  O  O19  1  0.78342200  0.07634500  0.12919300  1
  O  O20  1  0.83242000  0.45258500  0.56002200  1
  O  O21  1  0.90199700  0.45062900  0.97793900  1
  O  O22  1  0.83887100  0.53267800  0.75504100  1
  O  O23  1  0.63626700  0.37286300  0.37257600  1
  O  O24  1  0.58594600  0.63014300  0.17798800  1
  O  O25  1  0.72965200  0.89978200  0.92210000  1
  O  O26  1  0.67614000  0.07043300  0.69832200  1
  O  O27  1  0.57891200  0.91392200  0.46101000  1
  O  O28  1  0.43341700  0.94246100  0.02233600  1
  O  O29  1  0.46729800  0.01041200  0.25884600  1
  O  O30  1  0.53270200  0.51041200  0.74115400  1
  O  O31  1  0.56658300  0.44246100  0.97766400  1
  O  O32  1  0.42108800  0.41392200  0.53899000  1
  O  O33  1  0.32386000  0.57043300  0.30167800  1
  O  O34  1  0.27034800  0.39978200  0.07790000  1
  O  O35  1  0.41405400  0.13014300  0.82201200  1
  O  O36  1  0.36373300  0.87286300  0.62742400  1
  O  O37  1  0.16112900  0.03267800  0.24495900  1
  O  O38  1  0.09800300  0.95062900  0.02206100  1
  O  O39  1  0.16758000  0.95258500  0.43997800  1
  O  O40  1  0.21657800  0.57634500  0.87080700  1
  O  O41  1  0.16039200  0.36443500  0.65289700  1
  O  O42  1  0.98908900  0.61486400  0.17572800  1
  O  O43  1  0.06754100  0.45204600  0.41697000  1
