# generated using pymatgen
data_Li5Mn5Cr2O12
_symmetry_space_group_name_H-M   'P 1'
_cell_length_a   5.27590600
_cell_length_b   8.94468000
_cell_length_c   9.90663804
_cell_angle_alpha   90.00000000
_cell_angle_beta   98.08434703
_cell_angle_gamma   90.00000000
_symmetry_Int_Tables_number   1
_chemical_formula_structural   Li5Mn5Cr2O12
_chemical_formula_sum   'Li10 Mn10 Cr4 O24'
_cell_volume   462.86100572
_cell_formula_units_Z   2
loop_
 _symmetry_equiv_pos_site_id
 _symmetry_equiv_pos_as_xyz
  1  'x, y, z'
loop_
 _atom_site_type_symbol
 _atom_site_label
 _atom_site_symmetry_multiplicity
 _atom_site_fract_x
 _atom_site_fract_y
 _atom_site_fract_z
 _atom_site_occupancy
  Li  Li0  1  0.24783350  0.91404750  0.75720200  1
  Li  Li1  1  0.23550750  0.08716150  0.23912500  1
  Li  Li2  1  0.75216650  0.91404750  0.24279800  1
  Li  Li3  1  0.76449250  0.08716150  0.76087500  1
  Li  Li4  1  0.50000000  0.41725600  0.00000000  1
  Li  Li5  1  0.74783350  0.41404750  0.75720200  1
  Li  Li6  1  0.73550750  0.58716150  0.23912500  1
  Li  Li7  1  0.25216650  0.41404750  0.24279800  1
  Li  Li8  1  0.26449250  0.58716150  0.76087500  1
  Li  Li9  1  0.00000000  0.91725600  0.00000000  1
  Mn  Mn10  1  0.50000000  0.58093400  0.50000000  1
  Mn  Mn11  1  0.74203150  0.25402950  0.24284400  1
  Mn  Mn12  1  0.25796850  0.25402950  0.75715600  1
  Mn  Mn13  1  0.50000000  0.91787100  0.50000000  1
  Mn  Mn14  1  0.50000000  0.07981000  0.00000000  1
  Mn  Mn15  1  0.00000000  0.08093400  0.50000000  1
  Mn  Mn16  1  0.24203150  0.75402950  0.24284400  1
  Mn  Mn17  1  0.75796850  0.75402950  0.75715600  1
  Mn  Mn18  1  0.00000000  0.41787100  0.50000000  1
  Mn  Mn19  1  0.00000000  0.57981000  0.00000000  1
  Cr  Cr20  1  0.50000000  0.74851900  0.00000000  1
  Cr  Cr21  1  0.50000000  0.24949900  0.50000000  1
  Cr  Cr22  1  0.00000000  0.24851900  0.00000000  1
  Cr  Cr23  1  0.00000000  0.74949900  0.50000000  1
  O  O24  1  0.87230650  0.09676850  0.12598300  1
  O  O25  1  0.12769350  0.09676850  0.87401700  1
  O  O26  1  0.35308600  0.75157700  0.61687600  1
  O  O27  1  0.64691400  0.75157700  0.38312400  1
  O  O28  1  0.38328550  0.91373050  0.11968500  1
  O  O29  1  0.61671450  0.91373050  0.88031500  1
  O  O30  1  0.36340450  0.09099250  0.61861800  1
  O  O31  1  0.63659550  0.09099250  0.38138200  1
  O  O32  1  0.36222950  0.23940750  0.11179300  1
  O  O33  1  0.63777050  0.23940750  0.88820700  1
  O  O34  1  0.87503000  0.90534100  0.62553200  1
  O  O35  1  0.12497000  0.90534100  0.37446800  1
  O  O36  1  0.37230650  0.59676850  0.12598300  1
  O  O37  1  0.62769350  0.59676850  0.87401700  1
  O  O38  1  0.85308600  0.25157700  0.61687600  1
  O  O39  1  0.14691400  0.25157700  0.38312400  1
  O  O40  1  0.88328550  0.41373050  0.11968500  1
  O  O41  1  0.11671450  0.41373050  0.88031500  1
  O  O42  1  0.86340450  0.59099250  0.61861800  1
  O  O43  1  0.13659550  0.59099250  0.38138200  1
  O  O44  1  0.86222950  0.73940750  0.11179300  1
  O  O45  1  0.13777050  0.73940750  0.88820700  1
  O  O46  1  0.37503000  0.40534100  0.62553200  1
  O  O47  1  0.62497000  0.40534100  0.37446800  1
