# generated using pymatgen
data_V3Zn2O8
_symmetry_space_group_name_H-M   'P 1'
_cell_length_a   5.96034201
_cell_length_b   5.96034201
_cell_length_c   14.50496394
_cell_angle_alpha   90.00000000
_cell_angle_beta   90.00000000
_cell_angle_gamma   120.00000000
_symmetry_Int_Tables_number   1
_chemical_formula_structural   V3Zn2O8
_chemical_formula_sum   'V9 Zn6 O24'
_cell_volume   446.26173139
_cell_formula_units_Z   3
loop_
 _symmetry_equiv_pos_site_id
 _symmetry_equiv_pos_as_xyz
  1  'x, y, z'
loop_
 _atom_site_type_symbol
 _atom_site_label
 _atom_site_symmetry_multiplicity
 _atom_site_fract_x
 _atom_site_fract_y
 _atom_site_fract_z
 _atom_site_occupancy
  V  V0  1  0.50000000  0.00000000  0.50000000  1
  V  V1  1  0.00000000  0.50000000  0.50000000  1
  V  V2  1  0.50000000  0.50000000  0.50000000  1
  V  V3  1  0.16666667  0.33333333  0.83333333  1
  V  V4  1  0.66666667  0.83333333  0.83333333  1
  V  V5  1  0.16666667  0.83333333  0.83333333  1
  V  V6  1  0.83333333  0.66666667  0.16666667  1
  V  V7  1  0.33333333  0.16666667  0.16666667  1
  V  V8  1  0.83333333  0.16666667  0.16666667  1
  Zn  Zn9  1  0.66666667  0.33333333  0.95177483  1
  Zn  Zn10  1  0.66666667  0.33333333  0.71489183  1
  Zn  Zn11  1  0.33333333  0.66666667  0.28510817  1
  Zn  Zn12  1  0.33333333  0.66666667  0.04822517  1
  Zn  Zn13  1  0.00000000  0.00000000  0.61844150  1
  Zn  Zn14  1  0.00000000  0.00000000  0.38155850  1
  O  O15  1  0.66666667  0.33333333  0.57666417  1
  O  O16  1  0.66666667  0.33333333  0.09000250  1
  O  O17  1  0.82276292  0.17723708  0.43243483  1
  O  O18  1  0.51057042  0.48942958  0.23423183  1
  O  O19  1  0.51057042  0.02114083  0.23423183  1
  O  O20  1  0.97885917  0.48942958  0.23423183  1
  O  O21  1  0.35447417  0.17723708  0.43243483  1
  O  O22  1  0.82276292  0.64552583  0.43243483  1
  O  O23  1  0.33333333  0.66666667  0.90999750  1
  O  O24  1  0.33333333  0.66666667  0.42333583  1
  O  O25  1  0.48942958  0.51057042  0.76576817  1
  O  O26  1  0.17723708  0.82276292  0.56756517  1
  O  O27  1  0.17723708  0.35447417  0.56756517  1
  O  O28  1  0.64552583  0.82276292  0.56756517  1
  O  O29  1  0.02114083  0.51057042  0.76576817  1
  O  O30  1  0.48942958  0.97885917  0.76576817  1
  O  O31  1  0.00000000  0.00000000  0.24333083  1
  O  O32  1  0.00000000  0.00000000  0.75666917  1
  O  O33  1  0.15609625  0.84390375  0.09910150  1
  O  O34  1  0.84390375  0.15609625  0.90089850  1
  O  O35  1  0.84390375  0.68780750  0.90089850  1
  O  O36  1  0.31219250  0.15609625  0.90089850  1
  O  O37  1  0.68780750  0.84390375  0.09910150  1
  O  O38  1  0.15609625  0.31219250  0.09910150  1
