# generated using pymatgen
data_Li7FeP4O14F
_symmetry_space_group_name_H-M   'P 1'
_cell_length_a   9.85314400
_cell_length_b   8.07982600
_cell_length_c   14.62238099
_cell_angle_alpha   90.00000000
_cell_angle_beta   97.47912231
_cell_angle_gamma   90.00000000
_symmetry_Int_Tables_number   1
_chemical_formula_structural   Li7FeP4O14F
_chemical_formula_sum   'Li28 Fe4 P16 O56 F4'
_cell_volume   1154.20859633
_cell_formula_units_Z   4
loop_
 _symmetry_equiv_pos_site_id
 _symmetry_equiv_pos_as_xyz
  1  'x, y, z'
loop_
 _atom_site_type_symbol
 _atom_site_label
 _atom_site_symmetry_multiplicity
 _atom_site_fract_x
 _atom_site_fract_y
 _atom_site_fract_z
 _atom_site_occupancy
  Li  Li0  1  0.80677250  0.20488750  0.82219000  1
  Li  Li1  1  0.90404250  0.73097650  0.83435300  1
  Li  Li2  1  0.80677250  0.79511250  0.32219000  1
  Li  Li3  1  0.90404250  0.26902350  0.33435300  1
  Li  Li4  1  0.97133400  0.92422700  0.49326200  1
  Li  Li5  1  0.09878800  0.42687300  0.82134300  1
  Li  Li6  1  0.97133400  0.07577300  0.99326200  1
  Li  Li7  1  0.14877300  0.73022600  0.97460300  1
  Li  Li8  1  0.09878800  0.57312700  0.32134300  1
  Li  Li9  1  0.14877300  0.26977400  0.47460300  1
  Li  Li10  1  0.24474000  0.28087200  0.98706700  1
  Li  Li11  1  0.24474000  0.71912800  0.48706700  1
  Li  Li12  1  0.28180900  0.41182100  0.65879100  1
  Li  Li13  1  0.28180900  0.58817900  0.15879100  1
  Li  Li14  1  0.30677250  0.70488750  0.82219000  1
  Li  Li15  1  0.40404250  0.23097650  0.83435300  1
  Li  Li16  1  0.30677250  0.29511250  0.32219000  1
  Li  Li17  1  0.40404250  0.76902350  0.33435300  1
  Li  Li18  1  0.47133400  0.42422700  0.49326200  1
  Li  Li19  1  0.59878800  0.92687300  0.82134300  1
  Li  Li20  1  0.47133400  0.57577300  0.99326200  1
  Li  Li21  1  0.64877300  0.23022600  0.97460300  1
  Li  Li22  1  0.59878800  0.07312700  0.32134300  1
  Li  Li23  1  0.64877300  0.76977400  0.47460300  1
  Li  Li24  1  0.74474000  0.78087200  0.98706700  1
  Li  Li25  1  0.74474000  0.21912800  0.48706700  1
  Li  Li26  1  0.78180900  0.91182100  0.65879100  1
  Li  Li27  1  0.78180900  0.08817900  0.15879100  1
  Fe  Fe28  1  0.77775400  0.50067100  0.65651800  1
  Fe  Fe29  1  0.77775400  0.49932900  0.15651800  1
  Fe  Fe30  1  0.27775400  0.00067100  0.65651800  1
  Fe  Fe31  1  0.27775400  0.99932900  0.15651800  1
  P  P32  1  0.61330900  0.52546400  0.83061900  1
  P  P33  1  0.61330900  0.47453600  0.33061900  1
  P  P34  1  0.92497500  0.45334600  0.98247900  1
  P  P35  1  0.92497500  0.54665400  0.48247900  1
  P  P36  1  0.98418600  0.17660300  0.65655900  1
  P  P37  1  0.98418600  0.82339700  0.15655900  1
  P  P38  1  0.06575300  0.68304400  0.65548100  1
  P  P39  1  0.06575300  0.31695600  0.15548100  1
  P  P40  1  0.11330900  0.02546400  0.83061900  1
  P  P41  1  0.11330900  0.97453600  0.33061900  1
  P  P42  1  0.42497500  0.95334600  0.98247900  1
  P  P43  1  0.42497500  0.04665400  0.48247900  1
  P  P44  1  0.48418600  0.67660300  0.65655900  1
  P  P45  1  0.48418600  0.32339700  0.15655900  1
  P  P46  1  0.56575300  0.18304400  0.65548100  1
  P  P47  1  0.56575300  0.81695600  0.15548100  1
  O  O48  1  0.75131750  0.54526050  0.79448900  1
  O  O49  1  0.75131750  0.45473950  0.29448900  1
  O  O50  1  0.86206100  0.28097900  0.95998800  1
  O  O51  1  0.82079850  0.43738250  0.52228300  1
  O  O52  1  0.86206100  0.71902100  0.45998800  1
  O  O53  1  0.82079850  0.56261750  0.02228300  1
  O  O54  1  0.92173850  0.70368550  0.68421800  1
  O  O55  1  0.93438200  0.32671700  0.70746900  1
  O  O56  1  0.99917850  0.54165950  0.91081500  1
  O  O57  1  0.99812900  0.03784200  0.73868600  1
  O  O58  1  0.92173850  0.29631450  0.18421800  1
  O  O59  1  0.93438200  0.67328300  0.20746900  1
  O  O60  1  0.99917850  0.45834050  0.41081500  1
  O  O61  1  0.99812900  0.96215800  0.23868600  1
  O  O62  1  0.08740900  0.85300700  0.86681000  1
  O  O63  1  0.08404700  0.16547400  0.89508500  1
  O  O64  1  0.05442750  0.56248850  0.56520300  1
  O  O65  1  0.11709050  0.84224850  0.61511000  1
  O  O66  1  0.08740900  0.14699300  0.36681000  1
  O  O67  1  0.12410150  0.20811050  0.62105800  1
  O  O68  1  0.08404700  0.83452600  0.39508500  1
  O  O69  1  0.05442750  0.43751150  0.06520300  1
  O  O70  1  0.16813600  0.59219200  0.72602900  1
  O  O71  1  0.11709050  0.15775150  0.11511000  1
  O  O72  1  0.12410150  0.79188950  0.12105800  1
  O  O73  1  0.16813600  0.40780800  0.22602900  1
  O  O74  1  0.38094200  0.59049100  0.58344400  1
  O  O75  1  0.38094200  0.40950900  0.08344400  1
  O  O76  1  0.25131750  0.04526050  0.79448900  1
  O  O77  1  0.25131750  0.95473950  0.29448900  1
  O  O78  1  0.36206100  0.78097900  0.95998800  1
  O  O79  1  0.32079850  0.93738250  0.52228300  1
  O  O80  1  0.36206100  0.21902100  0.45998800  1
  O  O81  1  0.32079850  0.06261750  0.02228300  1
  O  O82  1  0.42173850  0.20368550  0.68421800  1
  O  O83  1  0.43438200  0.82671700  0.70746900  1
  O  O84  1  0.49917850  0.04165950  0.91081500  1
  O  O85  1  0.49812900  0.53784200  0.73868600  1
  O  O86  1  0.42173850  0.79631450  0.18421800  1
  O  O87  1  0.43438200  0.17328300  0.20746900  1
  O  O88  1  0.49917850  0.95834050  0.41081500  1
  O  O89  1  0.49812900  0.46215800  0.23868600  1
  O  O90  1  0.58740900  0.35300700  0.86681000  1
  O  O91  1  0.58404700  0.66547400  0.89508500  1
  O  O92  1  0.55442750  0.06248850  0.56520300  1
  O  O93  1  0.61709050  0.34224850  0.61511000  1
  O  O94  1  0.58740900  0.64699300  0.36681000  1
  O  O95  1  0.62410150  0.70811050  0.62105800  1
  O  O96  1  0.58404700  0.33452600  0.39508500  1
  O  O97  1  0.55442750  0.93751150  0.06520300  1
  O  O98  1  0.66813600  0.09219200  0.72602900  1
  O  O99  1  0.61709050  0.65775150  0.11511000  1
  O  O100  1  0.62410150  0.29188950  0.12105800  1
  O  O101  1  0.66813600  0.90780800  0.22602900  1
  O  O102  1  0.88094200  0.09049100  0.58344400  1
  O  O103  1  0.88094200  0.90950900  0.08344400  1
  F  F104  1  0.29146850  0.41629350  0.88348400  1
  F  F105  1  0.29146850  0.58370650  0.38348400  1
  F  F106  1  0.79146850  0.91629350  0.88348400  1
  F  F107  1  0.79146850  0.08370650  0.38348400  1
