# generated using pymatgen
data_Na5LiMn2P2(CO7)2
_symmetry_space_group_name_H-M   'P 1'
_cell_length_a   8.98197400
_cell_length_b   6.76177500
_cell_length_c   10.38745178
_cell_angle_alpha   90.00000000
_cell_angle_beta   90.04194816
_cell_angle_gamma   90.00000000
_symmetry_Int_Tables_number   1
_chemical_formula_structural   Na5LiMn2P2(CO7)2
_chemical_formula_sum   'Na10 Li2 Mn4 P4 C4 O28'
_cell_volume   630.87223381
_cell_formula_units_Z   2
loop_
 _symmetry_equiv_pos_site_id
 _symmetry_equiv_pos_as_xyz
  1  'x, y, z'
loop_
 _atom_site_type_symbol
 _atom_site_label
 _atom_site_symmetry_multiplicity
 _atom_site_fract_x
 _atom_site_fract_y
 _atom_site_fract_z
 _atom_site_occupancy
  Na  Na0  1  0.91747200  0.74954400  0.62883700  1
  Na  Na1  1  0.91615500  0.74586600  0.13014100  1
  Na  Na2  1  0.74388300  0.99888700  0.37447400  1
  Na  Na3  1  0.74134300  0.99921000  0.87356000  1
  Na  Na4  1  0.74179900  0.50012200  0.87308700  1
  Na  Na5  1  0.25611700  0.49888700  0.62552600  1
  Na  Na6  1  0.25865700  0.49921000  0.12644000  1
  Na  Na7  1  0.25820100  0.00012200  0.12691300  1
  Na  Na8  1  0.08252800  0.24954400  0.37116300  1
  Na  Na9  1  0.08384500  0.24586600  0.86985900  1
  Li  Li10  1  0.72575000  0.51780000  0.36539200  1
  Li  Li11  1  0.27425000  0.01780000  0.63460800  1
  Mn  Mn12  1  0.63981700  0.25245300  0.63566200  1
  Mn  Mn13  1  0.63747500  0.25259600  0.14284100  1
  Mn  Mn14  1  0.36018300  0.75245300  0.36433800  1
  Mn  Mn15  1  0.36252500  0.75259600  0.85715900  1
  P  P16  1  0.58688500  0.75159500  0.59800400  1
  P  P17  1  0.58741500  0.75052400  0.10419000  1
  P  P18  1  0.41311500  0.25159500  0.40199600  1
  P  P19  1  0.41258500  0.25052400  0.89581000  1
  C  C20  1  0.94508000  0.24266500  0.61736800  1
  C  C21  1  0.93942200  0.25069600  0.11806000  1
  C  C22  1  0.05492000  0.74266500  0.38263200  1
  C  C23  1  0.06057800  0.75069600  0.88194000  1
  O  O24  1  0.91102800  0.72550500  0.39235400  1
  O  O25  1  0.91692100  0.75026200  0.89299100  1
  O  O26  1  0.88174700  0.25006900  0.73042100  1
  O  O27  1  0.87721800  0.24933000  0.23122500  1
  O  O28  1  0.86153800  0.25353100  0.51500600  1
  O  O29  1  0.85512300  0.25265900  0.01555000  1
  O  O30  1  0.68214700  0.93527700  0.63515200  1
  O  O31  1  0.67104800  0.56768800  0.65009000  1
  O  O32  1  0.67893400  0.93633900  0.14374700  1
  O  O33  1  0.68041100  0.56833800  0.14957000  1
  O  O34  1  0.57721400  0.73507200  0.44767500  1
  O  O35  1  0.57442000  0.26818200  0.34747200  1
  O  O36  1  0.57070200  0.74682100  0.95428200  1
  O  O37  1  0.56995900  0.24897200  0.83542400  1
  O  O38  1  0.42558000  0.76818200  0.65252800  1
  O  O39  1  0.42278600  0.23507200  0.55232500  1
  O  O40  1  0.43004100  0.74897200  0.16457600  1
  O  O41  1  0.42929800  0.24682100  0.04571800  1
  O  O42  1  0.31785300  0.43527700  0.36484800  1
  O  O43  1  0.32895200  0.06768800  0.34991000  1
  O  O44  1  0.32106600  0.43633900  0.85625300  1
  O  O45  1  0.31958900  0.06833800  0.85043000  1
  O  O46  1  0.13846200  0.75353100  0.48499400  1
  O  O47  1  0.14487700  0.75265900  0.98445000  1
  O  O48  1  0.11825300  0.75006900  0.26957900  1
  O  O49  1  0.12278200  0.74933000  0.76877500  1
  O  O50  1  0.08897200  0.22550500  0.60764600  1
  O  O51  1  0.08307900  0.25026200  0.10700900  1
