# generated using pymatgen
data_Mn3FeNi2(PO4)6
_symmetry_space_group_name_H-M   'P 1'
_cell_length_a   8.56390575
_cell_length_b   8.56390575
_cell_length_c   20.51279939
_cell_angle_alpha   90.00000000
_cell_angle_beta   90.00000000
_cell_angle_gamma   120.00000000
_symmetry_Int_Tables_number   1
_chemical_formula_structural   Mn3FeNi2(PO4)6
_chemical_formula_sum   'Mn9 Fe3 Ni6 P18 O72'
_cell_volume   1302.86471392
_cell_formula_units_Z   3
loop_
 _symmetry_equiv_pos_site_id
 _symmetry_equiv_pos_as_xyz
  1  'x, y, z'
loop_
 _atom_site_type_symbol
 _atom_site_label
 _atom_site_symmetry_multiplicity
 _atom_site_fract_x
 _atom_site_fract_y
 _atom_site_fract_z
 _atom_site_occupancy
  Mn  Mn0  1  0.33333333  0.66666667  0.80870467  1
  Mn  Mn1  1  0.33333333  0.66666667  0.02533367  1
  Mn  Mn2  1  0.33333333  0.66666667  0.30880767  1
  Mn  Mn3  1  0.00000000  0.00000000  0.14203800  1
  Mn  Mn4  1  0.00000000  0.00000000  0.35866700  1
  Mn  Mn5  1  0.00000000  0.00000000  0.64214100  1
  Mn  Mn6  1  0.66666667  0.33333333  0.47537133  1
  Mn  Mn7  1  0.66666667  0.33333333  0.69200033  1
  Mn  Mn8  1  0.66666667  0.33333333  0.97547433  1
  Fe  Fe9  1  0.33333333  0.66666667  0.52382267  1
  Fe  Fe10  1  0.00000000  0.00000000  0.85715600  1
  Fe  Fe11  1  0.66666667  0.33333333  0.19048933  1
  Ni  Ni12  1  0.33333333  0.66666667  0.66591767  1
  Ni  Ni13  1  0.33333333  0.66666667  0.16745667  1
  Ni  Ni14  1  0.00000000  0.00000000  0.99925100  1
  Ni  Ni15  1  0.00000000  0.00000000  0.50079000  1
  Ni  Ni16  1  0.66666667  0.33333333  0.33258433  1
  Ni  Ni17  1  0.66666667  0.33333333  0.83412333  1
  P  P18  1  0.66678533  0.62839767  0.08256867  1
  P  P19  1  0.96161233  0.33321467  0.08256867  1
  P  P20  1  0.37160233  0.03838767  0.08256867  1
  P  P21  1  0.29135333  0.29075867  0.25102267  1
  P  P22  1  0.70924133  0.00059467  0.25102267  1
  P  P23  1  0.99940533  0.70864667  0.25102267  1
  P  P24  1  0.33345200  0.96173100  0.41590200  1
  P  P25  1  0.62827900  0.66654800  0.41590200  1
  P  P26  1  0.03826900  0.37172100  0.41590200  1
  P  P27  1  0.95802000  0.62409200  0.58435600  1
  P  P28  1  0.37590800  0.33392800  0.58435600  1
  P  P29  1  0.66607200  0.04198000  0.58435600  1
  P  P30  1  0.00011867  0.29506433  0.74923533  1
  P  P31  1  0.29494567  0.99988133  0.74923533  1
  P  P32  1  0.70493567  0.70505433  0.74923533  1
  P  P33  1  0.62468667  0.95742533  0.91768933  1
  P  P34  1  0.04257467  0.66726133  0.91768933  1
  P  P35  1  0.33273867  0.37531333  0.91768933  1
  O  O36  1  0.33672300  0.47713600  0.98001200  1
  O  O37  1  0.52286400  0.85958700  0.98001200  1
  O  O38  1  0.83426200  0.82171600  0.07457200  1
  O  O39  1  0.14041300  0.66327700  0.98001200  1
  O  O40  1  0.66805567  0.53317133  0.14478133  1
  O  O41  1  0.49435933  0.64952867  0.09030667  1
  O  O42  1  0.98745400  0.16573800  0.07457200  1
  O  O43  1  0.15516933  0.50564067  0.09030667  1
  O  O44  1  0.19706033  0.19531067  0.18795867  1
  O  O45  1  0.35047133  0.84483067  0.09030667  1
  O  O46  1  0.48260100  0.31538700  0.25962400  1
  O  O47  1  0.80468933  0.00174967  0.18795867  1
  O  O48  1  0.86511567  0.33194433  0.14478133  1
  O  O49  1  0.17828400  0.01254600  0.07457200  1
  O  O50  1  0.31059867  0.48214733  0.24257233  1
  O  O51  1  0.46682867  0.13488433  0.14478133  1
  O  O52  1  0.51785267  0.82845133  0.24257233  1
  O  O53  1  0.68461300  0.16721400  0.25962400  1
  O  O54  1  0.17154867  0.68940133  0.24257233  1
  O  O55  1  0.99825033  0.80293967  0.18795867  1
  O  O56  1  0.53252867  0.66685433  0.35323333  1
  O  O57  1  0.83278600  0.51739900  0.25962400  1
  O  O58  1  0.13432567  0.46747133  0.35323333  1
  O  O59  1  0.33314567  0.86567433  0.35323333  1
  O  O60  1  0.00338967  0.81046933  0.31334533  1
  O  O61  1  0.18953067  0.19292033  0.31334533  1
  O  O62  1  0.50092867  0.15504933  0.40790533  1
  O  O63  1  0.80707967  0.99661033  0.31334533  1
  O  O64  1  0.33472233  0.86650467  0.47811467  1
  O  O65  1  0.16102600  0.98286200  0.42364000  1
  O  O66  1  0.65412067  0.49907133  0.40790533  1
  O  O67  1  0.82183600  0.83897400  0.42364000  1
  O  O68  1  0.86372700  0.52864400  0.52129200  1
  O  O69  1  0.01713800  0.17816400  0.42364000  1
  O  O70  1  0.14926767  0.64872033  0.59295733  1
  O  O71  1  0.47135600  0.33508300  0.52129200  1
  O  O72  1  0.53178233  0.66527767  0.47811467  1
  O  O73  1  0.84495067  0.34587933  0.40790533  1
  O  O74  1  0.97726533  0.81548067  0.57590567  1
  O  O75  1  0.13349533  0.46821767  0.47811467  1
  O  O76  1  0.18451933  0.16178467  0.57590567  1
  O  O77  1  0.35127967  0.50054733  0.59295733  1
  O  O78  1  0.83821533  0.02273467  0.57590567  1
  O  O79  1  0.66491700  0.13627300  0.52129200  1
  O  O80  1  0.19919533  0.00018767  0.68656667  1
  O  O81  1  0.49945267  0.85073233  0.59295733  1
  O  O82  1  0.80099233  0.80080467  0.68656667  1
  O  O83  1  0.99981233  0.19900767  0.68656667  1
  O  O84  1  0.67005633  0.14380267  0.64667867  1
  O  O85  1  0.85619733  0.52625367  0.64667867  1
  O  O86  1  0.16759533  0.48838267  0.74123867  1
  O  O87  1  0.47374633  0.32994367  0.64667867  1
  O  O88  1  0.00138900  0.19983800  0.81144800  1
  O  O89  1  0.82769267  0.31619533  0.75697333  1
  O  O90  1  0.32078733  0.83240467  0.74123867  1
  O  O91  1  0.48850267  0.17230733  0.75697333  1
  O  O92  1  0.53039367  0.86197733  0.85462533  1
  O  O93  1  0.68380467  0.51149733  0.75697333  1
  O  O94  1  0.81593433  0.98205367  0.92629067  1
  O  O95  1  0.13802267  0.66841633  0.85462533  1
  O  O96  1  0.19844900  0.99861100  0.81144800  1
  O  O97  1  0.51161733  0.67921267  0.74123867  1
  O  O98  1  0.64393200  0.14881400  0.90923900  1
  O  O99  1  0.80016200  0.80155100  0.81144800  1
  O  O100  1  0.85118600  0.49511800  0.90923900  1
  O  O101  1  0.01794633  0.83388067  0.92629067  1
  O  O102  1  0.50488200  0.35606800  0.90923900  1
  O  O103  1  0.33158367  0.46960633  0.85462533  1
  O  O104  1  0.86586200  0.33352100  0.01990000  1
  O  O105  1  0.16611933  0.18406567  0.92629067  1
  O  O106  1  0.46765900  0.13413800  0.01990000  1
  O  O107  1  0.66647900  0.53234100  0.01990000  1
