# generated using pymatgen
data_Mn3VCr2(PO4)6
_symmetry_space_group_name_H-M   'P 1'
_cell_length_a   8.68619407
_cell_length_b   8.68619407
_cell_length_c   20.52911057
_cell_angle_alpha   90.00000000
_cell_angle_beta   90.00000000
_cell_angle_gamma   120.00000000
_symmetry_Int_Tables_number   1
_chemical_formula_structural   Mn3VCr2(PO4)6
_chemical_formula_sum   'Mn9 V3 Cr6 P18 O72'
_cell_volume   1341.40469508
_cell_formula_units_Z   3
loop_
 _symmetry_equiv_pos_site_id
 _symmetry_equiv_pos_as_xyz
  1  'x, y, z'
loop_
 _atom_site_type_symbol
 _atom_site_label
 _atom_site_symmetry_multiplicity
 _atom_site_fract_x
 _atom_site_fract_y
 _atom_site_fract_z
 _atom_site_occupancy
  Mn  Mn0  1  0.33333333  0.66666667  0.02180867  1
  Mn  Mn1  1  0.33333333  0.66666667  0.81215667  1
  Mn  Mn2  1  0.33333333  0.66666667  0.31174367  1
  Mn  Mn3  1  0.00000000  0.00000000  0.35514200  1
  Mn  Mn4  1  0.00000000  0.00000000  0.14549000  1
  Mn  Mn5  1  0.00000000  0.00000000  0.64507700  1
  Mn  Mn6  1  0.66666667  0.33333333  0.68847533  1
  Mn  Mn7  1  0.66666667  0.33333333  0.47882333  1
  Mn  Mn8  1  0.66666667  0.33333333  0.97841033  1
  V  V9  1  0.33333333  0.66666667  0.52159367  1
  V  V10  1  0.00000000  0.00000000  0.85492700  1
  V  V11  1  0.66666667  0.33333333  0.18826033  1
  Cr  Cr12  1  0.33333333  0.66666667  0.66668967  1
  Cr  Cr13  1  0.33333333  0.66666667  0.16779967  1
  Cr  Cr14  1  0.00000000  0.00000000  0.00002300  1
  Cr  Cr15  1  0.00000000  0.00000000  0.50113300  1
  Cr  Cr16  1  0.66666667  0.33333333  0.33335633  1
  Cr  Cr17  1  0.66666667  0.33333333  0.83446633  1
  P  P18  1  0.66595967  0.63005133  0.08331033  1
  P  P19  1  0.96409167  0.33404033  0.08331033  1
  P  P20  1  0.36994867  0.03590833  0.08331033  1
  P  P21  1  0.29838967  0.29904833  0.24945133  1
  P  P22  1  0.70095167  0.99934133  0.24945133  1
  P  P23  1  0.00065867  0.70161033  0.24945133  1
  P  P24  1  0.33262633  0.96338467  0.41664367  1
  P  P25  1  0.63075833  0.66737367  0.41664367  1
  P  P26  1  0.03661533  0.36924167  0.41664367  1
  P  P27  1  0.96505633  0.63238167  0.58278467  1
  P  P28  1  0.36761833  0.33267467  0.58278467  1
  P  P29  1  0.66732533  0.03494367  0.58278467  1
  P  P30  1  0.99929300  0.29671800  0.74997700  1
  P  P31  1  0.29742500  0.00070700  0.74997700  1
  P  P32  1  0.70328200  0.70257500  0.74997700  1
  P  P33  1  0.63172300  0.96571500  0.91611800  1
  P  P34  1  0.03428500  0.66600800  0.91611800  1
  P  P35  1  0.33399200  0.36827700  0.91611800  1
  O  O36  1  0.54359533  0.67771167  0.35457367  1
  O  O37  1  0.13411633  0.45640467  0.35457367  1
  O  O38  1  0.32228833  0.86588367  0.35457367  1
  O  O39  1  0.83180567  0.82237833  0.07343633  1
  O  O40  1  0.35193867  0.86653333  0.47703433  1
  O  O41  1  0.50039433  0.64963067  0.09819367  1
  O  O42  1  0.99057267  0.16819433  0.07343633  1
  O  O43  1  0.14923633  0.49960567  0.09819367  1
  O  O44  1  0.20750300  0.19668400  0.18838500  1
  O  O45  1  0.35036933  0.85076367  0.09819367  1
  O  O46  1  0.49571300  0.32828400  0.25765700  1
  O  O47  1  0.80331600  0.01081900  0.18838500  1
  O  O48  1  0.51459467  0.64806133  0.47703433  1
  O  O49  1  0.17762167  0.00942733  0.07343633  1
  O  O50  1  0.32813000  0.49104200  0.23820000  1
  O  O51  1  0.13346667  0.48540533  0.47703433  1
  O  O52  1  0.50895800  0.83708800  0.23820000  1
  O  O53  1  0.67171600  0.16742900  0.25765700  1
  O  O54  1  0.16291200  0.67187000  0.23820000  1
  O  O55  1  0.98918100  0.79249700  0.18838500  1
  O  O56  1  0.83257100  0.50428700  0.25765700  1
  O  O57  1  0.33692700  0.45950700  0.97915700  1
  O  O58  1  0.54049300  0.87742000  0.97915700  1
  O  O59  1  0.12258000  0.66307300  0.97915700  1
  O  O60  1  0.21026200  0.01104500  0.68790700  1
  O  O61  1  0.80078300  0.78973800  0.68790700  1
  O  O62  1  0.98895500  0.19921700  0.68790700  1
  O  O63  1  0.49847233  0.15571167  0.40676967  1
  O  O64  1  0.01860533  0.19986667  0.81036767  1
  O  O65  1  0.16706100  0.98296400  0.43152700  1
  O  O66  1  0.65723933  0.50152767  0.40676967  1
  O  O67  1  0.81590300  0.83293900  0.43152700  1
  O  O68  1  0.87416967  0.53001733  0.52171833  1
  O  O69  1  0.01703600  0.18409700  0.43152700  1
  O  O70  1  0.16237967  0.66161733  0.59099033  1
  O  O71  1  0.46998267  0.34415233  0.52171833  1
  O  O72  1  0.18126133  0.98139467  0.81036767  1
  O  O73  1  0.84428833  0.34276067  0.40676967  1
  O  O74  1  0.99479667  0.82437533  0.57153333  1
  O  O75  1  0.80013333  0.81873867  0.81036767  1
  O  O76  1  0.17562467  0.17042133  0.57153333  1
  O  O77  1  0.33838267  0.50076233  0.59099033  1
  O  O78  1  0.82957867  0.00520333  0.57153333  1
  O  O79  1  0.65584767  0.12583033  0.52171833  1
  O  O80  1  0.49923767  0.83762033  0.59099033  1
  O  O81  1  0.00359367  0.79284033  0.31249033  1
  O  O82  1  0.20715967  0.21075333  0.31249033  1
  O  O83  1  0.78924667  0.99640633  0.31249033  1
  O  O84  1  0.87692867  0.34437833  0.02124033  1
  O  O85  1  0.46744967  0.12307133  0.02124033  1
  O  O86  1  0.65562167  0.53255033  0.02124033  1
  O  O87  1  0.16513900  0.48904500  0.74010300  1
  O  O88  1  0.68527200  0.53320000  0.14370100  1
  O  O89  1  0.83372767  0.31629733  0.76486033  1
  O  O90  1  0.32390600  0.83486100  0.74010300  1
  O  O91  1  0.48256967  0.16627233  0.76486033  1
  O  O92  1  0.54083633  0.86335067  0.85505167  1
  O  O93  1  0.68370267  0.51743033  0.76486033  1
  O  O94  1  0.82904633  0.99495067  0.92432367  1
  O  O95  1  0.13664933  0.67748567  0.85505167  1
  O  O96  1  0.84792800  0.31472800  0.14370100  1
  O  O97  1  0.51095500  0.67609400  0.74010300  1
  O  O98  1  0.66146333  0.15770867  0.90486667  1
  O  O99  1  0.46680000  0.15207200  0.14370100  1
  O  O100  1  0.84229133  0.50375467  0.90486667  1
  O  O101  1  0.00504933  0.83409567  0.92432367  1
  O  O102  1  0.49624533  0.33853667  0.90486667  1
  O  O103  1  0.32251433  0.45916367  0.85505167  1
  O  O104  1  0.16590433  0.17095367  0.92432367  1
  O  O105  1  0.67026033  0.12617367  0.64582367  1
  O  O106  1  0.87382633  0.54408667  0.64582367  1
  O  O107  1  0.45591333  0.32973967  0.64582367  1
