# generated using pymatgen
data_Li2MnOF3
_symmetry_space_group_name_H-M   'P 1'
_cell_length_a   6.07552200
_cell_length_b   6.07552200
_cell_length_c   8.26603100
_cell_angle_alpha   90.00000000
_cell_angle_beta   90.00000000
_cell_angle_gamma   90.00000000
_symmetry_Int_Tables_number   1
_chemical_formula_structural   Li2MnOF3
_chemical_formula_sum   'Li8 Mn4 O4 F12'
_cell_volume   305.11546823
_cell_formula_units_Z   4
loop_
 _symmetry_equiv_pos_site_id
 _symmetry_equiv_pos_as_xyz
  1  'x, y, z'
loop_
 _atom_site_type_symbol
 _atom_site_label
 _atom_site_symmetry_multiplicity
 _atom_site_fract_x
 _atom_site_fract_y
 _atom_site_fract_z
 _atom_site_occupancy
  Li  Li0  1  0.73586900  0.75710700  0.36892900  1
  Li  Li1  1  0.75710700  0.26413100  0.11892900  1
  Li  Li2  1  0.76723400  0.01617000  0.75459900  1
  Li  Li3  1  0.98383000  0.76723400  0.00459900  1
  Li  Li4  1  0.01617000  0.23276600  0.50459900  1
  Li  Li5  1  0.23276600  0.98383000  0.25459900  1
  Li  Li6  1  0.24289300  0.73586900  0.61892900  1
  Li  Li7  1  0.26413100  0.24289300  0.86892900  1
  Mn  Mn8  1  0.50420200  0.75500000  0.00619500  1
  Mn  Mn9  1  0.49579800  0.24500000  0.50619500  1
  Mn  Mn10  1  0.75500000  0.49579800  0.75619500  1
  Mn  Mn11  1  0.24500000  0.50420200  0.25619500  1
  O  O12  1  0.53297000  0.27926300  0.73235700  1
  O  O13  1  0.72073700  0.53297000  0.98235700  1
  O  O14  1  0.27926300  0.46703000  0.48235700  1
  O  O15  1  0.46703000  0.72073700  0.23235700  1
  F  F16  1  0.50268700  0.77646900  0.76403800  1
  F  F17  1  0.77646900  0.49731300  0.51403800  1
  F  F18  1  0.75507000  0.99987600  0.99365700  1
  F  F19  1  0.73781000  0.02685500  0.50522700  1
  F  F20  1  0.97314500  0.73781000  0.75522700  1
  F  F21  1  0.99987600  0.24493000  0.74365700  1
  F  F22  1  0.00012400  0.75507000  0.24365700  1
  F  F23  1  0.02685500  0.26219000  0.25522700  1
  F  F24  1  0.24493000  0.00012400  0.49365700  1
  F  F25  1  0.26219000  0.97314500  0.00522700  1
  F  F26  1  0.22353100  0.50268700  0.01403800  1
  F  F27  1  0.49731300  0.22353100  0.26403800  1
