# generated using pymatgen
data_Ba3LaIn(WO6)2
_symmetry_space_group_name_H-M   'P 1'
_cell_length_a   5.81394010
_cell_length_b   5.81394010
_cell_length_c   27.96143954
_cell_angle_alpha   90.00000000
_cell_angle_beta   90.00000000
_cell_angle_gamma   120.00000000
_symmetry_Int_Tables_number   1
_chemical_formula_structural   Ba3LaIn(WO6)2
_chemical_formula_sum   'Ba9 La3 In3 W6 O36'
_cell_volume   818.52371090
_cell_formula_units_Z   3
loop_
 _symmetry_equiv_pos_site_id
 _symmetry_equiv_pos_as_xyz
  1  'x, y, z'
loop_
 _atom_site_type_symbol
 _atom_site_label
 _atom_site_symmetry_multiplicity
 _atom_site_fract_x
 _atom_site_fract_y
 _atom_site_fract_z
 _atom_site_occupancy
  Ba  Ba0  1  0.00000000  0.00000000  0.28948100  1
  Ba  Ba1  1  0.66666667  0.33333333  0.04495833  1
  Ba  Ba2  1  0.66666667  0.33333333  0.20175433  1
  Ba  Ba3  1  0.66666667  0.33333333  0.62281433  1
  Ba  Ba4  1  0.33333333  0.66666667  0.37829167  1
  Ba  Ba5  1  0.33333333  0.66666667  0.53508767  1
  Ba  Ba6  1  0.33333333  0.66666667  0.95614767  1
  Ba  Ba7  1  0.00000000  0.00000000  0.71162500  1
  Ba  Ba8  1  0.00000000  0.00000000  0.86842100  1
  La  La9  1  0.00000000  0.00000000  0.14129000  1
  La  La10  1  0.66666667  0.33333333  0.47462333  1
  La  La11  1  0.33333333  0.66666667  0.80795667  1
  In  In12  1  0.00000000  0.00000000  0.00033700  1
  In  In13  1  0.66666667  0.33333333  0.33367033  1
  In  In14  1  0.33333333  0.66666667  0.66700367  1
  W  W15  1  0.33333333  0.66666667  0.08947867  1
  W  W16  1  0.33333333  0.66666667  0.24317867  1
  W  W17  1  0.00000000  0.00000000  0.42281200  1
  W  W18  1  0.00000000  0.00000000  0.57651200  1
  W  W19  1  0.66666667  0.33333333  0.75614533  1
  W  W20  1  0.66666667  0.33333333  0.90984533  1
  O  O21  1  0.17297833  0.34595667  0.04550167  1
  O  O22  1  0.17297833  0.82702167  0.04550167  1
  O  O23  1  0.65404333  0.82702167  0.04550167  1
  O  O24  1  0.00976467  0.50488233  0.12369533  1
  O  O25  1  0.49511767  0.99023533  0.12369533  1
  O  O26  1  0.49511767  0.50488233  0.12369533  1
  O  O27  1  0.16997400  0.33994800  0.20729600  1
  O  O28  1  0.16997400  0.83002600  0.20729600  1
  O  O29  1  0.66005200  0.83002600  0.20729600  1
  O  O30  1  0.01643067  0.50821533  0.28668033  1
  O  O31  1  0.49178467  0.98356933  0.28668033  1
  O  O32  1  0.49178467  0.50821533  0.28668033  1
  O  O33  1  0.83964500  0.67929000  0.37883500  1
  O  O34  1  0.83964500  0.16035500  0.37883500  1
  O  O35  1  0.32071000  0.16035500  0.37883500  1
  O  O36  1  0.67643133  0.83821567  0.45702867  1
  O  O37  1  0.16178433  0.32356867  0.45702867  1
  O  O38  1  0.16178433  0.83821567  0.45702867  1
  O  O39  1  0.83664067  0.67328133  0.54062933  1
  O  O40  1  0.83664067  0.16335933  0.54062933  1
  O  O41  1  0.32671867  0.16335933  0.54062933  1
  O  O42  1  0.68309733  0.84154867  0.62001367  1
  O  O43  1  0.15845133  0.31690267  0.62001367  1
  O  O44  1  0.15845133  0.84154867  0.62001367  1
  O  O45  1  0.50631167  0.01262333  0.71216833  1
  O  O46  1  0.50631167  0.49368833  0.71216833  1
  O  O47  1  0.98737667  0.49368833  0.71216833  1
  O  O48  1  0.34309800  0.17154900  0.79036200  1
  O  O49  1  0.82845100  0.65690200  0.79036200  1
  O  O50  1  0.82845100  0.17154900  0.79036200  1
  O  O51  1  0.50330733  0.00661467  0.87396267  1
  O  O52  1  0.50330733  0.49669267  0.87396267  1
  O  O53  1  0.99338533  0.49669267  0.87396267  1
  O  O54  1  0.34976400  0.17488200  0.95334700  1
  O  O55  1  0.82511800  0.65023600  0.95334700  1
  O  O56  1  0.82511800  0.17488200  0.95334700  1
