# generated using pymatgen
data_Li2Mn(PO4)2
_symmetry_space_group_name_H-M   'P 1'
_cell_length_a   4.75045215
_cell_length_b   5.78693782
_cell_length_c   10.06507236
_cell_angle_alpha   90.03934460
_cell_angle_beta   90.88941888
_cell_angle_gamma   91.43075285
_symmetry_Int_Tables_number   1
_chemical_formula_structural   Li2Mn(PO4)2
_chemical_formula_sum   'Li4 Mn2 P4 O16'
_cell_volume   276.57483696
_cell_formula_units_Z   2
loop_
 _symmetry_equiv_pos_site_id
 _symmetry_equiv_pos_as_xyz
  1  'x, y, z'
loop_
 _atom_site_type_symbol
 _atom_site_label
 _atom_site_symmetry_multiplicity
 _atom_site_fract_x
 _atom_site_fract_y
 _atom_site_fract_z
 _atom_site_occupancy
  Li  Li0  1  0.00000000  0.00000000  0.00000000  1
  Li  Li1  1  0.52963900  0.75084100  0.23185700  1
  Li  Li2  1  0.50000000  0.50000000  0.50000000  1
  Li  Li3  1  0.47036100  0.24915900  0.76814300  1
  Mn  Mn4  1  0.01140800  0.25196600  0.28168300  1
  Mn  Mn5  1  0.98859200  0.74803400  0.71831700  1
  P  P6  1  0.58417700  0.25175500  0.10403800  1
  P  P7  1  0.06471100  0.75433500  0.41092700  1
  P  P8  1  0.93528900  0.24566500  0.58907300  1
  P  P9  1  0.41582300  0.74824500  0.89596200  1
  O  O10  1  0.35072400  0.75641600  0.04191100  1
  O  O11  1  0.26133100  0.24217100  0.12608800  1
  O  O12  1  0.74907000  0.04736200  0.17654600  1
  O  O13  1  0.74018800  0.45161800  0.18491900  1
  O  O14  1  0.19871100  0.96851300  0.33761300  1
  O  O15  1  0.21179900  0.54061100  0.34180900  1
  O  O16  1  0.74979500  0.73909600  0.40768500  1
  O  O17  1  0.80352100  0.24899400  0.44322600  1
  O  O18  1  0.19647900  0.75100600  0.55677400  1
  O  O19  1  0.25020500  0.26090400  0.59231500  1
  O  O20  1  0.80128900  0.03148700  0.66238700  1
  O  O21  1  0.78820100  0.45938900  0.65819100  1
  O  O22  1  0.25981200  0.54838200  0.81508100  1
  O  O23  1  0.25093000  0.95263800  0.82345400  1
  O  O24  1  0.73866900  0.75782900  0.87391200  1
  O  O25  1  0.64927600  0.24358400  0.95808900  1
