# generated using pymatgen
data_LiFePO4
_symmetry_space_group_name_H-M   'P 1'
_cell_length_a   5.23006237
_cell_length_b   7.84570192
_cell_length_c   8.37390656
_cell_angle_alpha   85.15286733
_cell_angle_beta   88.71842647
_cell_angle_gamma   77.55903219
_symmetry_Int_Tables_number   1
_chemical_formula_structural   LiFePO4
_chemical_formula_sum   'Li4 Fe4 P4 O16'
_cell_volume   334.33921793
_cell_formula_units_Z   4
loop_
 _symmetry_equiv_pos_site_id
 _symmetry_equiv_pos_as_xyz
  1  'x, y, z'
loop_
 _atom_site_type_symbol
 _atom_site_label
 _atom_site_symmetry_multiplicity
 _atom_site_fract_x
 _atom_site_fract_y
 _atom_site_fract_z
 _atom_site_occupancy
  Li  Li0  1  0.73012800  0.81503400  0.89742200  1
  Li  Li1  1  0.68317100  0.32716900  0.57045500  1
  Li  Li2  1  0.31682900  0.67283100  0.42954500  1
  Li  Li3  1  0.26987200  0.18496600  0.10257800  1
  Fe  Fe4  1  0.83318900  0.05106400  0.30124200  1
  Fe  Fe5  1  0.82076800  0.55477900  0.22426100  1
  Fe  Fe6  1  0.17923200  0.44522100  0.77573900  1
  Fe  Fe7  1  0.16681100  0.94893600  0.69875800  1
  P  P8  1  0.75757800  0.71836200  0.56324100  1
  P  P9  1  0.76538100  0.20830700  0.91415000  1
  P  P10  1  0.23461900  0.79169300  0.08585000  1
  P  P11  1  0.24242200  0.28163800  0.43675900  1
  O  O12  1  0.93537300  0.83114400  0.47270900  1
  O  O13  1  0.98503900  0.71483500  0.07011000  1
  O  O14  1  0.88165100  0.65640900  0.73131300  1
  O  O15  1  0.73712000  0.56008100  0.46736300  1
  O  O16  1  0.83740300  0.03643800  0.82663900  1
  O  O17  1  0.56330000  0.34250800  0.80837400  1
  O  O18  1  0.64814100  0.17053700  0.08159000  1
  O  O19  1  0.47252300  0.82038800  0.57963200  1
  O  O20  1  0.52747700  0.17961200  0.42036800  1
  O  O21  1  0.35185900  0.82946300  0.91841000  1
  O  O22  1  0.43670000  0.65749200  0.19162600  1
  O  O23  1  0.16259700  0.96356200  0.17336100  1
  O  O24  1  0.26288000  0.43991900  0.53263700  1
  O  O25  1  0.11834900  0.34359100  0.26868700  1
  O  O26  1  0.01496100  0.28516500  0.92989000  1
  O  O27  1  0.06462700  0.16885600  0.52729100  1
