# generated using pymatgen
data_Li2MnV5O12
_symmetry_space_group_name_H-M   'P 1'
_cell_length_a   10.29172400
_cell_length_b   9.19631800
_cell_length_c   5.81485543
_cell_angle_alpha   90.00000000
_cell_angle_beta   110.16627937
_cell_angle_gamma   90.00000000
_symmetry_Int_Tables_number   1
_chemical_formula_structural   Li2MnV5O12
_chemical_formula_sum   'Li4 Mn2 V10 O24'
_cell_volume   516.61384086
_cell_formula_units_Z   2
loop_
 _symmetry_equiv_pos_site_id
 _symmetry_equiv_pos_as_xyz
  1  'x, y, z'
loop_
 _atom_site_type_symbol
 _atom_site_label
 _atom_site_symmetry_multiplicity
 _atom_site_fract_x
 _atom_site_fract_y
 _atom_site_fract_z
 _atom_site_occupancy
  Li  Li0  1  0.00000000  0.24551600  0.50000000  1
  Li  Li1  1  0.00000000  0.75302100  0.00000000  1
  Li  Li2  1  0.50000000  0.74551600  0.50000000  1
  Li  Li3  1  0.50000000  0.25302100  0.00000000  1
  Mn  Mn4  1  0.00000000  0.91496900  0.50000000  1
  Mn  Mn5  1  0.50000000  0.41496900  0.50000000  1
  V  V6  1  0.00000000  0.08650200  0.00000000  1
  V  V7  1  0.20462050  0.40003650  0.98201400  1
  V  V8  1  0.20206950  0.59429350  0.48561400  1
  V  V9  1  0.79537950  0.40003650  0.01798600  1
  V  V10  1  0.79793050  0.59429350  0.51438600  1
  V  V11  1  0.50000000  0.58650200  0.00000000  1
  V  V12  1  0.70462050  0.90003650  0.98201400  1
  V  V13  1  0.70206950  0.09429350  0.48561400  1
  V  V14  1  0.29537950  0.90003650  0.01798600  1
  V  V15  1  0.29793050  0.09429350  0.51438600  1
  O  O16  1  0.39282250  0.41543450  0.09206900  1
  O  O17  1  0.12559500  0.22678600  0.92453800  1
  O  O18  1  0.38897650  0.59277150  0.61289000  1
  O  O19  1  0.14469750  0.50683650  0.19236200  1
  O  O20  1  0.87440500  0.22678600  0.07546200  1
  O  O21  1  0.13442700  0.49514200  0.68402500  1
  O  O22  1  0.85530250  0.50683650  0.80763800  1
  O  O23  1  0.13789100  0.76869500  0.42380000  1
  O  O24  1  0.86557300  0.49514200  0.31597500  1
  O  O25  1  0.60717750  0.41543450  0.90793100  1
  O  O26  1  0.86210900  0.76869500  0.57620000  1
  O  O27  1  0.61102350  0.59277150  0.38711000  1
  O  O28  1  0.89282250  0.91543450  0.09206900  1
  O  O29  1  0.62559500  0.72678600  0.92453800  1
  O  O30  1  0.88897650  0.09277150  0.61289000  1
  O  O31  1  0.64469750  0.00683650  0.19236200  1
  O  O32  1  0.37440500  0.72678600  0.07546200  1
  O  O33  1  0.63442700  0.99514200  0.68402500  1
  O  O34  1  0.35530250  0.00683650  0.80763800  1
  O  O35  1  0.63789100  0.26869500  0.42380000  1
  O  O36  1  0.36557300  0.99514200  0.31597500  1
  O  O37  1  0.10717750  0.91543450  0.90793100  1
  O  O38  1  0.36210900  0.26869500  0.57620000  1
  O  O39  1  0.11102350  0.09277150  0.38711000  1
