# generated using pymatgen
data_Li4Fe3CoO8
_symmetry_space_group_name_H-M   'P 1'
_cell_length_a   10.34430000
_cell_length_b   5.89200000
_cell_length_c   5.09858763
_cell_angle_alpha   90.00000000
_cell_angle_beta   109.36272959
_cell_angle_gamma   90.00000000
_symmetry_Int_Tables_number   1
_chemical_formula_structural   Li4Fe3CoO8
_chemical_formula_sum   'Li8 Fe6 Co2 O16'
_cell_volume   293.17527455
_cell_formula_units_Z   2
loop_
 _symmetry_equiv_pos_site_id
 _symmetry_equiv_pos_as_xyz
  1  'x, y, z'
loop_
 _atom_site_type_symbol
 _atom_site_label
 _atom_site_symmetry_multiplicity
 _atom_site_fract_x
 _atom_site_fract_y
 _atom_site_fract_z
 _atom_site_occupancy
  Li  Li0  1  0.25384700  0.50000000  0.52575400  1
  Li  Li1  1  0.24615300  0.00000000  0.47424600  1
  Li  Li2  1  0.25000000  0.25000000  0.00000000  1
  Li  Li3  1  0.25000000  0.75000000  0.00000000  1
  Li  Li4  1  0.75384700  0.00000000  0.52575400  1
  Li  Li5  1  0.74615300  0.50000000  0.47424600  1
  Li  Li6  1  0.75000000  0.75000000  0.00000000  1
  Li  Li7  1  0.75000000  0.25000000  0.00000000  1
  Fe  Fe8  1  0.00000000  0.75360700  0.50000000  1
  Fe  Fe9  1  0.00000000  0.24639300  0.50000000  1
  Fe  Fe10  1  0.00000000  0.50000000  0.00000000  1
  Fe  Fe11  1  0.50000000  0.25360700  0.50000000  1
  Fe  Fe12  1  0.50000000  0.74639300  0.50000000  1
  Fe  Fe13  1  0.50000000  0.00000000  0.00000000  1
  Co  Co14  1  0.00000000  0.00000000  0.00000000  1
  Co  Co15  1  0.50000000  0.50000000  0.00000000  1
  O  O16  1  0.38765300  0.74059500  0.76293100  1
  O  O17  1  0.38765300  0.25940500  0.76293100  1
  O  O18  1  0.11575200  0.50000000  0.74172300  1
  O  O19  1  0.11248400  0.00000000  0.75481600  1
  O  O20  1  0.38751600  0.50000000  0.24518400  1
  O  O21  1  0.38424800  0.00000000  0.25827700  1
  O  O22  1  0.11234700  0.24059500  0.23706900  1
  O  O23  1  0.11234700  0.75940500  0.23706900  1
  O  O24  1  0.88765300  0.24059500  0.76293100  1
  O  O25  1  0.88765300  0.75940500  0.76293100  1
  O  O26  1  0.61575200  0.00000000  0.74172300  1
  O  O27  1  0.61248400  0.50000000  0.75481600  1
  O  O28  1  0.88751600  0.00000000  0.24518400  1
  O  O29  1  0.88424800  0.50000000  0.25827700  1
  O  O30  1  0.61234700  0.74059500  0.23706900  1
  O  O31  1  0.61234700  0.25940500  0.23706900  1
