# generated using pymatgen
data_Li2MnSiO4
_symmetry_space_group_name_H-M   'P 1'
_cell_length_a   7.44326400
_cell_length_b   7.83512600
_cell_length_c   6.34451300
_cell_angle_alpha   90.00000000
_cell_angle_beta   90.00000000
_cell_angle_gamma   90.00000000
_symmetry_Int_Tables_number   1
_chemical_formula_structural   Li2MnSiO4
_chemical_formula_sum   'Li8 Mn4 Si4 O16'
_cell_volume   370.00509093
_cell_formula_units_Z   4
loop_
 _symmetry_equiv_pos_site_id
 _symmetry_equiv_pos_as_xyz
  1  'x, y, z'
loop_
 _atom_site_type_symbol
 _atom_site_label
 _atom_site_symmetry_multiplicity
 _atom_site_fract_x
 _atom_site_fract_y
 _atom_site_fract_z
 _atom_site_occupancy
  Li  Li0  1  0.00000000  0.30991775  0.25000000  1
  Li  Li1  1  0.00000000  0.69008225  0.75000000  1
  Li  Li2  1  0.67737000  0.50000000  0.00000000  1
  Li  Li3  1  0.32263000  0.50000000  0.50000000  1
  Li  Li4  1  0.50000000  0.80991775  0.25000000  1
  Li  Li5  1  0.50000000  0.19008225  0.75000000  1
  Li  Li6  1  0.17737000  0.00000000  0.00000000  1
  Li  Li7  1  0.82263000  0.00000000  0.50000000  1
  Mn  Mn8  1  0.00000000  0.32131975  0.75000000  1
  Mn  Mn9  1  0.00000000  0.67868025  0.25000000  1
  Mn  Mn10  1  0.50000000  0.82131975  0.75000000  1
  Mn  Mn11  1  0.50000000  0.17868025  0.25000000  1
  Si  Si12  1  0.67407950  0.50000000  0.50000000  1
  Si  Si13  1  0.32592050  0.50000000  0.00000000  1
  Si  Si14  1  0.17407950  0.00000000  0.50000000  1
  Si  Si15  1  0.82592050  0.00000000  0.00000000  1
  O  O16  1  0.03780000  0.16684125  0.49370125  1
  O  O17  1  0.96220000  0.16684125  0.00629875  1
  O  O18  1  0.96220000  0.83315875  0.99370125  1
  O  O19  1  0.03780000  0.83315875  0.50629875  1
  O  O20  1  0.80044550  0.50811725  0.71480775  1
  O  O21  1  0.19955450  0.50811725  0.78519225  1
  O  O22  1  0.80044550  0.49188275  0.28519225  1
  O  O23  1  0.19955450  0.49188275  0.21480775  1
  O  O24  1  0.53780000  0.66684125  0.49370125  1
  O  O25  1  0.46220000  0.66684125  0.00629875  1
  O  O26  1  0.46220000  0.33315875  0.99370125  1
  O  O27  1  0.53780000  0.33315875  0.50629875  1
  O  O28  1  0.30044550  0.00811725  0.71480775  1
  O  O29  1  0.69955450  0.00811725  0.78519225  1
  O  O30  1  0.30044550  0.99188275  0.28519225  1
  O  O31  1  0.69955450  0.99188275  0.21480775  1
