# generated using pymatgen
data_Li8Ti6Mn7O30
_symmetry_space_group_name_H-M   'P 1'
_cell_length_a   5.00847921
_cell_length_b   5.00847921
_cell_length_c   23.66133300
_cell_angle_alpha   90.00000000
_cell_angle_beta   90.00000000
_cell_angle_gamma   120.00000000
_symmetry_Int_Tables_number   1
_chemical_formula_structural   Li8Ti6Mn7O30
_chemical_formula_sum   'Li8 Ti6 Mn7 O30'
_cell_volume   514.02186119
_cell_formula_units_Z   1
loop_
 _symmetry_equiv_pos_site_id
 _symmetry_equiv_pos_as_xyz
  1  'x, y, z'
loop_
 _atom_site_type_symbol
 _atom_site_label
 _atom_site_symmetry_multiplicity
 _atom_site_fract_x
 _atom_site_fract_y
 _atom_site_fract_z
 _atom_site_occupancy
  Li  Li0  1  0.33333333  0.66666667  0.92017500  1
  Li  Li1  1  0.33333333  0.66666667  0.62584500  1
  Li  Li2  1  0.33333333  0.66666667  0.37260000  1
  Li  Li3  1  0.33333333  0.66666667  0.08230600  1
  Li  Li4  1  0.00000000  0.00000000  0.47218700  1
  Li  Li5  1  0.00000000  0.00000000  0.20459000  1
  Li  Li6  1  0.66666667  0.33333333  0.79341900  1
  Li  Li7  1  0.66666667  0.33333333  0.52714100  1
  Ti  Ti8  1  0.00000000  0.00000000  0.58874300  1
  Ti  Ti9  1  0.66666667  0.33333333  0.89187400  1
  Ti  Ti10  1  0.66666667  0.33333333  0.41024400  1
  Ti  Ti11  1  0.33333333  0.66666667  0.80027100  1
  Ti  Ti12  1  0.33333333  0.66666667  0.49943300  1
  Ti  Ti13  1  0.33333333  0.66666667  0.19717900  1
  Mn  Mn14  1  0.00000000  0.00000000  0.70719300  1
  Mn  Mn15  1  0.00000000  0.00000000  0.99358800  1
  Mn  Mn16  1  0.00000000  0.00000000  0.10634400  1
  Mn  Mn17  1  0.66666667  0.33333333  0.00948600  1
  Mn  Mn18  1  0.66666667  0.33333333  0.29222400  1
  Mn  Mn19  1  0.00000000  0.00000000  0.30474400  1
  Mn  Mn20  1  0.66666667  0.33333333  0.69431900  1
  O  O21  1  0.59640700  0.99604400  0.84830300  1
  O  O22  1  0.37192700  0.37344300  0.45062200  1
  O  O23  1  0.72073400  0.03459800  0.65431400  1
  O  O24  1  0.68153400  0.00127400  0.25417800  1
  O  O25  1  0.30564800  0.28459900  0.04795200  1
  O  O26  1  0.66511000  0.73445400  0.15041700  1
  O  O27  1  0.66432100  0.70445600  0.54962200  1
  O  O28  1  0.35252900  0.05488600  0.34570900  1
  O  O29  1  0.66671300  0.65276300  0.74534500  1
  O  O30  1  0.95384100  0.31173700  0.95557100  1
  O  O31  1  0.68826300  0.64210400  0.95557100  1
  O  O32  1  0.26554600  0.93065600  0.15041700  1
  O  O33  1  0.70235700  0.64747100  0.34570900  1
  O  O34  1  0.34723700  0.01395000  0.74534500  1
  O  O35  1  0.04013500  0.33567900  0.54962200  1
  O  O36  1  0.62655700  0.99848400  0.45062200  1
  O  O37  1  0.31974000  0.31846600  0.25417800  1
  O  O38  1  0.96540200  0.68613600  0.65431400  1
  O  O39  1  0.39963700  0.40359300  0.84830300  1
  O  O40  1  0.97895100  0.69435200  0.04795200  1
  O  O41  1  0.71540100  0.02104900  0.04795200  1
  O  O42  1  0.99872600  0.68026000  0.25417800  1
  O  O43  1  0.31386400  0.27926600  0.65431400  1
  O  O44  1  0.00151600  0.62807300  0.45062200  1
  O  O45  1  0.00395600  0.60036300  0.84830300  1
  O  O46  1  0.35789600  0.04615900  0.95557100  1
  O  O47  1  0.98605000  0.33328700  0.74534500  1
  O  O48  1  0.94511400  0.29764300  0.34570900  1
  O  O49  1  0.29554400  0.95986500  0.54962200  1
  O  O50  1  0.06934400  0.33489000  0.15041700  1
