# generated using pymatgen
data_Co6OF11
_symmetry_space_group_name_H-M   'P 1'
_cell_length_a   6.60852400
_cell_length_b   6.76151400
_cell_length_c   9.59031300
_cell_angle_alpha   90.00000000
_cell_angle_beta   90.00000000
_cell_angle_gamma   90.00000000
_symmetry_Int_Tables_number   1
_chemical_formula_structural   Co6OF11
_chemical_formula_sum   'Co12 O2 F22'
_cell_volume   428.52997414
_cell_formula_units_Z   2
loop_
 _symmetry_equiv_pos_site_id
 _symmetry_equiv_pos_as_xyz
  1  'x, y, z'
loop_
 _atom_site_type_symbol
 _atom_site_label
 _atom_site_symmetry_multiplicity
 _atom_site_fract_x
 _atom_site_fract_y
 _atom_site_fract_z
 _atom_site_occupancy
  Co  Co0  1  0.00614100  0.00000000  0.65989000  1
  Co  Co1  1  0.00614100  0.00000000  0.34011000  1
  Co  Co2  1  0.00327800  0.00000000  0.00000000  1
  Co  Co3  1  0.46910700  0.00000000  0.50000000  1
  Co  Co4  1  0.50405000  0.00000000  0.83234400  1
  Co  Co5  1  0.50405000  0.00000000  0.16765600  1
  Co  Co6  1  0.50614100  0.50000000  0.65989000  1
  Co  Co7  1  0.50614100  0.50000000  0.34011000  1
  Co  Co8  1  0.50327800  0.50000000  0.00000000  1
  Co  Co9  1  0.96910700  0.50000000  0.50000000  1
  Co  Co10  1  0.00405000  0.50000000  0.83234400  1
  Co  Co11  1  0.00405000  0.50000000  0.16765600  1
  O  O12  1  0.20079800  0.00000000  0.50000000  1
  O  O13  1  0.70079800  0.50000000  0.50000000  1
  F  F14  1  0.19923400  0.00000000  0.83186100  1
  F  F15  1  0.19923400  0.00000000  0.16813900  1
  F  F16  1  0.49979550  0.19464150  0.33619100  1
  F  F17  1  0.49979550  0.19464150  0.66380900  1
  F  F18  1  0.50408500  0.19630000  0.00000000  1
  F  F19  1  0.50408500  0.80370000  0.00000000  1
  F  F20  1  0.49979550  0.80535850  0.66380900  1
  F  F21  1  0.49979550  0.80535850  0.33619100  1
  F  F22  1  0.78354900  0.00000000  0.50000000  1
  F  F23  1  0.80853400  0.00000000  0.83009400  1
  F  F24  1  0.80853400  0.00000000  0.16990600  1
  F  F25  1  0.69923400  0.50000000  0.83186100  1
  F  F26  1  0.69923400  0.50000000  0.16813900  1
  F  F27  1  0.99979550  0.69464150  0.33619100  1
  F  F28  1  0.99979550  0.69464150  0.66380900  1
  F  F29  1  0.00408500  0.69630000  0.00000000  1
  F  F30  1  0.00408500  0.30370000  0.00000000  1
  F  F31  1  0.99979550  0.30535850  0.66380900  1
  F  F32  1  0.99979550  0.30535850  0.33619100  1
  F  F33  1  0.28354900  0.50000000  0.50000000  1
  F  F34  1  0.30853400  0.50000000  0.83009400  1
  F  F35  1  0.30853400  0.50000000  0.16990600  1
