# generated using pymatgen
data_Na5LiFe2P2(CO7)2
_symmetry_space_group_name_H-M   'P 1'
_cell_length_a   8.98739100
_cell_length_b   6.60764800
_cell_length_c   10.38563990
_cell_angle_alpha   90.00000000
_cell_angle_beta   91.06315911
_cell_angle_gamma   90.00000000
_symmetry_Int_Tables_number   1
_chemical_formula_structural   Na5LiFe2P2(CO7)2
_chemical_formula_sum   'Na10 Li2 Fe4 P4 C4 O28'
_cell_volume   616.65041082
_cell_formula_units_Z   2
loop_
 _symmetry_equiv_pos_site_id
 _symmetry_equiv_pos_as_xyz
  1  'x, y, z'
loop_
 _atom_site_type_symbol
 _atom_site_label
 _atom_site_symmetry_multiplicity
 _atom_site_fract_x
 _atom_site_fract_y
 _atom_site_fract_z
 _atom_site_occupancy
  Na  Na0  1  0.91750000  0.75000600  0.62938000  1
  Na  Na1  1  0.91670700  0.74779200  0.13104900  1
  Na  Na2  1  0.74026300  0.99804800  0.37471400  1
  Na  Na3  1  0.73895000  0.99941800  0.87464300  1
  Na  Na4  1  0.73918000  0.50127000  0.87449600  1
  Na  Na5  1  0.25973700  0.49804800  0.62528600  1
  Na  Na6  1  0.26105000  0.49941800  0.12535700  1
  Na  Na7  1  0.26082000  0.00127000  0.12550400  1
  Na  Na8  1  0.08250000  0.25000600  0.37062000  1
  Na  Na9  1  0.08329300  0.24779200  0.86895100  1
  Li  Li10  1  0.73012300  0.50414100  0.37206200  1
  Li  Li11  1  0.26987700  0.00414100  0.62793800  1
  Fe  Fe12  1  0.64469900  0.25066500  0.64130100  1
  Fe  Fe13  1  0.64528700  0.25199400  0.14406900  1
  Fe  Fe14  1  0.35530100  0.75066500  0.35869900  1
  Fe  Fe15  1  0.35471300  0.75199400  0.85593100  1
  P  P16  1  0.58522000  0.75095400  0.59813700  1
  P  P17  1  0.58638300  0.75073700  0.10162100  1
  P  P18  1  0.41478000  0.25095400  0.40186300  1
  P  P19  1  0.41361700  0.25073700  0.89837900  1
  C  C20  1  0.94351900  0.24624800  0.61491000  1
  C  C21  1  0.94006700  0.25065800  0.11648600  1
  C  C22  1  0.05648100  0.74624800  0.38509000  1
  C  C23  1  0.05993300  0.75065800  0.88351400  1
  O  O24  1  0.91259000  0.73198800  0.39166400  1
  O  O25  1  0.91649500  0.75017700  0.89119100  1
  O  O26  1  0.87960500  0.25041200  0.72664500  1
  O  O27  1  0.87714600  0.25087800  0.22847500  1
  O  O28  1  0.86062200  0.25661300  0.51085700  1
  O  O29  1  0.85687800  0.25104100  0.01251300  1
  O  O30  1  0.68210700  0.93838200  0.63769400  1
  O  O31  1  0.67524700  0.56309500  0.64681800  1
  O  O32  1  0.68101400  0.93942400  0.14247500  1
  O  O33  1  0.68179000  0.56393000  0.14536500  1
  O  O34  1  0.57192700  0.73857300  0.44798100  1
  O  O35  1  0.57166000  0.26384500  0.34337400  1
  O  O36  1  0.56673500  0.74926700  0.95199400  1
  O  O37  1  0.56715400  0.25044000  0.83557400  1
  O  O38  1  0.42834000  0.76384500  0.65662600  1
  O  O39  1  0.42807300  0.23857300  0.55201900  1
  O  O40  1  0.43284600  0.75044000  0.16442600  1
  O  O41  1  0.43326500  0.24926700  0.04800600  1
  O  O42  1  0.31789300  0.43838200  0.36230600  1
  O  O43  1  0.32475300  0.06309500  0.35318200  1
  O  O44  1  0.31898600  0.43942400  0.85752500  1
  O  O45  1  0.31821000  0.06393000  0.85463500  1
  O  O46  1  0.13937800  0.75661300  0.48914300  1
  O  O47  1  0.14312200  0.75104100  0.98748700  1
  O  O48  1  0.12039500  0.75041200  0.27335500  1
  O  O49  1  0.12285400  0.75087800  0.77152500  1
  O  O50  1  0.08741000  0.23198800  0.60833600  1
  O  O51  1  0.08350500  0.25017700  0.10880900  1
