# generated using pymatgen
data_LiFe(PO3)4
_symmetry_space_group_name_H-M   'P 1'
_cell_length_a   6.84593600
_cell_length_b   9.17080500
_cell_length_c   7.19514740
_cell_angle_alpha   90.00000000
_cell_angle_beta   95.02667163
_cell_angle_gamma   90.00000000
_symmetry_Int_Tables_number   1
_chemical_formula_structural   LiFe(PO3)4
_chemical_formula_sum   'Li2 Fe2 P8 O24'
_cell_volume   449.99374876
_cell_formula_units_Z   2
loop_
 _symmetry_equiv_pos_site_id
 _symmetry_equiv_pos_as_xyz
  1  'x, y, z'
loop_
 _atom_site_type_symbol
 _atom_site_label
 _atom_site_symmetry_multiplicity
 _atom_site_fract_x
 _atom_site_fract_y
 _atom_site_fract_z
 _atom_site_occupancy
  Li  Li0  1  0.26283900  0.74352500  0.71820800  1
  Li  Li1  1  0.73716100  0.24352500  0.28179200  1
  Fe  Fe2  1  0.26989800  0.03001800  0.25513000  1
  Fe  Fe3  1  0.73010200  0.53001800  0.74487000  1
  P  P4  1  0.96972300  0.63661300  0.40581500  1
  P  P5  1  0.06032100  0.43081700  0.08912600  1
  P  P6  1  0.42158000  0.25192700  0.58752500  1
  P  P7  1  0.42933800  0.60098800  0.06338500  1
  P  P8  1  0.57066200  0.10098800  0.93661500  1
  P  P9  1  0.57842000  0.75192700  0.41247500  1
  P  P10  1  0.93967900  0.93081700  0.91087400  1
  P  P11  1  0.03027700  0.13661300  0.59418500  1
  O  O12  1  0.01627600  0.06908200  0.79735200  1
  O  O13  1  0.96188000  0.44874100  0.89303600  1
  O  O14  1  0.12238900  0.02281200  0.47475200  1
  O  O15  1  0.04460400  0.29119100  0.19254900  1
  O  O16  1  0.19688000  0.26296300  0.63690400  1
  O  O17  1  0.15913500  0.70230700  0.47413600  1
  O  O18  1  0.29243700  0.46022900  0.07567800  1
  O  O19  1  0.32499600  0.72990600  0.97862600  1
  O  O20  1  0.43046400  0.20366300  0.38612900  1
  O  O21  1  0.50654500  0.12101800  0.71709600  1
  O  O22  1  0.38797900  0.05265700  0.02303600  1
  O  O23  1  0.51789500  0.39483300  0.64211600  1
  O  O24  1  0.48210500  0.89483300  0.35788400  1
  O  O25  1  0.61202100  0.55265700  0.97696400  1
  O  O26  1  0.49345500  0.62101800  0.28290400  1
  O  O27  1  0.56953600  0.70366300  0.61387100  1
  O  O28  1  0.67500400  0.22990600  0.02137400  1
  O  O29  1  0.70756300  0.96022900  0.92432200  1
  O  O30  1  0.84086500  0.20230700  0.52586400  1
  O  O31  1  0.80312000  0.76296300  0.36309600  1
  O  O32  1  0.95539600  0.79119100  0.80745100  1
  O  O33  1  0.87761100  0.52281200  0.52524800  1
  O  O34  1  0.03812000  0.94874100  0.10696400  1
  O  O35  1  0.98372400  0.56908200  0.20264800  1
