# generated using pymatgen
data_CoP6(WO8)3
_symmetry_space_group_name_H-M   'P 1'
_cell_length_a   8.78884791
_cell_length_b   8.78884791
_cell_length_c   22.08580923
_cell_angle_alpha   90.00000000
_cell_angle_beta   90.00000000
_cell_angle_gamma   120.00000000
_symmetry_Int_Tables_number   1
_chemical_formula_structural   CoP6(WO8)3
_chemical_formula_sum   'Co3 P18 W9 O72'
_cell_volume   1477.43317407
_cell_formula_units_Z   3
loop_
 _symmetry_equiv_pos_site_id
 _symmetry_equiv_pos_as_xyz
  1  'x, y, z'
loop_
 _atom_site_type_symbol
 _atom_site_label
 _atom_site_symmetry_multiplicity
 _atom_site_fract_x
 _atom_site_fract_y
 _atom_site_fract_z
 _atom_site_occupancy
  Co  Co0  1  0.00000000  0.00000000  0.14053000  1
  Co  Co1  1  0.66666667  0.33333333  0.47386333  1
  Co  Co2  1  0.33333333  0.66666667  0.80719667  1
  P  P3  1  0.71728400  0.71728800  0.24820400  1
  P  P4  1  0.28271200  0.99999600  0.24820400  1
  P  P5  1  0.00000400  0.28271600  0.24820400  1
  P  P6  1  0.67057167  0.04689833  0.08396933  1
  P  P7  1  0.37632667  0.32942833  0.08396933  1
  P  P8  1  0.95310167  0.62367333  0.08396933  1
  P  P9  1  0.38395067  0.05062133  0.58153733  1
  P  P10  1  0.94937867  0.33332933  0.58153733  1
  P  P11  1  0.66667067  0.61604933  0.58153733  1
  P  P12  1  0.33723833  0.38023167  0.41730267  1
  P  P13  1  0.04299333  0.66276167  0.41730267  1
  P  P14  1  0.61976833  0.95700667  0.41730267  1
  P  P15  1  0.05061733  0.38395467  0.91487067  1
  P  P16  1  0.61604533  0.66666267  0.91487067  1
  P  P17  1  0.33333733  0.94938267  0.91487067  1
  P  P18  1  0.00390500  0.71356500  0.75063600  1
  P  P19  1  0.70966000  0.99609500  0.75063600  1
  P  P20  1  0.28643500  0.29034000  0.75063600  1
  W  W21  1  0.66666667  0.33333333  0.19121333  1
  W  W22  1  0.33333333  0.66666667  0.30920967  1
  W  W23  1  0.33333333  0.66666667  0.02424267  1
  W  W24  1  0.33333333  0.66666667  0.52454667  1
  W  W25  1  0.00000000  0.00000000  0.64254300  1
  W  W26  1  0.00000000  0.00000000  0.35757600  1
  W  W27  1  0.00000000  0.00000000  0.85788000  1
  W  W28  1  0.66666667  0.33333333  0.97587633  1
  W  W29  1  0.66666667  0.33333333  0.69090933  1
  O  O30  1  0.83731867  0.51876933  0.02729633  1
  O  O31  1  0.68145067  0.16268133  0.02729633  1
  O  O32  1  0.69165533  0.52910067  0.24410567  1
  O  O33  1  0.48123067  0.31854933  0.02729633  1
  O  O34  1  0.52521067  0.68662733  0.26048433  1
  O  O35  1  0.78957733  0.82681767  0.19291167  1
  O  O36  1  0.47089933  0.16255467  0.24410567  1
  O  O37  1  0.31337267  0.83858333  0.26048433  1
  O  O38  1  0.16141667  0.47478933  0.26048433  1
  O  O39  1  0.63749533  0.13248867  0.14061267  1
  O  O40  1  0.83234100  0.03396100  0.08618000  1
  O  O41  1  0.49499333  0.36250467  0.14061267  1
  O  O42  1  0.17318233  0.96275967  0.19291167  1
  O  O43  1  0.83744533  0.30834467  0.24410567  1
  O  O44  1  0.03724033  0.21042267  0.19291167  1
  O  O45  1  0.49908333  0.86651667  0.07584267  1
  O  O46  1  0.36743333  0.50091667  0.07584267  1
  O  O47  1  0.20162000  0.16765900  0.08618000  1
  O  O48  1  0.86751133  0.50500667  0.14061267  1
  O  O49  1  0.13348333  0.63256667  0.07584267  1
  O  O50  1  0.20174733  0.02561467  0.30755067  1
  O  O51  1  0.96603900  0.79838000  0.08618000  1
  O  O52  1  0.97438533  0.17613267  0.30755067  1
  O  O53  1  0.82386733  0.79825267  0.30755067  1
  O  O54  1  0.50398533  0.85210267  0.36062967  1
  O  O55  1  0.34811733  0.49601467  0.36062967  1
  O  O56  1  0.35832200  0.86243400  0.57743900  1
  O  O57  1  0.14789733  0.65188267  0.36062967  1
  O  O58  1  0.19187733  0.01996067  0.59381767  1
  O  O59  1  0.45624400  0.16015100  0.52624500  1
  O  O60  1  0.13756600  0.49588800  0.57743900  1
  O  O61  1  0.98003933  0.17191667  0.59381767  1
  O  O62  1  0.82808333  0.80812267  0.59381767  1
  O  O63  1  0.30416200  0.46582200  0.47394600  1
  O  O64  1  0.49900767  0.36729433  0.41951333  1
  O  O65  1  0.16166000  0.69583800  0.47394600  1
  O  O66  1  0.83984900  0.29609300  0.52624500  1
  O  O67  1  0.50411200  0.64167800  0.57743900  1
  O  O68  1  0.70390700  0.54375600  0.52624500  1
  O  O69  1  0.16575000  0.19985000  0.40917600  1
  O  O70  1  0.03410000  0.83425000  0.40917600  1
  O  O71  1  0.86828667  0.50099233  0.41951333  1
  O  O72  1  0.53417800  0.83834000  0.47394600  1
  O  O73  1  0.80015000  0.96590000  0.40917600  1
  O  O74  1  0.86841400  0.35894800  0.64088400  1
  O  O75  1  0.63270567  0.13171333  0.41951333  1
  O  O76  1  0.64105200  0.50946600  0.64088400  1
  O  O77  1  0.49053400  0.13158600  0.64088400  1
  O  O78  1  0.17065200  0.18543600  0.69396300  1
  O  O79  1  0.01478400  0.82934800  0.69396300  1
  O  O80  1  0.02498867  0.19576733  0.91077233  1
  O  O81  1  0.81456400  0.98521600  0.69396300  1
  O  O82  1  0.85854400  0.35329400  0.92715100  1
  O  O83  1  0.12291067  0.49348433  0.85957833  1
  O  O84  1  0.80423267  0.82922133  0.91077233  1
  O  O85  1  0.64670600  0.50525000  0.92715100  1
  O  O86  1  0.49475000  0.14145600  0.92715100  1
  O  O87  1  0.97082867  0.79915533  0.80727933  1
  O  O88  1  0.16567433  0.70062767  0.75284667  1
  O  O89  1  0.82832667  0.02917133  0.80727933  1
  O  O90  1  0.50651567  0.62942633  0.85957833  1
  O  O91  1  0.17077867  0.97501133  0.91077233  1
  O  O92  1  0.37057367  0.87708933  0.85957833  1
  O  O93  1  0.83241667  0.53318333  0.74250933  1
  O  O94  1  0.70076667  0.16758333  0.74250933  1
  O  O95  1  0.53495333  0.83432567  0.75284667  1
  O  O96  1  0.20084467  0.17167333  0.80727933  1
  O  O97  1  0.46681667  0.29923333  0.74250933  1
  O  O98  1  0.53508067  0.69228133  0.97421733  1
  O  O99  1  0.29937233  0.46504667  0.75284667  1
  O  O100  1  0.30771867  0.84279933  0.97421733  1
  O  O101  1  0.15720067  0.46491933  0.97421733  1
