# generated using pymatgen
data_Li4V2SiGeO10
_symmetry_space_group_name_H-M   'P 1'
_cell_length_a   6.51404201
_cell_length_b   6.51404201
_cell_length_c   4.57354401
_cell_angle_alpha   90.00000000
_cell_angle_beta   90.00000000
_cell_angle_gamma   90.00000000
_symmetry_Int_Tables_number   1
_chemical_formula_structural   Li4V2SiGeO10
_chemical_formula_sum   'Li4 V2 Si1 Ge1 O10'
_cell_volume   194.06801860
_cell_formula_units_Z   1
loop_
 _symmetry_equiv_pos_site_id
 _symmetry_equiv_pos_as_xyz
  1  'x, y, z'
loop_
 _atom_site_type_symbol
 _atom_site_label
 _atom_site_symmetry_multiplicity
 _atom_site_fract_x
 _atom_site_fract_y
 _atom_site_fract_z
 _atom_site_occupancy
  Li  Li0  1  0.75510900  0.75510900  0.50000000  1
  Li  Li1  1  0.75510900  0.24489100  0.50000000  1
  Li  Li2  1  0.24489100  0.75510900  0.50000000  1
  Li  Li3  1  0.24489100  0.24489100  0.50000000  1
  V  V4  1  0.00000000  0.50000000  0.08947200  1
  V  V5  1  0.50000000  0.00000000  0.91052800  1
  Si  Si6  1  0.00000000  0.00000000  0.00000000  1
  Ge  Ge7  1  0.50000000  0.50000000  0.00000000  1
  O  O8  1  0.00000000  0.50000000  0.72214950  1
  O  O9  1  0.50000000  0.00000000  0.27785050  1
  O  O10  1  0.79585000  0.00000000  0.78581600  1
  O  O11  1  0.00000000  0.20415000  0.21418400  1
  O  O12  1  0.00000000  0.79585000  0.21418400  1
  O  O13  1  0.20415000  0.00000000  0.78581600  1
  O  O14  1  0.28498800  0.50000000  0.23585650  1
  O  O15  1  0.50000000  0.71501200  0.76414350  1
  O  O16  1  0.50000000  0.28498800  0.76414350  1
  O  O17  1  0.71501200  0.50000000  0.23585650  1
