# generated using pymatgen
data_Li6Co5Ni3O16
_symmetry_space_group_name_H-M   'P 1'
_cell_length_a   9.88363468
_cell_length_b   5.64331679
_cell_length_c   9.18676588
_cell_angle_alpha   90.00000000
_cell_angle_beta   91.60971720
_cell_angle_gamma   90.00000000
_symmetry_Int_Tables_number   1
_chemical_formula_structural   Li6Co5Ni3O16
_chemical_formula_sum   'Li12 Co10 Ni6 O32'
_cell_volume   512.20326399
_cell_formula_units_Z   2
loop_
 _symmetry_equiv_pos_site_id
 _symmetry_equiv_pos_as_xyz
  1  'x, y, z'
loop_
 _atom_site_type_symbol
 _atom_site_label
 _atom_site_symmetry_multiplicity
 _atom_site_fract_x
 _atom_site_fract_y
 _atom_site_fract_z
 _atom_site_occupancy
  Li  Li0  1  0.82931650  0.00000000  0.55109800  1
  Li  Li1  1  0.58153600  0.75238000  0.55367600  1
  Li  Li2  1  0.58153600  0.24762000  0.55367600  1
  Li  Li3  1  0.91649800  0.24977400  0.04954400  1
  Li  Li4  1  0.91649800  0.75022600  0.04954400  1
  Li  Li5  1  0.66711950  0.50000000  0.05439800  1
  Li  Li6  1  0.32931650  0.50000000  0.55109800  1
  Li  Li7  1  0.08153600  0.25238000  0.55367600  1
  Li  Li8  1  0.08153600  0.74762000  0.55367600  1
  Li  Li9  1  0.41649800  0.74977400  0.04954400  1
  Li  Li10  1  0.41649800  0.25022600  0.04954400  1
  Li  Li11  1  0.16711950  0.00000000  0.05439800  1
  Co  Co12  1  0.82926900  0.00000000  0.28560900  1
  Co  Co13  1  0.66962350  0.00000000  0.01157500  1
  Co  Co14  1  0.91550250  0.25452850  0.78540100  1
  Co  Co15  1  0.91550250  0.74547150  0.78540100  1
  Co  Co16  1  0.83166800  0.50000000  0.51356000  1
  Co  Co17  1  0.32926900  0.50000000  0.28560900  1
  Co  Co18  1  0.16962350  0.50000000  0.01157500  1
  Co  Co19  1  0.41550250  0.75452850  0.78540100  1
  Co  Co20  1  0.41550250  0.24547150  0.78540100  1
  Co  Co21  1  0.33166800  0.00000000  0.51356000  1
  Ni  Ni22  1  0.58507000  0.75229600  0.28603000  1
  Ni  Ni23  1  0.58507000  0.24770400  0.28603000  1
  Ni  Ni24  1  0.66804850  0.50000000  0.78746100  1
  Ni  Ni25  1  0.08507000  0.25229600  0.28603000  1
  Ni  Ni26  1  0.08507000  0.74770400  0.28603000  1
  Ni  Ni27  1  0.16804850  0.00000000  0.78746100  1
  O  O28  1  0.83827450  0.00000000  0.90331500  1
  O  O29  1  0.74812550  0.78183450  0.14929500  1
  O  O30  1  0.74812550  0.21816550  0.14929500  1
  O  O31  1  0.67197250  0.00000000  0.39410700  1
  O  O32  1  0.57924300  0.74566400  0.91095000  1
  O  O33  1  0.52370850  0.00000000  0.14790700  1
  O  O34  1  0.91001200  0.24655500  0.41383800  1
  O  O35  1  0.57924300  0.25433600  0.91095000  1
  O  O36  1  0.98096300  0.50000000  0.65890700  1
  O  O37  1  0.91001200  0.75344500  0.41383800  1
  O  O38  1  0.76168000  0.27751100  0.65292600  1
  O  O39  1  0.83750700  0.50000000  0.89300600  1
  O  O40  1  0.76168000  0.72248900  0.65292600  1
  O  O41  1  0.65937700  0.50000000  0.41333000  1
  O  O42  1  0.99389550  0.00000000  0.18345100  1
  O  O43  1  0.99712650  0.00000000  0.68298800  1
  O  O44  1  0.33827450  0.50000000  0.90331500  1
  O  O45  1  0.24812550  0.28183450  0.14929500  1
  O  O46  1  0.24812550  0.71816550  0.14929500  1
  O  O47  1  0.17197250  0.50000000  0.39410700  1
  O  O48  1  0.07924300  0.24566400  0.91095000  1
  O  O49  1  0.02370850  0.50000000  0.14790700  1
  O  O50  1  0.41001200  0.74655500  0.41383800  1
  O  O51  1  0.07924300  0.75433600  0.91095000  1
  O  O52  1  0.48096300  0.00000000  0.65890700  1
  O  O53  1  0.41001200  0.25344500  0.41383800  1
  O  O54  1  0.26168000  0.77751100  0.65292600  1
  O  O55  1  0.33750700  0.00000000  0.89300600  1
  O  O56  1  0.26168000  0.22248900  0.65292600  1
  O  O57  1  0.15937700  0.00000000  0.41333000  1
  O  O58  1  0.49389550  0.50000000  0.18345100  1
  O  O59  1  0.49712650  0.50000000  0.68298800  1
