# generated using pymatgen
data_TiFe3Ni2(PO4)6
_symmetry_space_group_name_H-M   'P 1'
_cell_length_a   8.62147405
_cell_length_b   8.62147405
_cell_length_c   20.61532337
_cell_angle_alpha   90.00000000
_cell_angle_beta   90.00000000
_cell_angle_gamma   120.00000000
_symmetry_Int_Tables_number   1
_chemical_formula_structural   TiFe3Ni2(PO4)6
_chemical_formula_sum   'Ti3 Fe9 Ni6 P18 O72'
_cell_volume   1327.03944935
_cell_formula_units_Z   3
loop_
 _symmetry_equiv_pos_site_id
 _symmetry_equiv_pos_as_xyz
  1  'x, y, z'
loop_
 _atom_site_type_symbol
 _atom_site_label
 _atom_site_symmetry_multiplicity
 _atom_site_fract_x
 _atom_site_fract_y
 _atom_site_fract_z
 _atom_site_occupancy
  Ti  Ti0  1  0.33333333  0.66666667  0.81147667  1
  Ti  Ti1  1  0.00000000  0.00000000  0.14481000  1
  Ti  Ti2  1  0.66666667  0.33333333  0.47814333  1
  Fe  Fe3  1  0.33333333  0.66666667  0.52158767  1
  Fe  Fe4  1  0.33333333  0.66666667  0.31043067  1
  Fe  Fe5  1  0.33333333  0.66666667  0.02271667  1
  Fe  Fe6  1  0.00000000  0.00000000  0.85492100  1
  Fe  Fe7  1  0.00000000  0.00000000  0.64376400  1
  Fe  Fe8  1  0.00000000  0.00000000  0.35605000  1
  Fe  Fe9  1  0.66666667  0.33333333  0.18825433  1
  Fe  Fe10  1  0.66666667  0.33333333  0.97709733  1
  Fe  Fe11  1  0.66666667  0.33333333  0.68938333  1
  Ni  Ni12  1  0.33333333  0.66666667  0.66582767  1
  Ni  Ni13  1  0.33333333  0.66666667  0.16597967  1
  Ni  Ni14  1  0.00000000  0.00000000  0.99916100  1
  Ni  Ni15  1  0.00000000  0.00000000  0.49931300  1
  Ni  Ni16  1  0.66666667  0.33333333  0.33249433  1
  Ni  Ni17  1  0.66666667  0.33333333  0.83264633  1
  P  P18  1  0.29687467  0.29662433  0.25071833  1
  P  P19  1  0.99974967  0.70312533  0.25071833  1
  P  P20  1  0.70337567  0.00025033  0.25071833  1
  P  P21  1  0.37114333  0.03703967  0.08322867  1
  P  P22  1  0.96296033  0.33410367  0.08322867  1
  P  P23  1  0.66589633  0.62885667  0.08322867  1
  P  P24  1  0.96354133  0.62995767  0.58405167  1
  P  P25  1  0.66641633  0.03645867  0.58405167  1
  P  P26  1  0.37004233  0.33358367  0.58405167  1
  P  P27  1  0.03781000  0.37037300  0.41656200  1
  P  P28  1  0.62962700  0.66743700  0.41656200  1
  P  P29  1  0.33256300  0.96219000  0.41656200  1
  P  P30  1  0.63020800  0.96329100  0.91738500  1
  P  P31  1  0.33308300  0.36979200  0.91738500  1
  P  P32  1  0.03670900  0.66691700  0.91738500  1
  P  P33  1  0.70447667  0.70370633  0.74989533  1
  P  P34  1  0.29629367  0.00077033  0.74989533  1
  P  P35  1  0.99922967  0.29552333  0.74989533  1
  O  O36  1  0.32737900  0.86224300  0.35498200  1
  O  O37  1  0.13775700  0.46513600  0.35498200  1
  O  O38  1  0.83288167  0.51387833  0.25848233  1
  O  O39  1  0.53486400  0.67262100  0.35498200  1
  O  O40  1  0.32092567  0.47145333  0.85681633  1
  O  O41  1  0.16746333  0.68412367  0.23935367  1
  O  O42  1  0.68099667  0.16711833  0.25848233  1
  O  O43  1  0.51666033  0.83253667  0.23935367  1
  O  O44  1  0.46472900  0.13954000  0.14448500  1
  O  O45  1  0.31587633  0.48333967  0.23935367  1
  O  O46  1  0.17813333  0.01245867  0.07567267  1
  O  O47  1  0.86046000  0.32518900  0.14448500  1
  O  O48  1  0.15052767  0.67907433  0.85681633  1
  O  O49  1  0.48612167  0.31900333  0.25848233  1
  O  O50  1  0.34517100  0.84579800  0.09209000  1
  O  O51  1  0.52854667  0.84947233  0.85681633  1
  O  O52  1  0.15420200  0.49937300  0.09209000  1
  O  O53  1  0.98754133  0.16567467  0.07567267  1
  O  O54  1  0.50062700  0.65482900  0.09209000  1
  O  O55  1  0.67481100  0.53527100  0.14448500  1
  O  O56  1  0.13084133  0.65746767  0.97816467  1
  O  O57  1  0.83432533  0.82186667  0.07567267  1
  O  O58  1  0.52662633  0.86915867  0.97816467  1
  O  O59  1  0.34253233  0.47337367  0.97816467  1
  O  O60  1  0.99404567  0.19557633  0.68831533  1
  O  O61  1  0.80442367  0.79846933  0.68831533  1
  O  O62  1  0.49954833  0.84721167  0.59181567  1
  O  O63  1  0.20153067  0.00595433  0.68831533  1
  O  O64  1  0.98759233  0.80478667  0.19014967  1
  O  O65  1  0.83413000  0.01745700  0.57268700  1
  O  O66  1  0.34766333  0.50045167  0.59181567  1
  O  O67  1  0.18332700  0.16587000  0.57268700  1
  O  O68  1  0.13139567  0.47287333  0.47781833  1
  O  O69  1  0.98254300  0.81667300  0.57268700  1
  O  O70  1  0.84480000  0.34579200  0.40900600  1
  O  O71  1  0.52712667  0.65852233  0.47781833  1
  O  O72  1  0.81719433  0.01240767  0.19014967  1
  O  O73  1  0.15278833  0.65233667  0.59181567  1
  O  O74  1  0.01183767  0.17913133  0.42542333  1
  O  O75  1  0.19521333  0.18280567  0.19014967  1
  O  O76  1  0.82086867  0.83270633  0.42542333  1
  O  O77  1  0.65420800  0.49900800  0.40900600  1
  O  O78  1  0.16729367  0.98816233  0.42542333  1
  O  O79  1  0.34147767  0.86860433  0.47781833  1
  O  O80  1  0.79750800  0.99080100  0.31149800  1
  O  O81  1  0.50099200  0.15520000  0.40900600  1
  O  O82  1  0.19329300  0.20249200  0.31149800  1
  O  O83  1  0.00919900  0.80670700  0.31149800  1
  O  O84  1  0.66071233  0.52890967  0.02164867  1
  O  O85  1  0.47109033  0.13180267  0.02164867  1
  O  O86  1  0.16621500  0.18054500  0.92514900  1
  O  O87  1  0.86819733  0.33928767  0.02164867  1
  O  O88  1  0.65425900  0.13812000  0.52348300  1
  O  O89  1  0.50079667  0.35079033  0.90602033  1
  O  O90  1  0.01433000  0.83378500  0.92514900  1
  O  O91  1  0.84999367  0.49920333  0.90602033  1
  O  O92  1  0.79806233  0.80620667  0.81115167  1
  O  O93  1  0.64920967  0.15000633  0.90602033  1
  O  O94  1  0.51146667  0.67912533  0.74233933  1
  O  O95  1  0.19379333  0.99185567  0.81115167  1
  O  O96  1  0.48386100  0.34574100  0.52348300  1
  O  O97  1  0.81945500  0.98567000  0.92514900  1
  O  O98  1  0.67850433  0.51246467  0.75875667  1
  O  O99  1  0.86188000  0.51613900  0.52348300  1
  O  O100  1  0.48753533  0.16603967  0.75875667  1
  O  O101  1  0.32087467  0.83234133  0.74233933  1
  O  O102  1  0.83396033  0.32149567  0.75875667  1
  O  O103  1  0.00814433  0.20193767  0.81115167  1
  O  O104  1  0.46417467  0.32413433  0.64483133  1
  O  O105  1  0.16765867  0.48853333  0.74233933  1
  O  O106  1  0.85995967  0.53582533  0.64483133  1
  O  O107  1  0.67586567  0.14004033  0.64483133  1
