# generated using pymatgen
data_K2LiFeO3
_symmetry_space_group_name_H-M   'P 1'
_cell_length_a   6.07419200
_cell_length_b   10.67832400
_cell_length_c   6.64205900
_cell_angle_alpha   90.00000000
_cell_angle_beta   90.00000000
_cell_angle_gamma   90.00000000
_symmetry_Int_Tables_number   1
_chemical_formula_structural   K2LiFeO3
_chemical_formula_sum   'K8 Li4 Fe4 O12'
_cell_volume   430.81849442
_cell_formula_units_Z   4
loop_
 _symmetry_equiv_pos_site_id
 _symmetry_equiv_pos_as_xyz
  1  'x, y, z'
loop_
 _atom_site_type_symbol
 _atom_site_label
 _atom_site_symmetry_multiplicity
 _atom_site_fract_x
 _atom_site_fract_y
 _atom_site_fract_z
 _atom_site_occupancy
  K  K0  1  0.25000000  0.50000000  0.00000000  1
  K  K1  1  0.75000000  0.50000000  0.00000000  1
  K  K2  1  0.50000000  0.25000000  0.66002300  1
  K  K3  1  0.00000000  0.25000000  0.33997700  1
  K  K4  1  0.75000000  0.00000000  0.00000000  1
  K  K5  1  0.25000000  0.00000000  0.00000000  1
  K  K6  1  0.00000000  0.75000000  0.66002300  1
  K  K7  1  0.50000000  0.75000000  0.33997700  1
  Li  Li8  1  0.25000000  0.50000000  0.50000000  1
  Li  Li9  1  0.75000000  0.50000000  0.50000000  1
  Li  Li10  1  0.75000000  0.00000000  0.50000000  1
  Li  Li11  1  0.25000000  0.00000000  0.50000000  1
  Fe  Fe12  1  0.00000000  0.75000000  0.17831950  1
  Fe  Fe13  1  0.00000000  0.25000000  0.82168050  1
  Fe  Fe14  1  0.50000000  0.25000000  0.17831950  1
  Fe  Fe15  1  0.50000000  0.75000000  0.82168050  1
  O  O16  1  0.25000000  0.25000000  0.00000000  1
  O  O17  1  0.25000000  0.75000000  0.00000000  1
  O  O18  1  0.00000000  0.40002800  0.66970500  1
  O  O19  1  0.50000000  0.40002800  0.33029500  1
  O  O20  1  0.00000000  0.59997200  0.33029500  1
  O  O21  1  0.50000000  0.59997200  0.66970500  1
  O  O22  1  0.75000000  0.75000000  0.00000000  1
  O  O23  1  0.75000000  0.25000000  0.00000000  1
  O  O24  1  0.50000000  0.90002800  0.66970500  1
  O  O25  1  0.00000000  0.90002800  0.33029500  1
  O  O26  1  0.50000000  0.09997200  0.33029500  1
  O  O27  1  0.00000000  0.09997200  0.66970500  1
