# generated using pymatgen
data_LiCoPO4
_symmetry_space_group_name_H-M   'P 1'
_cell_length_a   5.05391200
_cell_length_b   6.83658300
_cell_length_c   10.22178200
_cell_angle_alpha   90.00000000
_cell_angle_beta   90.00000000
_cell_angle_gamma   90.00000000
_symmetry_Int_Tables_number   1
_chemical_formula_structural   LiCoPO4
_chemical_formula_sum   'Li4 Co4 P4 O16'
_cell_volume   353.17778705
_cell_formula_units_Z   4
loop_
 _symmetry_equiv_pos_site_id
 _symmetry_equiv_pos_as_xyz
  1  'x, y, z'
loop_
 _atom_site_type_symbol
 _atom_site_label
 _atom_site_symmetry_multiplicity
 _atom_site_fract_x
 _atom_site_fract_y
 _atom_site_fract_z
 _atom_site_occupancy
  Li  Li0  1  0.75550100  0.99826450  0.14950200  1
  Li  Li1  1  0.25550100  0.49826450  0.35049800  1
  Li  Li2  1  0.75550100  0.50173550  0.64950200  1
  Li  Li3  1  0.25550100  0.00173550  0.85049800  1
  Co  Co4  1  0.75395000  0.00465250  0.66039900  1
  Co  Co5  1  0.25395000  0.50465250  0.83960100  1
  Co  Co6  1  0.75395000  0.49534750  0.16039900  1
  Co  Co7  1  0.25395000  0.99534750  0.33960100  1
  P  P8  1  0.24983000  0.74343150  0.09700900  1
  P  P9  1  0.74983000  0.24343150  0.40299100  1
  P  P10  1  0.24983000  0.75656850  0.59700900  1
  P  P11  1  0.74983000  0.25656850  0.90299100  1
  O  O12  1  0.80942700  0.25685050  0.05229000  1
  O  O13  1  0.30942700  0.75685050  0.44771000  1
  O  O14  1  0.80942700  0.24314950  0.55229000  1
  O  O15  1  0.30942700  0.74314950  0.94771000  1
  O  O16  1  0.94615900  0.74304850  0.12307600  1
  O  O17  1  0.44615900  0.24304850  0.37692400  1
  O  O18  1  0.94615900  0.75695150  0.62307600  1
  O  O19  1  0.44615900  0.25695150  0.87692400  1
  O  O20  1  0.37025400  0.93252350  0.15712700  1
  O  O21  1  0.87025400  0.43252350  0.34287300  1
  O  O22  1  0.37025400  0.56747650  0.65712700  1
  O  O23  1  0.87025400  0.06747650  0.84287300  1
  O  O24  1  0.36906100  0.55902750  0.16424600  1
  O  O25  1  0.86906100  0.05902750  0.33575400  1
  O  O26  1  0.36906100  0.94097250  0.66424600  1
  O  O27  1  0.86906100  0.44097250  0.83575400  1
