# generated using pymatgen
data_LiVP2O7
_symmetry_space_group_name_H-M   'P 1'
_cell_length_a   5.26139304
_cell_length_b   8.77936400
_cell_length_c   6.92852823
_cell_angle_alpha   90.00000000
_cell_angle_beta   110.16728368
_cell_angle_gamma   90.00000000
_symmetry_Int_Tables_number   1
_chemical_formula_structural   LiVP2O7
_chemical_formula_sum   'Li2 V2 P4 O14'
_cell_volume   300.41872673
_cell_formula_units_Z   2
loop_
 _symmetry_equiv_pos_site_id
 _symmetry_equiv_pos_as_xyz
  1  'x, y, z'
loop_
 _atom_site_type_symbol
 _atom_site_label
 _atom_site_symmetry_multiplicity
 _atom_site_fract_x
 _atom_site_fract_y
 _atom_site_fract_z
 _atom_site_occupancy
  Li  Li0  1  0.34843400  0.52860600  0.74352100  1
  Li  Li1  1  0.65156600  0.02860600  0.25647900  1
  V  V2  1  0.28942200  0.15042600  0.82988800  1
  V  V3  1  0.71057800  0.65042600  0.17011200  1
  P  P4  1  0.12596400  0.80390100  0.95348800  1
  P  P5  1  0.29690300  0.21959500  0.45944500  1
  P  P6  1  0.70309700  0.71959500  0.54055500  1
  P  P7  1  0.87403600  0.30390100  0.04651200  1
  O  O8  1  0.48856600  0.68647300  0.62872000  1
  O  O9  1  0.36383300  0.32723500  0.64661400  1
  O  O10  1  0.26909500  0.95805500  0.98645100  1
  O  O11  1  0.32419300  0.66636100  0.99341100  1
  O  O12  1  0.06529600  0.28994600  0.92360400  1
  O  O13  1  0.81497900  0.57779800  0.45426500  1
  O  O14  1  0.95937000  0.79903500  0.71309400  1
  O  O15  1  0.04063000  0.29903500  0.28690600  1
  O  O16  1  0.18502100  0.07779800  0.54573500  1
  O  O17  1  0.93470400  0.78994600  0.07639600  1
  O  O18  1  0.67580700  0.16636100  0.00658900  1
  O  O19  1  0.73090500  0.45805500  0.01354900  1
  O  O20  1  0.63616700  0.82723500  0.35338600  1
  O  O21  1  0.51143400  0.18647300  0.37128000  1
