# generated using pymatgen
data_Co3P6WO24
_symmetry_space_group_name_H-M   'P 1'
_cell_length_a   8.71384058
_cell_length_b   8.71384058
_cell_length_c   22.03984040
_cell_angle_alpha   90.00000000
_cell_angle_beta   90.00000000
_cell_angle_gamma   120.00000000
_symmetry_Int_Tables_number   1
_chemical_formula_structural   Co3P6WO24
_chemical_formula_sum   'Co9 P18 W3 O72'
_cell_volume   1449.30001806
_cell_formula_units_Z   3
loop_
 _symmetry_equiv_pos_site_id
 _symmetry_equiv_pos_as_xyz
  1  'x, y, z'
loop_
 _atom_site_type_symbol
 _atom_site_label
 _atom_site_symmetry_multiplicity
 _atom_site_fract_x
 _atom_site_fract_y
 _atom_site_fract_z
 _atom_site_occupancy
  Co  Co0  1  0.00000000  0.00000000  0.14191900  1
  Co  Co1  1  0.33333333  0.66666667  0.02495567  1
  Co  Co2  1  0.33333333  0.66666667  0.30786967  1
  Co  Co3  1  0.66666667  0.33333333  0.47525233  1
  Co  Co4  1  0.00000000  0.00000000  0.35828900  1
  Co  Co5  1  0.00000000  0.00000000  0.64120300  1
  Co  Co6  1  0.33333333  0.66666667  0.80858567  1
  Co  Co7  1  0.66666667  0.33333333  0.69162233  1
  Co  Co8  1  0.66666667  0.33333333  0.97453633  1
  P  P9  1  0.38073433  0.04744567  0.08179467  1
  P  P10  1  0.66671133  0.61926567  0.08179467  1
  P  P11  1  0.95255433  0.33328867  0.08179467  1
  P  P12  1  0.71584167  0.99602233  0.25059333  1
  P  P13  1  0.00397767  0.71981933  0.25059333  1
  P  P14  1  0.28018067  0.28415833  0.25059333  1
  P  P15  1  0.04740100  0.38077900  0.41512800  1
  P  P16  1  0.33337800  0.95259900  0.41512800  1
  P  P17  1  0.61922100  0.66662200  0.41512800  1
  P  P18  1  0.38250833  0.32935567  0.58392667  1
  P  P19  1  0.67064433  0.05315267  0.58392667  1
  P  P20  1  0.94684733  0.61749167  0.58392667  1
  P  P21  1  0.71406767  0.71411233  0.74846133  1
  P  P22  1  0.00004467  0.28593233  0.74846133  1
  P  P23  1  0.28588767  0.99995533  0.74846133  1
  P  P24  1  0.04917500  0.66268900  0.91726000  1
  P  P25  1  0.33731100  0.38648600  0.91726000  1
  P  P26  1  0.61351400  0.95082500  0.91726000  1
  W  W27  1  0.66666667  0.33333333  0.19184433  1
  W  W28  1  0.33333333  0.66666667  0.52517767  1
  W  W29  1  0.00000000  0.00000000  0.85851100  1
  O  O30  1  0.20265833  0.16817567  0.30703367  1
  O  O31  1  0.83182433  0.03448267  0.30703367  1
  O  O32  1  0.19524500  0.02325800  0.09049400  1
  O  O33  1  0.96551733  0.79734167  0.30703367  1
  O  O34  1  0.36591300  0.86459300  0.07803500  1
  O  O35  1  0.49821900  0.14229400  0.13998700  1
  O  O36  1  0.82801300  0.80475500  0.09049400  1
  O  O37  1  0.49868000  0.63408700  0.07803500  1
  O  O38  1  0.13540700  0.50132000  0.07803500  1
  O  O39  1  0.80316833  0.97506767  0.19377267  1
  O  O40  1  0.69280467  0.16572133  0.24091633  1
  O  O41  1  0.02493233  0.82810067  0.19377267  1
  O  O42  1  0.64407500  0.50178100  0.13998700  1
  O  O43  1  0.97674200  0.17198700  0.09049400  1
  O  O44  1  0.85770600  0.35592500  0.13998700  1
  O  O45  1  0.53061800  0.83713200  0.25799900  1
  O  O46  1  0.16286800  0.69348600  0.25799900  1
  O  O47  1  0.83427867  0.52708333  0.24091633  1
  O  O48  1  0.17189933  0.19683167  0.19377267  1
  O  O49  1  0.30651400  0.46938200  0.25799900  1
  O  O50  1  0.69423733  0.53339067  0.02606767  1
  O  O51  1  0.47291667  0.30719533  0.24091633  1
  O  O52  1  0.83915333  0.30576267  0.02606767  1
  O  O53  1  0.46660933  0.16084667  0.02606767  1
  O  O54  1  0.86932500  0.50150900  0.64036700  1
  O  O55  1  0.49849100  0.36781600  0.64036700  1
  O  O56  1  0.86191167  0.35659133  0.42382733  1
  O  O57  1  0.63218400  0.13067500  0.64036700  1
  O  O58  1  0.03257967  0.19792633  0.41136833  1
  O  O59  1  0.16488567  0.47562733  0.47332033  1
  O  O60  1  0.49467967  0.13808833  0.42382733  1
  O  O61  1  0.16534667  0.96742033  0.41136833  1
  O  O62  1  0.80207367  0.83465333  0.41136833  1
  O  O63  1  0.46983500  0.30840100  0.52710600  1
  O  O64  1  0.35947133  0.49905467  0.57424967  1
  O  O65  1  0.69159900  0.16143400  0.52710600  1
  O  O66  1  0.31074167  0.83511433  0.47332033  1
  O  O67  1  0.64340867  0.50532033  0.42382733  1
  O  O68  1  0.52437267  0.68925833  0.47332033  1
  O  O69  1  0.19728467  0.17046533  0.59133233  1
  O  O70  1  0.82953467  0.02681933  0.59133233  1
  O  O71  1  0.50094533  0.86041667  0.57424967  1
  O  O72  1  0.83856600  0.53016500  0.52710600  1
  O  O73  1  0.97318067  0.80271533  0.59133233  1
  O  O74  1  0.36090400  0.86672400  0.35940100  1
  O  O75  1  0.13958333  0.64052867  0.57424967  1
  O  O76  1  0.50582000  0.63909600  0.35940100  1
  O  O77  1  0.13327600  0.49418000  0.35940100  1
  O  O78  1  0.53599167  0.83484233  0.97370033  1
  O  O79  1  0.16515767  0.70114933  0.97370033  1
  O  O80  1  0.52857833  0.68992467  0.75716067  1
  O  O81  1  0.29885067  0.46400833  0.97370033  1
  O  O82  1  0.69924633  0.53125967  0.74470167  1
  O  O83  1  0.83155233  0.80896067  0.80665367  1
  O  O84  1  0.16134633  0.47142167  0.75716067  1
  O  O85  1  0.83201333  0.30075367  0.74470167  1
  O  O86  1  0.46874033  0.16798667  0.74470167  1
  O  O87  1  0.13650167  0.64173433  0.86043933  1
  O  O88  1  0.02613800  0.83238800  0.90758300  1
  O  O89  1  0.35826567  0.49476733  0.86043933  1
  O  O90  1  0.97740833  0.16844767  0.80665367  1
  O  O91  1  0.31007533  0.83865367  0.75716067  1
  O  O92  1  0.19103933  0.02259167  0.80665367  1
  O  O93  1  0.86395133  0.50379867  0.92466567  1
  O  O94  1  0.49620133  0.36015267  0.92466567  1
  O  O95  1  0.16761200  0.19375000  0.90758300  1
  O  O96  1  0.50523267  0.86349833  0.86043933  1
  O  O97  1  0.63984733  0.13604867  0.92466567  1
  O  O98  1  0.02757067  0.20005733  0.69273433  1
  O  O99  1  0.80625000  0.97386200  0.90758300  1
  O  O100  1  0.17248667  0.97242933  0.69273433  1
  O  O101  1  0.79994267  0.82751333  0.69273433  1
