# generated using pymatgen
data_FeOF
_symmetry_space_group_name_H-M   'P 1'
_cell_length_a   5.22197014
_cell_length_b   5.22197014
_cell_length_c   14.12584561
_cell_angle_alpha   90.00000000
_cell_angle_beta   90.00000000
_cell_angle_gamma   120.00000000
_symmetry_Int_Tables_number   1
_chemical_formula_structural   FeOF
_chemical_formula_sum   'Fe9 O9 F9'
_cell_volume   333.59063929
_cell_formula_units_Z   9
loop_
 _symmetry_equiv_pos_site_id
 _symmetry_equiv_pos_as_xyz
  1  'x, y, z'
loop_
 _atom_site_type_symbol
 _atom_site_label
 _atom_site_symmetry_multiplicity
 _atom_site_fract_x
 _atom_site_fract_y
 _atom_site_fract_z
 _atom_site_occupancy
  Fe  Fe0  1  0.00000000  0.00000000  0.13920800  1
  Fe  Fe1  1  0.33333333  0.66666667  0.02459167  1
  Fe  Fe2  1  0.66666667  0.33333333  0.00660233  1
  Fe  Fe3  1  0.66666667  0.33333333  0.47254133  1
  Fe  Fe4  1  0.00000000  0.00000000  0.35792500  1
  Fe  Fe5  1  0.33333333  0.66666667  0.33993567  1
  Fe  Fe6  1  0.33333333  0.66666667  0.80587467  1
  Fe  Fe7  1  0.66666667  0.33333333  0.69125833  1
  Fe  Fe8  1  0.00000000  0.00000000  0.67326900  1
  O  O9  1  0.98882700  0.32359000  0.07531000  1
  O  O10  1  0.33476300  0.01117300  0.07531000  1
  O  O11  1  0.67641000  0.66523700  0.07531000  1
  O  O12  1  0.65549367  0.65692333  0.40864333  1
  O  O13  1  0.00142967  0.34450633  0.40864333  1
  O  O14  1  0.34307667  0.99857033  0.40864333  1
  O  O15  1  0.32216033  0.99025667  0.74197667  1
  O  O16  1  0.66809633  0.67783967  0.74197667  1
  O  O17  1  0.00974333  0.33190367  0.74197667  1
  F  F18  1  0.05640333  0.74468267  0.25082267  1
  F  F19  1  0.25531733  0.31172067  0.25082267  1
  F  F20  1  0.68827933  0.94359667  0.25082267  1
  F  F21  1  0.72307000  0.07801600  0.58415600  1
  F  F22  1  0.92198400  0.64505400  0.58415600  1
  F  F23  1  0.35494600  0.27693000  0.58415600  1
  F  F24  1  0.38973667  0.41134933  0.91748933  1
  F  F25  1  0.58865067  0.97838733  0.91748933  1
  F  F26  1  0.02161267  0.61026333  0.91748933  1
