# generated using pymatgen
data_LiMnPO4
_symmetry_space_group_name_H-M   'P 1'
_cell_length_a   5.02333684
_cell_length_b   5.02333684
_cell_length_c   23.60961901
_cell_angle_alpha   90.00000000
_cell_angle_beta   90.00000000
_cell_angle_gamma   120.00000000
_symmetry_Int_Tables_number   1
_chemical_formula_structural   LiMnPO4
_chemical_formula_sum   'Li6 Mn6 P6 O24'
_cell_volume   515.94595469
_cell_formula_units_Z   6
loop_
 _symmetry_equiv_pos_site_id
 _symmetry_equiv_pos_as_xyz
  1  'x, y, z'
loop_
 _atom_site_type_symbol
 _atom_site_label
 _atom_site_symmetry_multiplicity
 _atom_site_fract_x
 _atom_site_fract_y
 _atom_site_fract_z
 _atom_site_occupancy
  Li  Li0  1  0.66666667  0.33333333  0.11349833  1
  Li  Li1  1  0.33333333  0.66666667  0.88650167  1
  Li  Li2  1  0.33333333  0.66666667  0.44683167  1
  Li  Li3  1  0.00000000  0.00000000  0.21983500  1
  Li  Li4  1  0.00000000  0.00000000  0.78016500  1
  Li  Li5  1  0.66666667  0.33333333  0.55316833  1
  Mn  Mn6  1  0.33333333  0.66666667  0.01209167  1
  Mn  Mn7  1  0.66666667  0.33333333  0.98790833  1
  Mn  Mn8  1  0.00000000  0.00000000  0.34542500  1
  Mn  Mn9  1  0.33333333  0.66666667  0.32124167  1
  Mn  Mn10  1  0.66666667  0.33333333  0.67875833  1
  Mn  Mn11  1  0.00000000  0.00000000  0.65457500  1
  P  P12  1  0.00000000  0.00000000  0.92167667  1
  P  P13  1  0.00000000  0.00000000  0.07832333  1
  P  P14  1  0.66666667  0.33333333  0.25501000  1
  P  P15  1  0.66666667  0.33333333  0.41165667  1
  P  P16  1  0.33333333  0.66666667  0.58834333  1
  P  P17  1  0.33333333  0.66666667  0.74499000  1
  O  O18  1  0.33333333  0.66666667  0.80836800  1
  O  O19  1  0.00000000  0.00000000  0.85829867  1
  O  O20  1  0.68951767  0.96608133  0.94532533  1
  O  O21  1  0.72343633  0.68951767  0.05467467  1
  O  O22  1  0.31048233  0.03391867  0.05467467  1
  O  O23  1  0.03391867  0.72343633  0.94532533  1
  O  O24  1  0.27656367  0.31048233  0.94532533  1
  O  O25  1  0.96608133  0.27656367  0.05467467  1
  O  O26  1  0.00000000  0.00000000  0.14170133  1
  O  O27  1  0.66666667  0.33333333  0.19163200  1
  O  O28  1  0.35618433  0.29941467  0.27865867  1
  O  O29  1  0.39010300  0.02285100  0.38800800  1
  O  O30  1  0.97714900  0.36725200  0.38800800  1
  O  O31  1  0.70058533  0.05676967  0.27865867  1
  O  O32  1  0.94323033  0.64381567  0.27865867  1
  O  O33  1  0.63274800  0.60989700  0.38800800  1
  O  O34  1  0.66666667  0.33333333  0.47503467  1
  O  O35  1  0.33333333  0.66666667  0.52496533  1
  O  O36  1  0.02285100  0.63274800  0.61199200  1
  O  O37  1  0.05676967  0.35618433  0.72134133  1
  O  O38  1  0.64381567  0.70058533  0.72134133  1
  O  O39  1  0.36725200  0.39010300  0.61199200  1
  O  O40  1  0.60989700  0.97714900  0.61199200  1
  O  O41  1  0.29941467  0.94323033  0.72134133  1
