# generated using pymatgen
data_Co3(OF2)2
_symmetry_space_group_name_H-M   'P 1'
_cell_length_a   5.65901700
_cell_length_b   4.58299300
_cell_length_c   7.73275339
_cell_angle_alpha   90.00000000
_cell_angle_beta   92.13430149
_cell_angle_gamma   90.00000000
_symmetry_Int_Tables_number   1
_chemical_formula_structural   Co3(OF2)2
_chemical_formula_sum   'Co6 O4 F8'
_cell_volume   200.41165195
_cell_formula_units_Z   2
loop_
 _symmetry_equiv_pos_site_id
 _symmetry_equiv_pos_as_xyz
  1  'x, y, z'
loop_
 _atom_site_type_symbol
 _atom_site_label
 _atom_site_symmetry_multiplicity
 _atom_site_fract_x
 _atom_site_fract_y
 _atom_site_fract_z
 _atom_site_occupancy
  Co  Co0  1  0.56847800  0.00412700  0.35013700  1
  Co  Co1  1  0.90024800  0.96665600  0.67255400  1
  Co  Co2  1  0.23009200  0.02163400  0.00013600  1
  Co  Co3  1  0.76990800  0.52163400  0.99986400  1
  Co  Co4  1  0.43152200  0.50412700  0.64986300  1
  Co  Co5  1  0.09975200  0.46665600  0.32744600  1
  O  O6  1  0.04950400  0.29852900  0.10040800  1
  O  O7  1  0.38770100  0.30250600  0.43459000  1
  O  O8  1  0.95049600  0.79852900  0.89959200  1
  O  O9  1  0.61229900  0.80250600  0.56541000  1
  F  F10  1  0.71805100  0.30337600  0.77307400  1
  F  F11  1  0.55248100  0.20271700  0.10444700  1
  F  F12  1  0.88267200  0.19477600  0.44532200  1
  F  F13  1  0.22087300  0.20567900  0.75939600  1
  F  F14  1  0.28194900  0.80337600  0.22692600  1
  F  F15  1  0.11732800  0.69477600  0.55467800  1
  F  F16  1  0.77912700  0.70567900  0.24060400  1
  F  F17  1  0.44751900  0.70271700  0.89555300  1
