# generated using pymatgen
data_CrFeO4
_symmetry_space_group_name_H-M   'P 1'
_cell_length_a   10.02842400
_cell_length_b   9.16223200
_cell_length_c   6.83382081
_cell_angle_alpha   90.00000000
_cell_angle_beta   106.34109502
_cell_angle_gamma   90.00000000
_symmetry_Int_Tables_number   1
_chemical_formula_structural   CrFeO4
_chemical_formula_sum   'Cr8 Fe8 O32'
_cell_volume   602.54500482
_cell_formula_units_Z   8
loop_
 _symmetry_equiv_pos_site_id
 _symmetry_equiv_pos_as_xyz
  1  'x, y, z'
loop_
 _atom_site_type_symbol
 _atom_site_label
 _atom_site_symmetry_multiplicity
 _atom_site_fract_x
 _atom_site_fract_y
 _atom_site_fract_z
 _atom_site_occupancy
  Cr  Cr0  1  0.78043100  0.50000000  0.41230300  1
  Cr  Cr1  1  0.00000000  0.25764300  0.00000000  1
  Cr  Cr2  1  0.00000000  0.74235700  0.00000000  1
  Cr  Cr3  1  0.21956900  0.50000000  0.58769700  1
  Cr  Cr4  1  0.28043100  0.00000000  0.41230300  1
  Cr  Cr5  1  0.50000000  0.75764300  0.00000000  1
  Cr  Cr6  1  0.50000000  0.24235700  0.00000000  1
  Cr  Cr7  1  0.71956900  0.00000000  0.58769700  1
  Fe  Fe8  1  0.70442100  0.50000000  0.87012100  1
  Fe  Fe9  1  0.00000000  0.18302600  0.50000000  1
  Fe  Fe10  1  0.00000000  0.81697400  0.50000000  1
  Fe  Fe11  1  0.29557900  0.50000000  0.12987900  1
  Fe  Fe12  1  0.20442100  0.00000000  0.87012100  1
  Fe  Fe13  1  0.50000000  0.68302600  0.50000000  1
  Fe  Fe14  1  0.50000000  0.31697400  0.50000000  1
  Fe  Fe15  1  0.79557900  0.00000000  0.12987900  1
  O  O16  1  0.64169900  0.50000000  0.54314500  1
  O  O17  1  0.70858800  0.50000000  0.15088000  1
  O  O18  1  0.85455950  0.35235150  0.89028900  1
  O  O19  1  0.85455950  0.64764850  0.89028900  1
  O  O20  1  0.86298450  0.66030850  0.47674300  1
  O  O21  1  0.86298450  0.33969150  0.47674300  1
  O  O22  1  0.04737400  0.84541200  0.80433800  1
  O  O23  1  0.04737400  0.15458800  0.80433800  1
  O  O24  1  0.95262600  0.15458800  0.19566200  1
  O  O25  1  0.95262600  0.84541200  0.19566200  1
  O  O26  1  0.13701550  0.33969150  0.52325700  1
  O  O27  1  0.13701550  0.66030850  0.52325700  1
  O  O28  1  0.14544050  0.35235150  0.10971100  1
  O  O29  1  0.14544050  0.64764850  0.10971100  1
  O  O30  1  0.29141200  0.50000000  0.84912000  1
  O  O31  1  0.35830100  0.50000000  0.45685500  1
  O  O32  1  0.14169900  0.00000000  0.54314500  1
  O  O33  1  0.20858800  0.00000000  0.15088000  1
  O  O34  1  0.35455950  0.85235150  0.89028900  1
  O  O35  1  0.35455950  0.14764850  0.89028900  1
  O  O36  1  0.36298450  0.16030850  0.47674300  1
  O  O37  1  0.36298450  0.83969150  0.47674300  1
  O  O38  1  0.54737400  0.34541200  0.80433800  1
  O  O39  1  0.54737400  0.65458800  0.80433800  1
  O  O40  1  0.45262600  0.65458800  0.19566200  1
  O  O41  1  0.45262600  0.34541200  0.19566200  1
  O  O42  1  0.63701550  0.83969150  0.52325700  1
  O  O43  1  0.63701550  0.16030850  0.52325700  1
  O  O44  1  0.64544050  0.85235150  0.10971100  1
  O  O45  1  0.64544050  0.14764850  0.10971100  1
  O  O46  1  0.79141200  0.00000000  0.84912000  1
  O  O47  1  0.85830100  0.00000000  0.45685500  1
