# generated using pymatgen
data_Na2Ni3O5
_symmetry_space_group_name_H-M   'P 1'
_cell_length_a   5.17042358
_cell_length_b   6.11480149
_cell_length_c   6.92372807
_cell_angle_alpha   104.76177032
_cell_angle_beta   98.73178707
_cell_angle_gamma   106.17567982
_symmetry_Int_Tables_number   1
_chemical_formula_structural   Na2Ni3O5
_chemical_formula_sum   'Na4 Ni6 O10'
_cell_volume   197.35996129
_cell_formula_units_Z   2
loop_
 _symmetry_equiv_pos_site_id
 _symmetry_equiv_pos_as_xyz
  1  'x, y, z'
loop_
 _atom_site_type_symbol
 _atom_site_label
 _atom_site_symmetry_multiplicity
 _atom_site_fract_x
 _atom_site_fract_y
 _atom_site_fract_z
 _atom_site_occupancy
  Na  Na0  1  0.60053800  0.69918000  0.20540500  1
  Na  Na1  1  0.39946200  0.30082000  0.79459500  1
  Na  Na2  1  0.20670700  0.90320100  0.40613700  1
  Na  Na3  1  0.79329300  0.09679900  0.59386300  1
  Ni  Ni4  1  0.60052500  0.20238800  0.19349700  1
  Ni  Ni5  1  0.39947500  0.79761200  0.80650300  1
  Ni  Ni6  1  0.20278400  0.40037400  0.39373100  1
  Ni  Ni7  1  0.00000000  0.00000000  0.00000000  1
  Ni  Ni8  1  0.00000000  0.50000000  0.00000000  1
  Ni  Ni9  1  0.79721600  0.59962600  0.60626900  1
  O  O10  1  0.73428200  0.68478600  0.90898400  1
  O  O11  1  0.72278300  0.13301700  0.91901200  1
  O  O12  1  0.49407000  0.70873600  0.51961800  1
  O  O13  1  0.50593000  0.29126400  0.48038200  1
  O  O14  1  0.27721700  0.86698300  0.08098800  1
  O  O15  1  0.26571800  0.31521400  0.09101600  1
  O  O16  1  0.07092300  0.91825600  0.72798200  1
  O  O17  1  0.07658900  0.47530600  0.70058600  1
  O  O18  1  0.92907700  0.08174400  0.27201800  1
  O  O19  1  0.92341100  0.52469400  0.29941400  1
