# generated using pymatgen
data_BiRu2O7
_symmetry_space_group_name_H-M   'P 1'
_cell_length_a   7.22182800
_cell_length_b   7.27071400
_cell_length_c   10.18386400
_cell_angle_alpha   90.00000000
_cell_angle_beta   90.00000000
_cell_angle_gamma   90.00000000
_symmetry_Int_Tables_number   1
_chemical_formula_structural   BiRu2O7
_chemical_formula_sum   'Bi4 Ru8 O28'
_cell_volume   534.73276204
_cell_formula_units_Z   4
loop_
 _symmetry_equiv_pos_site_id
 _symmetry_equiv_pos_as_xyz
  1  'x, y, z'
loop_
 _atom_site_type_symbol
 _atom_site_label
 _atom_site_symmetry_multiplicity
 _atom_site_fract_x
 _atom_site_fract_y
 _atom_site_fract_z
 _atom_site_occupancy
  Bi  Bi0  1  0.25000000  0.73053900  0.50000000  1
  Bi  Bi1  1  0.75000000  0.76946100  0.50000000  1
  Bi  Bi2  1  0.75000000  0.23053900  0.00000000  1
  Bi  Bi3  1  0.25000000  0.26946100  0.00000000  1
  Ru  Ru4  1  0.00513900  0.00000000  0.75000000  1
  Ru  Ru5  1  0.49486100  0.00000000  0.25000000  1
  Ru  Ru6  1  0.25000000  0.24838000  0.50000000  1
  Ru  Ru7  1  0.75000000  0.25162000  0.50000000  1
  Ru  Ru8  1  0.50513900  0.50000000  0.25000000  1
  Ru  Ru9  1  0.99486100  0.50000000  0.75000000  1
  Ru  Ru10  1  0.75000000  0.74838000  0.00000000  1
  Ru  Ru11  1  0.25000000  0.75162000  0.00000000  1
  O  O12  1  0.00000000  0.75000000  0.67418300  1
  O  O13  1  0.00000000  0.25000000  0.44952900  1
  O  O14  1  0.69227050  0.04222050  0.37967050  1
  O  O15  1  0.80772950  0.95777950  0.87967050  1
  O  O16  1  0.18721750  0.95259150  0.87948850  1
  O  O17  1  0.31278250  0.04740850  0.37948850  1
  O  O18  1  0.00000000  0.75000000  0.38703800  1
  O  O19  1  0.31278250  0.95259150  0.12051150  1
  O  O20  1  0.69227050  0.95777950  0.12032950  1
  O  O21  1  0.18721750  0.04740850  0.62051150  1
  O  O22  1  0.50000000  0.75000000  0.61296200  1
  O  O23  1  0.80772950  0.04222050  0.62032950  1
  O  O24  1  0.50000000  0.25000000  0.55047100  1
  O  O25  1  0.50000000  0.75000000  0.32581700  1
  O  O26  1  0.50000000  0.25000000  0.17418300  1
  O  O27  1  0.50000000  0.75000000  0.94952900  1
  O  O28  1  0.19227050  0.54222050  0.87967050  1
  O  O29  1  0.30772950  0.45777950  0.37967050  1
  O  O30  1  0.68721750  0.45259150  0.37948850  1
  O  O31  1  0.81278250  0.54740850  0.87948850  1
  O  O32  1  0.50000000  0.25000000  0.88703800  1
  O  O33  1  0.81278250  0.45259150  0.62051150  1
  O  O34  1  0.19227050  0.45777950  0.62032950  1
  O  O35  1  0.68721750  0.54740850  0.12051150  1
  O  O36  1  0.00000000  0.25000000  0.11296200  1
  O  O37  1  0.30772950  0.54222050  0.12032950  1
  O  O38  1  0.00000000  0.75000000  0.05047100  1
  O  O39  1  0.00000000  0.25000000  0.82581700  1
