# generated using pymatgen
data_MnCu3(PO4)4
_symmetry_space_group_name_H-M   'P 1'
_cell_length_a   4.88253000
_cell_length_b   5.94054300
_cell_length_c   9.74890538
_cell_angle_alpha   90.00000000
_cell_angle_beta   90.94336046
_cell_angle_gamma   90.00000000
_symmetry_Int_Tables_number   1
_chemical_formula_structural   MnCu3(PO4)4
_chemical_formula_sum   'Mn1 Cu3 P4 O16'
_cell_volume   282.72749850
_cell_formula_units_Z   1
loop_
 _symmetry_equiv_pos_site_id
 _symmetry_equiv_pos_as_xyz
  1  'x, y, z'
loop_
 _atom_site_type_symbol
 _atom_site_label
 _atom_site_symmetry_multiplicity
 _atom_site_fract_x
 _atom_site_fract_y
 _atom_site_fract_z
 _atom_site_occupancy
  Mn  Mn0  1  0.06144500  0.00000000  0.28508500  1
  Cu  Cu1  1  0.92917700  0.50000000  0.71502100  1
  Cu  Cu2  1  0.59742500  0.50000000  0.21074900  1
  Cu  Cu3  1  0.42586000  0.00000000  0.78257000  1
  P  P4  1  0.90767600  0.00000000  0.59834800  1
  P  P5  1  0.58278900  0.00000000  0.09632700  1
  P  P6  1  0.42262200  0.50000000  0.89998400  1
  P  P7  1  0.08382300  0.50000000  0.40335000  1
  O  O8  1  0.83763400  0.00000000  0.44282200  1
  O  O9  1  0.76164700  0.79755900  0.67038600  1
  O  O10  1  0.76164700  0.20244100  0.67038600  1
  O  O11  1  0.76794700  0.50000000  0.38335900  1
  O  O12  1  0.73481700  0.50000000  0.88088800  1
  O  O13  1  0.74106000  0.80061600  0.17006300  1
  O  O14  1  0.74106000  0.19938400  0.17006300  1
  O  O15  1  0.64787200  0.00000000  0.94216400  1
  O  O16  1  0.36902400  0.50000000  0.05635800  1
  O  O17  1  0.26634900  0.29788100  0.83029100  1
  O  O18  1  0.26634900  0.70211900  0.83029100  1
  O  O19  1  0.27418900  0.00000000  0.12054600  1
  O  O20  1  0.22262300  0.00000000  0.61491700  1
  O  O21  1  0.22485700  0.29491200  0.33333100  1
  O  O22  1  0.22485700  0.70508800  0.33333100  1
  O  O23  1  0.14724600  0.50000000  0.55937500  1
