# generated using pymatgen
data_Li2TiCo2O5
_symmetry_space_group_name_H-M   'P 1'
_cell_length_a   5.13452600
_cell_length_b   14.83749600
_cell_length_c   5.15055315
_cell_angle_alpha   90.00000000
_cell_angle_beta   109.78319234
_cell_angle_gamma   90.00000000
_symmetry_Int_Tables_number   1
_chemical_formula_structural   Li2TiCo2O5
_chemical_formula_sum   'Li8 Ti4 Co8 O20'
_cell_volume   369.22855678
_cell_formula_units_Z   4
loop_
 _symmetry_equiv_pos_site_id
 _symmetry_equiv_pos_as_xyz
  1  'x, y, z'
loop_
 _atom_site_type_symbol
 _atom_site_label
 _atom_site_symmetry_multiplicity
 _atom_site_fract_x
 _atom_site_fract_y
 _atom_site_fract_z
 _atom_site_occupancy
  Li  Li0  1  0.50000000  0.40027200  0.00000000  1
  Li  Li1  1  0.50000000  0.00006900  0.00000000  1
  Li  Li2  1  0.00000000  0.40037600  0.50000000  1
  Li  Li3  1  0.00000000  0.20402700  0.50000000  1
  Li  Li4  1  0.00000000  0.90027200  0.00000000  1
  Li  Li5  1  0.00000000  0.50006900  0.00000000  1
  Li  Li6  1  0.50000000  0.90037600  0.50000000  1
  Li  Li7  1  0.50000000  0.70402700  0.50000000  1
  Ti  Ti8  1  0.00000000  0.30923200  0.00000000  1
  Ti  Ti9  1  0.00000000  0.00357600  0.50000000  1
  Ti  Ti10  1  0.50000000  0.80923200  0.00000000  1
  Ti  Ti11  1  0.50000000  0.50357600  0.50000000  1
  Co  Co12  1  0.50000000  0.19891700  0.00000000  1
  Co  Co13  1  0.50000000  0.30067600  0.50000000  1
  Co  Co14  1  0.50000000  0.10017000  0.50000000  1
  Co  Co15  1  0.00000000  0.09692400  0.00000000  1
  Co  Co16  1  0.00000000  0.69891700  0.00000000  1
  Co  Co17  1  0.00000000  0.80067600  0.50000000  1
  Co  Co18  1  0.00000000  0.60017000  0.50000000  1
  Co  Co19  1  0.50000000  0.59692400  0.00000000  1
  O  O20  1  0.76011350  0.09291550  0.25730700  1
  O  O21  1  0.75702450  0.20387250  0.75938600  1
  O  O22  1  0.24622100  0.39865300  0.24714700  1
  O  O23  1  0.24297550  0.20387250  0.24061400  1
  O  O24  1  0.23988650  0.09291550  0.74269300  1
  O  O25  1  0.76503750  0.00054350  0.72925700  1
  O  O26  1  0.23503550  0.29938650  0.77019200  1
  O  O27  1  0.23496250  0.00054350  0.27074300  1
  O  O28  1  0.76496450  0.29938650  0.22980800  1
  O  O29  1  0.75377900  0.39865300  0.75285300  1
  O  O30  1  0.26011350  0.59291550  0.25730700  1
  O  O31  1  0.25702450  0.70387250  0.75938600  1
  O  O32  1  0.74622100  0.89865300  0.24714700  1
  O  O33  1  0.74297550  0.70387250  0.24061400  1
  O  O34  1  0.73988650  0.59291550  0.74269300  1
  O  O35  1  0.26503750  0.50054350  0.72925700  1
  O  O36  1  0.73503550  0.79938650  0.77019200  1
  O  O37  1  0.73496250  0.50054350  0.27074300  1
  O  O38  1  0.26496450  0.79938650  0.22980800  1
  O  O39  1  0.25377900  0.89865300  0.75285300  1
