# generated using pymatgen
data_Cu2OF2
_symmetry_space_group_name_H-M   'P 1'
_cell_length_a   9.02373400
_cell_length_b   5.26637600
_cell_length_c   13.95934723
_cell_angle_alpha   90.00000000
_cell_angle_beta   91.89660518
_cell_angle_gamma   90.00000000
_symmetry_Int_Tables_number   1
_chemical_formula_structural   Cu2OF2
_chemical_formula_sum   'Cu24 O12 F24'
_cell_volume   663.01793558
_cell_formula_units_Z   12
loop_
 _symmetry_equiv_pos_site_id
 _symmetry_equiv_pos_as_xyz
  1  'x, y, z'
loop_
 _atom_site_type_symbol
 _atom_site_label
 _atom_site_symmetry_multiplicity
 _atom_site_fract_x
 _atom_site_fract_y
 _atom_site_fract_z
 _atom_site_occupancy
  Cu  Cu0  1  0.49228650  0.44622550  0.84755800  1
  Cu  Cu1  1  0.49228650  0.55377450  0.34755800  1
  Cu  Cu2  1  0.36360250  0.94673750  0.68253700  1
  Cu  Cu3  1  0.34806300  0.98420700  0.98521200  1
  Cu  Cu4  1  0.36360250  0.05326250  0.18253700  1
  Cu  Cu5  1  0.34806300  0.01579300  0.48521200  1
  Cu  Cu6  1  0.65193700  0.98420700  0.51478800  1
  Cu  Cu7  1  0.63639750  0.94673750  0.81746300  1
  Cu  Cu8  1  0.65193700  0.01579300  0.01478800  1
  Cu  Cu9  1  0.63639750  0.05326250  0.31746300  1
  Cu  Cu10  1  0.50771350  0.44622550  0.65244200  1
  Cu  Cu11  1  0.50771350  0.55377450  0.15244200  1
  Cu  Cu12  1  0.99228650  0.94622550  0.84755800  1
  Cu  Cu13  1  0.99228650  0.05377450  0.34755800  1
  Cu  Cu14  1  0.86360250  0.44673750  0.68253700  1
  Cu  Cu15  1  0.84806300  0.48420700  0.98521200  1
  Cu  Cu16  1  0.86360250  0.55326250  0.18253700  1
  Cu  Cu17  1  0.84806300  0.51579300  0.48521200  1
  Cu  Cu18  1  0.15193700  0.48420700  0.51478800  1
  Cu  Cu19  1  0.13639750  0.44673750  0.81746300  1
  Cu  Cu20  1  0.15193700  0.51579300  0.01478800  1
  Cu  Cu21  1  0.13639750  0.55326250  0.31746300  1
  Cu  Cu22  1  0.00771350  0.94622550  0.65244200  1
  Cu  Cu23  1  0.00771350  0.05377450  0.15244200  1
  O  O24  1  0.49224850  0.11556650  0.58820900  1
  O  O25  1  0.49224850  0.88443350  0.08820900  1
  O  O26  1  0.50775150  0.11556650  0.91179100  1
  O  O27  1  0.50775150  0.88443350  0.41179100  1
  O  O28  1  0.50000000  0.72456300  0.75000000  1
  O  O29  1  0.50000000  0.27543700  0.25000000  1
  O  O30  1  0.99224850  0.61556650  0.58820900  1
  O  O31  1  0.99224850  0.38443350  0.08820900  1
  O  O32  1  0.00775150  0.61556650  0.91179100  1
  O  O33  1  0.00775150  0.38443350  0.41179100  1
  O  O34  1  0.00000000  0.22456300  0.75000000  1
  O  O35  1  0.00000000  0.77543700  0.25000000  1
  F  F36  1  0.32395650  0.30451150  0.76321000  1
  F  F37  1  0.32395650  0.69548850  0.26321000  1
  F  F38  1  0.83608050  0.10404350  0.58204500  1
  F  F39  1  0.83608050  0.89595650  0.08204500  1
  F  F40  1  0.79576800  0.10882800  0.91402400  1
  F  F41  1  0.79576800  0.89117200  0.41402400  1
  F  F42  1  0.20423200  0.10882800  0.58597600  1
  F  F43  1  0.20423200  0.89117200  0.08597600  1
  F  F44  1  0.16391950  0.10404350  0.91795500  1
  F  F45  1  0.16391950  0.89595650  0.41795500  1
  F  F46  1  0.67604350  0.30451150  0.73679000  1
  F  F47  1  0.67604350  0.69548850  0.23679000  1
  F  F48  1  0.82395650  0.80451150  0.76321000  1
  F  F49  1  0.82395650  0.19548850  0.26321000  1
  F  F50  1  0.33608050  0.60404350  0.58204500  1
  F  F51  1  0.33608050  0.39595650  0.08204500  1
  F  F52  1  0.29576800  0.60882800  0.91402400  1
  F  F53  1  0.29576800  0.39117200  0.41402400  1
  F  F54  1  0.70423200  0.60882800  0.58597600  1
  F  F55  1  0.70423200  0.39117200  0.08597600  1
  F  F56  1  0.66391950  0.60404350  0.91795500  1
  F  F57  1  0.66391950  0.39595650  0.41795500  1
  F  F58  1  0.17604350  0.80451150  0.73679000  1
  F  F59  1  0.17604350  0.19548850  0.23679000  1
