# generated using pymatgen
data_VBiO3
_symmetry_space_group_name_H-M   'P 1'
_cell_length_a   5.49757726
_cell_length_b   5.77946400
_cell_length_c   7.88117863
_cell_angle_alpha   90.00000000
_cell_angle_beta   90.00000000
_cell_angle_gamma   90.00000000
_symmetry_Int_Tables_number   1
_chemical_formula_structural   VBiO3
_chemical_formula_sum   'V4 Bi4 O12'
_cell_volume   250.40908168
_cell_formula_units_Z   4
loop_
 _symmetry_equiv_pos_site_id
 _symmetry_equiv_pos_as_xyz
  1  'x, y, z'
loop_
 _atom_site_type_symbol
 _atom_site_label
 _atom_site_symmetry_multiplicity
 _atom_site_fract_x
 _atom_site_fract_y
 _atom_site_fract_z
 _atom_site_occupancy
  V  V0  1  0.50000000  0.50000000  0.00000000  1
  V  V1  1  0.50000000  0.50000000  0.50000000  1
  V  V2  1  0.00000000  0.00000000  0.00000000  1
  V  V3  1  0.00000000  0.00000000  0.50000000  1
  Bi  Bi4  1  0.51190750  0.95572200  0.25000000  1
  Bi  Bi5  1  0.98809250  0.45572200  0.25000000  1
  Bi  Bi6  1  0.01190750  0.54427800  0.75000000  1
  Bi  Bi7  1  0.48809250  0.04427800  0.75000000  1
  O  O8  1  0.60020350  0.46875600  0.75000000  1
  O  O9  1  0.69213350  0.19988100  0.45084550  1
  O  O10  1  0.69213350  0.19988100  0.04915450  1
  O  O11  1  0.80786650  0.69988100  0.45084550  1
  O  O12  1  0.80786650  0.69988100  0.04915450  1
  O  O13  1  0.89979650  0.96875600  0.75000000  1
  O  O14  1  0.10020350  0.03124400  0.25000000  1
  O  O15  1  0.19213350  0.30011900  0.95084550  1
  O  O16  1  0.19213350  0.30011900  0.54915450  1
  O  O17  1  0.30786650  0.80011900  0.95084550  1
  O  O18  1  0.30786650  0.80011900  0.54915450  1
  O  O19  1  0.39979650  0.53124400  0.25000000  1
