# generated using pymatgen
data_Li3Mn7O16
_symmetry_space_group_name_H-M   'P 1'
_cell_length_a   5.83018596
_cell_length_b   5.83018596
_cell_length_c   28.39724729
_cell_angle_alpha   90.00000000
_cell_angle_beta   90.00000000
_cell_angle_gamma   120.00000000
_symmetry_Int_Tables_number   1
_chemical_formula_structural   Li3Mn7O16
_chemical_formula_sum   'Li9 Mn21 O48'
_cell_volume   835.93342246
_cell_formula_units_Z   3
loop_
 _symmetry_equiv_pos_site_id
 _symmetry_equiv_pos_as_xyz
  1  'x, y, z'
loop_
 _atom_site_type_symbol
 _atom_site_label
 _atom_site_symmetry_multiplicity
 _atom_site_fract_x
 _atom_site_fract_y
 _atom_site_fract_z
 _atom_site_occupancy
  Li  Li0  1  0.00000000  0.00000000  0.31104900  1
  Li  Li1  1  0.00000000  0.00000000  0.18922900  1
  Li  Li2  1  0.66666667  0.33333333  0.14366433  1
  Li  Li3  1  0.66666667  0.33333333  0.64438233  1
  Li  Li4  1  0.66666667  0.33333333  0.52256233  1
  Li  Li5  1  0.33333333  0.66666667  0.47699767  1
  Li  Li6  1  0.33333333  0.66666667  0.97771567  1
  Li  Li7  1  0.33333333  0.66666667  0.85589567  1
  Li  Li8  1  0.00000000  0.00000000  0.81033100  1
  Mn  Mn9  1  0.00676333  0.50338167  0.24830167  1
  Mn  Mn10  1  0.00000000  0.00000000  0.00100800  1
  Mn  Mn11  1  0.49661833  0.50338167  0.24830167  1
  Mn  Mn12  1  0.16903133  0.83096867  0.08500167  1
  Mn  Mn13  1  0.49661833  0.99323667  0.24830167  1
  Mn  Mn14  1  0.66193733  0.83096867  0.08500167  1
  Mn  Mn15  1  0.16903133  0.33806267  0.08500167  1
  Mn  Mn16  1  0.67343000  0.83671500  0.58163500  1
  Mn  Mn17  1  0.66666667  0.33333333  0.33434133  1
  Mn  Mn18  1  0.16328500  0.83671500  0.58163500  1
  Mn  Mn19  1  0.83569800  0.16430200  0.41833500  1
  Mn  Mn20  1  0.16328500  0.32657000  0.58163500  1
  Mn  Mn21  1  0.32860400  0.16430200  0.41833500  1
  Mn  Mn22  1  0.83569800  0.67139600  0.41833500  1
  Mn  Mn23  1  0.34009667  0.17004833  0.91496833  1
  Mn  Mn24  1  0.33333333  0.66666667  0.66767467  1
  Mn  Mn25  1  0.82995167  0.17004833  0.91496833  1
  Mn  Mn26  1  0.50236467  0.49763533  0.75166833  1
  Mn  Mn27  1  0.82995167  0.65990333  0.91496833  1
  Mn  Mn28  1  0.99527067  0.49763533  0.75166833  1
  Mn  Mn29  1  0.50236467  0.00472933  0.75166833  1
  O  O30  1  0.17527567  0.35055133  0.21570233  1
  O  O31  1  0.17527567  0.82472433  0.21570233  1
  O  O32  1  0.66666667  0.33333333  0.21366033  1
  O  O33  1  0.33333333  0.66666667  0.04839967  1
  O  O34  1  0.81408067  0.18591933  0.28932733  1
  O  O35  1  0.37183867  0.18591933  0.28932733  1
  O  O36  1  0.81408067  0.62816133  0.28932733  1
  O  O37  1  0.01803933  0.50901967  0.11759967  1
  O  O38  1  0.29087867  0.14543933  0.04455933  1
  O  O39  1  0.85456067  0.70912133  0.04455933  1
  O  O40  1  0.64944867  0.82472433  0.21570233  1
  O  O41  1  0.85456067  0.14543933  0.04455933  1
  O  O42  1  0.00000000  0.00000000  0.12002900  1
  O  O43  1  0.33333333  0.66666667  0.28398267  1
  O  O44  1  0.49098033  0.50901967  0.11759967  1
  O  O45  1  0.49098033  0.98196067  0.11759967  1
  O  O46  1  0.84194233  0.68388467  0.54903567  1
  O  O47  1  0.84194233  0.15805767  0.54903567  1
  O  O48  1  0.33333333  0.66666667  0.54699367  1
  O  O49  1  0.00000000  0.00000000  0.38173300  1
  O  O50  1  0.48074733  0.51925267  0.62266067  1
  O  O51  1  0.03850533  0.51925267  0.62266067  1
  O  O52  1  0.48074733  0.96149467  0.62266067  1
  O  O53  1  0.68470600  0.84235300  0.45093300  1
  O  O54  1  0.95754533  0.47877267  0.37789267  1
  O  O55  1  0.52122733  0.04245467  0.37789267  1
  O  O56  1  0.31611533  0.15805767  0.54903567  1
  O  O57  1  0.52122733  0.47877267  0.37789267  1
  O  O58  1  0.66666667  0.33333333  0.45336233  1
  O  O59  1  0.00000000  0.00000000  0.61731600  1
  O  O60  1  0.15764700  0.84235300  0.45093300  1
  O  O61  1  0.15764700  0.31529400  0.45093300  1
  O  O62  1  0.50860900  0.01721800  0.88236900  1
  O  O63  1  0.50860900  0.49139100  0.88236900  1
  O  O64  1  0.00000000  0.00000000  0.88032700  1
  O  O65  1  0.66666667  0.33333333  0.71506633  1
  O  O66  1  0.14741400  0.85258600  0.95599400  1
  O  O67  1  0.70517200  0.85258600  0.95599400  1
  O  O68  1  0.14741400  0.29482800  0.95599400  1
  O  O69  1  0.35137267  0.17568633  0.78426633  1
  O  O70  1  0.62421200  0.81210600  0.71122600  1
  O  O71  1  0.18789400  0.37578800  0.71122600  1
  O  O72  1  0.98278200  0.49139100  0.88236900  1
  O  O73  1  0.18789400  0.81210600  0.71122600  1
  O  O74  1  0.33333333  0.66666667  0.78669567  1
  O  O75  1  0.66666667  0.33333333  0.95064933  1
  O  O76  1  0.82431367  0.17568633  0.78426633  1
  O  O77  1  0.82431367  0.64862733  0.78426633  1
