# generated using pymatgen
data_Fe4OF7
_symmetry_space_group_name_H-M   'P 1'
_cell_length_a   6.38544400
_cell_length_b   13.62404200
_cell_length_c   6.89984200
_cell_angle_alpha   90.00000000
_cell_angle_beta   90.00000000
_cell_angle_gamma   90.00000000
_symmetry_Int_Tables_number   1
_chemical_formula_structural   Fe4OF7
_chemical_formula_sum   'Fe16 O4 F28'
_cell_volume   600.25559969
_cell_formula_units_Z   4
loop_
 _symmetry_equiv_pos_site_id
 _symmetry_equiv_pos_as_xyz
  1  'x, y, z'
loop_
 _atom_site_type_symbol
 _atom_site_label
 _atom_site_symmetry_multiplicity
 _atom_site_fract_x
 _atom_site_fract_y
 _atom_site_fract_z
 _atom_site_occupancy
  Fe  Fe0  1  0.26987100  0.74483100  0.00000000  1
  Fe  Fe1  1  0.73012900  0.74483100  0.00000000  1
  Fe  Fe2  1  0.50000000  0.75258400  0.50000000  1
  Fe  Fe3  1  0.00000000  0.75470000  0.50000000  1
  Fe  Fe4  1  0.00000000  0.50345300  0.00000000  1
  Fe  Fe5  1  0.50000000  0.50486400  0.00000000  1
  Fe  Fe6  1  0.72852400  0.99414500  0.50000000  1
  Fe  Fe7  1  0.27147600  0.99414500  0.50000000  1
  Fe  Fe8  1  0.76987100  0.24483100  0.00000000  1
  Fe  Fe9  1  0.23012900  0.24483100  0.00000000  1
  Fe  Fe10  1  0.00000000  0.25258400  0.50000000  1
  Fe  Fe11  1  0.50000000  0.25470000  0.50000000  1
  Fe  Fe12  1  0.50000000  0.00345300  0.00000000  1
  Fe  Fe13  1  0.00000000  0.00486400  0.00000000  1
  Fe  Fe14  1  0.22852400  0.49414500  0.50000000  1
  Fe  Fe15  1  0.77147600  0.49414500  0.50000000  1
  O  O16  1  0.50000000  0.65142000  0.00000000  1
  O  O17  1  0.50000000  0.89985100  0.50000000  1
  O  O18  1  0.00000000  0.15142000  0.00000000  1
  O  O19  1  0.00000000  0.39985100  0.50000000  1
  F  F20  1  0.00000000  0.65307400  0.00000000  1
  F  F21  1  0.24485000  0.74971900  0.29328300  1
  F  F22  1  0.75515000  0.74971900  0.29328300  1
  F  F23  1  0.24485000  0.74971900  0.70671700  1
  F  F24  1  0.74682200  0.99988400  0.20644000  1
  F  F25  1  0.25317800  0.99988400  0.20644000  1
  F  F26  1  0.75515000  0.74971900  0.70671700  1
  F  F27  1  0.50000000  0.85435800  0.00000000  1
  F  F28  1  0.00000000  0.84567100  0.00000000  1
  F  F29  1  0.00000000  0.60469000  0.50000000  1
  F  F30  1  0.50000000  0.59485400  0.50000000  1
  F  F31  1  0.00000000  0.90412100  0.50000000  1
  F  F32  1  0.74682200  0.99988400  0.79356000  1
  F  F33  1  0.25317800  0.99988400  0.79356000  1
  F  F34  1  0.50000000  0.15307400  0.00000000  1
  F  F35  1  0.74485000  0.24971900  0.29328300  1
  F  F36  1  0.25515000  0.24971900  0.29328300  1
  F  F37  1  0.74485000  0.24971900  0.70671700  1
  F  F38  1  0.24682200  0.49988400  0.20644000  1
  F  F39  1  0.75317800  0.49988400  0.20644000  1
  F  F40  1  0.25515000  0.24971900  0.70671700  1
  F  F41  1  0.00000000  0.35435800  0.00000000  1
  F  F42  1  0.50000000  0.34567100  0.00000000  1
  F  F43  1  0.50000000  0.10469000  0.50000000  1
  F  F44  1  0.00000000  0.09485400  0.50000000  1
  F  F45  1  0.50000000  0.40412100  0.50000000  1
  F  F46  1  0.24682200  0.49988400  0.79356000  1
  F  F47  1  0.75317800  0.49988400  0.79356000  1
