# generated using pymatgen
data_Li6MnO6
_symmetry_space_group_name_H-M   'P 1'
_cell_length_a   5.78134350
_cell_length_b   5.78134350
_cell_length_c   12.93178130
_cell_angle_alpha   90.00000000
_cell_angle_beta   90.00000000
_cell_angle_gamma   120.00000000
_symmetry_Int_Tables_number   1
_chemical_formula_structural   Li6MnO6
_chemical_formula_sum   'Li18 Mn3 O18'
_cell_volume   374.32301583
_cell_formula_units_Z   3
loop_
 _symmetry_equiv_pos_site_id
 _symmetry_equiv_pos_as_xyz
  1  'x, y, z'
loop_
 _atom_site_type_symbol
 _atom_site_label
 _atom_site_symmetry_multiplicity
 _atom_site_fract_x
 _atom_site_fract_y
 _atom_site_fract_z
 _atom_site_occupancy
  Li  Li0  1  0.04673167  0.73116933  0.23820433  1
  Li  Li1  1  0.98222900  0.38006500  0.09512900  1
  Li  Li2  1  0.39783600  0.01777100  0.09512900  1
  Li  Li3  1  0.26883067  0.31556233  0.23820433  1
  Li  Li4  1  0.68443767  0.95326833  0.23820433  1
  Li  Li5  1  0.61993500  0.60216400  0.09512900  1
  Li  Li6  1  0.71339833  0.06450267  0.57153767  1
  Li  Li7  1  0.64889567  0.71339833  0.42846233  1
  Li  Li8  1  0.06450267  0.35110433  0.42846233  1
  Li  Li9  1  0.93549733  0.64889567  0.57153767  1
  Li  Li10  1  0.35110433  0.28660167  0.57153767  1
  Li  Li11  1  0.28660167  0.93549733  0.42846233  1
  Li  Li12  1  0.38006500  0.39783600  0.90487100  1
  Li  Li13  1  0.31556233  0.04673167  0.76179567  1
  Li  Li14  1  0.73116933  0.68443767  0.76179567  1
  Li  Li15  1  0.60216400  0.98222900  0.90487100  1
  Li  Li16  1  0.01777100  0.61993500  0.90487100  1
  Li  Li17  1  0.95326833  0.26883067  0.76179567  1
  Mn  Mn18  1  0.00000000  0.00000000  0.00000000  1
  Mn  Mn19  1  0.66666667  0.33333333  0.33333333  1
  Mn  Mn20  1  0.33333333  0.66666667  0.66666667  1
  O  O21  1  0.01254167  0.72896733  0.08095833  1
  O  O22  1  0.95024100  0.34587500  0.25237500  1
  O  O23  1  0.39563400  0.04975900  0.25237500  1
  O  O24  1  0.27103267  0.28357433  0.08095833  1
  O  O25  1  0.71642567  0.98745833  0.08095833  1
  O  O26  1  0.65412500  0.60436600  0.25237500  1
  O  O27  1  0.67920833  0.06230067  0.41429167  1
  O  O28  1  0.61690767  0.67920833  0.58570833  1
  O  O29  1  0.06230067  0.38309233  0.58570833  1
  O  O30  1  0.93769933  0.61690767  0.41429167  1
  O  O31  1  0.38309233  0.32079167  0.41429167  1
  O  O32  1  0.32079167  0.93769933  0.58570833  1
  O  O33  1  0.34587500  0.39563400  0.74762500  1
  O  O34  1  0.28357433  0.01254167  0.91904167  1
  O  O35  1  0.72896733  0.71642567  0.91904167  1
  O  O36  1  0.60436600  0.95024100  0.74762500  1
  O  O37  1  0.04975900  0.65412500  0.74762500  1
  O  O38  1  0.98745833  0.27103267  0.91904167  1
