# generated using pymatgen
data_Li4Ti2Nb3Cu3O16
_symmetry_space_group_name_H-M   'P 1'
_cell_length_a   10.71122600
_cell_length_b   6.04396000
_cell_length_c   9.87946155
_cell_angle_alpha   90.00000000
_cell_angle_beta   93.87446151
_cell_angle_gamma   90.00000000
_symmetry_Int_Tables_number   1
_chemical_formula_structural   Li4Ti2Nb3Cu3O16
_chemical_formula_sum   'Li8 Ti4 Nb6 Cu6 O32'
_cell_volume   638.11701017
_cell_formula_units_Z   2
loop_
 _symmetry_equiv_pos_site_id
 _symmetry_equiv_pos_as_xyz
  1  'x, y, z'
loop_
 _atom_site_type_symbol
 _atom_site_label
 _atom_site_symmetry_multiplicity
 _atom_site_fract_x
 _atom_site_fract_y
 _atom_site_fract_z
 _atom_site_occupancy
  Li  Li0  1  0.66708400  0.00000000  0.08783800  1
  Li  Li1  1  0.50526900  0.50000000  0.00013500  1
  Li  Li2  1  0.52564800  0.50000000  0.52138800  1
  Li  Li3  1  0.83745600  0.50000000  0.60512800  1
  Li  Li4  1  0.16708400  0.50000000  0.08783800  1
  Li  Li5  1  0.00526900  0.00000000  0.00013500  1
  Li  Li6  1  0.02564800  0.00000000  0.52138800  1
  Li  Li7  1  0.33745600  0.00000000  0.60512800  1
  Ti  Ti8  1  0.63653100  0.00000000  0.52729300  1
  Ti  Ti9  1  0.82450500  0.50000000  0.99106000  1
  Ti  Ti10  1  0.13653100  0.50000000  0.52729300  1
  Ti  Ti11  1  0.32450500  0.00000000  0.99106000  1
  Nb  Nb12  1  0.82371500  0.00000000  0.77141000  1
  Nb  Nb13  1  0.90965750  0.25060350  0.28203800  1
  Nb  Nb14  1  0.90965750  0.74939650  0.28203800  1
  Nb  Nb15  1  0.32371500  0.50000000  0.77141000  1
  Nb  Nb16  1  0.40965750  0.75060350  0.28203800  1
  Nb  Nb17  1  0.40965750  0.24939650  0.28203800  1
  Cu  Cu18  1  0.58373400  0.75431100  0.79578400  1
  Cu  Cu19  1  0.58373400  0.24568900  0.79578400  1
  Cu  Cu20  1  0.67137400  0.50000000  0.29346700  1
  Cu  Cu21  1  0.08373400  0.25431100  0.79578400  1
  Cu  Cu22  1  0.08373400  0.74568900  0.79578400  1
  Cu  Cu23  1  0.17137400  0.00000000  0.29346700  1
  O  O24  1  0.57411800  0.76261800  0.41269600  1
  O  O25  1  0.52186000  0.00000000  0.65280400  1
  O  O26  1  0.67199500  0.00000000  0.88741900  1
  O  O27  1  0.99750400  0.00000000  0.70793700  1
  O  O28  1  0.99852700  0.00000000  0.19039100  1
  O  O29  1  0.57411800  0.23738200  0.41269600  1
  O  O30  1  0.75488600  0.78727100  0.64052000  1
  O  O31  1  0.75488600  0.21272900  0.64052000  1
  O  O32  1  0.66583600  0.50000000  0.91324500  1
  O  O33  1  0.84490300  0.00000000  0.39045200  1
  O  O34  1  0.77158850  0.27011250  0.15132900  1
  O  O35  1  0.77158850  0.72988750  0.15132900  1
  O  O36  1  0.84626700  0.50000000  0.39711700  1
  O  O37  1  0.89529400  0.25180200  0.90988200  1
  O  O38  1  0.98431500  0.50000000  0.17055700  1
  O  O39  1  0.89529400  0.74819800  0.90988200  1
  O  O40  1  0.07411800  0.26261800  0.41269600  1
  O  O41  1  0.02186000  0.50000000  0.65280400  1
  O  O42  1  0.17199500  0.50000000  0.88741900  1
  O  O43  1  0.49750400  0.50000000  0.70793700  1
  O  O44  1  0.49852700  0.50000000  0.19039100  1
  O  O45  1  0.07411800  0.73738200  0.41269600  1
  O  O46  1  0.25488600  0.28727100  0.64052000  1
  O  O47  1  0.25488600  0.71272900  0.64052000  1
  O  O48  1  0.16583600  0.00000000  0.91324500  1
  O  O49  1  0.34490300  0.50000000  0.39045200  1
  O  O50  1  0.27158850  0.77011250  0.15132900  1
  O  O51  1  0.27158850  0.22988750  0.15132900  1
  O  O52  1  0.34626700  0.00000000  0.39711700  1
  O  O53  1  0.39529400  0.75180200  0.90988200  1
  O  O54  1  0.48431500  0.00000000  0.17055700  1
  O  O55  1  0.39529400  0.24819800  0.90988200  1
