# generated using pymatgen
data_DyWO4
_symmetry_space_group_name_H-M   'P 1'
_cell_length_a   5.27543000
_cell_length_b   5.27543000
_cell_length_c   11.11424200
_cell_angle_alpha   90.00000000
_cell_angle_beta   90.00000000
_cell_angle_gamma   90.00000000
_symmetry_Int_Tables_number   1
_chemical_formula_structural   DyWO4
_chemical_formula_sum   'Dy4 W4 O16'
_cell_volume   309.31115187
_cell_formula_units_Z   4
loop_
 _symmetry_equiv_pos_site_id
 _symmetry_equiv_pos_as_xyz
  1  'x, y, z'
loop_
 _atom_site_type_symbol
 _atom_site_label
 _atom_site_symmetry_multiplicity
 _atom_site_fract_x
 _atom_site_fract_y
 _atom_site_fract_z
 _atom_site_occupancy
  Dy  Dy0  1  0.50000000  0.00000000  0.25000000  1
  Dy  Dy1  1  0.50000000  0.50000000  0.00000000  1
  Dy  Dy2  1  0.00000000  0.50000000  0.75000000  1
  Dy  Dy3  1  0.00000000  0.00000000  0.50000000  1
  W  W4  1  0.00000000  0.00000000  0.00000000  1
  W  W5  1  0.00000000  0.50000000  0.25000000  1
  W  W6  1  0.50000000  0.50000000  0.50000000  1
  W  W7  1  0.50000000  0.00000000  0.75000000  1
  O  O8  1  0.18052950  0.75723650  0.33518950  1
  O  O9  1  0.25723650  0.81947050  0.08518950  1
  O  O10  1  0.74276350  0.18052950  0.08518950  1
  O  O11  1  0.68052950  0.75723650  0.41481050  1
  O  O12  1  0.81947050  0.24276350  0.33518950  1
  O  O13  1  0.25723650  0.31947050  0.16481050  1
  O  O14  1  0.74276350  0.68052950  0.16481050  1
  O  O15  1  0.31947050  0.24276350  0.41481050  1
  O  O16  1  0.68052950  0.25723650  0.83518950  1
  O  O17  1  0.75723650  0.31947050  0.58518950  1
  O  O18  1  0.24276350  0.68052950  0.58518950  1
  O  O19  1  0.18052950  0.25723650  0.91481050  1
  O  O20  1  0.31947050  0.74276350  0.83518950  1
  O  O21  1  0.75723650  0.81947050  0.66481050  1
  O  O22  1  0.24276350  0.18052950  0.66481050  1
  O  O23  1  0.81947050  0.74276350  0.91481050  1
