# generated using pymatgen
data_Li2CoP2O7
_symmetry_space_group_name_H-M   'P 1'
_cell_length_a   7.96152200
_cell_length_b   12.92034000
_cell_length_c   10.99408658
_cell_angle_alpha   90.00000000
_cell_angle_beta   92.15723004
_cell_angle_gamma   90.00000000
_symmetry_Int_Tables_number   1
_chemical_formula_structural   Li2CoP2O7
_chemical_formula_sum   'Li16 Co8 P16 O56'
_cell_volume   1130.11151008
_cell_formula_units_Z   8
loop_
 _symmetry_equiv_pos_site_id
 _symmetry_equiv_pos_as_xyz
  1  'x, y, z'
loop_
 _atom_site_type_symbol
 _atom_site_label
 _atom_site_symmetry_multiplicity
 _atom_site_fract_x
 _atom_site_fract_y
 _atom_site_fract_z
 _atom_site_occupancy
  Li  Li0  1  0.49174950  0.78554850  0.99767200  1
  Li  Li1  1  0.49174950  0.21445150  0.49767200  1
  Li  Li2  1  0.50000000  0.78087600  0.75000000  1
  Li  Li3  1  0.50000000  0.20883400  0.75000000  1
  Li  Li4  1  0.50000000  0.79116600  0.25000000  1
  Li  Li5  1  0.50000000  0.21912400  0.25000000  1
  Li  Li6  1  0.50825050  0.78554850  0.50232800  1
  Li  Li7  1  0.50825050  0.21445150  0.00232800  1
  Li  Li8  1  0.99174950  0.28554850  0.99767200  1
  Li  Li9  1  0.99174950  0.71445150  0.49767200  1
  Li  Li10  1  0.00000000  0.28087600  0.75000000  1
  Li  Li11  1  0.00000000  0.70883400  0.75000000  1
  Li  Li12  1  0.00000000  0.29116600  0.25000000  1
  Li  Li13  1  0.00000000  0.71912400  0.25000000  1
  Li  Li14  1  0.00825050  0.28554850  0.50232800  1
  Li  Li15  1  0.00825050  0.71445150  0.00232800  1
  Co  Co16  1  0.31056850  0.00040050  0.88627000  1
  Co  Co17  1  0.31056850  0.99959950  0.38627000  1
  Co  Co18  1  0.68943150  0.00040050  0.61373000  1
  Co  Co19  1  0.68943150  0.99959950  0.11373000  1
  Co  Co20  1  0.81056850  0.50040050  0.88627000  1
  Co  Co21  1  0.81056850  0.49959950  0.38627000  1
  Co  Co22  1  0.18943150  0.50040050  0.61373000  1
  Co  Co23  1  0.18943150  0.49959950  0.11373000  1
  P  P24  1  0.19451600  0.10469300  0.63122900  1
  P  P25  1  0.19451600  0.89530700  0.13122900  1
  P  P26  1  0.20788150  0.88521550  0.63341000  1
  P  P27  1  0.20788150  0.11478450  0.13341000  1
  P  P28  1  0.79211850  0.88521550  0.86659000  1
  P  P29  1  0.79211850  0.11478450  0.36659000  1
  P  P30  1  0.80548400  0.10469300  0.86877100  1
  P  P31  1  0.80548400  0.89530700  0.36877100  1
  P  P32  1  0.69451600  0.60469300  0.63122900  1
  P  P33  1  0.69451600  0.39530700  0.13122900  1
  P  P34  1  0.70788150  0.38521550  0.63341000  1
  P  P35  1  0.70788150  0.61478450  0.13341000  1
  P  P36  1  0.29211850  0.38521550  0.86659000  1
  P  P37  1  0.29211850  0.61478450  0.36659000  1
  P  P38  1  0.30548400  0.60469300  0.86877100  1
  P  P39  1  0.30548400  0.39530700  0.36877100  1
  O  O40  1  0.09909750  0.99283850  0.62690400  1
  O  O41  1  0.09909750  0.00716150  0.12690400  1
  O  O42  1  0.30690650  0.10889950  0.51905900  1
  O  O43  1  0.30690650  0.89110050  0.01905900  1
  O  O44  1  0.31081400  0.88697600  0.75554000  1
  O  O45  1  0.31081400  0.11302400  0.25554000  1
  O  O46  1  0.30611100  0.10484400  0.74982200  1
  O  O47  1  0.30611100  0.89515600  0.24982200  1
  O  O48  1  0.32631850  0.89118650  0.52464600  1
  O  O49  1  0.32631850  0.10881350  0.02464600  1
  O  O50  1  0.41842450  0.29835050  0.87415000  1
  O  O51  1  0.41842450  0.70164950  0.37415000  1
  O  O52  1  0.44163950  0.68553050  0.87332400  1
  O  O53  1  0.44163950  0.31446950  0.37332400  1
  O  O54  1  0.55836050  0.68553050  0.62667600  1
  O  O55  1  0.55836050  0.31446950  0.12667600  1
  O  O56  1  0.58157550  0.29835050  0.62585000  1
  O  O57  1  0.58157550  0.70164950  0.12585000  1
  O  O58  1  0.67368150  0.89118650  0.97535400  1
  O  O59  1  0.67368150  0.10881350  0.47535400  1
  O  O60  1  0.69388900  0.10484400  0.75017800  1
  O  O61  1  0.69388900  0.89515600  0.25017800  1
  O  O62  1  0.68918600  0.88697600  0.74446000  1
  O  O63  1  0.68918600  0.11302400  0.24446000  1
  O  O64  1  0.69309350  0.10889950  0.98094100  1
  O  O65  1  0.69309350  0.89110050  0.48094100  1
  O  O66  1  0.90090250  0.99283850  0.87309600  1
  O  O67  1  0.90090250  0.00716150  0.37309600  1
  O  O68  1  0.59909750  0.49283850  0.62690400  1
  O  O69  1  0.59909750  0.50716150  0.12690400  1
  O  O70  1  0.80690650  0.60889950  0.51905900  1
  O  O71  1  0.80690650  0.39110050  0.01905900  1
  O  O72  1  0.81081400  0.38697600  0.75554000  1
  O  O73  1  0.81081400  0.61302400  0.25554000  1
  O  O74  1  0.80611100  0.60484400  0.74982200  1
  O  O75  1  0.80611100  0.39515600  0.24982200  1
  O  O76  1  0.82631850  0.39118650  0.52464600  1
  O  O77  1  0.82631850  0.60881350  0.02464600  1
  O  O78  1  0.91842450  0.79835050  0.87415000  1
  O  O79  1  0.91842450  0.20164950  0.37415000  1
  O  O80  1  0.94163950  0.18553050  0.87332400  1
  O  O81  1  0.94163950  0.81446950  0.37332400  1
  O  O82  1  0.05836050  0.18553050  0.62667600  1
  O  O83  1  0.05836050  0.81446950  0.12667600  1
  O  O84  1  0.08157550  0.79835050  0.62585000  1
  O  O85  1  0.08157550  0.20164950  0.12585000  1
  O  O86  1  0.17368150  0.39118650  0.97535400  1
  O  O87  1  0.17368150  0.60881350  0.47535400  1
  O  O88  1  0.19388900  0.60484400  0.75017800  1
  O  O89  1  0.19388900  0.39515600  0.25017800  1
  O  O90  1  0.18918600  0.38697600  0.74446000  1
  O  O91  1  0.18918600  0.61302400  0.24446000  1
  O  O92  1  0.19309350  0.60889950  0.98094100  1
  O  O93  1  0.19309350  0.39110050  0.48094100  1
  O  O94  1  0.40090250  0.49283850  0.87309600  1
  O  O95  1  0.40090250  0.50716150  0.37309600  1
