# generated using pymatgen
data_Li4MnOF5
_symmetry_space_group_name_H-M   'P 1'
_cell_length_a   5.88614400
_cell_length_b   10.28239400
_cell_length_c   12.90041091
_cell_angle_alpha   90.00000000
_cell_angle_beta   90.11702187
_cell_angle_gamma   90.00000000
_symmetry_Int_Tables_number   1
_chemical_formula_structural   Li4MnOF5
_chemical_formula_sum   'Li24 Mn6 O6 F30'
_cell_volume   780.77834864
_cell_formula_units_Z   6
loop_
 _symmetry_equiv_pos_site_id
 _symmetry_equiv_pos_as_xyz
  1  'x, y, z'
loop_
 _atom_site_type_symbol
 _atom_site_label
 _atom_site_symmetry_multiplicity
 _atom_site_fract_x
 _atom_site_fract_y
 _atom_site_fract_z
 _atom_site_occupancy
  Li  Li0  1  0.50365200  0.16393400  0.78843800  1
  Li  Li1  1  0.50600200  0.16072800  0.48486400  1
  Li  Li2  1  0.66584650  0.33393550  0.62546400  1
  Li  Li3  1  0.67287400  0.32543400  0.32697800  1
  Li  Li4  1  0.16584650  0.16606450  0.62546400  1
  Li  Li5  1  0.99461100  0.00000000  0.79195900  1
  Li  Li6  1  0.17287400  0.17456600  0.32697800  1
  Li  Li7  1  0.98901700  0.00000000  0.48613200  1
  Li  Li8  1  0.00021500  0.00000000  0.17054800  1
  Li  Li9  1  0.00365200  0.33606600  0.78843800  1
  Li  Li10  1  0.00600200  0.33927200  0.48486400  1
  Li  Li11  1  0.64852800  0.00000000  0.32609900  1
  Li  Li12  1  0.00365200  0.66393400  0.78843800  1
  Li  Li13  1  0.00600200  0.66072800  0.48486400  1
  Li  Li14  1  0.16584650  0.83393550  0.62546400  1
  Li  Li15  1  0.17287400  0.82543400  0.32697800  1
  Li  Li16  1  0.66584650  0.66606450  0.62546400  1
  Li  Li17  1  0.49461100  0.50000000  0.79195900  1
  Li  Li18  1  0.67287400  0.67456600  0.32697800  1
  Li  Li19  1  0.48901700  0.50000000  0.48613200  1
  Li  Li20  1  0.50021500  0.50000000  0.17054800  1
  Li  Li21  1  0.50365200  0.83606600  0.78843800  1
  Li  Li22  1  0.50600200  0.83927200  0.48486400  1
  Li  Li23  1  0.14852800  0.50000000  0.32609900  1
  Mn  Mn24  1  0.16531800  0.16683900  0.98053000  1
  Mn  Mn25  1  0.66328300  0.00000000  0.98069100  1
  Mn  Mn26  1  0.66531800  0.33316100  0.98053000  1
  Mn  Mn27  1  0.66531800  0.66683900  0.98053000  1
  Mn  Mn28  1  0.16328300  0.50000000  0.98069100  1
  Mn  Mn29  1  0.16531800  0.83316100  0.98053000  1
  O  O30  1  0.50522100  0.16665800  0.97087700  1
  O  O31  1  0.00522100  0.33334200  0.97087700  1
  O  O32  1  0.00490500  0.00000000  0.96228900  1
  O  O33  1  0.00522100  0.66665800  0.97087700  1
  O  O34  1  0.50522100  0.83334200  0.97087700  1
  O  O35  1  0.50490500  0.50000000  0.96228900  1
  F  F36  1  0.47650100  0.19081500  0.64903700  1
  F  F37  1  0.67094450  0.32916850  0.82745100  1
  F  F38  1  0.66318600  0.33614800  0.48055200  1
  F  F39  1  0.49867050  0.16728850  0.32707400  1
  F  F40  1  0.65187100  0.34747500  0.12368400  1
  F  F41  1  0.17094450  0.17083150  0.82745100  1
  F  F42  1  0.16318600  0.16385200  0.48055200  1
  F  F43  1  0.15187100  0.15252500  0.12368400  1
  F  F44  1  0.04882400  0.00000000  0.65241500  1
  F  F45  1  0.00075600  0.00000000  0.31292900  1
  F  F46  1  0.97650100  0.30918500  0.64903700  1
  F  F47  1  0.65920400  0.00000000  0.82657300  1
  F  F48  1  0.66981300  0.00000000  0.47753400  1
  F  F49  1  0.99867050  0.33271150  0.32707400  1
  F  F50  1  0.69355100  0.00000000  0.12386100  1
  F  F51  1  0.97650100  0.69081500  0.64903700  1
  F  F52  1  0.17094450  0.82916850  0.82745100  1
  F  F53  1  0.16318600  0.83614800  0.48055200  1
  F  F54  1  0.99867050  0.66728850  0.32707400  1
  F  F55  1  0.15187100  0.84747500  0.12368400  1
  F  F56  1  0.67094450  0.67083150  0.82745100  1
  F  F57  1  0.66318600  0.66385200  0.48055200  1
  F  F58  1  0.65187100  0.65252500  0.12368400  1
  F  F59  1  0.54882400  0.50000000  0.65241500  1
  F  F60  1  0.50075600  0.50000000  0.31292900  1
  F  F61  1  0.47650100  0.80918500  0.64903700  1
  F  F62  1  0.15920400  0.50000000  0.82657300  1
  F  F63  1  0.16981300  0.50000000  0.47753400  1
  F  F64  1  0.49867050  0.83271150  0.32707400  1
  F  F65  1  0.19355100  0.50000000  0.12386100  1
