# generated using pymatgen
data_Li4Co(SiO3)3
_symmetry_space_group_name_H-M   'P 1'
_cell_length_a   7.43138000
_cell_length_b   10.14115400
_cell_length_c   10.08281614
_cell_angle_alpha   90.00000000
_cell_angle_beta   91.85907199
_cell_angle_gamma   90.00000000
_symmetry_Int_Tables_number   1
_chemical_formula_structural   Li4Co(SiO3)3
_chemical_formula_sum   'Li16 Co4 Si12 O36'
_cell_volume   759.46898299
_cell_formula_units_Z   4
loop_
 _symmetry_equiv_pos_site_id
 _symmetry_equiv_pos_as_xyz
  1  'x, y, z'
loop_
 _atom_site_type_symbol
 _atom_site_label
 _atom_site_symmetry_multiplicity
 _atom_site_fract_x
 _atom_site_fract_y
 _atom_site_fract_z
 _atom_site_occupancy
  Li  Li0  1  0.28600250  0.90640450  0.20522300  1
  Li  Li1  1  0.35902250  0.17709150  0.79275100  1
  Li  Li2  1  0.50000000  0.95010300  0.50000000  1
  Li  Li3  1  0.50000000  0.50672300  0.50000000  1
  Li  Li4  1  0.50000000  0.86662700  0.00000000  1
  Li  Li5  1  0.50000000  0.50399800  0.00000000  1
  Li  Li6  1  0.64097750  0.17709150  0.20724900  1
  Li  Li7  1  0.71399750  0.90640450  0.79477700  1
  Li  Li8  1  0.78600250  0.40640450  0.20522300  1
  Li  Li9  1  0.85902250  0.67709150  0.79275100  1
  Li  Li10  1  0.00000000  0.45010300  0.50000000  1
  Li  Li11  1  0.00000000  0.00672300  0.50000000  1
  Li  Li12  1  0.00000000  0.36662700  0.00000000  1
  Li  Li13  1  0.00000000  0.00399800  0.00000000  1
  Li  Li14  1  0.14097750  0.67709150  0.20724900  1
  Li  Li15  1  0.21399750  0.40640450  0.79477700  1
  Co  Co16  1  0.49242350  0.67704950  0.25627600  1
  Co  Co17  1  0.50757650  0.67704950  0.74372400  1
  Co  Co18  1  0.99242350  0.17704950  0.25627600  1
  Co  Co19  1  0.00757650  0.17704950  0.74372400  1
  Si  Si20  1  0.22514750  0.88868350  0.75024300  1
  Si  Si21  1  0.29418650  0.22581050  0.49552100  1
  Si  Si22  1  0.31187300  0.17817100  0.05517200  1
  Si  Si23  1  0.68812700  0.17817100  0.94482800  1
  Si  Si24  1  0.70581350  0.22581050  0.50447900  1
  Si  Si25  1  0.77485250  0.88868350  0.24975700  1
  Si  Si26  1  0.72514750  0.38868350  0.75024300  1
  Si  Si27  1  0.79418650  0.72581050  0.49552100  1
  Si  Si28  1  0.81187300  0.67817100  0.05517200  1
  Si  Si29  1  0.18812700  0.67817100  0.94482800  1
  Si  Si30  1  0.20581350  0.72581050  0.50447900  1
  Si  Si31  1  0.27485250  0.38868350  0.24975700  1
  O  O32  1  0.16998750  0.03343150  0.79484700  1
  O  O33  1  0.18148100  0.87032800  0.58632100  1
  O  O34  1  0.18621750  0.06839050  0.12110900  1
  O  O35  1  0.15979000  0.12937000  0.41243200  1
  O  O36  1  0.27642850  0.77083950  0.05982300  1
  O  O37  1  0.26384600  0.76859000  0.35744800  1
  O  O38  1  0.40032450  0.27430450  0.17769800  1
  O  O39  1  0.43830950  0.86401950  0.78196000  1
  O  O40  1  0.50000000  0.15143400  0.50000000  1
  O  O41  1  0.50000000  0.10448400  0.00000000  1
  O  O42  1  0.56169050  0.86401950  0.21804000  1
  O  O43  1  0.59967550  0.27430450  0.82230200  1
  O  O44  1  0.73615400  0.76859000  0.64255200  1
  O  O45  1  0.72357150  0.77083950  0.94017700  1
  O  O46  1  0.84021000  0.12937000  0.58756800  1
  O  O47  1  0.81378250  0.06839050  0.87889100  1
  O  O48  1  0.81851900  0.87032800  0.41367900  1
  O  O49  1  0.83001250  0.03343150  0.20515300  1
  O  O50  1  0.66998750  0.53343150  0.79484700  1
  O  O51  1  0.68148100  0.37032800  0.58632100  1
  O  O52  1  0.68621750  0.56839050  0.12110900  1
  O  O53  1  0.65979000  0.62937000  0.41243200  1
  O  O54  1  0.77642850  0.27083950  0.05982300  1
  O  O55  1  0.76384600  0.26859000  0.35744800  1
  O  O56  1  0.90032450  0.77430450  0.17769800  1
  O  O57  1  0.93830950  0.36401950  0.78196000  1
  O  O58  1  0.00000000  0.65143400  0.50000000  1
  O  O59  1  0.00000000  0.60448400  0.00000000  1
  O  O60  1  0.06169050  0.36401950  0.21804000  1
  O  O61  1  0.09967550  0.77430450  0.82230200  1
  O  O62  1  0.23615400  0.26859000  0.64255200  1
  O  O63  1  0.22357150  0.27083950  0.94017700  1
  O  O64  1  0.34021000  0.62937000  0.58756800  1
  O  O65  1  0.31378250  0.56839050  0.87889100  1
  O  O66  1  0.31851900  0.37032800  0.41367900  1
  O  O67  1  0.33001250  0.53343150  0.20515300  1
