# generated using pymatgen
data_Li3FeCo3O8
_symmetry_space_group_name_H-M   'P 1'
_cell_length_a   10.20564843
_cell_length_b   5.81786758
_cell_length_c   5.92418533
_cell_angle_alpha   90.00000000
_cell_angle_beta   124.71825282
_cell_angle_gamma   90.00000000
_symmetry_Int_Tables_number   1
_chemical_formula_structural   Li3FeCo3O8
_chemical_formula_sum   'Li6 Fe2 Co6 O16'
_cell_volume   289.12467114
_cell_formula_units_Z   2
loop_
 _symmetry_equiv_pos_site_id
 _symmetry_equiv_pos_as_xyz
  1  'x, y, z'
loop_
 _atom_site_type_symbol
 _atom_site_label
 _atom_site_symmetry_multiplicity
 _atom_site_fract_x
 _atom_site_fract_y
 _atom_site_fract_z
 _atom_site_occupancy
  Li  Li0  1  0.25000000  0.25000000  0.50000000  1
  Li  Li1  1  0.00000000  0.50000000  0.50000000  1
  Li  Li2  1  0.25000000  0.75000000  0.50000000  1
  Li  Li3  1  0.75000000  0.75000000  0.50000000  1
  Li  Li4  1  0.50000000  0.00000000  0.50000000  1
  Li  Li5  1  0.75000000  0.25000000  0.50000000  1
  Fe  Fe6  1  0.00000000  0.00000000  0.00000000  1
  Fe  Fe7  1  0.50000000  0.50000000  0.00000000  1
  Co  Co8  1  0.25000000  0.25000000  0.00000000  1
  Co  Co9  1  0.25000000  0.75000000  0.00000000  1
  Co  Co10  1  0.00000000  0.50000000  0.00000000  1
  Co  Co11  1  0.75000000  0.75000000  0.00000000  1
  Co  Co12  1  0.75000000  0.25000000  0.00000000  1
  Co  Co13  1  0.50000000  0.00000000  0.00000000  1
  O  O14  1  0.24624200  0.00000000  0.22344800  1
  O  O15  1  0.27653500  0.00000000  0.78913600  1
  O  O16  1  0.49519450  0.23652850  0.21914800  1
  O  O17  1  0.49519450  0.76347150  0.21914800  1
  O  O18  1  0.00480550  0.73652850  0.78085200  1
  O  O19  1  0.00480550  0.26347150  0.78085200  1
  O  O20  1  0.22346500  0.50000000  0.21086400  1
  O  O21  1  0.25375800  0.50000000  0.77655200  1
  O  O22  1  0.74624200  0.50000000  0.22344800  1
  O  O23  1  0.77653500  0.50000000  0.78913600  1
  O  O24  1  0.99519450  0.73652850  0.21914800  1
  O  O25  1  0.99519450  0.26347150  0.21914800  1
  O  O26  1  0.50480550  0.23652850  0.78085200  1
  O  O27  1  0.50480550  0.76347150  0.78085200  1
  O  O28  1  0.72346500  0.00000000  0.21086400  1
  O  O29  1  0.75375800  0.00000000  0.77655200  1
