# generated using pymatgen
data_Li4Nb3Ni3(SbO8)2
_symmetry_space_group_name_H-M   'P 1'
_cell_length_a   10.67959200
_cell_length_b   6.09855000
_cell_length_c   10.15668598
_cell_angle_alpha   90.00000000
_cell_angle_beta   90.04386024
_cell_angle_gamma   90.00000000
_symmetry_Int_Tables_number   1
_chemical_formula_structural   Li4Nb3Ni3(SbO8)2
_chemical_formula_sum   'Li8 Nb6 Ni6 Sb4 O32'
_cell_volume   661.50502575
_cell_formula_units_Z   2
loop_
 _symmetry_equiv_pos_site_id
 _symmetry_equiv_pos_as_xyz
  1  'x, y, z'
loop_
 _atom_site_type_symbol
 _atom_site_label
 _atom_site_symmetry_multiplicity
 _atom_site_fract_x
 _atom_site_fract_y
 _atom_site_fract_z
 _atom_site_occupancy
  Li  Li0  1  0.66105700  0.00000000  0.88788600  1
  Li  Li1  1  0.99420800  0.00000000  0.98076200  1
  Li  Li2  1  0.99623500  0.00000000  0.50248500  1
  Li  Li3  1  0.83038000  0.50000000  0.40840000  1
  Li  Li4  1  0.16105700  0.50000000  0.88788600  1
  Li  Li5  1  0.49420800  0.50000000  0.98076200  1
  Li  Li6  1  0.49623500  0.50000000  0.50248500  1
  Li  Li7  1  0.33038000  0.00000000  0.40840000  1
  Nb  Nb8  1  0.58348550  0.24966350  0.21850000  1
  Nb  Nb9  1  0.58348550  0.75033650  0.21850000  1
  Nb  Nb10  1  0.67674100  0.50000000  0.71888300  1
  Nb  Nb11  1  0.08348550  0.74966350  0.21850000  1
  Nb  Nb12  1  0.08348550  0.25033650  0.21850000  1
  Nb  Nb13  1  0.17674100  0.00000000  0.71888300  1
  Ni  Ni14  1  0.83046600  0.00000000  0.22189800  1
  Ni  Ni15  1  0.91599350  0.74494850  0.70469400  1
  Ni  Ni16  1  0.91599350  0.25505150  0.70469400  1
  Ni  Ni17  1  0.33046600  0.50000000  0.22189800  1
  Ni  Ni18  1  0.41599350  0.24494850  0.70469400  1
  Ni  Ni19  1  0.41599350  0.75505150  0.70469400  1
  Sb  Sb20  1  0.67361000  0.00000000  0.49942900  1
  Sb  Sb21  1  0.85109900  0.50000000  0.97571000  1
  Sb  Sb22  1  0.17361000  0.50000000  0.49942900  1
  Sb  Sb23  1  0.35109900  0.00000000  0.97571000  1
  O  O24  1  0.58637300  0.25289500  0.59195500  1
  O  O25  1  0.51718600  0.00000000  0.34278700  1
  O  O26  1  0.66202400  0.00000000  0.10957500  1
  O  O27  1  0.99888400  0.00000000  0.32250000  1
  O  O28  1  0.50461800  0.50000000  0.79529100  1
  O  O29  1  0.58637300  0.74710500  0.59195500  1
  O  O30  1  0.73324650  0.22522550  0.34662600  1
  O  O31  1  0.73324650  0.77477450  0.34662600  1
  O  O32  1  0.65954000  0.50000000  0.11646700  1
  O  O33  1  0.83651300  0.00000000  0.59194600  1
  O  O34  1  0.74881650  0.72576150  0.83384300  1
  O  O35  1  0.74881650  0.27423850  0.83384300  1
  O  O36  1  0.82247300  0.50000000  0.59958200  1
  O  O37  1  0.93286400  0.77014000  0.10466000  1
  O  O38  1  0.98346500  0.50000000  0.83372600  1
  O  O39  1  0.93286400  0.22986000  0.10466000  1
  O  O40  1  0.08637300  0.75289500  0.59195500  1
  O  O41  1  0.01718600  0.50000000  0.34278700  1
  O  O42  1  0.16202400  0.50000000  0.10957500  1
  O  O43  1  0.49888400  0.50000000  0.32250000  1
  O  O44  1  0.00461800  0.00000000  0.79529100  1
  O  O45  1  0.08637300  0.24710500  0.59195500  1
  O  O46  1  0.23324650  0.72522550  0.34662600  1
  O  O47  1  0.23324650  0.27477450  0.34662600  1
  O  O48  1  0.15954000  0.00000000  0.11646700  1
  O  O49  1  0.33651300  0.50000000  0.59194600  1
  O  O50  1  0.24881650  0.22576150  0.83384300  1
  O  O51  1  0.24881650  0.77423850  0.83384300  1
  O  O52  1  0.32247300  0.00000000  0.59958200  1
  O  O53  1  0.43286400  0.27014000  0.10466000  1
  O  O54  1  0.48346500  0.00000000  0.83372600  1
  O  O55  1  0.43286400  0.72986000  0.10466000  1
