# generated using pymatgen
data_Ti3Mn2V(PO4)6
_symmetry_space_group_name_H-M   'P 1'
_cell_length_a   8.66733611
_cell_length_b   8.66733611
_cell_length_c   21.29124949
_cell_angle_alpha   90.00000000
_cell_angle_beta   90.00000000
_cell_angle_gamma   120.00000000
_symmetry_Int_Tables_number   1
_chemical_formula_structural   Ti3Mn2V(PO4)6
_chemical_formula_sum   'Ti9 Mn6 V3 P18 O72'
_cell_volume   1385.16993653
_cell_formula_units_Z   3
loop_
 _symmetry_equiv_pos_site_id
 _symmetry_equiv_pos_as_xyz
  1  'x, y, z'
loop_
 _atom_site_type_symbol
 _atom_site_label
 _atom_site_symmetry_multiplicity
 _atom_site_fract_x
 _atom_site_fract_y
 _atom_site_fract_z
 _atom_site_occupancy
  Ti  Ti0  1  0.33333333  0.66666667  0.02088167  1
  Ti  Ti1  1  0.00000000  0.00000000  0.14504900  1
  Ti  Ti2  1  0.33333333  0.66666667  0.31320367  1
  Ti  Ti3  1  0.00000000  0.00000000  0.35421500  1
  Ti  Ti4  1  0.66666667  0.33333333  0.47838233  1
  Ti  Ti5  1  0.00000000  0.00000000  0.64653700  1
  Ti  Ti6  1  0.66666667  0.33333333  0.68754833  1
  Ti  Ti7  1  0.33333333  0.66666667  0.81171567  1
  Ti  Ti8  1  0.66666667  0.33333333  0.97987033  1
  Mn  Mn9  1  0.66666667  0.33333333  0.33290233  1
  Mn  Mn10  1  0.33333333  0.66666667  0.16595967  1
  Mn  Mn11  1  0.33333333  0.66666667  0.66623567  1
  Mn  Mn12  1  0.00000000  0.00000000  0.49929300  1
  Mn  Mn13  1  0.00000000  0.00000000  0.99956900  1
  Mn  Mn14  1  0.66666667  0.33333333  0.83262633  1
  V  V15  1  0.66666667  0.33333333  0.19036633  1
  V  V16  1  0.33333333  0.66666667  0.52369967  1
  V  V17  1  0.00000000  0.00000000  0.85703300  1
  P  P18  1  0.37374233  0.04016567  0.08399167  1
  P  P19  1  0.66642333  0.62625767  0.08399167  1
  P  P20  1  0.95983433  0.33357667  0.08399167  1
  P  P21  1  0.70610633  0.99931367  0.25004767  1
  P  P22  1  0.00068633  0.70679267  0.25004767  1
  P  P23  1  0.29320733  0.29389367  0.25004767  1
  P  P24  1  0.04040900  0.37349900  0.41732500  1
  P  P25  1  0.33309000  0.95959100  0.41732500  1
  P  P26  1  0.62650100  0.66691000  0.41732500  1
  P  P27  1  0.37277300  0.33264700  0.58338100  1
  P  P28  1  0.66735300  0.04012600  0.58338100  1
  P  P29  1  0.95987400  0.62722700  0.58338100  1
  P  P30  1  0.70707567  0.70683233  0.75065833  1
  P  P31  1  0.99975667  0.29292433  0.75065833  1
  P  P32  1  0.29316767  0.00024333  0.75065833  1
  P  P33  1  0.03943967  0.66598033  0.91671433  1
  P  P34  1  0.33401967  0.37345933  0.91671433  1
  P  P35  1  0.62654067  0.96056033  0.91671433  1
  O  O36  1  0.66677300  0.52369200  0.02365700  1
  O  O37  1  0.85691900  0.33322700  0.02365700  1
  O  O38  1  0.47630800  0.14308100  0.02365700  1
  O  O39  1  0.18429400  0.01956500  0.07837000  1
  O  O40  1  0.46989833  0.13315767  0.14264467  1
  O  O41  1  0.34993167  0.84865033  0.08569033  1
  O  O42  1  0.83527100  0.81570600  0.07837000  1
  O  O43  1  0.49871867  0.65006833  0.08569033  1
  O  O44  1  0.80890367  0.99926833  0.19059033  1
  O  O45  1  0.15134967  0.50128133  0.08569033  1
  O  O46  1  0.68693667  0.16499233  0.25648133  1
  O  O47  1  0.00073167  0.80963533  0.19059033  1
  O  O48  1  0.66325933  0.53010167  0.14264467  1
  O  O49  1  0.98043500  0.16472900  0.07837000  1
  O  O50  1  0.51871367  0.82894233  0.24552833  1
  O  O51  1  0.86684233  0.33674067  0.14264467  1
  O  O52  1  0.17105767  0.68977133  0.24552833  1
  O  O53  1  0.83500767  0.52194433  0.25648133  1
  O  O54  1  0.31022867  0.48128633  0.24552833  1
  O  O55  1  0.19036467  0.19109633  0.19059033  1
  O  O56  1  0.47805567  0.31306333  0.25648133  1
  O  O57  1  0.18717900  0.19161200  0.30910000  1
  O  O58  1  0.80838800  0.99556700  0.30910000  1
  O  O59  1  0.00443300  0.81282100  0.30910000  1
  O  O60  1  0.33343967  0.85702533  0.35699033  1
  O  O61  1  0.52358567  0.66656033  0.35699033  1
  O  O62  1  0.14297467  0.47641433  0.35699033  1
  O  O63  1  0.85096067  0.35289833  0.41170333  1
  O  O64  1  0.13656500  0.46649100  0.47597800  1
  O  O65  1  0.01659833  0.18198367  0.41902367  1
  O  O66  1  0.50193767  0.14903933  0.41170333  1
  O  O67  1  0.16538533  0.98340167  0.41902367  1
  O  O68  1  0.47557033  0.33260167  0.52392367  1
  O  O69  1  0.81801633  0.83461467  0.41902367  1
  O  O70  1  0.35360333  0.49832567  0.58981467  1
  O  O71  1  0.66739833  0.14296867  0.52392367  1
  O  O72  1  0.32992600  0.86343500  0.47597800  1
  O  O73  1  0.64710167  0.49806233  0.41170333  1
  O  O74  1  0.18538033  0.16227567  0.57886167  1
  O  O75  1  0.53350900  0.67007400  0.47597800  1
  O  O76  1  0.83772433  0.02310467  0.57886167  1
  O  O77  1  0.50167433  0.85527767  0.58981467  1
  O  O78  1  0.97689533  0.81461967  0.57886167  1
  O  O79  1  0.85703133  0.52442967  0.52392367  1
  O  O80  1  0.14472233  0.64639667  0.58981467  1
  O  O81  1  0.85384567  0.52494533  0.64243333  1
  O  O82  1  0.47505467  0.32890033  0.64243333  1
  O  O83  1  0.67109967  0.14615433  0.64243333  1
  O  O84  1  0.00010633  0.19035867  0.69032367  1
  O  O85  1  0.19025233  0.99989367  0.69032367  1
  O  O86  1  0.80964133  0.80974767  0.69032367  1
  O  O87  1  0.51762733  0.68623167  0.74503667  1
  O  O88  1  0.80323167  0.79982433  0.80931133  1
  O  O89  1  0.68326500  0.51531700  0.75235700  1
  O  O90  1  0.16860433  0.48237267  0.74503667  1
  O  O91  1  0.83205200  0.31673500  0.75235700  1
  O  O92  1  0.14223700  0.66593500  0.85725700  1
  O  O93  1  0.48468300  0.16794800  0.75235700  1
  O  O94  1  0.02027000  0.83165900  0.92314800  1
  O  O95  1  0.33406500  0.47630200  0.85725700  1
  O  O96  1  0.99659267  0.19676833  0.80931133  1
  O  O97  1  0.31376833  0.83139567  0.74503667  1
  O  O98  1  0.85204700  0.49560900  0.91219500  1
  O  O99  1  0.20017567  0.00340733  0.80931133  1
  O  O100  1  0.50439100  0.35643800  0.91219500  1
  O  O101  1  0.16834100  0.18861100  0.92314800  1
  O  O102  1  0.64356200  0.14795300  0.91219500  1
  O  O103  1  0.52369800  0.85776300  0.85725700  1
  O  O104  1  0.81138900  0.97973000  0.92314800  1
  O  O105  1  0.52051233  0.85827867  0.97576667  1
  O  O106  1  0.14172133  0.66223367  0.97576667  1
  O  O107  1  0.33776633  0.47948767  0.97576667  1
