# generated using pymatgen
data_Li11V4F24
_symmetry_space_group_name_H-M   'P 1'
_cell_length_a   9.94380200
_cell_length_b   9.94380200
_cell_length_c   17.91277000
_cell_angle_alpha   90.00000000
_cell_angle_beta   90.00000000
_cell_angle_gamma   90.00000000
_symmetry_Int_Tables_number   1
_chemical_formula_structural   Li11V4F24
_chemical_formula_sum   'Li44 V16 F96'
_cell_volume   1771.20033541
_cell_formula_units_Z   4
loop_
 _symmetry_equiv_pos_site_id
 _symmetry_equiv_pos_as_xyz
  1  'x, y, z'
loop_
 _atom_site_type_symbol
 _atom_site_label
 _atom_site_symmetry_multiplicity
 _atom_site_fract_x
 _atom_site_fract_y
 _atom_site_fract_z
 _atom_site_occupancy
  Li  Li0  1  0.50000000  0.00000000  0.25000000  1
  Li  Li1  1  0.00000000  0.00000000  0.22389100  1
  Li  Li2  1  0.25772250  0.23492350  0.24726850  1
  Li  Li3  1  0.23903000  0.49622800  0.18056500  1
  Li  Li4  1  0.50000000  0.50000000  0.27610900  1
  Li  Li5  1  0.25772250  0.73492350  0.00273150  1
  Li  Li6  1  0.49622800  0.26097000  0.43056500  1
  Li  Li7  1  0.99622800  0.26097000  0.31943500  1
  Li  Li8  1  0.76097000  0.50377200  0.18056500  1
  Li  Li9  1  0.26507650  0.75772250  0.25273150  1
  Li  Li10  1  0.73492350  0.24227750  0.25273150  1
  Li  Li11  1  0.76507650  0.75772250  0.49726850  1
  Li  Li12  1  0.23492350  0.24227750  0.49726850  1
  Li  Li13  1  0.23903000  0.99622800  0.06943500  1
  Li  Li14  1  0.50377200  0.73903000  0.43056500  1
  Li  Li15  1  0.00377200  0.73903000  0.31943500  1
  Li  Li16  1  0.74227750  0.76507650  0.24726850  1
  Li  Li17  1  0.00000000  0.50000000  0.47389100  1
  Li  Li18  1  0.76097000  0.00377200  0.06943500  1
  Li  Li19  1  0.74227750  0.26507650  0.00273150  1
  Li  Li20  1  0.00000000  0.50000000  0.02610900  1
  Li  Li21  1  0.50000000  0.50000000  0.00000000  1
  Li  Li22  1  0.00000000  0.50000000  0.75000000  1
  Li  Li23  1  0.50000000  0.50000000  0.72389100  1
  Li  Li24  1  0.75772250  0.73492350  0.74726850  1
  Li  Li25  1  0.73903000  0.99622800  0.68056500  1
  Li  Li26  1  0.00000000  0.00000000  0.77610900  1
  Li  Li27  1  0.75772250  0.23492350  0.50273150  1
  Li  Li28  1  0.99622800  0.76097000  0.93056500  1
  Li  Li29  1  0.49622800  0.76097000  0.81943500  1
  Li  Li30  1  0.26097000  0.00377200  0.68056500  1
  Li  Li31  1  0.76507650  0.25772250  0.75273150  1
  Li  Li32  1  0.23492350  0.74227750  0.75273150  1
  Li  Li33  1  0.26507650  0.25772250  0.99726850  1
  Li  Li34  1  0.73492350  0.74227750  0.99726850  1
  Li  Li35  1  0.73903000  0.49622800  0.56943500  1
  Li  Li36  1  0.00377200  0.23903000  0.93056500  1
  Li  Li37  1  0.50377200  0.23903000  0.81943500  1
  Li  Li38  1  0.24227750  0.26507650  0.74726850  1
  Li  Li39  1  0.50000000  0.00000000  0.97389100  1
  Li  Li40  1  0.26097000  0.50377200  0.56943500  1
  Li  Li41  1  0.24227750  0.76507650  0.50273150  1
  Li  Li42  1  0.50000000  0.00000000  0.52610900  1
  Li  Li43  1  0.00000000  0.00000000  0.50000000  1
  V  V44  1  0.00000000  0.75000000  0.12500000  1
  V  V45  1  0.00000000  0.25000000  0.12500000  1
  V  V46  1  0.50000000  0.75000000  0.12500000  1
  V  V47  1  0.25000000  0.00000000  0.37500000  1
  V  V48  1  0.50000000  0.25000000  0.12500000  1
  V  V49  1  0.25000000  0.50000000  0.37500000  1
  V  V50  1  0.75000000  0.00000000  0.37500000  1
  V  V51  1  0.75000000  0.50000000  0.37500000  1
  V  V52  1  0.50000000  0.25000000  0.62500000  1
  V  V53  1  0.50000000  0.75000000  0.62500000  1
  V  V54  1  0.00000000  0.25000000  0.62500000  1
  V  V55  1  0.75000000  0.50000000  0.87500000  1
  V  V56  1  0.00000000  0.75000000  0.62500000  1
  V  V57  1  0.75000000  0.00000000  0.87500000  1
  V  V58  1  0.25000000  0.50000000  0.87500000  1
  V  V59  1  0.25000000  0.00000000  0.87500000  1
  F  F60  1  0.65335350  0.08729050  0.29466550  1
  F  F61  1  0.41270950  0.15335350  0.20533450  1
  F  F62  1  0.11961350  0.09660950  0.13432750  1
  F  F63  1  0.36357050  0.38111650  0.12645250  1
  F  F64  1  0.88038650  0.90339050  0.13432750  1
  F  F65  1  0.11207400  0.34053100  0.19965300  1
  F  F66  1  0.64436600  0.11042100  0.44872300  1
  F  F67  1  0.38957900  0.64436600  0.19872300  1
  F  F68  1  0.58729050  0.84664650  0.20533450  1
  F  F69  1  0.14436600  0.11042100  0.30127700  1
  F  F70  1  0.59660950  0.38038650  0.36567250  1
  F  F71  1  0.90135550  0.17149350  0.21332050  1
  F  F72  1  0.38111650  0.13642950  0.37645250  1
  F  F73  1  0.32850650  0.40135550  0.28667950  1
  F  F74  1  0.82850650  0.40135550  0.46332050  1
  F  F75  1  0.40339050  0.61961350  0.36567250  1
  F  F76  1  0.61042100  0.35563400  0.19872300  1
  F  F77  1  0.65946900  0.61207400  0.44965300  1
  F  F78  1  0.15335350  0.08729050  0.45533450  1
  F  F79  1  0.09864450  0.82850650  0.21332050  1
  F  F80  1  0.63642950  0.61888350  0.12645250  1
  F  F81  1  0.88792600  0.65946900  0.19965300  1
  F  F82  1  0.15946900  0.61207400  0.30034700  1
  F  F83  1  0.88111650  0.13642950  0.37354750  1
  F  F84  1  0.61888350  0.86357050  0.37645250  1
  F  F85  1  0.34053100  0.38792600  0.44965300  1
  F  F86  1  0.11207400  0.84053100  0.05034700  1
  F  F87  1  0.36357050  0.88111650  0.12354750  1
  F  F88  1  0.90135550  0.67149350  0.03667950  1
  F  F89  1  0.34664650  0.91270950  0.29466550  1
  F  F90  1  0.84053100  0.38792600  0.30034700  1
  F  F91  1  0.38957900  0.14436600  0.05127700  1
  F  F92  1  0.09660950  0.38038650  0.38432750  1
  F  F93  1  0.67149350  0.59864450  0.28667950  1
  F  F94  1  0.17149350  0.59864450  0.46332050  1
  F  F95  1  0.11888350  0.86357050  0.37354750  1
  F  F96  1  0.09864450  0.32850650  0.03667950  1
  F  F97  1  0.90339050  0.61961350  0.38432750  1
  F  F98  1  0.35563400  0.88957900  0.44872300  1
  F  F99  1  0.41270950  0.65335350  0.04466550  1
  F  F100  1  0.61042100  0.85563400  0.05127700  1
  F  F101  1  0.85563400  0.88957900  0.30127700  1
  F  F102  1  0.88792600  0.15946900  0.05034700  1
  F  F103  1  0.11961350  0.59660950  0.11567250  1
  F  F104  1  0.63642950  0.11888350  0.12354750  1
  F  F105  1  0.88038650  0.40339050  0.11567250  1
  F  F106  1  0.58729050  0.34664650  0.04466550  1
  F  F107  1  0.84664650  0.91270950  0.45533450  1
  F  F108  1  0.15335350  0.58729050  0.79466550  1
  F  F109  1  0.91270950  0.65335350  0.70533450  1
  F  F110  1  0.61961350  0.59660950  0.63432750  1
  F  F111  1  0.86357050  0.88111650  0.62645250  1
  F  F112  1  0.38038650  0.40339050  0.63432750  1
  F  F113  1  0.61207400  0.84053100  0.69965300  1
  F  F114  1  0.14436600  0.61042100  0.94872300  1
  F  F115  1  0.88957900  0.14436600  0.69872300  1
  F  F116  1  0.08729050  0.34664650  0.70533450  1
  F  F117  1  0.64436600  0.61042100  0.80127700  1
  F  F118  1  0.09660950  0.88038650  0.86567250  1
  F  F119  1  0.40135550  0.67149350  0.71332050  1
  F  F120  1  0.88111650  0.63642950  0.87645250  1
  F  F121  1  0.82850650  0.90135550  0.78667950  1
  F  F122  1  0.32850650  0.90135550  0.96332050  1
  F  F123  1  0.90339050  0.11961350  0.86567250  1
  F  F124  1  0.11042100  0.85563400  0.69872300  1
  F  F125  1  0.15946900  0.11207400  0.94965300  1
  F  F126  1  0.65335350  0.58729050  0.95533450  1
  F  F127  1  0.59864450  0.32850650  0.71332050  1
  F  F128  1  0.13642950  0.11888350  0.62645250  1
  F  F129  1  0.38792600  0.15946900  0.69965300  1
  F  F130  1  0.65946900  0.11207400  0.80034700  1
  F  F131  1  0.38111650  0.63642950  0.87354750  1
  F  F132  1  0.11888350  0.36357050  0.87645250  1
  F  F133  1  0.84053100  0.88792600  0.94965300  1
  F  F134  1  0.61207400  0.34053100  0.55034700  1
  F  F135  1  0.86357050  0.38111650  0.62354750  1
  F  F136  1  0.40135550  0.17149350  0.53667950  1
  F  F137  1  0.84664650  0.41270950  0.79466550  1
  F  F138  1  0.34053100  0.88792600  0.80034700  1
  F  F139  1  0.88957900  0.64436600  0.55127700  1
  F  F140  1  0.59660950  0.88038650  0.88432750  1
  F  F141  1  0.17149350  0.09864450  0.78667950  1
  F  F142  1  0.67149350  0.09864450  0.96332050  1
  F  F143  1  0.61888350  0.36357050  0.87354750  1
  F  F144  1  0.59864450  0.82850650  0.53667950  1
  F  F145  1  0.40339050  0.11961350  0.88432750  1
  F  F146  1  0.85563400  0.38957900  0.94872300  1
  F  F147  1  0.91270950  0.15335350  0.54466550  1
  F  F148  1  0.11042100  0.35563400  0.55127700  1
  F  F149  1  0.35563400  0.38957900  0.80127700  1
  F  F150  1  0.38792600  0.65946900  0.55034700  1
  F  F151  1  0.61961350  0.09660950  0.61567250  1
  F  F152  1  0.13642950  0.61888350  0.62354750  1
  F  F153  1  0.38038650  0.90339050  0.61567250  1
  F  F154  1  0.08729050  0.84664650  0.54466550  1
  F  F155  1  0.34664650  0.41270950  0.95533450  1
