# generated using pymatgen
data_LiVBO4
_symmetry_space_group_name_H-M   'P 1'
_cell_length_a   4.59020000
_cell_length_b   4.59020000
_cell_length_c   7.38305800
_cell_angle_alpha   90.00000000
_cell_angle_beta   90.00000000
_cell_angle_gamma   90.00000000
_symmetry_Int_Tables_number   1
_chemical_formula_structural   LiVBO4
_chemical_formula_sum   'Li2 V2 B2 O8'
_cell_volume   155.56055984
_cell_formula_units_Z   2
loop_
 _symmetry_equiv_pos_site_id
 _symmetry_equiv_pos_as_xyz
  1  'x, y, z'
loop_
 _atom_site_type_symbol
 _atom_site_label
 _atom_site_symmetry_multiplicity
 _atom_site_fract_x
 _atom_site_fract_y
 _atom_site_fract_z
 _atom_site_occupancy
  Li  Li0  1  0.50000000  0.50000000  0.00000000  1
  Li  Li1  1  0.00000000  0.00000000  0.50000000  1
  V  V2  1  0.00000000  0.00000000  0.00000000  1
  V  V3  1  0.50000000  0.50000000  0.50000000  1
  B  B4  1  0.50000000  0.00000000  0.25000000  1
  B  B5  1  0.00000000  0.50000000  0.75000000  1
  O  O6  1  0.33612750  0.78992350  0.36385950  1
  O  O7  1  0.71007650  0.83612750  0.13614050  1
  O  O8  1  0.66387250  0.21007650  0.36385950  1
  O  O9  1  0.28992350  0.16387250  0.13614050  1
  O  O10  1  0.83612750  0.28992350  0.86385950  1
  O  O11  1  0.21007650  0.33612750  0.63614050  1
  O  O12  1  0.16387250  0.71007650  0.86385950  1
  O  O13  1  0.78992350  0.66387250  0.63614050  1
