# generated using pymatgen
data_Li4Fe5Ni3O16
_symmetry_space_group_name_H-M   'P 1'
_cell_length_a   10.17335800
_cell_length_b   5.82698800
_cell_length_c   9.45438456
_cell_angle_alpha   90.00000000
_cell_angle_beta   90.56184721
_cell_angle_gamma   90.00000000
_symmetry_Int_Tables_number   1
_chemical_formula_structural   Li4Fe5Ni3O16
_chemical_formula_sum   'Li8 Fe10 Ni6 O32'
_cell_volume   560.42930115
_cell_formula_units_Z   2
loop_
 _symmetry_equiv_pos_site_id
 _symmetry_equiv_pos_as_xyz
  1  'x, y, z'
loop_
 _atom_site_type_symbol
 _atom_site_label
 _atom_site_symmetry_multiplicity
 _atom_site_fract_x
 _atom_site_fract_y
 _atom_site_fract_z
 _atom_site_occupancy
  Li  Li0  1  0.66411300  0.00000000  0.89260600  1
  Li  Li1  1  0.99453700  0.00000000  0.99333700  1
  Li  Li2  1  0.99875200  0.00000000  0.49686300  1
  Li  Li3  1  0.83620400  0.50000000  0.39632700  1
  Li  Li4  1  0.16411300  0.50000000  0.89260600  1
  Li  Li5  1  0.49453700  0.50000000  0.99333700  1
  Li  Li6  1  0.49875200  0.50000000  0.49686300  1
  Li  Li7  1  0.33620400  0.00000000  0.39632700  1
  Fe  Fe8  1  0.58486500  0.24560400  0.21442600  1
  Fe  Fe9  1  0.67013000  0.00000000  0.48937600  1
  Fe  Fe10  1  0.58486500  0.75439600  0.21442600  1
  Fe  Fe11  1  0.67054800  0.50000000  0.71486000  1
  Fe  Fe12  1  0.83277100  0.50000000  0.98790700  1
  Fe  Fe13  1  0.08486500  0.74560400  0.21442600  1
  Fe  Fe14  1  0.17013000  0.50000000  0.48937600  1
  Fe  Fe15  1  0.08486500  0.25439600  0.21442600  1
  Fe  Fe16  1  0.17054800  0.00000000  0.71486000  1
  Fe  Fe17  1  0.33277100  0.00000000  0.98790700  1
  Ni  Ni18  1  0.82932700  0.00000000  0.21211000  1
  Ni  Ni19  1  0.91471700  0.74539300  0.71301400  1
  Ni  Ni20  1  0.91471700  0.25460700  0.71301400  1
  Ni  Ni21  1  0.32932700  0.50000000  0.21211000  1
  Ni  Ni22  1  0.41471700  0.24539300  0.71301400  1
  Ni  Ni23  1  0.41471700  0.75460700  0.71301400  1
  O  O24  1  0.58676600  0.25328200  0.60048700  1
  O  O25  1  0.51896700  0.00000000  0.34264700  1
  O  O26  1  0.66634800  0.00000000  0.10381700  1
  O  O27  1  0.99597700  0.00000000  0.30755200  1
  O  O28  1  0.99545200  0.00000000  0.80427200  1
  O  O29  1  0.58676600  0.74671800  0.60048700  1
  O  O30  1  0.74174000  0.22267800  0.34325500  1
  O  O31  1  0.74174000  0.77732200  0.34325500  1
  O  O32  1  0.66328300  0.50000000  0.09885000  1
  O  O33  1  0.83870200  0.00000000  0.60115600  1
  O  O34  1  0.75754550  0.72179950  0.84180700  1
  O  O35  1  0.75754550  0.27820050  0.84180700  1
  O  O36  1  0.83727500  0.50000000  0.60823700  1
  O  O37  1  0.91671300  0.75017000  0.09780400  1
  O  O38  1  0.97891600  0.50000000  0.83646600  1
  O  O39  1  0.91671300  0.24983000  0.09780400  1
  O  O40  1  0.08676600  0.75328200  0.60048700  1
  O  O41  1  0.01896700  0.50000000  0.34264700  1
  O  O42  1  0.16634800  0.50000000  0.10381700  1
  O  O43  1  0.49597700  0.50000000  0.30755200  1
  O  O44  1  0.49545200  0.50000000  0.80427200  1
  O  O45  1  0.08676600  0.24671800  0.60048700  1
  O  O46  1  0.24174000  0.72267800  0.34325500  1
  O  O47  1  0.24174000  0.27732200  0.34325500  1
  O  O48  1  0.16328300  0.00000000  0.09885000  1
  O  O49  1  0.33870200  0.50000000  0.60115600  1
  O  O50  1  0.25754550  0.22179950  0.84180700  1
  O  O51  1  0.25754550  0.77820050  0.84180700  1
  O  O52  1  0.33727500  0.00000000  0.60823700  1
  O  O53  1  0.41671300  0.25017000  0.09780400  1
  O  O54  1  0.47891600  0.00000000  0.83646600  1
  O  O55  1  0.41671300  0.74983000  0.09780400  1
