# generated using pymatgen
data_V5O12
_symmetry_space_group_name_H-M   'P 1'
_cell_length_a   5.48145400
_cell_length_b   8.31393400
_cell_length_c   9.06172594
_cell_angle_alpha   90.00000000
_cell_angle_beta   95.29276139
_cell_angle_gamma   90.00000000
_symmetry_Int_Tables_number   1
_chemical_formula_structural   V5O12
_chemical_formula_sum   'V10 O24'
_cell_volume   411.20428882
_cell_formula_units_Z   2
loop_
 _symmetry_equiv_pos_site_id
 _symmetry_equiv_pos_as_xyz
  1  'x, y, z'
loop_
 _atom_site_type_symbol
 _atom_site_label
 _atom_site_symmetry_multiplicity
 _atom_site_fract_x
 _atom_site_fract_y
 _atom_site_fract_z
 _atom_site_occupancy
  V  V0  1  0.50000000  0.55258000  0.50000000  1
  V  V1  1  0.27710950  0.76138550  0.22003800  1
  V  V2  1  0.72289050  0.76138550  0.77996200  1
  V  V3  1  0.50000000  0.93147800  0.50000000  1
  V  V4  1  0.50000000  0.10041400  0.00000000  1
  V  V5  1  0.00000000  0.05258000  0.50000000  1
  V  V6  1  0.77710950  0.26138550  0.22003800  1
  V  V7  1  0.22289050  0.26138550  0.77996200  1
  V  V8  1  0.00000000  0.43147800  0.50000000  1
  V  V9  1  0.00000000  0.60041400  0.00000000  1
  O  O10  1  0.81925400  0.09696900  0.10176000  1
  O  O11  1  0.18074600  0.09696900  0.89824000  1
  O  O12  1  0.45651950  0.74247550  0.63229100  1
  O  O13  1  0.54348050  0.74247550  0.36770900  1
  O  O14  1  0.37605650  0.91591350  0.12131000  1
  O  O15  1  0.62394350  0.91591350  0.87869000  1
  O  O16  1  0.31525450  0.07335950  0.60450800  1
  O  O17  1  0.68474550  0.07335950  0.39549200  1
  O  O18  1  0.44669850  0.23984050  0.14265900  1
  O  O19  1  0.55330150  0.23984050  0.85734100  1
  O  O20  1  0.83520950  0.91711050  0.61291800  1
  O  O21  1  0.16479050  0.91711050  0.38708200  1
  O  O22  1  0.31925400  0.59696900  0.10176000  1
  O  O23  1  0.68074600  0.59696900  0.89824000  1
  O  O24  1  0.95651950  0.24247550  0.63229100  1
  O  O25  1  0.04348050  0.24247550  0.36770900  1
  O  O26  1  0.87605650  0.41591350  0.12131000  1
  O  O27  1  0.12394350  0.41591350  0.87869000  1
  O  O28  1  0.81525450  0.57335950  0.60450800  1
  O  O29  1  0.18474550  0.57335950  0.39549200  1
  O  O30  1  0.94669850  0.73984050  0.14265900  1
  O  O31  1  0.05330150  0.73984050  0.85734100  1
  O  O32  1  0.33520950  0.41711050  0.61291800  1
  O  O33  1  0.66479050  0.41711050  0.38708200  1
