# generated using pymatgen
data_Li4Co7(OF7)2
_symmetry_space_group_name_H-M   'P 1'
_cell_length_a   6.05637059
_cell_length_b   6.19164764
_cell_length_c   10.46647870
_cell_angle_alpha   106.96038805
_cell_angle_beta   89.13423580
_cell_angle_gamma   119.16824214
_symmetry_Int_Tables_number   1
_chemical_formula_structural   Li4Co7(OF7)2
_chemical_formula_sum   'Li4 Co7 O2 F14'
_cell_volume   323.99062151
_cell_formula_units_Z   1
loop_
 _symmetry_equiv_pos_site_id
 _symmetry_equiv_pos_as_xyz
  1  'x, y, z'
loop_
 _atom_site_type_symbol
 _atom_site_label
 _atom_site_symmetry_multiplicity
 _atom_site_fract_x
 _atom_site_fract_y
 _atom_site_fract_z
 _atom_site_occupancy
  Li  Li0  1  0.46184202  0.58526544  0.32117537  1
  Li  Li1  1  0.03018929  0.88797075  0.18814235  1
  Li  Li2  1  0.53815798  0.41473456  0.67882463  1
  Li  Li3  1  0.96981071  0.11202925  0.81185765  1
  Co  Co4  1  0.50000000  0.00000000  0.00000000  1
  Co  Co5  1  0.74127519  0.26162242  0.24593633  1
  Co  Co6  1  0.00000000  0.50000000  0.00000000  1
  Co  Co7  1  0.00000000  0.00000000  0.50000000  1
  Co  Co8  1  0.50000000  0.50000000  0.00000000  1
  Co  Co9  1  0.00000000  0.50000000  0.50000000  1
  Co  Co10  1  0.25872481  0.73837758  0.75406367  1
  O  O11  1  0.16200151  0.42656305  0.89028816  1
  O  O12  1  0.83799849  0.57343695  0.10971184  1
  F  F13  1  0.14652973  0.88548842  0.87880739  1
  F  F14  1  0.37170111  0.10878695  0.12158511  1
  F  F15  1  0.90635221  0.14903274  0.61471832  1
  F  F16  1  0.66494943  0.91741571  0.36869833  1
  F  F17  1  0.61702103  0.35396711  0.87763707  1
  F  F18  1  0.38297897  0.64603289  0.12236293  1
  F  F19  1  0.65843777  0.39693085  0.37217786  1
  F  F20  1  0.11887871  0.37240477  0.37669639  1
  F  F21  1  0.62829889  0.89121305  0.87841489  1
  F  F22  1  0.88112129  0.62759523  0.62330361  1
  F  F23  1  0.34156223  0.60306915  0.62782214  1
  F  F24  1  0.85347027  0.11451158  0.12119261  1
  F  F25  1  0.33505057  0.08258429  0.63130167  1
  F  F26  1  0.09364779  0.85096726  0.38528168  1
