# generated using pymatgen
data_Li3Ti2(NiO4)2
_symmetry_space_group_name_H-M   'P 1'
_cell_length_a   10.19876146
_cell_length_b   5.88274461
_cell_length_c   5.93529017
_cell_angle_alpha   90.00000000
_cell_angle_beta   125.07374526
_cell_angle_gamma   90.00000000
_symmetry_Int_Tables_number   1
_chemical_formula_structural   Li3Ti2(NiO4)2
_chemical_formula_sum   'Li6 Ti4 Ni4 O16'
_cell_volume   291.43517388
_cell_formula_units_Z   2
loop_
 _symmetry_equiv_pos_site_id
 _symmetry_equiv_pos_as_xyz
  1  'x, y, z'
loop_
 _atom_site_type_symbol
 _atom_site_label
 _atom_site_symmetry_multiplicity
 _atom_site_fract_x
 _atom_site_fract_y
 _atom_site_fract_z
 _atom_site_occupancy
  Li  Li0  1  0.50000000  0.50000000  0.50000000  1
  Li  Li1  1  0.75000000  0.25000000  0.00000000  1
  Li  Li2  1  0.75000000  0.75000000  0.00000000  1
  Li  Li3  1  0.00000000  0.00000000  0.50000000  1
  Li  Li4  1  0.25000000  0.75000000  0.00000000  1
  Li  Li5  1  0.25000000  0.25000000  0.00000000  1
  Ti  Ti6  1  0.25000000  0.75000000  0.50000000  1
  Ti  Ti7  1  0.25000000  0.25000000  0.50000000  1
  Ti  Ti8  1  0.75000000  0.25000000  0.50000000  1
  Ti  Ti9  1  0.75000000  0.75000000  0.50000000  1
  Ni  Ni10  1  0.50000000  0.00000000  0.50000000  1
  Ni  Ni11  1  0.50000000  0.00000000  0.00000000  1
  Ni  Ni12  1  0.00000000  0.50000000  0.50000000  1
  Ni  Ni13  1  0.00000000  0.50000000  0.00000000  1
  O  O14  1  0.25095050  0.50000000  0.27105100  1
  O  O15  1  0.51253400  0.77356000  0.28198100  1
  O  O16  1  0.51253400  0.22644000  0.28198100  1
  O  O17  1  0.75588400  0.00000000  0.72841600  1
  O  O18  1  0.24411600  0.00000000  0.27158400  1
  O  O19  1  0.48746600  0.77356000  0.71801900  1
  O  O20  1  0.48746600  0.22644000  0.71801900  1
  O  O21  1  0.74904950  0.50000000  0.72894900  1
  O  O22  1  0.75095050  0.00000000  0.27105100  1
  O  O23  1  0.01253400  0.27356000  0.28198100  1
  O  O24  1  0.01253400  0.72644000  0.28198100  1
  O  O25  1  0.25588400  0.50000000  0.72841600  1
  O  O26  1  0.74411600  0.50000000  0.27158400  1
  O  O27  1  0.98746600  0.27356000  0.71801900  1
  O  O28  1  0.98746600  0.72644000  0.71801900  1
  O  O29  1  0.24904950  0.00000000  0.72894900  1
