# generated using pymatgen
data_Li2V2CoO6
_symmetry_space_group_name_H-M   'P 1'
_cell_length_a   5.07352200
_cell_length_b   8.95257400
_cell_length_c   10.31986600
_cell_angle_alpha   90.00000000
_cell_angle_beta   90.00000000
_cell_angle_gamma   90.00000000
_symmetry_Int_Tables_number   1
_chemical_formula_structural   Li2V2CoO6
_chemical_formula_sum   'Li8 V8 Co4 O24'
_cell_volume   468.73947100
_cell_formula_units_Z   4
loop_
 _symmetry_equiv_pos_site_id
 _symmetry_equiv_pos_as_xyz
  1  'x, y, z'
loop_
 _atom_site_type_symbol
 _atom_site_label
 _atom_site_symmetry_multiplicity
 _atom_site_fract_x
 _atom_site_fract_y
 _atom_site_fract_z
 _atom_site_occupancy
  Li  Li0  1  0.58691900  0.25000000  0.25000000  1
  Li  Li1  1  0.41308100  0.25000000  0.75000000  1
  Li  Li2  1  0.08691900  0.25000000  0.25000000  1
  Li  Li3  1  0.91308100  0.25000000  0.75000000  1
  Li  Li4  1  0.08691900  0.75000000  0.25000000  1
  Li  Li5  1  0.91308100  0.75000000  0.75000000  1
  Li  Li6  1  0.58691900  0.75000000  0.25000000  1
  Li  Li7  1  0.41308100  0.75000000  0.75000000  1
  V  V8  1  0.50000000  0.16287600  0.00000000  1
  V  V9  1  0.50000000  0.33712400  0.50000000  1
  V  V10  1  0.00000000  0.16287600  0.50000000  1
  V  V11  1  0.00000000  0.33712400  0.00000000  1
  V  V12  1  0.00000000  0.66287600  0.00000000  1
  V  V13  1  0.00000000  0.83712400  0.50000000  1
  V  V14  1  0.50000000  0.66287600  0.50000000  1
  V  V15  1  0.50000000  0.83712400  0.00000000  1
  Co  Co16  1  0.50000000  0.00000000  0.50000000  1
  Co  Co17  1  0.00000000  0.00000000  0.00000000  1
  Co  Co18  1  0.00000000  0.50000000  0.50000000  1
  Co  Co19  1  0.50000000  0.50000000  0.00000000  1
  O  O20  1  0.67323150  0.18354350  0.60718600  1
  O  O21  1  0.82676850  0.31645650  0.39281400  1
  O  O22  1  0.67323150  0.31645650  0.89281400  1
  O  O23  1  0.32676850  0.31645650  0.10718600  1
  O  O24  1  0.33808200  0.00000000  0.09453700  1
  O  O25  1  0.16191800  0.00000000  0.59453700  1
  O  O26  1  0.83808200  0.00000000  0.40546300  1
  O  O27  1  0.32676850  0.18354350  0.39281400  1
  O  O28  1  0.66191800  0.00000000  0.90546300  1
  O  O29  1  0.17323150  0.18354350  0.89281400  1
  O  O30  1  0.82676850  0.18354350  0.10718600  1
  O  O31  1  0.17323150  0.31645650  0.60718600  1
  O  O32  1  0.17323150  0.68354350  0.60718600  1
  O  O33  1  0.32676850  0.81645650  0.39281400  1
  O  O34  1  0.17323150  0.81645650  0.89281400  1
  O  O35  1  0.82676850  0.81645650  0.10718600  1
  O  O36  1  0.83808200  0.50000000  0.09453700  1
  O  O37  1  0.66191800  0.50000000  0.59453700  1
  O  O38  1  0.33808200  0.50000000  0.40546300  1
  O  O39  1  0.82676850  0.68354350  0.39281400  1
  O  O40  1  0.16191800  0.50000000  0.90546300  1
  O  O41  1  0.67323150  0.68354350  0.89281400  1
  O  O42  1  0.32676850  0.68354350  0.10718600  1
  O  O43  1  0.67323150  0.81645650  0.60718600  1
