# generated using pymatgen
data_LiV2(PO4)3
_symmetry_space_group_name_H-M   'P 1'
_cell_length_a   18.03834000
_cell_length_b   6.13051000
_cell_length_c   8.01009830
_cell_angle_alpha   90.00000000
_cell_angle_beta   106.48799079
_cell_angle_gamma   90.00000000
_symmetry_Int_Tables_number   1
_chemical_formula_structural   LiV2(PO4)3
_chemical_formula_sum   'Li4 V8 P12 O48'
_cell_volume   849.36612731
_cell_formula_units_Z   4
loop_
 _symmetry_equiv_pos_site_id
 _symmetry_equiv_pos_as_xyz
  1  'x, y, z'
loop_
 _atom_site_type_symbol
 _atom_site_label
 _atom_site_symmetry_multiplicity
 _atom_site_fract_x
 _atom_site_fract_y
 _atom_site_fract_z
 _atom_site_occupancy
  Li  Li0  1  0.00000000  0.50000000  0.00000000  1
  Li  Li1  1  0.00000000  0.50000000  0.50000000  1
  Li  Li2  1  0.50000000  0.00000000  0.00000000  1
  Li  Li3  1  0.50000000  0.00000000  0.50000000  1
  V  V4  1  0.36588400  0.66338900  0.90594800  1
  V  V5  1  0.36588400  0.33661100  0.40594800  1
  V  V6  1  0.13411600  0.16338900  0.59405200  1
  V  V7  1  0.13411600  0.83661100  0.09405200  1
  V  V8  1  0.86588400  0.16338900  0.90594800  1
  V  V9  1  0.86588400  0.83661100  0.40594800  1
  V  V10  1  0.63411600  0.66338900  0.59405200  1
  V  V11  1  0.63411600  0.33661100  0.09405200  1
  P  P12  1  0.32353300  0.17794000  0.77589300  1
  P  P13  1  0.32353300  0.82206000  0.27589300  1
  P  P14  1  0.17646700  0.67794000  0.72410700  1
  P  P15  1  0.17646700  0.32206000  0.22410700  1
  P  P16  1  0.00000000  0.05031500  0.25000000  1
  P  P17  1  0.00000000  0.94968500  0.75000000  1
  P  P18  1  0.82353300  0.67794000  0.77589300  1
  P  P19  1  0.82353300  0.32206000  0.27589300  1
  P  P20  1  0.67646700  0.17794000  0.72410700  1
  P  P21  1  0.67646700  0.82206000  0.22410700  1
  P  P22  1  0.50000000  0.55031500  0.25000000  1
  P  P23  1  0.50000000  0.44968500  0.75000000  1
  O  O24  1  0.47179700  0.70026100  0.09128100  1
  O  O25  1  0.43347700  0.39551900  0.26397600  1
  O  O26  1  0.47179700  0.29973900  0.59128100  1
  O  O27  1  0.37504300  0.97403600  0.83601700  1
  O  O28  1  0.43347700  0.60448100  0.76397600  1
  O  O29  1  0.32787400  0.25328100  0.59199100  1
  O  O30  1  0.35946950  0.35059750  0.91645900  1
  O  O31  1  0.37504300  0.02596400  0.33601700  1
  O  O32  1  0.32787400  0.74671900  0.09199100  1
  O  O33  1  0.35946950  0.64940250  0.41645900  1
  O  O34  1  0.26231550  0.64509950  0.74369400  1
  O  O35  1  0.23768450  0.14509950  0.75630600  1
  O  O36  1  0.26231550  0.35490050  0.24369400  1
  O  O37  1  0.23768450  0.85490050  0.25630600  1
  O  O38  1  0.14053050  0.85059750  0.58354100  1
  O  O39  1  0.17212600  0.75328100  0.90800900  1
  O  O40  1  0.12495700  0.47403600  0.66398300  1
  O  O41  1  0.14053050  0.14940250  0.08354100  1
  O  O42  1  0.17212600  0.24671900  0.40800900  1
  O  O43  1  0.06652300  0.89551900  0.23602400  1
  O  O44  1  0.12495700  0.52596400  0.16398300  1
  O  O45  1  0.02820300  0.20026100  0.40871900  1
  O  O46  1  0.06652300  0.10448100  0.73602400  1
  O  O47  1  0.02820300  0.79973900  0.90871900  1
  O  O48  1  0.97179700  0.20026100  0.09128100  1
  O  O49  1  0.93347700  0.89551900  0.26397600  1
  O  O50  1  0.97179700  0.79973900  0.59128100  1
  O  O51  1  0.87504300  0.47403600  0.83601700  1
  O  O52  1  0.93347700  0.10448100  0.76397600  1
  O  O53  1  0.82787400  0.75328100  0.59199100  1
  O  O54  1  0.85946950  0.85059750  0.91645900  1
  O  O55  1  0.87504300  0.52596400  0.33601700  1
  O  O56  1  0.82787400  0.24671900  0.09199100  1
  O  O57  1  0.85946950  0.14940250  0.41645900  1
  O  O58  1  0.76231550  0.14509950  0.74369400  1
  O  O59  1  0.73768450  0.64509950  0.75630600  1
  O  O60  1  0.76231550  0.85490050  0.24369400  1
  O  O61  1  0.73768450  0.35490050  0.25630600  1
  O  O62  1  0.64053050  0.35059750  0.58354100  1
  O  O63  1  0.67212600  0.25328100  0.90800900  1
  O  O64  1  0.62495700  0.97403600  0.66398300  1
  O  O65  1  0.64053050  0.64940250  0.08354100  1
  O  O66  1  0.67212600  0.74671900  0.40800900  1
  O  O67  1  0.56652300  0.39551900  0.23602400  1
  O  O68  1  0.62495700  0.02596400  0.16398300  1
  O  O69  1  0.52820300  0.70026100  0.40871900  1
  O  O70  1  0.56652300  0.60448100  0.73602400  1
  O  O71  1  0.52820300  0.29973900  0.90871900  1
