# generated using pymatgen
data_Li3TiMn3O8
_symmetry_space_group_name_H-M   'P 1'
_cell_length_a   5.87396647
_cell_length_b   5.98439754
_cell_length_c   6.02580936
_cell_angle_alpha   118.36351470
_cell_angle_beta   118.10321911
_cell_angle_gamma   92.00265185
_symmetry_Int_Tables_number   1
_chemical_formula_structural   Li3TiMn3O8
_chemical_formula_sum   'Li3 Ti1 Mn3 O8'
_cell_volume   155.01321580
_cell_formula_units_Z   1
loop_
 _symmetry_equiv_pos_site_id
 _symmetry_equiv_pos_as_xyz
  1  'x, y, z'
loop_
 _atom_site_type_symbol
 _atom_site_label
 _atom_site_symmetry_multiplicity
 _atom_site_fract_x
 _atom_site_fract_y
 _atom_site_fract_z
 _atom_site_occupancy
  Li  Li0  1  0.50000000  0.00000000  0.50000000  1
  Li  Li1  1  0.00000000  0.00000000  0.50000000  1
  Li  Li2  1  0.00000000  0.50000000  0.00000000  1
  Ti  Ti3  1  0.00000000  0.00000000  0.00000000  1
  Mn  Mn4  1  0.00000000  0.50000000  0.50000000  1
  Mn  Mn5  1  0.50000000  0.50000000  0.50000000  1
  Mn  Mn6  1  0.50000000  0.00000000  0.00000000  1
  O  O7  1  0.75421850  0.28739250  0.51214250  1
  O  O8  1  0.24578150  0.71260750  0.48785750  1
  O  O9  1  0.75500400  0.79276000  0.01901100  1
  O  O10  1  0.24499600  0.20724000  0.98098900  1
  O  O11  1  0.22426750  0.75604550  0.96093350  1
  O  O12  1  0.77573250  0.24395450  0.03906650  1
  O  O13  1  0.24991550  0.22673950  0.44723800  1
  O  O14  1  0.75008450  0.77326050  0.55276200  1
