# generated using pymatgen
data_Li5Cu5(NiO6)2
_symmetry_space_group_name_H-M   'P 1'
_cell_length_a   5.40399200
_cell_length_b   8.43142000
_cell_length_c   9.49574157
_cell_angle_alpha   90.00000000
_cell_angle_beta   93.38454441
_cell_angle_gamma   90.00000000
_symmetry_Int_Tables_number   1
_chemical_formula_structural   Li5Cu5(NiO6)2
_chemical_formula_sum   'Li10 Cu10 Ni4 O24'
_cell_volume   431.90292516
_cell_formula_units_Z   2
loop_
 _symmetry_equiv_pos_site_id
 _symmetry_equiv_pos_as_xyz
  1  'x, y, z'
loop_
 _atom_site_type_symbol
 _atom_site_label
 _atom_site_symmetry_multiplicity
 _atom_site_fract_x
 _atom_site_fract_y
 _atom_site_fract_z
 _atom_site_occupancy
  Li  Li0  1  0.24731950  0.91204250  0.25790200  1
  Li  Li1  1  0.24213050  0.08964050  0.74416600  1
  Li  Li2  1  0.75268050  0.91204250  0.74209800  1
  Li  Li3  1  0.75786950  0.08964050  0.25583400  1
  Li  Li4  1  0.50000000  0.41794000  0.50000000  1
  Li  Li5  1  0.74731950  0.41204250  0.25790200  1
  Li  Li6  1  0.74213050  0.58964050  0.74416600  1
  Li  Li7  1  0.25268050  0.41204250  0.74209800  1
  Li  Li8  1  0.25786950  0.58964050  0.25583400  1
  Li  Li9  1  0.00000000  0.91794000  0.50000000  1
  Cu  Cu10  1  0.50000000  0.57991000  0.00000000  1
  Cu  Cu11  1  0.74478250  0.25239250  0.74785100  1
  Cu  Cu12  1  0.25521750  0.25239250  0.25214900  1
  Cu  Cu13  1  0.50000000  0.91867100  0.00000000  1
  Cu  Cu14  1  0.50000000  0.08340000  0.50000000  1
  Cu  Cu15  1  0.00000000  0.07991000  0.00000000  1
  Cu  Cu16  1  0.24478250  0.75239250  0.74785100  1
  Cu  Cu17  1  0.75521750  0.75239250  0.25214900  1
  Cu  Cu18  1  0.00000000  0.41867100  0.00000000  1
  Cu  Cu19  1  0.00000000  0.58340000  0.50000000  1
  Ni  Ni20  1  0.50000000  0.74748000  0.50000000  1
  Ni  Ni21  1  0.50000000  0.24874900  0.00000000  1
  Ni  Ni22  1  0.00000000  0.24748000  0.50000000  1
  Ni  Ni23  1  0.00000000  0.74874900  0.00000000  1
  O  O24  1  0.89399800  0.09998500  0.63181600  1
  O  O25  1  0.10600200  0.09998500  0.36818400  1
  O  O26  1  0.32709700  0.74919700  0.09559200  1
  O  O27  1  0.67290300  0.74919700  0.90440800  1
  O  O28  1  0.39658550  0.90876250  0.62258000  1
  O  O29  1  0.60341450  0.90876250  0.37742000  1
  O  O30  1  0.40526150  0.09225350  0.12684400  1
  O  O31  1  0.59473850  0.09225350  0.87315600  1
  O  O32  1  0.32378800  0.24382000  0.59733100  1
  O  O33  1  0.67621200  0.24382000  0.40266900  1
  O  O34  1  0.40650550  0.40383350  0.12911100  1
  O  O35  1  0.59349450  0.40383350  0.87088900  1
  O  O36  1  0.39399800  0.59998500  0.63181600  1
  O  O37  1  0.60600200  0.59998500  0.36818400  1
  O  O38  1  0.82709700  0.24919700  0.09559200  1
  O  O39  1  0.17290300  0.24919700  0.90440800  1
  O  O40  1  0.89658550  0.40876250  0.62258000  1
  O  O41  1  0.10341450  0.40876250  0.37742000  1
  O  O42  1  0.90526150  0.59225350  0.12684400  1
  O  O43  1  0.09473850  0.59225350  0.87315600  1
  O  O44  1  0.82378800  0.74382000  0.59733100  1
  O  O45  1  0.17621200  0.74382000  0.40266900  1
  O  O46  1  0.90650550  0.90383350  0.12911100  1
  O  O47  1  0.09349450  0.90383350  0.87088900  1
