# generated using pymatgen
data_Co2CuO4
_symmetry_space_group_name_H-M   'P 1'
_cell_length_a   5.80174891
_cell_length_b   5.82463089
_cell_length_c   8.26546800
_cell_angle_alpha   90.00000000
_cell_angle_beta   90.00000000
_cell_angle_gamma   90.00000000
_symmetry_Int_Tables_number   1
_chemical_formula_structural   Co2CuO4
_chemical_formula_sum   'Co8 Cu4 O16'
_cell_volume   279.31533984
_cell_formula_units_Z   4
loop_
 _symmetry_equiv_pos_site_id
 _symmetry_equiv_pos_as_xyz
  1  'x, y, z'
loop_
 _atom_site_type_symbol
 _atom_site_label
 _atom_site_symmetry_multiplicity
 _atom_site_fract_x
 _atom_site_fract_y
 _atom_site_fract_z
 _atom_site_occupancy
  Co  Co0  1  0.50000000  0.25000000  0.37949900  1
  Co  Co1  1  0.25000000  0.25000000  0.75000000  1
  Co  Co2  1  0.50000000  0.75000000  0.62050100  1
  Co  Co3  1  0.75000000  0.25000000  0.75000000  1
  Co  Co4  1  0.00000000  0.75000000  0.87949900  1
  Co  Co5  1  0.75000000  0.75000000  0.25000000  1
  Co  Co6  1  0.00000000  0.25000000  0.12050100  1
  Co  Co7  1  0.25000000  0.75000000  0.25000000  1
  Cu  Cu8  1  0.00000000  0.00000000  0.50000000  1
  Cu  Cu9  1  0.00000000  0.50000000  0.50000000  1
  Cu  Cu10  1  0.50000000  0.50000000  0.00000000  1
  Cu  Cu11  1  0.50000000  0.00000000  0.00000000  1
  O  O12  1  0.76736950  0.75000000  0.48184350  1
  O  O13  1  0.50000000  0.47107100  0.75465300  1
  O  O14  1  0.00000000  0.02892900  0.74534700  1
  O  O15  1  0.00000000  0.47107100  0.74534700  1
  O  O16  1  0.76736950  0.25000000  0.51815650  1
  O  O17  1  0.23263050  0.25000000  0.51815650  1
  O  O18  1  0.23263050  0.75000000  0.48184350  1
  O  O19  1  0.50000000  0.02892900  0.75465300  1
  O  O20  1  0.26736950  0.25000000  0.98184350  1
  O  O21  1  0.00000000  0.97107100  0.25465300  1
  O  O22  1  0.50000000  0.52892900  0.24534700  1
  O  O23  1  0.50000000  0.97107100  0.24534700  1
  O  O24  1  0.26736950  0.75000000  0.01815650  1
  O  O25  1  0.73263050  0.75000000  0.01815650  1
  O  O26  1  0.73263050  0.25000000  0.98184350  1
  O  O27  1  0.00000000  0.52892900  0.25465300  1
