# generated using pymatgen
data_Li5MnO4
_symmetry_space_group_name_H-M   'P 1'
_cell_length_a   9.11295956
_cell_length_b   9.62064101
_cell_length_c   4.60691800
_cell_angle_alpha   90.00000000
_cell_angle_beta   90.00000000
_cell_angle_gamma   90.00000000
_symmetry_Int_Tables_number   1
_chemical_formula_structural   Li5MnO4
_chemical_formula_sum   'Li20 Mn4 O16'
_cell_volume   403.90007587
_cell_formula_units_Z   4
loop_
 _symmetry_equiv_pos_site_id
 _symmetry_equiv_pos_as_xyz
  1  'x, y, z'
loop_
 _atom_site_type_symbol
 _atom_site_label
 _atom_site_symmetry_multiplicity
 _atom_site_fract_x
 _atom_site_fract_y
 _atom_site_fract_z
 _atom_site_occupancy
  Li  Li0  1  0.79141750  0.74678350  0.52639500  1
  Li  Li1  1  0.22035300  0.49785100  0.42622700  1
  Li  Li2  1  0.27964700  0.49785100  0.92622700  1
  Li  Li3  1  0.20858250  0.74678350  0.47360500  1
  Li  Li4  1  0.00000000  0.98095350  0.50000000  1
  Li  Li5  1  0.29141750  0.74678350  0.97360500  1
  Li  Li6  1  0.22035300  0.99785100  0.07377300  1
  Li  Li7  1  0.27964700  0.99785100  0.57377300  1
  Li  Li8  1  0.70858250  0.74678350  0.02639500  1
  Li  Li9  1  0.50000000  0.98095350  0.00000000  1
  Li  Li10  1  0.29141750  0.24678350  0.52639500  1
  Li  Li11  1  0.72035300  0.99785100  0.42622700  1
  Li  Li12  1  0.77964700  0.99785100  0.92622700  1
  Li  Li13  1  0.70858250  0.24678350  0.47360500  1
  Li  Li14  1  0.50000000  0.48095350  0.50000000  1
  Li  Li15  1  0.79141750  0.24678350  0.97360500  1
  Li  Li16  1  0.72035300  0.49785100  0.07377300  1
  Li  Li17  1  0.77964700  0.49785100  0.57377300  1
  Li  Li18  1  0.20858250  0.24678350  0.02639500  1
  Li  Li19  1  0.00000000  0.48095350  0.00000000  1
  Mn  Mn20  1  0.00000000  0.75369100  0.00000000  1
  Mn  Mn21  1  0.50000000  0.75369100  0.50000000  1
  Mn  Mn22  1  0.50000000  0.25369100  0.00000000  1
  Mn  Mn23  1  0.00000000  0.25369100  0.50000000  1
  O  O24  1  0.13469400  0.37159200  0.71274500  1
  O  O25  1  0.36530600  0.37159200  0.21274500  1
  O  O26  1  0.14213700  0.62442800  0.14227500  1
  O  O27  1  0.35786300  0.62442800  0.64227500  1
  O  O28  1  0.13469400  0.87159200  0.78725500  1
  O  O29  1  0.14213700  0.12442800  0.35772500  1
  O  O30  1  0.36530600  0.87159200  0.28725500  1
  O  O31  1  0.35786300  0.12442800  0.85772500  1
  O  O32  1  0.63469400  0.87159200  0.71274500  1
  O  O33  1  0.86530600  0.87159200  0.21274500  1
  O  O34  1  0.64213700  0.12442800  0.14227500  1
  O  O35  1  0.85786300  0.12442800  0.64227500  1
  O  O36  1  0.63469400  0.37159200  0.78725500  1
  O  O37  1  0.64213700  0.62442800  0.35772500  1
  O  O38  1  0.86530600  0.37159200  0.28725500  1
  O  O39  1  0.85786300  0.62442800  0.85772500  1
