# generated using pymatgen
data_Li4FeCo5O12
_symmetry_space_group_name_H-M   'P 1'
_cell_length_a   4.94850254
_cell_length_b   8.51453015
_cell_length_c   9.96202867
_cell_angle_alpha   90.00000000
_cell_angle_beta   90.05459511
_cell_angle_gamma   90.00000000
_symmetry_Int_Tables_number   1
_chemical_formula_structural   Li4FeCo5O12
_chemical_formula_sum   'Li8 Fe2 Co10 O24'
_cell_volume   419.74165938
_cell_formula_units_Z   2
loop_
 _symmetry_equiv_pos_site_id
 _symmetry_equiv_pos_as_xyz
  1  'x, y, z'
loop_
 _atom_site_type_symbol
 _atom_site_label
 _atom_site_symmetry_multiplicity
 _atom_site_fract_x
 _atom_site_fract_y
 _atom_site_fract_z
 _atom_site_occupancy
  Li  Li0  1  0.59331500  0.25273900  0.24829500  1
  Li  Li1  1  0.40668500  0.25273900  0.75170500  1
  Li  Li2  1  0.59331500  0.74726100  0.24829500  1
  Li  Li3  1  0.40668500  0.74726100  0.75170500  1
  Li  Li4  1  0.09331500  0.75273900  0.24829500  1
  Li  Li5  1  0.90668500  0.75273900  0.75170500  1
  Li  Li6  1  0.09331500  0.24726100  0.24829500  1
  Li  Li7  1  0.90668500  0.24726100  0.75170500  1
  Fe  Fe8  1  0.00000000  0.00000000  0.50000000  1
  Fe  Fe9  1  0.50000000  0.50000000  0.50000000  1
  Co  Co10  1  0.50000000  0.33156300  0.00000000  1
  Co  Co11  1  0.50000000  0.83099400  0.50000000  1
  Co  Co12  1  0.50000000  0.16900600  0.50000000  1
  Co  Co13  1  0.50000000  0.66843700  0.00000000  1
  Co  Co14  1  0.50000000  0.00000000  0.00000000  1
  Co  Co15  1  0.00000000  0.83156300  0.00000000  1
  Co  Co16  1  0.00000000  0.33099400  0.50000000  1
  Co  Co17  1  0.00000000  0.66900600  0.50000000  1
  Co  Co18  1  0.00000000  0.16843700  0.00000000  1
  Co  Co19  1  0.00000000  0.50000000  0.00000000  1
  O  O20  1  0.66921300  0.32035800  0.60566600  1
  O  O21  1  0.33078700  0.32035800  0.39433400  1
  O  O22  1  0.67131050  0.16513150  0.89862000  1
  O  O23  1  0.67131050  0.83486850  0.89862000  1
  O  O24  1  0.32868950  0.16513150  0.10138000  1
  O  O25  1  0.83713850  0.00000000  0.09565100  1
  O  O26  1  0.32868950  0.83486850  0.10138000  1
  O  O27  1  0.66921300  0.67964200  0.60566600  1
  O  O28  1  0.66519900  0.00000000  0.59840500  1
  O  O29  1  0.33078700  0.67964200  0.39433400  1
  O  O30  1  0.33480100  0.00000000  0.40159500  1
  O  O31  1  0.16286150  0.00000000  0.90434900  1
  O  O32  1  0.16921300  0.82035800  0.60566600  1
  O  O33  1  0.83078700  0.82035800  0.39433400  1
  O  O34  1  0.17131050  0.66513150  0.89862000  1
  O  O35  1  0.17131050  0.33486850  0.89862000  1
  O  O36  1  0.82868950  0.66513150  0.10138000  1
  O  O37  1  0.33713850  0.50000000  0.09565100  1
  O  O38  1  0.82868950  0.33486850  0.10138000  1
  O  O39  1  0.16921300  0.17964200  0.60566600  1
  O  O40  1  0.16519900  0.50000000  0.59840500  1
  O  O41  1  0.83078700  0.17964200  0.39433400  1
  O  O42  1  0.83480100  0.50000000  0.40159500  1
  O  O43  1  0.66286150  0.50000000  0.90434900  1
