# generated using pymatgen
data_Li3TiV3O8
_symmetry_space_group_name_H-M   'P 1'
_cell_length_a   5.98012601
_cell_length_b   5.98012601
_cell_length_c   14.82705225
_cell_angle_alpha   90.00000000
_cell_angle_beta   90.00000000
_cell_angle_gamma   120.00000000
_symmetry_Int_Tables_number   1
_chemical_formula_structural   Li3TiV3O8
_chemical_formula_sum   'Li9 Ti3 V9 O24'
_cell_volume   459.20448424
_cell_formula_units_Z   3
loop_
 _symmetry_equiv_pos_site_id
 _symmetry_equiv_pos_as_xyz
  1  'x, y, z'
loop_
 _atom_site_type_symbol
 _atom_site_label
 _atom_site_symmetry_multiplicity
 _atom_site_fract_x
 _atom_site_fract_y
 _atom_site_fract_z
 _atom_site_occupancy
  Li  Li0  1  0.16666667  0.83333333  0.83333333  1
  Li  Li1  1  0.66666667  0.83333333  0.83333333  1
  Li  Li2  1  0.16666667  0.33333333  0.83333333  1
  Li  Li3  1  0.83333333  0.16666667  0.16666667  1
  Li  Li4  1  0.33333333  0.16666667  0.16666667  1
  Li  Li5  1  0.83333333  0.66666667  0.16666667  1
  Li  Li6  1  0.50000000  0.50000000  0.50000000  1
  Li  Li7  1  0.00000000  0.50000000  0.50000000  1
  Li  Li8  1  0.50000000  0.00000000  0.50000000  1
  Ti  Ti9  1  0.00000000  0.00000000  0.00000000  1
  Ti  Ti10  1  0.66666667  0.33333333  0.33333333  1
  Ti  Ti11  1  0.33333333  0.66666667  0.66666667  1
  V  V12  1  0.00000000  0.50000000  0.00000000  1
  V  V13  1  0.83333333  0.66666667  0.66666667  1
  V  V14  1  0.50000000  0.50000000  0.00000000  1
  V  V15  1  0.66666667  0.83333333  0.33333333  1
  V  V16  1  0.50000000  0.00000000  1.00000000  1
  V  V17  1  0.16666667  0.83333333  0.33333333  1
  V  V18  1  0.33333333  0.16666667  0.66666667  1
  V  V19  1  0.16666667  0.33333333  0.33333333  1
  V  V20  1  0.83333333  0.16666667  0.66666667  1
  O  O21  1  0.33333333  0.66666667  0.92344517  1
  O  O22  1  0.00000000  0.00000000  0.74322150  1
  O  O23  1  0.84012150  0.15987850  0.92757650  1
  O  O24  1  0.31975700  0.15987850  0.92757650  1
  O  O25  1  0.84012150  0.68024300  0.92757650  1
  O  O26  1  0.49321183  0.50678817  0.73909017  1
  O  O27  1  0.01357633  0.50678817  0.73909017  1
  O  O28  1  0.49321183  0.98642367  0.73909017  1
  O  O29  1  0.00000000  0.00000000  0.25677850  1
  O  O30  1  0.66666667  0.33333333  0.07655483  1
  O  O31  1  0.50678817  0.49321183  0.26090983  1
  O  O32  1  0.98642367  0.49321183  0.26090983  1
  O  O33  1  0.50678817  0.01357633  0.26090983  1
  O  O34  1  0.15987850  0.84012150  0.07242350  1
  O  O35  1  0.68024300  0.84012150  0.07242350  1
  O  O36  1  0.15987850  0.31975700  0.07242350  1
  O  O37  1  0.66666667  0.33333333  0.59011183  1
  O  O38  1  0.33333333  0.66666667  0.40988817  1
  O  O39  1  0.17345483  0.82654517  0.59424317  1
  O  O40  1  0.65309033  0.82654517  0.59424317  1
  O  O41  1  0.17345483  0.34690967  0.59424317  1
  O  O42  1  0.82654517  0.17345483  0.40575683  1
  O  O43  1  0.34690967  0.17345483  0.40575683  1
  O  O44  1  0.82654517  0.65309033  0.40575683  1
