# generated using pymatgen
data_Ba10LiW7O30
_symmetry_space_group_name_H-M   'P 1'
_cell_length_a   5.89781996
_cell_length_b   5.89781996
_cell_length_c   24.94210627
_cell_angle_alpha   90.00000000
_cell_angle_beta   90.00000000
_cell_angle_gamma   120.00000000
_symmetry_Int_Tables_number   1
_chemical_formula_structural   Ba10LiW7O30
_chemical_formula_sum   'Ba10 Li1 W7 O30'
_cell_volume   751.35776592
_cell_formula_units_Z   1
loop_
 _symmetry_equiv_pos_site_id
 _symmetry_equiv_pos_as_xyz
  1  'x, y, z'
loop_
 _atom_site_type_symbol
 _atom_site_label
 _atom_site_symmetry_multiplicity
 _atom_site_fract_x
 _atom_site_fract_y
 _atom_site_fract_z
 _atom_site_occupancy
  Ba  Ba0  1  0.00000000  0.00000000  0.46069600  1
  Ba  Ba1  1  0.00000000  0.00000000  0.03104100  1
  Ba  Ba2  1  0.00000000  0.00000000  0.75950500  1
  Ba  Ba3  1  0.33333333  0.66666667  0.14802100  1
  Ba  Ba4  1  0.33333333  0.66666667  0.35172000  1
  Ba  Ba5  1  0.33333333  0.66666667  0.64945800  1
  Ba  Ba6  1  0.33333333  0.66666667  0.85890400  1
  Ba  Ba7  1  0.66666667  0.33333333  0.25103800  1
  Ba  Ba8  1  0.66666667  0.33333333  0.55097700  1
  Ba  Ba9  1  0.66666667  0.33333333  0.94244200  1
  Li  Li10  1  0.66666667  0.33333333  0.81881400  1
  W  W11  1  0.00000000  0.00000000  0.19628200  1
  W  W12  1  0.00000000  0.00000000  0.89724600  1
  W  W13  1  0.66666667  0.33333333  0.10034500  1
  W  W14  1  0.66666667  0.33333333  0.40032900  1
  W  W15  1  0.66666667  0.33333333  0.70089700  1
  W  W16  1  0.00000000  0.00000000  0.30511400  1
  W  W17  1  0.00000000  0.00000000  0.59992900  1
  O  O18  1  0.83182867  0.66365733  0.64772200  1
  O  O19  1  0.84226817  0.68453633  0.85057100  1
  O  O20  1  0.35038367  0.17519183  0.34719900  1
  O  O21  1  0.33903967  0.16951983  0.15631700  1
  O  O22  1  0.51113567  0.02227133  0.73841000  1
  O  O23  1  0.68983767  0.84491883  0.24775900  1
  O  O24  1  0.51101617  0.02203233  0.06447800  1
  O  O25  1  0.51070267  0.02140533  0.43754600  1
  O  O26  1  0.69599267  0.84799633  0.55819900  1
  O  O27  1  0.69547967  0.84773983  0.94298700  1
  O  O28  1  0.82480817  0.17519183  0.34719900  1
  O  O29  1  0.15226017  0.84773983  0.94298700  1
  O  O30  1  0.51101617  0.48898383  0.06447800  1
  O  O31  1  0.51070267  0.48929733  0.43754600  1
  O  O32  1  0.15200367  0.84799633  0.55819900  1
  O  O33  1  0.83048017  0.16951983  0.15631700  1
  O  O34  1  0.83182867  0.16817133  0.64772200  1
  O  O35  1  0.84226817  0.15773183  0.85057100  1
  O  O36  1  0.51113567  0.48886433  0.73841000  1
  O  O37  1  0.15508117  0.84491883  0.24775900  1
  O  O38  1  0.97796767  0.48898383  0.06447800  1
  O  O39  1  0.97859467  0.48929733  0.43754600  1
  O  O40  1  0.15200367  0.30400733  0.55819900  1
  O  O41  1  0.15226017  0.30452033  0.94298700  1
  O  O42  1  0.97772867  0.48886433  0.73841000  1
  O  O43  1  0.15508117  0.31016233  0.24775900  1
  O  O44  1  0.33634267  0.16817133  0.64772200  1
  O  O45  1  0.31546367  0.15773183  0.85057100  1
  O  O46  1  0.83048017  0.66096033  0.15631700  1
  O  O47  1  0.82480817  0.64961633  0.34719900  1
