# generated using pymatgen
data_Li6Fe5NiO12
_symmetry_space_group_name_H-M   'P 1'
_cell_length_a   5.10811800
_cell_length_b   8.83900600
_cell_length_c   10.15238360
_cell_angle_alpha   90.00000000
_cell_angle_beta   98.45227103
_cell_angle_gamma   90.00000000
_symmetry_Int_Tables_number   1
_chemical_formula_structural   Li6Fe5NiO12
_chemical_formula_sum   'Li12 Fe10 Ni2 O24'
_cell_volume   453.40837763
_cell_formula_units_Z   2
loop_
 _symmetry_equiv_pos_site_id
 _symmetry_equiv_pos_as_xyz
  1  'x, y, z'
loop_
 _atom_site_type_symbol
 _atom_site_label
 _atom_site_symmetry_multiplicity
 _atom_site_fract_x
 _atom_site_fract_y
 _atom_site_fract_z
 _atom_site_occupancy
  Li  Li0  1  0.10692600  0.00000000  0.25085600  1
  Li  Li1  1  0.39698200  0.16638200  0.74303600  1
  Li  Li2  1  0.39698200  0.83361800  0.74303600  1
  Li  Li3  1  0.60301800  0.16638200  0.25696400  1
  Li  Li4  1  0.60301800  0.83361800  0.25696400  1
  Li  Li5  1  0.89307400  0.00000000  0.74914400  1
  Li  Li6  1  0.60692600  0.50000000  0.25085600  1
  Li  Li7  1  0.89698200  0.66638200  0.74303600  1
  Li  Li8  1  0.89698200  0.33361800  0.74303600  1
  Li  Li9  1  0.10301800  0.66638200  0.25696400  1
  Li  Li10  1  0.10301800  0.33361800  0.25696400  1
  Li  Li11  1  0.39307400  0.50000000  0.74914400  1
  Fe  Fe12  1  0.50000000  0.00000000  0.50000000  1
  Fe  Fe13  1  0.50000000  0.33379100  0.50000000  1
  Fe  Fe14  1  0.50000000  0.66620900  0.50000000  1
  Fe  Fe15  1  0.50000000  0.16775100  0.00000000  1
  Fe  Fe16  1  0.50000000  0.83224900  0.00000000  1
  Fe  Fe17  1  0.00000000  0.50000000  0.50000000  1
  Fe  Fe18  1  0.00000000  0.83379100  0.50000000  1
  Fe  Fe19  1  0.00000000  0.16620900  0.50000000  1
  Fe  Fe20  1  0.00000000  0.66775100  0.00000000  1
  Fe  Fe21  1  0.00000000  0.33224900  0.00000000  1
  Ni  Ni22  1  0.00000000  0.00000000  0.00000000  1
  Ni  Ni23  1  0.50000000  0.50000000  0.00000000  1
  O  O24  1  0.19954800  0.00000000  0.61303900  1
  O  O25  1  0.36499900  0.32966200  0.11383200  1
  O  O26  1  0.36499900  0.67033800  0.11383200  1
  O  O27  1  0.30104550  0.16677350  0.38704000  1
  O  O28  1  0.30104550  0.83322650  0.38704000  1
  O  O29  1  0.37976900  0.00000000  0.11447900  1
  O  O30  1  0.62023100  0.00000000  0.88552100  1
  O  O31  1  0.69895450  0.16677350  0.61296000  1
  O  O32  1  0.69895450  0.83322650  0.61296000  1
  O  O33  1  0.63500100  0.32966200  0.88616800  1
  O  O34  1  0.63500100  0.67033800  0.88616800  1
  O  O35  1  0.80045200  0.00000000  0.38696100  1
  O  O36  1  0.69954800  0.50000000  0.61303900  1
  O  O37  1  0.86499900  0.82966200  0.11383200  1
  O  O38  1  0.86499900  0.17033800  0.11383200  1
  O  O39  1  0.80104550  0.66677350  0.38704000  1
  O  O40  1  0.80104550  0.33322650  0.38704000  1
  O  O41  1  0.87976900  0.50000000  0.11447900  1
  O  O42  1  0.12023100  0.50000000  0.88552100  1
  O  O43  1  0.19895450  0.66677350  0.61296000  1
  O  O44  1  0.19895450  0.33322650  0.61296000  1
  O  O45  1  0.13500100  0.82966200  0.88616800  1
  O  O46  1  0.13500100  0.17033800  0.88616800  1
  O  O47  1  0.30045200  0.50000000  0.38696100  1
