# generated using pymatgen
data_Mn6O7F5
_symmetry_space_group_name_H-M   'P 1'
_cell_length_a   4.56862591
_cell_length_b   5.64113171
_cell_length_c   15.34618663
_cell_angle_alpha   89.96014782
_cell_angle_beta   89.55802922
_cell_angle_gamma   89.20323884
_symmetry_Int_Tables_number   1
_chemical_formula_structural   Mn6O7F5
_chemical_formula_sum   'Mn12 O14 F10'
_cell_volume   395.45523002
_cell_formula_units_Z   2
loop_
 _symmetry_equiv_pos_site_id
 _symmetry_equiv_pos_as_xyz
  1  'x, y, z'
loop_
 _atom_site_type_symbol
 _atom_site_label
 _atom_site_symmetry_multiplicity
 _atom_site_fract_x
 _atom_site_fract_y
 _atom_site_fract_z
 _atom_site_occupancy
  Mn  Mn0  1  0.03267500  0.82378900  0.59202600  1
  Mn  Mn1  1  0.03044300  0.16156300  0.75418700  1
  Mn  Mn2  1  0.99846800  0.84762600  0.92439100  1
  Mn  Mn3  1  0.01843200  0.83493700  0.25578800  1
  Mn  Mn4  1  0.99208800  0.15156700  0.41810100  1
  Mn  Mn5  1  0.01405400  0.15094900  0.09343000  1
  Mn  Mn6  1  0.50319900  0.64885500  0.41266000  1
  Mn  Mn7  1  0.49744900  0.65213200  0.07891700  1
  Mn  Mn8  1  0.50089400  0.63713900  0.74356800  1
  Mn  Mn9  1  0.50895500  0.34564100  0.90981900  1
  Mn  Mn10  1  0.51701000  0.37603600  0.57943900  1
  Mn  Mn11  1  0.49798900  0.36475500  0.23916800  1
  O  O12  1  0.24099800  0.88710500  0.69934000  1
  O  O13  1  0.20924700  0.88382500  0.36500700  1
  O  O14  1  0.21899500  0.88763200  0.03299300  1
  O  O15  1  0.21545900  0.11376600  0.86631500  1
  O  O16  1  0.23263000  0.11334600  0.19889800  1
  O  O17  1  0.28718800  0.40245100  0.68487800  1
  O  O18  1  0.28834400  0.60846400  0.52163800  1
  O  O19  1  0.27523300  0.60254700  0.18691700  1
  O  O20  1  0.71437000  0.61742600  0.96904800  1
  O  O21  1  0.72404600  0.38427000  0.80239400  1
  O  O22  1  0.72805000  0.61589700  0.64017500  1
  O  O23  1  0.73436200  0.38781900  0.47042000  1
  O  O24  1  0.72242600  0.38268200  0.13706000  1
  O  O25  1  0.72174800  0.60916600  0.30378900  1
  F  F26  1  0.25438600  0.12026500  0.53095900  1
  F  F27  1  0.24933500  0.61661700  0.84844500  1
  F  F28  1  0.25131000  0.37551400  0.34987000  1
  F  F29  1  0.25294100  0.38255800  0.01437800  1
  F  F30  1  0.74905300  0.87293000  0.80874900  1
  F  F31  1  0.77463400  0.89555500  0.48250900  1
  F  F32  1  0.78102200  0.13047400  0.63902700  1
  F  F33  1  0.75411800  0.11721000  0.98864600  1
  F  F34  1  0.77140600  0.87375700  0.15189800  1
  F  F35  1  0.73704400  0.12373800  0.30515200  1
