# generated using pymatgen
data_Li4CoO3
_symmetry_space_group_name_H-M   'P 1'
_cell_length_a   10.00509200
_cell_length_b   5.09640400
_cell_length_c   6.95633121
_cell_angle_alpha   90.00000000
_cell_angle_beta   112.01894468
_cell_angle_gamma   90.00000000
_symmetry_Int_Tables_number   1
_chemical_formula_structural   Li4CoO3
_chemical_formula_sum   'Li16 Co4 O12'
_cell_volume   328.83118788
_cell_formula_units_Z   4
loop_
 _symmetry_equiv_pos_site_id
 _symmetry_equiv_pos_as_xyz
  1  'x, y, z'
loop_
 _atom_site_type_symbol
 _atom_site_label
 _atom_site_symmetry_multiplicity
 _atom_site_fract_x
 _atom_site_fract_y
 _atom_site_fract_z
 _atom_site_occupancy
  Li  Li0  1  0.47701400  0.71054100  0.09106300  1
  Li  Li1  1  0.04474750  0.65768250  0.28115900  1
  Li  Li2  1  0.28758350  0.35154850  0.18529500  1
  Li  Li3  1  0.39707450  0.84629450  0.39015000  1
  Li  Li4  1  0.47701400  0.28945900  0.59106300  1
  Li  Li5  1  0.04474750  0.34231750  0.78115900  1
  Li  Li6  1  0.28758350  0.64845150  0.68529500  1
  Li  Li7  1  0.39707450  0.15370550  0.89015000  1
  Li  Li8  1  0.97701400  0.21054100  0.09106300  1
  Li  Li9  1  0.54474750  0.15768250  0.28115900  1
  Li  Li10  1  0.78758350  0.85154850  0.18529500  1
  Li  Li11  1  0.89707450  0.34629450  0.39015000  1
  Li  Li12  1  0.97701400  0.78945900  0.59106300  1
  Li  Li13  1  0.54474750  0.84231750  0.78115900  1
  Li  Li14  1  0.78758350  0.14845150  0.68529500  1
  Li  Li15  1  0.89707450  0.65370550  0.89015000  1
  Co  Co16  1  0.15956250  0.85708350  0.00469300  1
  Co  Co17  1  0.15956250  0.14291650  0.50469300  1
  Co  Co18  1  0.65956250  0.35708350  0.00469300  1
  Co  Co19  1  0.65956250  0.64291650  0.50469300  1
  O  O20  1  0.10531500  0.51777200  0.05548600  1
  O  O21  1  0.33655800  0.00809900  0.10677700  1
  O  O22  1  0.47333950  0.50213350  0.34361100  1
  O  O23  1  0.10531500  0.48222800  0.55548600  1
  O  O24  1  0.33655800  0.99190100  0.60677700  1
  O  O25  1  0.47333950  0.49786650  0.84361100  1
  O  O26  1  0.60531500  0.01777200  0.05548600  1
  O  O27  1  0.83655800  0.50809900  0.10677700  1
  O  O28  1  0.97333950  0.00213350  0.34361100  1
  O  O29  1  0.60531500  0.98222800  0.55548600  1
  O  O30  1  0.83655800  0.49190100  0.60677700  1
  O  O31  1  0.97333950  0.99786650  0.84361100  1
