# generated using pymatgen
data_Li3Nb(CoO2)4
_symmetry_space_group_name_H-M   'P 1'
_cell_length_a   10.37674200
_cell_length_b   6.10673400
_cell_length_c   6.12405908
_cell_angle_alpha   90.00000000
_cell_angle_beta   126.02598254
_cell_angle_gamma   90.00000000
_symmetry_Int_Tables_number   1
_chemical_formula_structural   Li3Nb(CoO2)4
_chemical_formula_sum   'Li6 Nb2 Co8 O16'
_cell_volume   313.85126403
_cell_formula_units_Z   2
loop_
 _symmetry_equiv_pos_site_id
 _symmetry_equiv_pos_as_xyz
  1  'x, y, z'
loop_
 _atom_site_type_symbol
 _atom_site_label
 _atom_site_symmetry_multiplicity
 _atom_site_fract_x
 _atom_site_fract_y
 _atom_site_fract_z
 _atom_site_occupancy
  Li  Li0  1  0.75000000  0.75000000  0.00000000  1
  Li  Li1  1  0.25000000  0.75000000  0.00000000  1
  Li  Li2  1  0.00000000  0.00000000  0.50000000  1
  Li  Li3  1  0.25000000  0.25000000  0.00000000  1
  Li  Li4  1  0.75000000  0.25000000  0.00000000  1
  Li  Li5  1  0.50000000  0.50000000  0.50000000  1
  Nb  Nb6  1  0.00000000  0.50000000  0.00000000  1
  Nb  Nb7  1  0.50000000  0.00000000  0.00000000  1
  Co  Co8  1  0.00000000  0.00000000  0.00000000  1
  Co  Co9  1  0.25000000  0.75000000  0.50000000  1
  Co  Co10  1  0.25000000  0.25000000  0.50000000  1
  Co  Co11  1  0.50000000  0.00000000  0.50000000  1
  Co  Co12  1  0.50000000  0.50000000  0.00000000  1
  Co  Co13  1  0.75000000  0.25000000  0.50000000  1
  Co  Co14  1  0.75000000  0.75000000  0.50000000  1
  Co  Co15  1  0.00000000  0.50000000  0.50000000  1
  O  O16  1  0.24021300  0.50000000  0.24034900  1
  O  O17  1  0.50389700  0.23750300  0.76676400  1
  O  O18  1  0.50389700  0.76249700  0.76676400  1
  O  O19  1  0.25978700  0.00000000  0.75965100  1
  O  O20  1  0.25001500  0.00000000  0.26854500  1
  O  O21  1  0.99610300  0.26249700  0.23323600  1
  O  O22  1  0.99610300  0.73750300  0.23323600  1
  O  O23  1  0.24998500  0.50000000  0.73145500  1
  O  O24  1  0.74021300  0.00000000  0.24034900  1
  O  O25  1  0.00389700  0.73750300  0.76676400  1
  O  O26  1  0.00389700  0.26249700  0.76676400  1
  O  O27  1  0.75978700  0.50000000  0.75965100  1
  O  O28  1  0.75001500  0.50000000  0.26854500  1
  O  O29  1  0.49610300  0.76249700  0.23323600  1
  O  O30  1  0.49610300  0.23750300  0.23323600  1
  O  O31  1  0.74998500  0.00000000  0.73145500  1
