# generated using pymatgen
data_Li2Co(CO3)2
_symmetry_space_group_name_H-M   'P 1'
_cell_length_a   5.38694692
_cell_length_b   11.39721033
_cell_length_c   16.39783646
_cell_angle_alpha   90.00000000
_cell_angle_beta   90.00000000
_cell_angle_gamma   90.00000000
_symmetry_Int_Tables_number   1
_chemical_formula_structural   Li2Co(CO3)2
_chemical_formula_sum   'Li16 Co8 C16 O48'
_cell_volume   1006.76430658
_cell_formula_units_Z   8
loop_
 _symmetry_equiv_pos_site_id
 _symmetry_equiv_pos_as_xyz
  1  'x, y, z'
loop_
 _atom_site_type_symbol
 _atom_site_label
 _atom_site_symmetry_multiplicity
 _atom_site_fract_x
 _atom_site_fract_y
 _atom_site_fract_z
 _atom_site_occupancy
  Li  Li0  1  0.40971750  0.72737200  0.08487850  1
  Li  Li1  1  0.65971750  0.97737200  0.16512150  1
  Li  Li2  1  0.65971750  0.52262800  0.33487850  1
  Li  Li3  1  0.40971750  0.77262800  0.41512150  1
  Li  Li4  1  0.90971750  0.72737200  0.58487850  1
  Li  Li5  1  0.15971750  0.97737200  0.66512150  1
  Li  Li6  1  0.15971750  0.52262800  0.83487850  1
  Li  Li7  1  0.90971750  0.77262800  0.91512150  1
  Li  Li8  1  0.90971750  0.22737200  0.08487850  1
  Li  Li9  1  0.15971750  0.47737200  0.16512150  1
  Li  Li10  1  0.15971750  0.02262800  0.33487850  1
  Li  Li11  1  0.90971750  0.27262800  0.41512150  1
  Li  Li12  1  0.40971750  0.22737200  0.58487850  1
  Li  Li13  1  0.65971750  0.47737200  0.66512150  1
  Li  Li14  1  0.65971750  0.02262800  0.83487850  1
  Li  Li15  1  0.40971750  0.27262800  0.91512150  1
  Co  Co16  1  0.87787500  0.75000000  0.25000000  1
  Co  Co17  1  0.62787500  0.00000000  0.50000000  1
  Co  Co18  1  0.37787500  0.75000000  0.75000000  1
  Co  Co19  1  0.12787500  0.00000000  0.00000000  1
  Co  Co20  1  0.37787500  0.25000000  0.25000000  1
  Co  Co21  1  0.12787500  0.50000000  0.50000000  1
  Co  Co22  1  0.87787500  0.25000000  0.75000000  1
  Co  Co23  1  0.62787500  0.50000000  0.00000000  1
  C  C24  1  0.94513200  0.80313350  0.09940450  1
  C  C25  1  0.69513200  0.55313350  0.15059550  1
  C  C26  1  0.69513200  0.94686650  0.34940450  1
  C  C27  1  0.94513200  0.69686650  0.40059550  1
  C  C28  1  0.44513200  0.80313350  0.59940450  1
  C  C29  1  0.19513200  0.55313350  0.65059550  1
  C  C30  1  0.19513200  0.94686650  0.84940450  1
  C  C31  1  0.44513200  0.69686650  0.90059550  1
  C  C32  1  0.44513200  0.30313350  0.09940450  1
  C  C33  1  0.19513200  0.05313350  0.15059550  1
  C  C34  1  0.19513200  0.44686650  0.34940450  1
  C  C35  1  0.44513200  0.19686650  0.40059550  1
  C  C36  1  0.94513200  0.30313350  0.59940450  1
  C  C37  1  0.69513200  0.05313350  0.65059550  1
  C  C38  1  0.69513200  0.44686650  0.84940450  1
  C  C39  1  0.94513200  0.19686650  0.90059550  1
  O  O40  1  0.00688900  0.83099050  0.02544650  1
  O  O41  1  0.46706150  0.55435300  0.12474950  1
  O  O42  1  0.11530350  0.77384250  0.15173700  1
  O  O43  1  0.86530350  0.52384250  0.09826300  1
  O  O44  1  0.71706150  0.80435300  0.12525050  1
  O  O45  1  0.75688900  0.58099050  0.22455350  1
  O  O46  1  0.11530350  0.72615750  0.34826300  1
  O  O47  1  0.75688900  0.91900950  0.27544650  1
  O  O48  1  0.86530350  0.97615750  0.40173700  1
  O  O49  1  0.46706150  0.94564700  0.37525050  1
  O  O50  1  0.71706150  0.69564700  0.37474950  1
  O  O51  1  0.00688900  0.66900950  0.47455350  1
  O  O52  1  0.50688900  0.83099050  0.52544650  1
  O  O53  1  0.96706150  0.55435300  0.62474950  1
  O  O54  1  0.61530350  0.77384250  0.65173700  1
  O  O55  1  0.36530350  0.52384250  0.59826300  1
  O  O56  1  0.21706150  0.80435300  0.62525050  1
  O  O57  1  0.25688900  0.58099050  0.72455350  1
  O  O58  1  0.61530350  0.72615750  0.84826300  1
  O  O59  1  0.25688900  0.91900950  0.77544650  1
  O  O60  1  0.36530350  0.97615750  0.90173700  1
  O  O61  1  0.96706150  0.94564700  0.87525050  1
  O  O62  1  0.21706150  0.69564700  0.87474950  1
  O  O63  1  0.50688900  0.66900950  0.97455350  1
  O  O64  1  0.50688900  0.33099050  0.02544650  1
  O  O65  1  0.96706150  0.05435300  0.12474950  1
  O  O66  1  0.61530350  0.27384250  0.15173700  1
  O  O67  1  0.36530350  0.02384250  0.09826300  1
  O  O68  1  0.21706150  0.30435300  0.12525050  1
  O  O69  1  0.25688900  0.08099050  0.22455350  1
  O  O70  1  0.61530350  0.22615750  0.34826300  1
  O  O71  1  0.25688900  0.41900950  0.27544650  1
  O  O72  1  0.36530350  0.47615750  0.40173700  1
  O  O73  1  0.96706150  0.44564700  0.37525050  1
  O  O74  1  0.21706150  0.19564700  0.37474950  1
  O  O75  1  0.50688900  0.16900950  0.47455350  1
  O  O76  1  0.00688900  0.33099050  0.52544650  1
  O  O77  1  0.46706150  0.05435300  0.62474950  1
  O  O78  1  0.11530350  0.27384250  0.65173700  1
  O  O79  1  0.86530350  0.02384250  0.59826300  1
  O  O80  1  0.71706150  0.30435300  0.62525050  1
  O  O81  1  0.75688900  0.08099050  0.72455350  1
  O  O82  1  0.11530350  0.22615750  0.84826300  1
  O  O83  1  0.75688900  0.41900950  0.77544650  1
  O  O84  1  0.86530350  0.47615750  0.90173700  1
  O  O85  1  0.46706150  0.44564700  0.87525050  1
  O  O86  1  0.71706150  0.19564700  0.87474950  1
  O  O87  1  0.00688900  0.16900950  0.97455350  1
