# generated using pymatgen
data_Li3V7O12
_symmetry_space_group_name_H-M   'P 1'
_cell_length_a   5.20430200
_cell_length_b   9.06521600
_cell_length_c   9.91032517
_cell_angle_alpha   90.00000000
_cell_angle_beta   101.13098995
_cell_angle_gamma   90.00000000
_symmetry_Int_Tables_number   1
_chemical_formula_structural   Li3V7O12
_chemical_formula_sum   'Li6 V14 O24'
_cell_volume   458.75514946
_cell_formula_units_Z   2
loop_
 _symmetry_equiv_pos_site_id
 _symmetry_equiv_pos_as_xyz
  1  'x, y, z'
loop_
 _atom_site_type_symbol
 _atom_site_label
 _atom_site_symmetry_multiplicity
 _atom_site_fract_x
 _atom_site_fract_y
 _atom_site_fract_z
 _atom_site_occupancy
  Li  Li0  1  0.75981200  0.91625100  0.23738000  1
  Li  Li1  1  0.24018800  0.91625100  0.76262000  1
  Li  Li2  1  0.00000000  0.92019400  0.00000000  1
  Li  Li3  1  0.25981200  0.41625100  0.23738000  1
  Li  Li4  1  0.74018800  0.41625100  0.76262000  1
  Li  Li5  1  0.50000000  0.42019400  0.00000000  1
  V  V6  1  0.50000000  0.58466800  0.50000000  1
  V  V7  1  0.75964700  0.75891200  0.76245500  1
  V  V8  1  0.50000000  0.73729900  0.00000000  1
  V  V9  1  0.24035300  0.75891200  0.23754500  1
  V  V10  1  0.50000000  0.92453500  0.50000000  1
  V  V11  1  0.00000000  0.57407100  0.00000000  1
  V  V12  1  0.00000000  0.75136200  0.50000000  1
  V  V13  1  0.00000000  0.08466800  0.50000000  1
  V  V14  1  0.25964700  0.25891200  0.76245500  1
  V  V15  1  0.00000000  0.23729900  0.00000000  1
  V  V16  1  0.74035300  0.25891200  0.23754500  1
  V  V17  1  0.00000000  0.42453500  0.50000000  1
  V  V18  1  0.50000000  0.07407100  0.00000000  1
  V  V19  1  0.50000000  0.25136200  0.50000000  1
  O  O20  1  0.61114900  0.75892800  0.38747800  1
  O  O21  1  0.87713700  0.91093700  0.61389500  1
  O  O22  1  0.38885100  0.75892800  0.61252200  1
  O  O23  1  0.60848000  0.89675900  0.88212600  1
  O  O24  1  0.39152000  0.89675900  0.11787400  1
  O  O25  1  0.35334450  0.59152350  0.11663700  1
  O  O26  1  0.14160100  0.59137200  0.38630100  1
  O  O27  1  0.12286300  0.91093700  0.38610500  1
  O  O28  1  0.10216250  0.74451650  0.87829100  1
  O  O29  1  0.85839900  0.59137200  0.61369900  1
  O  O30  1  0.64665550  0.59152350  0.88336300  1
  O  O31  1  0.89783750  0.74451650  0.12170900  1
  O  O32  1  0.11114900  0.25892800  0.38747800  1
  O  O33  1  0.37713700  0.41093700  0.61389500  1
  O  O34  1  0.88885100  0.25892800  0.61252200  1
  O  O35  1  0.10848000  0.39675900  0.88212600  1
  O  O36  1  0.89152000  0.39675900  0.11787400  1
  O  O37  1  0.85334450  0.09152350  0.11663700  1
  O  O38  1  0.64160100  0.09137200  0.38630100  1
  O  O39  1  0.62286300  0.41093700  0.38610500  1
  O  O40  1  0.60216250  0.24451650  0.87829100  1
  O  O41  1  0.35839900  0.09137200  0.61369900  1
  O  O42  1  0.14665550  0.09152350  0.88336300  1
  O  O43  1  0.39783750  0.24451650  0.12170900  1
