# generated using pymatgen
data_Co2O3F
_symmetry_space_group_name_H-M   'P 1'
_cell_length_a   17.54801600
_cell_length_b   5.87127000
_cell_length_c   4.38752077
_cell_angle_alpha   90.00000000
_cell_angle_beta   92.67439577
_cell_angle_gamma   90.00000000
_symmetry_Int_Tables_number   1
_chemical_formula_structural   Co2O3F
_chemical_formula_sum   'Co16 O24 F8'
_cell_volume   451.55013867
_cell_formula_units_Z   8
loop_
 _symmetry_equiv_pos_site_id
 _symmetry_equiv_pos_as_xyz
  1  'x, y, z'
loop_
 _atom_site_type_symbol
 _atom_site_label
 _atom_site_symmetry_multiplicity
 _atom_site_fract_x
 _atom_site_fract_y
 _atom_site_fract_z
 _atom_site_occupancy
  Co  Co0  1  0.74318300  0.00000000  0.52593000  1
  Co  Co1  1  0.75681700  0.50000000  0.47407000  1
  Co  Co2  1  0.00000000  0.00000000  0.50000000  1
  Co  Co3  1  0.00000000  0.50000000  0.50000000  1
  Co  Co4  1  0.62478700  0.25409700  0.99912700  1
  Co  Co5  1  0.87521300  0.75409700  0.00087300  1
  Co  Co6  1  0.62478700  0.74590300  0.99912700  1
  Co  Co7  1  0.87521300  0.24590300  0.00087300  1
  Co  Co8  1  0.24318300  0.50000000  0.52593000  1
  Co  Co9  1  0.25681700  0.00000000  0.47407000  1
  Co  Co10  1  0.50000000  0.50000000  0.50000000  1
  Co  Co11  1  0.50000000  0.00000000  0.50000000  1
  Co  Co12  1  0.12478700  0.75409700  0.99912700  1
  Co  Co13  1  0.37521300  0.25409700  0.00087300  1
  Co  Co14  1  0.12478700  0.24590300  0.99912700  1
  Co  Co15  1  0.37521300  0.74590300  0.00087300  1
  O  O16  1  0.57692900  0.50000000  0.18820600  1
  O  O17  1  0.82829100  0.50000000  0.19099500  1
  O  O18  1  0.70193000  0.74887900  0.30496300  1
  O  O19  1  0.95100400  0.24883300  0.30692700  1
  O  O20  1  0.70193000  0.25112100  0.30496300  1
  O  O21  1  0.95100400  0.75116700  0.30692700  1
  O  O22  1  0.54899600  0.74883300  0.69307300  1
  O  O23  1  0.79807000  0.75112100  0.69503700  1
  O  O24  1  0.79807000  0.24887900  0.69503700  1
  O  O25  1  0.54899600  0.25116700  0.69307300  1
  O  O26  1  0.92307100  0.00000000  0.81179400  1
  O  O27  1  0.67170900  0.00000000  0.80900500  1
  O  O28  1  0.07692900  0.00000000  0.18820600  1
  O  O29  1  0.32829100  0.00000000  0.19099500  1
  O  O30  1  0.20193000  0.24887900  0.30496300  1
  O  O31  1  0.45100400  0.74883300  0.30692700  1
  O  O32  1  0.20193000  0.75112100  0.30496300  1
  O  O33  1  0.45100400  0.25116700  0.30692700  1
  O  O34  1  0.04899600  0.24883300  0.69307300  1
  O  O35  1  0.29807000  0.25112100  0.69503700  1
  O  O36  1  0.29807000  0.74887900  0.69503700  1
  O  O37  1  0.04899600  0.75116700  0.69307300  1
  O  O38  1  0.42307100  0.50000000  0.81179400  1
  O  O39  1  0.17170900  0.50000000  0.80900500  1
  F  F40  1  0.81900300  0.00000000  0.22053200  1
  F  F41  1  0.57233300  0.00000000  0.21340700  1
  F  F42  1  0.92766700  0.50000000  0.78659300  1
  F  F43  1  0.68099700  0.50000000  0.77946800  1
  F  F44  1  0.31900300  0.50000000  0.22053200  1
  F  F45  1  0.07233300  0.50000000  0.21340700  1
  F  F46  1  0.42766700  0.00000000  0.78659300  1
  F  F47  1  0.18099700  0.00000000  0.77946800  1
