# generated using pymatgen
data_V6O13
_symmetry_space_group_name_H-M   'P 1'
_cell_length_a   12.10062200
_cell_length_b   20.11034600
_cell_length_c   3.75843100
_cell_angle_alpha   90.00000000
_cell_angle_beta   90.00000000
_cell_angle_gamma   90.00000000
_symmetry_Int_Tables_number   1
_chemical_formula_structural   V6O13
_chemical_formula_sum   'V24 O52'
_cell_volume   914.60552155
_cell_formula_units_Z   4
loop_
 _symmetry_equiv_pos_site_id
 _symmetry_equiv_pos_as_xyz
  1  'x, y, z'
loop_
 _atom_site_type_symbol
 _atom_site_label
 _atom_site_symmetry_multiplicity
 _atom_site_fract_x
 _atom_site_fract_y
 _atom_site_fract_z
 _atom_site_occupancy
  V  V0  1  0.40251650  0.18252850  0.75000000  1
  V  V1  1  0.39426900  0.31652000  0.25000000  1
  V  V2  1  0.39426900  0.68348000  0.25000000  1
  V  V3  1  0.60573100  0.31652000  0.75000000  1
  V  V4  1  0.59748350  0.81747150  0.25000000  1
  V  V5  1  0.59748350  0.18252850  0.25000000  1
  V  V6  1  0.40251650  0.81747150  0.75000000  1
  V  V7  1  0.60573100  0.68348000  0.75000000  1
  V  V8  1  0.90066000  0.00000000  0.25000000  1
  V  V9  1  0.09934000  0.00000000  0.75000000  1
  V  V10  1  0.39778700  0.00000000  0.75000000  1
  V  V11  1  0.60221300  0.00000000  0.25000000  1
  V  V12  1  0.90251650  0.68252850  0.75000000  1
  V  V13  1  0.89426900  0.81652000  0.25000000  1
  V  V14  1  0.89426900  0.18348000  0.25000000  1
  V  V15  1  0.10573100  0.81652000  0.75000000  1
  V  V16  1  0.09748350  0.31747150  0.25000000  1
  V  V17  1  0.09748350  0.68252850  0.25000000  1
  V  V18  1  0.90251650  0.31747150  0.75000000  1
  V  V19  1  0.10573100  0.18348000  0.75000000  1
  V  V20  1  0.40066000  0.50000000  0.25000000  1
  V  V21  1  0.59934000  0.50000000  0.75000000  1
  V  V22  1  0.89778700  0.50000000  0.75000000  1
  V  V23  1  0.10221300  0.50000000  0.25000000  1
  O  O24  1  0.40275450  0.39976650  0.25000000  1
  O  O25  1  0.40275450  0.60023350  0.25000000  1
  O  O26  1  0.40309300  0.90136900  0.75000000  1
  O  O27  1  0.40309300  0.09863100  0.75000000  1
  O  O28  1  0.59724550  0.60023350  0.75000000  1
  O  O29  1  0.59724550  0.39976650  0.75000000  1
  O  O30  1  0.59690700  0.09863100  0.25000000  1
  O  O31  1  0.59690700  0.90136900  0.25000000  1
  O  O32  1  0.56833400  0.00000000  0.75000000  1
  O  O33  1  0.92713300  0.00000000  0.75000000  1
  O  O34  1  0.07286700  0.00000000  0.25000000  1
  O  O35  1  0.43166600  0.00000000  0.25000000  1
  O  O36  1  0.57170950  0.79657750  0.75000000  1
  O  O37  1  0.57352450  0.29828050  0.25000000  1
  O  O38  1  0.42829050  0.79657750  0.25000000  1
  O  O39  1  0.42647550  0.29828050  0.75000000  1
  O  O40  1  0.42647550  0.70171950  0.75000000  1
  O  O41  1  0.57170950  0.20342250  0.75000000  1
  O  O42  1  0.42829050  0.20342250  0.25000000  1
  O  O43  1  0.57352450  0.70171950  0.25000000  1
  O  O44  1  0.75505350  0.80225950  0.25000000  1
  O  O45  1  0.75505350  0.19774050  0.25000000  1
  O  O46  1  0.24494650  0.19774050  0.75000000  1
  O  O47  1  0.24494650  0.80225950  0.75000000  1
  O  O48  1  0.74535100  0.00000000  0.25000000  1
  O  O49  1  0.25464900  0.00000000  0.75000000  1
  O  O50  1  0.90275450  0.89976650  0.25000000  1
  O  O51  1  0.90275450  0.10023350  0.25000000  1
  O  O52  1  0.90309300  0.40136900  0.75000000  1
  O  O53  1  0.90309300  0.59863100  0.75000000  1
  O  O54  1  0.09724550  0.10023350  0.75000000  1
  O  O55  1  0.09724550  0.89976650  0.75000000  1
  O  O56  1  0.09690700  0.59863100  0.25000000  1
  O  O57  1  0.09690700  0.40136900  0.25000000  1
  O  O58  1  0.06833400  0.50000000  0.75000000  1
  O  O59  1  0.42713300  0.50000000  0.75000000  1
  O  O60  1  0.57286700  0.50000000  0.25000000  1
  O  O61  1  0.93166600  0.50000000  0.25000000  1
  O  O62  1  0.07170950  0.29657750  0.75000000  1
  O  O63  1  0.07352450  0.79828050  0.25000000  1
  O  O64  1  0.92829050  0.29657750  0.25000000  1
  O  O65  1  0.92647550  0.79828050  0.75000000  1
  O  O66  1  0.92647550  0.20171950  0.75000000  1
  O  O67  1  0.07170950  0.70342250  0.75000000  1
  O  O68  1  0.92829050  0.70342250  0.25000000  1
  O  O69  1  0.07352450  0.20171950  0.25000000  1
  O  O70  1  0.25505350  0.30225950  0.25000000  1
  O  O71  1  0.25505350  0.69774050  0.25000000  1
  O  O72  1  0.74494650  0.69774050  0.75000000  1
  O  O73  1  0.74494650  0.30225950  0.75000000  1
  O  O74  1  0.24535100  0.50000000  0.25000000  1
  O  O75  1  0.75464900  0.50000000  0.75000000  1
