# generated using pymatgen
data_Cr5(Si2O7)2
_symmetry_space_group_name_H-M   'P 1'
_cell_length_a   5.77190325
_cell_length_b   7.43594392
_cell_length_c   7.91981223
_cell_angle_alpha   112.61957034
_cell_angle_beta   89.71785516
_cell_angle_gamma   107.49549903
_symmetry_Int_Tables_number   1
_chemical_formula_structural   Cr5(Si2O7)2
_chemical_formula_sum   'Cr5 Si4 O14'
_cell_volume   296.87818903
_cell_formula_units_Z   1
loop_
 _symmetry_equiv_pos_site_id
 _symmetry_equiv_pos_as_xyz
  1  'x, y, z'
loop_
 _atom_site_type_symbol
 _atom_site_label
 _atom_site_symmetry_multiplicity
 _atom_site_fract_x
 _atom_site_fract_y
 _atom_site_fract_z
 _atom_site_occupancy
  Cr  Cr0  1  0.00000000  0.00000000  0.00000000  1
  Cr  Cr1  1  0.07518900  0.38961000  0.80851000  1
  Cr  Cr2  1  0.64413300  0.57644800  0.69673800  1
  Cr  Cr3  1  0.35586700  0.42355200  0.30326200  1
  Cr  Cr4  1  0.92481100  0.61039000  0.19149000  1
  Si  Si5  1  0.49630300  0.23555300  0.86527800  1
  Si  Si6  1  0.77248000  0.21588900  0.38533900  1
  Si  Si7  1  0.22752000  0.78411100  0.61466100  1
  Si  Si8  1  0.50369700  0.76444700  0.13472200  1
  O  O9  1  0.85456800  0.22484100  0.57979900  1
  O  O10  1  0.78063400  0.35655600  0.95212800  1
  O  O11  1  0.54943200  0.00763100  0.25864300  1
  O  O12  1  0.40934200  0.35099300  0.74704900  1
  O  O13  1  0.00427600  0.23343800  0.25829300  1
  O  O14  1  0.65132700  0.40544500  0.42262700  1
  O  O15  1  0.31980300  0.23545800  0.03233800  1
  O  O16  1  0.68019700  0.76454200  0.96766200  1
  O  O17  1  0.34867300  0.59455500  0.57737300  1
  O  O18  1  0.99572400  0.76656200  0.74170700  1
  O  O19  1  0.59065800  0.64900700  0.25295100  1
  O  O20  1  0.45056800  0.99236900  0.74135700  1
  O  O21  1  0.21936600  0.64344400  0.04787200  1
  O  O22  1  0.14543200  0.77515900  0.42020100  1
