# generated using pymatgen
data_Li5Mn2Cu3O10
_symmetry_space_group_name_H-M   'P 1'
_cell_length_a   5.05362226
_cell_length_b   5.40475838
_cell_length_c   7.57464964
_cell_angle_alpha   104.25188490
_cell_angle_beta   103.11922893
_cell_angle_gamma   104.75156547
_symmetry_Int_Tables_number   1
_chemical_formula_structural   Li5Mn2Cu3O10
_chemical_formula_sum   'Li5 Mn2 Cu3 O10'
_cell_volume   184.42120528
_cell_formula_units_Z   1
loop_
 _symmetry_equiv_pos_site_id
 _symmetry_equiv_pos_as_xyz
  1  'x, y, z'
loop_
 _atom_site_type_symbol
 _atom_site_label
 _atom_site_symmetry_multiplicity
 _atom_site_fract_x
 _atom_site_fract_y
 _atom_site_fract_z
 _atom_site_occupancy
  Li  Li0  1  0.50000000  0.50000000  0.50000000  1
  Li  Li1  1  0.21022800  0.89652400  0.39391750  1
  Li  Li2  1  0.78977200  0.10347600  0.60608250  1
  Li  Li3  1  0.40177300  0.28497600  0.78898150  1
  Li  Li4  1  0.59822700  0.71502400  0.21101850  1
  Mn  Mn5  1  0.10308400  0.67670000  0.69310450  1
  Mn  Mn6  1  0.89691600  0.32330000  0.30689550  1
  Cu  Cu7  1  0.00000000  0.50000000  0.00000000  1
  Cu  Cu8  1  0.69907050  0.88758700  0.89914350  1
  Cu  Cu9  1  0.30092950  0.11241300  0.10085650  1
  O  O10  1  0.05912150  0.02095400  0.83647150  1
  O  O11  1  0.94087850  0.97904600  0.16352850  1
  O  O12  1  0.34187400  0.66746400  0.92918800  1
  O  O13  1  0.65812600  0.33253600  0.07081200  1
  O  O14  1  0.13085400  0.33387200  0.54602150  1
  O  O15  1  0.86914600  0.66612800  0.45397850  1
  O  O16  1  0.21609150  0.52719600  0.24537700  1
  O  O17  1  0.78390850  0.47280400  0.75462300  1
  O  O18  1  0.44899600  0.87986300  0.66287750  1
  O  O19  1  0.55100400  0.12013700  0.33712250  1
