# generated using pymatgen
data_Na3V2(PO4)3
_symmetry_space_group_name_H-M   'P 1'
_cell_length_a   15.33609200
_cell_length_b   8.92960000
_cell_length_c   8.89007718
_cell_angle_alpha   90.00000000
_cell_angle_beta   125.20340116
_cell_angle_gamma   90.00000000
_symmetry_Int_Tables_number   1
_chemical_formula_structural   Na3V2(PO4)3
_chemical_formula_sum   'Na12 V8 P12 O48'
_cell_volume   994.79393328
_cell_formula_units_Z   4
loop_
 _symmetry_equiv_pos_site_id
 _symmetry_equiv_pos_as_xyz
  1  'x, y, z'
loop_
 _atom_site_type_symbol
 _atom_site_label
 _atom_site_symmetry_multiplicity
 _atom_site_fract_x
 _atom_site_fract_y
 _atom_site_fract_z
 _atom_site_occupancy
  Na  Na0  1  0.75000000  0.75000000  0.00000000  1
  Na  Na1  1  0.25000000  0.75000000  0.50000000  1
  Na  Na2  1  0.67572100  0.57116600  0.23541800  1
  Na  Na3  1  0.32427900  0.57116600  0.26458200  1
  Na  Na4  1  0.67572100  0.42883400  0.73541800  1
  Na  Na5  1  0.32427900  0.42883400  0.76458200  1
  Na  Na6  1  0.25000000  0.25000000  0.00000000  1
  Na  Na7  1  0.75000000  0.25000000  0.50000000  1
  Na  Na8  1  0.17572100  0.07116600  0.23541800  1
  Na  Na9  1  0.82427900  0.07116600  0.26458200  1
  Na  Na10  1  0.17572100  0.92883400  0.73541800  1
  Na  Na11  1  0.82427900  0.92883400  0.76458200  1
  V  V12  1  0.89543050  0.74444750  0.43758000  1
  V  V13  1  0.89543050  0.25555250  0.93758000  1
  V  V14  1  0.10456950  0.74444750  0.06242000  1
  V  V15  1  0.10456950  0.25555250  0.56242000  1
  V  V16  1  0.39543050  0.24444750  0.43758000  1
  V  V17  1  0.39543050  0.75555250  0.93758000  1
  V  V18  1  0.60456950  0.24444750  0.06242000  1
  V  V19  1  0.60456950  0.75555250  0.56242000  1
  P  P20  1  0.14754550  0.60028350  0.75719300  1
  P  P21  1  0.00000000  0.95652500  0.25000000  1
  P  P22  1  0.85245450  0.60028350  0.74280700  1
  P  P23  1  0.14754550  0.39971650  0.25719300  1
  P  P24  1  0.00000000  0.04347500  0.75000000  1
  P  P25  1  0.85245450  0.39971650  0.24280700  1
  P  P26  1  0.64754550  0.10028350  0.75719300  1
  P  P27  1  0.50000000  0.45652500  0.25000000  1
  P  P28  1  0.35245450  0.10028350  0.74280700  1
  P  P29  1  0.64754550  0.89971650  0.25719300  1
  P  P30  1  0.50000000  0.54347500  0.75000000  1
  P  P31  1  0.35245450  0.89971650  0.24280700  1
  O  O32  1  0.15865050  0.42828050  0.74936300  1
  O  O33  1  0.23880800  0.67503500  0.75312900  1
  O  O34  1  0.07896250  0.85861950  0.23686100  1
  O  O35  1  0.16360550  0.63580550  0.94251800  1
  O  O36  1  0.04362650  0.66724550  0.59459900  1
  O  O37  1  0.42924650  0.55468550  0.07599600  1
  O  O38  1  0.92103750  0.85861950  0.26313900  1
  O  O39  1  0.84134950  0.42828050  0.75063700  1
  O  O40  1  0.83639450  0.63580550  0.55748200  1
  O  O41  1  0.95637350  0.66724550  0.90540100  1
  O  O42  1  0.42924650  0.44531450  0.57599600  1
  O  O43  1  0.23880800  0.32496500  0.25312900  1
  O  O44  1  0.76119200  0.67503500  0.74687100  1
  O  O45  1  0.57075350  0.55468550  0.42400400  1
  O  O46  1  0.04362650  0.33275450  0.09459900  1
  O  O47  1  0.16360550  0.36419450  0.44251800  1
  O  O48  1  0.15865050  0.57171950  0.24936300  1
  O  O49  1  0.07896250  0.14138050  0.73686100  1
  O  O50  1  0.57075350  0.44531450  0.92400400  1
  O  O51  1  0.95637350  0.33275450  0.40540100  1
  O  O52  1  0.83639450  0.36419450  0.05748200  1
  O  O53  1  0.92103750  0.14138050  0.76313900  1
  O  O54  1  0.76119200  0.32496500  0.24687100  1
  O  O55  1  0.84134950  0.57171950  0.25063700  1
  O  O56  1  0.65865050  0.92828050  0.74936300  1
  O  O57  1  0.73880800  0.17503500  0.75312900  1
  O  O58  1  0.57896250  0.35861950  0.23686100  1
  O  O59  1  0.66360550  0.13580550  0.94251800  1
  O  O60  1  0.54362650  0.16724550  0.59459900  1
  O  O61  1  0.92924650  0.05468550  0.07599600  1
  O  O62  1  0.42103750  0.35861950  0.26313900  1
  O  O63  1  0.34134950  0.92828050  0.75063700  1
  O  O64  1  0.33639450  0.13580550  0.55748200  1
  O  O65  1  0.45637350  0.16724550  0.90540100  1
  O  O66  1  0.92924650  0.94531450  0.57599600  1
  O  O67  1  0.73880800  0.82496500  0.25312900  1
  O  O68  1  0.26119200  0.17503500  0.74687100  1
  O  O69  1  0.07075350  0.05468550  0.42400400  1
  O  O70  1  0.54362650  0.83275450  0.09459900  1
  O  O71  1  0.66360550  0.86419450  0.44251800  1
  O  O72  1  0.65865050  0.07171950  0.24936300  1
  O  O73  1  0.57896250  0.64138050  0.73686100  1
  O  O74  1  0.07075350  0.94531450  0.92400400  1
  O  O75  1  0.45637350  0.83275450  0.40540100  1
  O  O76  1  0.33639450  0.86419450  0.05748200  1
  O  O77  1  0.42103750  0.64138050  0.76313900  1
  O  O78  1  0.26119200  0.82496500  0.24687100  1
  O  O79  1  0.34134950  0.07171950  0.25063700  1
