# generated using pymatgen
data_Ce5O9
_symmetry_space_group_name_H-M   'P 1'
_cell_length_a   8.69490400
_cell_length_b   8.69490400
_cell_length_c   5.57801200
_cell_angle_alpha   90.00000000
_cell_angle_beta   90.00000000
_cell_angle_gamma   90.00000000
_symmetry_Int_Tables_number   1
_chemical_formula_structural   Ce5O9
_chemical_formula_sum   'Ce10 O18'
_cell_volume   421.70526858
_cell_formula_units_Z   2
loop_
 _symmetry_equiv_pos_site_id
 _symmetry_equiv_pos_as_xyz
  1  'x, y, z'
loop_
 _atom_site_type_symbol
 _atom_site_label
 _atom_site_symmetry_multiplicity
 _atom_site_fract_x
 _atom_site_fract_y
 _atom_site_fract_z
 _atom_site_occupancy
  Ce  Ce0  1  0.71196250  0.61080400  0.72505675  1
  Ce  Ce1  1  0.88919600  0.21196250  0.77494325  1
  Ce  Ce2  1  0.28803750  0.38919600  0.72505675  1
  Ce  Ce3  1  0.11080400  0.78803750  0.77494325  1
  Ce  Ce4  1  0.00000000  0.50000000  0.25000000  1
  Ce  Ce5  1  0.21196250  0.11080400  0.22505675  1
  Ce  Ce6  1  0.38919600  0.71196250  0.27494325  1
  Ce  Ce7  1  0.78803750  0.88919600  0.22505675  1
  Ce  Ce8  1  0.61080400  0.28803750  0.27494325  1
  Ce  Ce9  1  0.50000000  0.00000000  0.75000000  1
  O  O10  1  0.50000000  0.50000000  0.50000000  1
  O  O11  1  0.08881350  0.31093800  0.99494175  1
  O  O12  1  0.81093800  0.41118650  0.50505825  1
  O  O13  1  0.18906200  0.58881350  0.50505825  1
  O  O14  1  0.09516100  0.26728450  0.50000225  1
  O  O15  1  0.76728450  0.40483900  0.99999775  1
  O  O16  1  0.23271550  0.59516100  0.99999775  1
  O  O17  1  0.91118650  0.68906200  0.99494175  1
  O  O18  1  0.90483900  0.73271550  0.50000225  1
  O  O19  1  0.00000000  0.00000000  0.00000000  1
  O  O20  1  0.58881350  0.81093800  0.49494175  1
  O  O21  1  0.31093800  0.91118650  0.00505825  1
  O  O22  1  0.68906200  0.08881350  0.00505825  1
  O  O23  1  0.59516100  0.76728450  0.00000225  1
  O  O24  1  0.26728450  0.90483900  0.49999775  1
  O  O25  1  0.73271550  0.09516100  0.49999775  1
  O  O26  1  0.41118650  0.18906200  0.49494175  1
  O  O27  1  0.40483900  0.23271550  0.00000225  1
