# generated using pymatgen
data_Mn3(O2F)2
_symmetry_space_group_name_H-M   'P 1'
_cell_length_a   6.50113000
_cell_length_b   6.50038200
_cell_length_c   9.24909832
_cell_angle_alpha   90.00000000
_cell_angle_beta   90.43966995
_cell_angle_gamma   90.00000000
_symmetry_Int_Tables_number   1
_chemical_formula_structural   Mn3(O2F)2
_chemical_formula_sum   'Mn12 O16 F8'
_cell_volume   390.85379995
_cell_formula_units_Z   4
loop_
 _symmetry_equiv_pos_site_id
 _symmetry_equiv_pos_as_xyz
  1  'x, y, z'
loop_
 _atom_site_type_symbol
 _atom_site_label
 _atom_site_symmetry_multiplicity
 _atom_site_fract_x
 _atom_site_fract_y
 _atom_site_fract_z
 _atom_site_occupancy
  Mn  Mn0  1  0.97515650  0.01364750  0.15948600  1
  Mn  Mn1  1  0.02484350  0.01364750  0.84051400  1
  Mn  Mn2  1  0.50000000  0.51192300  0.50000000  1
  Mn  Mn3  1  0.50542700  0.98220900  0.33968100  1
  Mn  Mn4  1  0.50000000  0.01186000  0.00000000  1
  Mn  Mn5  1  0.49457300  0.98220900  0.66031900  1
  Mn  Mn6  1  0.47515650  0.51364750  0.15948600  1
  Mn  Mn7  1  0.52484350  0.51364750  0.84051400  1
  Mn  Mn8  1  0.00000000  0.01192300  0.50000000  1
  Mn  Mn9  1  0.00542700  0.48220900  0.33968100  1
  Mn  Mn10  1  0.00000000  0.51186000  0.00000000  1
  Mn  Mn11  1  0.99457300  0.48220900  0.66031900  1
  O  O12  1  0.50000000  0.70648600  0.00000000  1
  O  O13  1  0.50735400  0.69148600  0.67223800  1
  O  O14  1  0.49264600  0.69148600  0.32776200  1
  O  O15  1  0.31757350  0.00115850  0.82947000  1
  O  O16  1  0.30668900  0.99240900  0.49989900  1
  O  O17  1  0.68242650  0.00115850  0.17053000  1
  O  O18  1  0.69331100  0.99240900  0.50010100  1
  O  O19  1  0.50000000  0.31804700  0.00000000  1
  O  O20  1  0.00000000  0.20648600  0.00000000  1
  O  O21  1  0.00735400  0.19148600  0.67223800  1
  O  O22  1  0.99264600  0.19148600  0.32776200  1
  O  O23  1  0.81757350  0.50115850  0.82947000  1
  O  O24  1  0.80668900  0.49240900  0.49989900  1
  O  O25  1  0.18242650  0.50115850  0.17053000  1
  O  O26  1  0.19331100  0.49240900  0.50010100  1
  O  O27  1  0.00000000  0.81804700  0.00000000  1
  F  F28  1  0.28851550  0.99938950  0.18099600  1
  F  F29  1  0.71148450  0.99938950  0.81900400  1
  F  F30  1  0.50600150  0.29554250  0.66991800  1
  F  F31  1  0.49399850  0.29554250  0.33008200  1
  F  F32  1  0.78851550  0.49938950  0.18099600  1
  F  F33  1  0.21148450  0.49938950  0.81900400  1
  F  F34  1  0.00600150  0.79554250  0.66991800  1
  F  F35  1  0.99399850  0.79554250  0.33008200  1
