# generated using pymatgen
data_Li2MnF4
_symmetry_space_group_name_H-M   'P 1'
_cell_length_a   6.54002600
_cell_length_b   6.62953600
_cell_length_c   6.88495400
_cell_angle_alpha   90.00000000
_cell_angle_beta   90.00000000
_cell_angle_gamma   90.00000000
_symmetry_Int_Tables_number   1
_chemical_formula_structural   Li2MnF4
_chemical_formula_sum   'Li8 Mn4 F16'
_cell_volume   298.51327637
_cell_formula_units_Z   4
loop_
 _symmetry_equiv_pos_site_id
 _symmetry_equiv_pos_as_xyz
  1  'x, y, z'
loop_
 _atom_site_type_symbol
 _atom_site_label
 _atom_site_symmetry_multiplicity
 _atom_site_fract_x
 _atom_site_fract_y
 _atom_site_fract_z
 _atom_site_occupancy
  Li  Li0  1  0.76154000  0.50000000  0.24845900  1
  Li  Li1  1  0.23846000  0.50000000  0.24845900  1
  Li  Li2  1  0.00000000  0.23412300  0.49866700  1
  Li  Li3  1  0.50000000  0.26587700  0.99866700  1
  Li  Li4  1  0.26154000  0.00000000  0.74845900  1
  Li  Li5  1  0.73846000  0.00000000  0.74845900  1
  Li  Li6  1  0.50000000  0.73412300  0.99866700  1
  Li  Li7  1  0.00000000  0.76587700  0.49866700  1
  Mn  Mn8  1  0.50000000  0.00000000  0.34465500  1
  Mn  Mn9  1  0.00000000  0.00000000  0.11733700  1
  Mn  Mn10  1  0.00000000  0.50000000  0.84465500  1
  Mn  Mn11  1  0.50000000  0.50000000  0.61733700  1
  F  F12  1  0.20538100  0.00000000  0.46490400  1
  F  F13  1  0.29461900  0.50000000  0.96490400  1
  F  F14  1  0.30401500  0.00000000  0.04095600  1
  F  F15  1  0.69598500  0.00000000  0.04095600  1
  F  F16  1  0.00000000  0.29427100  0.22155900  1
  F  F17  1  0.50000000  0.30590100  0.28637100  1
  F  F18  1  0.00000000  0.19409900  0.78637100  1
  F  F19  1  0.00000000  0.70572900  0.22155900  1
  F  F20  1  0.70538100  0.50000000  0.96490400  1
  F  F21  1  0.79461900  0.00000000  0.46490400  1
  F  F22  1  0.80401500  0.50000000  0.54095600  1
  F  F23  1  0.19598500  0.50000000  0.54095600  1
  F  F24  1  0.50000000  0.79427100  0.72155900  1
  F  F25  1  0.00000000  0.80590100  0.78637100  1
  F  F26  1  0.50000000  0.69409900  0.28637100  1
  F  F27  1  0.50000000  0.20572900  0.72155900  1
