# generated using pymatgen
data_LiV2(SiO4)2
_symmetry_space_group_name_H-M   'P 1'
_cell_length_a   4.87133142
_cell_length_b   10.11260200
_cell_length_c   5.84530636
_cell_angle_alpha   90.00000000
_cell_angle_beta   90.41062839
_cell_angle_gamma   90.00000000
_symmetry_Int_Tables_number   1
_chemical_formula_structural   LiV2(SiO4)2
_chemical_formula_sum   'Li2 V4 Si4 O16'
_cell_volume   287.94312730
_cell_formula_units_Z   2
loop_
 _symmetry_equiv_pos_site_id
 _symmetry_equiv_pos_as_xyz
  1  'x, y, z'
loop_
 _atom_site_type_symbol
 _atom_site_label
 _atom_site_symmetry_multiplicity
 _atom_site_fract_x
 _atom_site_fract_y
 _atom_site_fract_z
 _atom_site_occupancy
  Li  Li0  1  0.74137350  0.71838400  0.29824650  1
  Li  Li1  1  0.25862650  0.21838400  0.70175350  1
  V  V2  1  0.24530750  0.93499300  0.48982050  1
  V  V3  1  0.75469250  0.43499300  0.51017950  1
  V  V4  1  0.25489650  0.46798600  0.00929350  1
  V  V5  1  0.74510350  0.96798600  0.99070650  1
  Si  Si6  1  0.81724250  0.29504300  0.01173950  1
  Si  Si7  1  0.18275750  0.79504300  0.98826050  1
  Si  Si8  1  0.69209850  0.10634300  0.49734850  1
  Si  Si9  1  0.30790150  0.60634300  0.50265150  1
  O  O10  1  0.48704650  0.31841200  0.99593650  1
  O  O11  1  0.51295350  0.81841200  0.00406350  1
  O  O12  1  0.10982450  0.63613700  0.98719750  1
  O  O13  1  0.89017550  0.13613700  0.01280250  1
  O  O14  1  0.01118250  0.86480600  0.20422650  1
  O  O15  1  0.98881750  0.36480600  0.79577350  1
  O  O16  1  0.98050250  0.37695300  0.21690250  1
  O  O17  1  0.01949750  0.87695300  0.78309750  1
  O  O18  1  0.54103350  0.01860000  0.28865550  1
  O  O19  1  0.45896650  0.51860000  0.71134450  1
  O  O20  1  0.47009450  0.53175300  0.28279950  1
  O  O21  1  0.52990550  0.03175300  0.71720050  1
  O  O22  1  0.41693850  0.75810000  0.50296650  1
  O  O23  1  0.58306150  0.25810000  0.49703350  1
  O  O24  1  0.02275250  0.09565500  0.51390950  1
  O  O25  1  0.97724750  0.59565500  0.48609050  1
