# generated using pymatgen
data_Li10Mn3F16
_symmetry_space_group_name_H-M   'P 1'
_cell_length_a   6.07761021
_cell_length_b   6.07761021
_cell_length_c   28.93146979
_cell_angle_alpha   90.00000000
_cell_angle_beta   90.00000000
_cell_angle_gamma   120.00000000
_symmetry_Int_Tables_number   1
_chemical_formula_structural   Li10Mn3F16
_chemical_formula_sum   'Li30 Mn9 F48'
_cell_volume   925.47952658
_cell_formula_units_Z   3
loop_
 _symmetry_equiv_pos_site_id
 _symmetry_equiv_pos_as_xyz
  1  'x, y, z'
loop_
 _atom_site_type_symbol
 _atom_site_label
 _atom_site_symmetry_multiplicity
 _atom_site_fract_x
 _atom_site_fract_y
 _atom_site_fract_z
 _atom_site_occupancy
  Li  Li0  1  0.16967633  0.83032367  0.08427267  1
  Li  Li1  1  0.49699033  0.99398067  0.24906067  1
  Li  Li2  1  0.50000000  0.50000000  0.00000000  1
  Li  Li3  1  0.66064733  0.83032367  0.08427267  1
  Li  Li4  1  0.33333333  0.66666667  0.16666667  1
  Li  Li5  1  0.00000000  0.50000000  0.00000000  1
  Li  Li6  1  0.00601933  0.50300967  0.24906067  1
  Li  Li7  1  0.50000000  0.00000000  0.00000000  1
  Li  Li8  1  0.49699033  0.50300967  0.24906067  1
  Li  Li9  1  0.16967633  0.33935267  0.08427267  1
  Li  Li10  1  0.83634300  0.16365700  0.41760600  1
  Li  Li11  1  0.16365700  0.32731400  0.58239400  1
  Li  Li12  1  0.16666667  0.83333333  0.33333333  1
  Li  Li13  1  0.32731400  0.16365700  0.41760600  1
  Li  Li14  1  1.00000000  1.00000000  0.50000000  1
  Li  Li15  1  0.66666667  0.83333333  0.33333333  1
  Li  Li16  1  0.67268600  0.83634300  0.58239400  1
  Li  Li17  1  0.16666667  0.33333333  0.33333333  1
  Li  Li18  1  0.16365700  0.83634300  0.58239400  1
  Li  Li19  1  0.83634300  0.67268600  0.41760600  1
  Li  Li20  1  0.50300967  0.49699033  0.75093933  1
  Li  Li21  1  0.83032367  0.66064733  0.91572733  1
  Li  Li22  1  0.83333333  0.16666667  0.66666667  1
  Li  Li23  1  0.99398067  0.49699033  0.75093933  1
  Li  Li24  1  0.66666667  0.33333333  0.83333333  1
  Li  Li25  1  0.33333333  0.16666667  0.66666667  1
  Li  Li26  1  0.33935267  0.16967633  0.91572733  1
  Li  Li27  1  0.83333333  0.66666667  0.66666667  1
  Li  Li28  1  0.83032367  0.16967633  0.91572733  1
  Li  Li29  1  0.50300967  0.00601933  0.75093933  1
  Mn  Mn30  1  0.66666667  0.33333333  0.14161533  1
  Mn  Mn31  1  0.00000000  0.00000000  0.00000000  1
  Mn  Mn32  1  0.00000000  0.00000000  0.19171800  1
  Mn  Mn33  1  0.33333333  0.66666667  0.47494867  1
  Mn  Mn34  1  0.66666667  0.33333333  0.33333333  1
  Mn  Mn35  1  0.66666667  0.33333333  0.52505133  1
  Mn  Mn36  1  0.00000000  0.00000000  0.80828200  1
  Mn  Mn37  1  0.33333333  0.66666667  0.66666667  1
  Mn  Mn38  1  0.33333333  0.66666667  0.85838467  1
  F  F39  1  0.83575267  0.67150533  0.04117733  1
  F  F40  1  0.32849467  0.16424733  0.04117733  1
  F  F41  1  0.66666667  0.33333333  0.21294033  1
  F  F42  1  0.18377367  0.81622633  0.21059333  1
  F  F43  1  0.48289300  0.96578600  0.12274000  1
  F  F44  1  0.83575267  0.16424733  0.04117733  1
  F  F45  1  0.03421400  0.51710700  0.12274000  1
  F  F46  1  0.33333333  0.66666667  0.29429067  1
  F  F47  1  0.33333333  0.66666667  0.03904267  1
  F  F48  1  0.63245267  0.81622633  0.21059333  1
  F  F49  1  0.83091400  0.16908600  0.29215600  1
  F  F50  1  0.18377367  0.36754733  0.21059333  1
  F  F51  1  0.48289300  0.51710700  0.12274000  1
  F  F52  1  0.00000000  0.00000000  0.12039300  1
  F  F53  1  0.33817200  0.16908600  0.29215600  1
  F  F54  1  0.83091400  0.66182800  0.29215600  1
  F  F55  1  0.50241933  0.00483867  0.37451067  1
  F  F56  1  0.99516133  0.49758067  0.37451067  1
  F  F57  1  0.33333333  0.66666667  0.54627367  1
  F  F58  1  0.85044033  0.14955967  0.54392667  1
  F  F59  1  0.14955967  0.29911933  0.45607333  1
  F  F60  1  0.50241933  0.49758067  0.37451067  1
  F  F61  1  0.70088067  0.85044033  0.45607333  1
  F  F62  1  0.00000000  0.00000000  0.62762400  1
  F  F63  1  0.00000000  0.00000000  0.37237600  1
  F  F64  1  0.29911933  0.14955967  0.54392667  1
  F  F65  1  0.49758067  0.50241933  0.62548933  1
  F  F66  1  0.85044033  0.70088067  0.54392667  1
  F  F67  1  0.14955967  0.85044033  0.45607333  1
  F  F68  1  0.66666667  0.33333333  0.45372633  1
  F  F69  1  0.00483867  0.50241933  0.62548933  1
  F  F70  1  0.49758067  0.99516133  0.62548933  1
  F  F71  1  0.16908600  0.33817200  0.70784400  1
  F  F72  1  0.66182800  0.83091400  0.70784400  1
  F  F73  1  0.00000000  0.00000000  0.87960700  1
  F  F74  1  0.51710700  0.48289300  0.87726000  1
  F  F75  1  0.81622633  0.63245267  0.78940667  1
  F  F76  1  0.16908600  0.83091400  0.70784400  1
  F  F77  1  0.36754733  0.18377367  0.78940667  1
  F  F78  1  0.66666667  0.33333333  0.96095733  1
  F  F79  1  0.66666667  0.33333333  0.70570933  1
  F  F80  1  0.96578600  0.48289300  0.87726000  1
  F  F81  1  0.16424733  0.83575267  0.95882267  1
  F  F82  1  0.51710700  0.03421400  0.87726000  1
  F  F83  1  0.81622633  0.18377367  0.78940667  1
  F  F84  1  0.33333333  0.66666667  0.78705967  1
  F  F85  1  0.67150533  0.83575267  0.95882267  1
  F  F86  1  0.16424733  0.32849467  0.95882267  1
