# generated using pymatgen
data_Sn2(SO4)3
_symmetry_space_group_name_H-M   'P 1'
_cell_length_a   9.19043183
_cell_length_b   9.19043183
_cell_length_c   22.51251363
_cell_angle_alpha   90.00000000
_cell_angle_beta   90.00000000
_cell_angle_gamma   120.00000000
_symmetry_Int_Tables_number   1
_chemical_formula_structural   Sn2(SO4)3
_chemical_formula_sum   'Sn12 S18 O72'
_cell_volume   1646.74539077
_cell_formula_units_Z   6
loop_
 _symmetry_equiv_pos_site_id
 _symmetry_equiv_pos_as_xyz
  1  'x, y, z'
loop_
 _atom_site_type_symbol
 _atom_site_label
 _atom_site_symmetry_multiplicity
 _atom_site_fract_x
 _atom_site_fract_y
 _atom_site_fract_z
 _atom_site_occupancy
  Sn  Sn0  1  0.00000000  0.00000000  0.14013000  1
  Sn  Sn1  1  0.33333333  0.66666667  0.02653667  1
  Sn  Sn2  1  0.66666667  0.33333333  0.19320333  1
  Sn  Sn3  1  0.33333333  0.66666667  0.30679667  1
  Sn  Sn4  1  0.66666667  0.33333333  0.47346333  1
  Sn  Sn5  1  0.00000000  0.00000000  0.35987000  1
  Sn  Sn6  1  0.33333333  0.66666667  0.52653667  1
  Sn  Sn7  1  0.00000000  0.00000000  0.64013000  1
  Sn  Sn8  1  0.33333333  0.66666667  0.80679667  1
  Sn  Sn9  1  0.66666667  0.33333333  0.69320333  1
  Sn  Sn10  1  0.00000000  0.00000000  0.85987000  1
  Sn  Sn11  1  0.66666667  0.33333333  0.97346333  1
  S  S12  1  0.37070967  0.03737633  0.08333333  1
  S  S13  1  0.70404300  1.00000000  0.25000000  1
  S  S14  1  0.00000000  0.70404300  0.25000000  1
  S  S15  1  0.66666667  0.62929033  0.08333333  1
  S  S16  1  0.96262367  0.33333333  0.08333333  1
  S  S17  1  0.29595700  0.29595700  0.25000000  1
  S  S18  1  0.03737633  0.37070967  0.41666667  1
  S  S19  1  0.37070967  0.33333333  0.58333333  1
  S  S20  1  0.66666667  0.03737633  0.58333333  1
  S  S21  1  0.33333333  0.96262367  0.41666667  1
  S  S22  1  0.62929033  0.66666667  0.41666667  1
  S  S23  1  0.96262367  0.62929033  0.58333333  1
  S  S24  1  0.70404300  0.70404300  0.75000000  1
  S  S25  1  0.03737633  0.66666667  0.91666667  1
  S  S26  1  0.33333333  0.37070967  0.91666667  1
  S  S27  1  0.00000000  0.29595700  0.75000000  1
  S  S28  1  0.29595700  0.00000000  0.75000000  1
  S  S29  1  0.62929033  0.96262367  0.91666667  1
  O  O30  1  0.35452000  0.86717000  0.08696400  1
  O  O31  1  0.15401667  0.68785333  0.24636933  1
  O  O32  1  0.87243867  0.33220333  0.13827733  1
  O  O33  1  0.87356867  0.33446333  0.02838933  1
  O  O34  1  0.20050333  0.02118667  0.07970267  1
  O  O35  1  0.68785333  0.15401667  0.25363067  1
  O  O36  1  0.53383667  0.84598333  0.24636933  1
  O  O37  1  0.20577200  0.20690200  0.30494400  1
  O  O38  1  0.99887000  0.79309800  0.19505600  1
  O  O39  1  0.20690200  0.20577200  0.19505600  1
  O  O40  1  0.00113000  0.79422800  0.30494400  1
  O  O41  1  0.84598333  0.53383667  0.25363067  1
  O  O42  1  0.82068333  0.79949667  0.07970267  1
  O  O43  1  0.45976467  0.12756133  0.13827733  1
  O  O44  1  0.66553667  0.53910533  0.02838933  1
  O  O45  1  0.46089467  0.12643133  0.02838933  1
  O  O46  1  0.66779667  0.54023533  0.13827733  1
  O  O47  1  0.13283000  0.48735000  0.08696400  1
  O  O48  1  0.97881333  0.17931667  0.07970267  1
  O  O49  1  0.46616333  0.31214667  0.25363067  1
  O  O50  1  0.79422800  0.00113000  0.19505600  1
  O  O51  1  0.79309800  0.99887000  0.30494400  1
  O  O52  1  0.51265000  0.64548000  0.08696400  1
  O  O53  1  0.31214667  0.46616333  0.24636933  1
  O  O54  1  0.02118667  0.20050333  0.42029733  1
  O  O55  1  0.82068333  0.02118667  0.57970267  1
  O  O56  1  0.53910533  0.66553667  0.47161067  1
  O  O57  1  0.54023533  0.66779667  0.36172267  1
  O  O58  1  0.86717000  0.35452000  0.41303600  1
  O  O59  1  0.35452000  0.48735000  0.58696400  1
  O  O60  1  0.20050333  0.17931667  0.57970267  1
  O  O61  1  0.87243867  0.54023533  0.63827733  1
  O  O62  1  0.66553667  0.12643133  0.52838933  1
  O  O63  1  0.87356867  0.53910533  0.52838933  1
  O  O64  1  0.66779667  0.12756133  0.63827733  1
  O  O65  1  0.51265000  0.86717000  0.58696400  1
  O  O66  1  0.48735000  0.13283000  0.41303600  1
  O  O67  1  0.12643133  0.46089467  0.47161067  1
  O  O68  1  0.33220333  0.87243867  0.36172267  1
  O  O69  1  0.12756133  0.45976467  0.36172267  1
  O  O70  1  0.33446333  0.87356867  0.47161067  1
  O  O71  1  0.79949667  0.82068333  0.42029733  1
  O  O72  1  0.64548000  0.51265000  0.41303600  1
  O  O73  1  0.13283000  0.64548000  0.58696400  1
  O  O74  1  0.46089467  0.33446333  0.52838933  1
  O  O75  1  0.45976467  0.33220333  0.63827733  1
  O  O76  1  0.17931667  0.97881333  0.42029733  1
  O  O77  1  0.97881333  0.79949667  0.57970267  1
  O  O78  1  0.68785333  0.53383667  0.75363067  1
  O  O79  1  0.48735000  0.35452000  0.91303600  1
  O  O80  1  0.20577200  0.99887000  0.80494400  1
  O  O81  1  0.20690200  0.00113000  0.69505600  1
  O  O82  1  0.53383667  0.68785333  0.74636933  1
  O  O83  1  0.02118667  0.82068333  0.92029733  1
  O  O84  1  0.86717000  0.51265000  0.91303600  1
  O  O85  1  0.53910533  0.87356867  0.97161067  1
  O  O86  1  0.33220333  0.45976467  0.86172267  1
  O  O87  1  0.54023533  0.87243867  0.86172267  1
  O  O88  1  0.33446333  0.46089467  0.97161067  1
  O  O89  1  0.17931667  0.20050333  0.92029733  1
  O  O90  1  0.15401667  0.46616333  0.74636933  1
  O  O91  1  0.79309800  0.79422800  0.80494400  1
  O  O92  1  0.99887000  0.20577200  0.69505600  1
  O  O93  1  0.79422800  0.79309800  0.69505600  1
  O  O94  1  0.00113000  0.20690200  0.80494400  1
  O  O95  1  0.46616333  0.15401667  0.75363067  1
  O  O96  1  0.31214667  0.84598333  0.74636933  1
  O  O97  1  0.79949667  0.97881333  0.92029733  1
  O  O98  1  0.12756133  0.66779667  0.86172267  1
  O  O99  1  0.12643133  0.66553667  0.97161067  1
  O  O100  1  0.84598333  0.31214667  0.75363067  1
  O  O101  1  0.64548000  0.13283000  0.91303600  1
