# generated using pymatgen
data_Li4Ni5Sb3O16
_symmetry_space_group_name_H-M   'P 1'
_cell_length_a   10.36874566
_cell_length_b   6.05178568
_cell_length_c   9.65975669
_cell_angle_alpha   90.00000000
_cell_angle_beta   90.98221514
_cell_angle_gamma   90.00000000
_symmetry_Int_Tables_number   1
_chemical_formula_structural   Li4Ni5Sb3O16
_chemical_formula_sum   'Li8 Ni10 Sb6 O32'
_cell_volume   606.05512826
_cell_formula_units_Z   2
loop_
 _symmetry_equiv_pos_site_id
 _symmetry_equiv_pos_as_xyz
  1  'x, y, z'
loop_
 _atom_site_type_symbol
 _atom_site_label
 _atom_site_symmetry_multiplicity
 _atom_site_fract_x
 _atom_site_fract_y
 _atom_site_fract_z
 _atom_site_occupancy
  Li  Li0  1  0.33107950  0.00000000  0.12302300  1
  Li  Li1  1  0.02113550  0.00000000  0.00775400  1
  Li  Li2  1  0.01291650  0.00000000  0.49598700  1
  Li  Li3  1  0.67046650  0.00000000  0.60297400  1
  Li  Li4  1  0.83107950  0.50000000  0.12302300  1
  Li  Li5  1  0.52113550  0.50000000  0.00775400  1
  Li  Li6  1  0.51291650  0.50000000  0.49598700  1
  Li  Li7  1  0.17046650  0.50000000  0.60297400  1
  Ni  Ni8  1  0.32969600  0.00000000  0.50411800  1
  Ni  Ni9  1  0.16748250  0.00000000  0.78323500  1
  Ni  Ni10  1  0.65385400  0.00000000  0.01792500  1
  Ni  Ni11  1  0.58392750  0.75428850  0.28579300  1
  Ni  Ni12  1  0.58392750  0.24571150  0.28579300  1
  Ni  Ni13  1  0.82969600  0.50000000  0.50411800  1
  Ni  Ni14  1  0.66748250  0.50000000  0.78323500  1
  Ni  Ni15  1  0.15385400  0.50000000  0.01792500  1
  Ni  Ni16  1  0.08392750  0.25428850  0.28579300  1
  Ni  Ni17  1  0.08392750  0.74571150  0.28579300  1
  Sb  Sb18  1  0.41369300  0.75327100  0.78471500  1
  Sb  Sb19  1  0.41369300  0.24672900  0.78471500  1
  Sb  Sb20  1  0.82902950  0.00000000  0.28555500  1
  Sb  Sb21  1  0.91369300  0.25327100  0.78471500  1
  Sb  Sb22  1  0.91369300  0.74672900  0.78471500  1
  Sb  Sb23  1  0.32902950  0.50000000  0.28555500  1
  O  O24  1  0.42098950  0.73817250  0.39701500  1
  O  O25  1  0.48498250  0.00000000  0.66232200  1
  O  O26  1  0.33644550  0.00000000  0.90067400  1
  O  O27  1  0.99471950  0.00000000  0.68071200  1
  O  O28  1  0.49913600  0.50000000  0.18977800  1
  O  O29  1  0.42098950  0.26182750  0.39701500  1
  O  O30  1  0.26240150  0.77261950  0.65982900  1
  O  O31  1  0.26240150  0.22738050  0.65982900  1
  O  O32  1  0.83982900  0.00000000  0.89892400  1
  O  O33  1  0.16103250  0.00000000  0.38816600  1
  O  O34  1  0.73698700  0.77700100  0.16440800  1
  O  O35  1  0.73698700  0.22299900  0.16440800  1
  O  O36  1  0.66674100  0.00000000  0.39566900  1
  O  O37  1  0.57293150  0.74492450  0.89835800  1
  O  O38  1  0.51809450  0.00000000  0.17523500  1
  O  O39  1  0.57293150  0.25507550  0.89835800  1
  O  O40  1  0.92098950  0.23817250  0.39701500  1
  O  O41  1  0.98498250  0.50000000  0.66232200  1
  O  O42  1  0.83644550  0.50000000  0.90067400  1
  O  O43  1  0.49471950  0.50000000  0.68071200  1
  O  O44  1  0.99913600  0.00000000  0.18977800  1
  O  O45  1  0.92098950  0.76182750  0.39701500  1
  O  O46  1  0.76240150  0.27261950  0.65982900  1
  O  O47  1  0.76240150  0.72738050  0.65982900  1
  O  O48  1  0.33982900  0.50000000  0.89892400  1
  O  O49  1  0.66103250  0.50000000  0.38816600  1
  O  O50  1  0.23698700  0.27700100  0.16440800  1
  O  O51  1  0.23698700  0.72299900  0.16440800  1
  O  O52  1  0.16674100  0.50000000  0.39566900  1
  O  O53  1  0.07293150  0.24492450  0.89835800  1
  O  O54  1  0.01809450  0.50000000  0.17523500  1
  O  O55  1  0.07293150  0.75507550  0.89835800  1
