# generated using pymatgen
data_Li3Fe4(BO3)4
_symmetry_space_group_name_H-M   'P 1'
_cell_length_a   5.21698285
_cell_length_b   9.12637421
_cell_length_c   11.43367759
_cell_angle_alpha   112.08747672
_cell_angle_beta   102.76534372
_cell_angle_gamma   89.79590899
_symmetry_Int_Tables_number   1
_chemical_formula_structural   Li3Fe4(BO3)4
_chemical_formula_sum   'Li6 Fe8 B8 O24'
_cell_volume   490.05377037
_cell_formula_units_Z   2
loop_
 _symmetry_equiv_pos_site_id
 _symmetry_equiv_pos_as_xyz
  1  'x, y, z'
loop_
 _atom_site_type_symbol
 _atom_site_label
 _atom_site_symmetry_multiplicity
 _atom_site_fract_x
 _atom_site_fract_y
 _atom_site_fract_z
 _atom_site_occupancy
  Li  Li0  1  0.02903900  0.04634700  0.42443000  1
  Li  Li1  1  0.29260600  0.28351200  0.90940400  1
  Li  Li2  1  0.48599600  0.50010700  0.65925300  1
  Li  Li3  1  0.26701700  0.25000000  0.16847600  1
  Li  Li4  1  0.78924300  0.78126900  0.90889400  1
  Li  Li5  1  0.76785400  0.74616700  0.16218300  1
  Fe  Fe6  1  0.01574200  0.36414600  0.38458700  1
  Fe  Fe7  1  0.26782500  0.93470700  0.87438500  1
  Fe  Fe8  1  0.48472200  0.15021400  0.63380800  1
  Fe  Fe9  1  0.24889200  0.56475200  0.13003400  1
  Fe  Fe10  1  0.76598100  0.43660500  0.87960800  1
  Fe  Fe11  1  0.52097500  0.85030300  0.38784700  1
  Fe  Fe12  1  0.96724900  0.65793600  0.62181400  1
  Fe  Fe13  1  0.73802200  0.07329900  0.13755800  1
  B  B14  1  0.02048400  0.69242200  0.37463600  1
  B  B15  1  0.27441800  0.60756000  0.87906100  1
  B  B16  1  0.47467900  0.81232000  0.63413000  1
  B  B17  1  0.23271000  0.89177700  0.12166900  1
  B  B18  1  0.51868800  0.17227000  0.37115300  1
  B  B19  1  0.77119600  0.10171200  0.88093900  1
  B  B20  1  0.98340400  0.32047100  0.62833500  1
  B  B21  1  0.73168200  0.39487000  0.12397300  1
  O  O22  1  0.03685700  0.10186100  0.88372400  1
  O  O23  1  0.12036500  0.72611400  0.85729300  1
  O  O24  1  0.16883500  0.49778000  0.91671600  1
  O  O25  1  0.10245900  0.18239200  0.61509200  1
  O  O26  1  0.09836500  0.43716500  0.59878100  1
  O  O27  1  0.25305100  0.84781600  0.68646000  1
  O  O28  1  0.25721700  0.67801900  0.33577900  1
  O  O29  1  0.52883400  0.60486000  0.86363400  1
  O  O30  1  0.61868800  0.21106700  0.84771700  1
  O  O31  1  0.42201800  0.06284200  0.41589500  1
  O  O32  1  0.36321400  0.28276200  0.35094800  1
  O  O33  1  0.65283200  0.98935600  0.91372400  1
  O  O34  1  0.34149600  0.00144500  0.08135100  1
  O  O35  1  0.60446600  0.68487400  0.63937700  1
  O  O36  1  0.55265900  0.90957100  0.57658500  1
  O  O37  1  0.40332800  0.79776500  0.16990200  1
  O  O38  1  0.46064100  0.37647100  0.10890600  1
  O  O39  1  0.74447900  0.34282800  0.66727900  1
  O  O40  1  0.76896000  0.15596100  0.34477200  1
  O  O41  1  0.93313700  0.58927900  0.42034700  1
  O  O42  1  0.87324100  0.81661600  0.36230700  1
  O  O43  1  0.83822000  0.51476700  0.09592700  1
  O  O44  1  0.89433600  0.29192400  0.16261300  1
  O  O45  1  0.96648400  0.87873600  0.11173900  1
