# generated using pymatgen
data_Fe4O3F5
_symmetry_space_group_name_H-M   'P 1'
_cell_length_a   6.55723600
_cell_length_b   7.03595600
_cell_length_c   6.19003700
_cell_angle_alpha   90.00000000
_cell_angle_beta   90.00000000
_cell_angle_gamma   90.00000000
_symmetry_Int_Tables_number   1
_chemical_formula_structural   Fe4O3F5
_chemical_formula_sum   'Fe8 O6 F10'
_cell_volume   285.58617147
_cell_formula_units_Z   2
loop_
 _symmetry_equiv_pos_site_id
 _symmetry_equiv_pos_as_xyz
  1  'x, y, z'
loop_
 _atom_site_type_symbol
 _atom_site_label
 _atom_site_symmetry_multiplicity
 _atom_site_fract_x
 _atom_site_fract_y
 _atom_site_fract_z
 _atom_site_occupancy
  Fe  Fe0  1  0.98891800  0.00000000  0.00000000  1
  Fe  Fe1  1  0.02294800  0.00000000  0.50000000  1
  Fe  Fe2  1  0.48811800  0.00000000  0.23807000  1
  Fe  Fe3  1  0.48811800  0.00000000  0.76193000  1
  Fe  Fe4  1  0.48891800  0.50000000  0.00000000  1
  Fe  Fe5  1  0.52294800  0.50000000  0.50000000  1
  Fe  Fe6  1  0.98811800  0.50000000  0.23807000  1
  Fe  Fe7  1  0.98811800  0.50000000  0.76193000  1
  O  O8  1  0.29015400  0.00000000  0.00000000  1
  O  O9  1  0.32888700  0.00000000  0.50000000  1
  O  O10  1  0.69432200  0.00000000  0.00000000  1
  O  O11  1  0.79015400  0.50000000  0.00000000  1
  O  O12  1  0.82888700  0.50000000  0.50000000  1
  O  O13  1  0.19432200  0.50000000  0.00000000  1
  F  F14  1  0.49813350  0.30129050  0.24161200  1
  F  F15  1  0.49813350  0.30129050  0.75838800  1
  F  F16  1  0.70599600  0.00000000  0.50000000  1
  F  F17  1  0.49813350  0.69870950  0.75838800  1
  F  F18  1  0.49813350  0.69870950  0.24161200  1
  F  F19  1  0.99813350  0.80129050  0.24161200  1
  F  F20  1  0.99813350  0.80129050  0.75838800  1
  F  F21  1  0.20599600  0.50000000  0.50000000  1
  F  F22  1  0.99813350  0.19870950  0.75838800  1
  F  F23  1  0.99813350  0.19870950  0.24161200  1
