# generated using pymatgen
data_LiMnPO5
_symmetry_space_group_name_H-M   'P 1'
_cell_length_a   6.11954149
_cell_length_b   7.59338103
_cell_length_c   7.83013720
_cell_angle_alpha   90.00000000
_cell_angle_beta   90.00000000
_cell_angle_gamma   90.00000000
_symmetry_Int_Tables_number   1
_chemical_formula_structural   LiMnPO5
_chemical_formula_sum   'Li4 Mn4 P4 O20'
_cell_volume   363.85089583
_cell_formula_units_Z   4
loop_
 _symmetry_equiv_pos_site_id
 _symmetry_equiv_pos_as_xyz
  1  'x, y, z'
loop_
 _atom_site_type_symbol
 _atom_site_label
 _atom_site_symmetry_multiplicity
 _atom_site_fract_x
 _atom_site_fract_y
 _atom_site_fract_z
 _atom_site_occupancy
  Li  Li0  1  0.75000000  0.14015300  0.16996450  1
  Li  Li1  1  0.25000000  0.35984700  0.66996450  1
  Li  Li2  1  0.75000000  0.64015300  0.33003550  1
  Li  Li3  1  0.25000000  0.85984700  0.83003550  1
  Mn  Mn4  1  0.50000000  0.00000000  0.50000000  1
  Mn  Mn5  1  0.00000000  0.00000000  0.50000000  1
  Mn  Mn6  1  0.50000000  0.50000000  0.00000000  1
  Mn  Mn7  1  0.00000000  0.50000000  0.00000000  1
  P  P8  1  0.25000000  0.13211700  0.16582950  1
  P  P9  1  0.75000000  0.36788300  0.66582950  1
  P  P10  1  0.25000000  0.63211700  0.33417050  1
  P  P11  1  0.75000000  0.86788300  0.83417050  1
  O  O12  1  0.75000000  0.01065100  0.96671350  1
  O  O13  1  0.25000000  0.10869200  0.58968150  1
  O  O14  1  0.45927950  0.12627400  0.27994650  1
  O  O15  1  0.04072050  0.12627400  0.27994650  1
  O  O16  1  0.75000000  0.17949100  0.57606350  1
  O  O17  1  0.25000000  0.32050900  0.07606350  1
  O  O18  1  0.54072050  0.37372600  0.77994650  1
  O  O19  1  0.95927950  0.37372600  0.77994650  1
  O  O20  1  0.75000000  0.39130800  0.08968150  1
  O  O21  1  0.25000000  0.48934900  0.46671350  1
  O  O22  1  0.75000000  0.51065100  0.53328650  1
  O  O23  1  0.25000000  0.60869200  0.91031850  1
  O  O24  1  0.04072050  0.62627400  0.22005350  1
  O  O25  1  0.45927950  0.62627400  0.22005350  1
  O  O26  1  0.75000000  0.67949100  0.92393650  1
  O  O27  1  0.25000000  0.82050900  0.42393650  1
  O  O28  1  0.54072050  0.87372600  0.72005350  1
  O  O29  1  0.95927950  0.87372600  0.72005350  1
  O  O30  1  0.75000000  0.89130800  0.41031850  1
  O  O31  1  0.25000000  0.98934900  0.03328650  1
