# generated using pymatgen
data_Li3Fe2(PO4)3
_symmetry_space_group_name_H-M   'P 1'
_cell_length_a   8.39074740
_cell_length_b   8.41317454
_cell_length_c   9.05010383
_cell_angle_alpha   117.68348244
_cell_angle_beta   90.02471110
_cell_angle_gamma   119.87948051
_symmetry_Int_Tables_number   1
_chemical_formula_structural   Li3Fe2(PO4)3
_chemical_formula_sum   'Li6 Fe4 P6 O24'
_cell_volume   467.63482105
_cell_formula_units_Z   2
loop_
 _symmetry_equiv_pos_site_id
 _symmetry_equiv_pos_as_xyz
  1  'x, y, z'
loop_
 _atom_site_type_symbol
 _atom_site_label
 _atom_site_symmetry_multiplicity
 _atom_site_fract_x
 _atom_site_fract_y
 _atom_site_fract_z
 _atom_site_occupancy
  Li  Li0  1  0.08119242  0.27128425  0.14826621  1
  Li  Li1  1  0.32919814  0.92238395  0.14194607  1
  Li  Li2  1  0.74529719  0.55743371  0.38016183  1
  Li  Li3  1  0.26715156  0.32592878  0.86448073  1
  Li  Li4  1  0.67133471  0.06916694  0.86450441  1
  Li  Li5  1  0.92241920  0.73312804  0.86316638  1
  Fe  Fe6  1  0.35733635  0.65617504  0.04676097  1
  Fe  Fe7  1  0.15044571  0.85300686  0.44120192  1
  Fe  Fe8  1  0.85725801  0.14677863  0.56109349  1
  Fe  Fe9  1  0.65315655  0.35027243  0.95614912  1
  P  P10  1  0.03929118  0.54471486  0.24440956  1
  P  P11  1  0.45825689  0.25115137  0.25360214  1
  P  P12  1  0.75083999  0.95692164  0.25145438  1
  P  P13  1  0.25283681  0.04090925  0.75320854  1
  P  P14  1  0.53782064  0.74722277  0.74899067  1
  P  P15  1  0.96015135  0.45107088  0.75781236  1
  O  O16  1  0.17348193  0.51128148  0.19579333  1
  O  O17  1  0.13344761  0.75040484  0.26081615  1
  O  O18  1  0.99764643  0.39346203  0.41374447  1
  O  O19  1  0.46159463  0.20995659  0.10155623  1
  O  O20  1  0.25249490  0.12350328  0.27087244  1
  O  O21  1  0.49255246  0.46679963  0.20305490  1
  O  O22  1  0.53331852  0.83336146  0.19579902  1
  O  O23  1  0.79549015  0.14757819  0.09492371  1
  O  O24  1  0.84692413  0.53568288  0.08923715  1
  O  O25  1  0.19821101  0.99769130  0.58641509  1
  O  O26  1  0.12685976  0.14125734  0.73147042  1
  O  O27  1  0.38497573  0.79542400  0.57461684  1
  O  O28  1  0.61702955  0.21058445  0.42432396  1
  O  O29  1  0.87136934  0.84462492  0.28674388  1
  O  O30  1  0.79996364  0.00496992  0.41365249  1
  O  O31  1  0.15758738  0.45842731  0.90766651  1
  O  O32  1  0.21047800  0.84696762  0.90831390  1
  O  O33  1  0.46922930  0.16679369  0.80987690  1
  O  O34  1  0.50425849  0.53003382  0.80944795  1
  O  O35  1  0.74349302  0.87249532  0.73116862  1
  O  O36  1  0.52304622  0.79455405  0.89000230  1
  O  O37  1  0.98759174  0.60076559  0.58173259  1
  O  O38  1  0.86448476  0.24602281  0.74093336  1
  O  O39  1  0.83299964  0.48960014  0.80854898  1
