# generated using pymatgen
data_Mn6O7F5
_symmetry_space_group_name_H-M   'P 1'
_cell_length_a   4.76298208
_cell_length_b   5.64280422
_cell_length_c   7.70982337
_cell_angle_alpha   84.54665570
_cell_angle_beta   85.30233610
_cell_angle_gamma   83.39980087
_symmetry_Int_Tables_number   1
_chemical_formula_structural   Mn6O7F5
_chemical_formula_sum   'Mn6 O7 F5'
_cell_volume   204.38020296
_cell_formula_units_Z   1
loop_
 _symmetry_equiv_pos_site_id
 _symmetry_equiv_pos_as_xyz
  1  'x, y, z'
loop_
 _atom_site_type_symbol
 _atom_site_label
 _atom_site_symmetry_multiplicity
 _atom_site_fract_x
 _atom_site_fract_y
 _atom_site_fract_z
 _atom_site_occupancy
  Mn  Mn0  1  0.53443200  0.52050900  0.01113300  1
  Mn  Mn1  1  0.49879000  0.83232100  0.66583000  1
  Mn  Mn2  1  0.49231400  0.16442700  0.33152800  1
  Mn  Mn3  1  0.00207800  0.33358700  0.66860900  1
  Mn  Mn4  1  0.98376700  0.66356700  0.32231500  1
  Mn  Mn5  1  0.99634100  0.99142300  0.00293000  1
  O  O6  1  0.81035000  0.71139900  0.10156000  1
  O  O7  1  0.69945200  0.20677800  0.10303500  1
  O  O8  1  0.69314200  0.53131100  0.76865800  1
  O  O9  1  0.69329200  0.87113300  0.43405100  1
  O  O10  1  0.30452900  0.13289000  0.56756900  1
  O  O11  1  0.31038800  0.47014300  0.22974200  1
  O  O12  1  0.30655700  0.79134300  0.90001200  1
  F  F13  1  0.80563800  0.36526300  0.43944500  1
  F  F14  1  0.81267800  0.03931000  0.76735900  1
  F  F15  1  0.17629700  0.62715100  0.55220800  1
  F  F16  1  0.19458300  0.96647200  0.23144800  1
  F  F17  1  0.18537400  0.28097400  0.90256900  1
