# generated using pymatgen
data_Li4Ti2V3Sn3O16
_symmetry_space_group_name_H-M   'P 1'
_cell_length_a   10.72817200
_cell_length_b   6.10616600
_cell_length_c   9.68195160
_cell_angle_alpha   90.00000000
_cell_angle_beta   90.59758359
_cell_angle_gamma   90.00000000
_symmetry_Int_Tables_number   1
_chemical_formula_structural   Li4Ti2V3Sn3O16
_chemical_formula_sum   'Li8 Ti4 V6 Sn6 O32'
_cell_volume   634.21078027
_cell_formula_units_Z   2
loop_
 _symmetry_equiv_pos_site_id
 _symmetry_equiv_pos_as_xyz
  1  'x, y, z'
loop_
 _atom_site_type_symbol
 _atom_site_label
 _atom_site_symmetry_multiplicity
 _atom_site_fract_x
 _atom_site_fract_y
 _atom_site_fract_z
 _atom_site_occupancy
  Li  Li0  1  0.67276600  0.00000000  0.10735700  1
  Li  Li1  1  0.99071100  0.00000000  0.01128000  1
  Li  Li2  1  0.99469800  0.00000000  0.49886900  1
  Li  Li3  1  0.83311400  0.50000000  0.60285400  1
  Li  Li4  1  0.17276600  0.50000000  0.10735700  1
  Li  Li5  1  0.49071100  0.50000000  0.01128000  1
  Li  Li6  1  0.49469800  0.50000000  0.49886900  1
  Li  Li7  1  0.33311400  0.00000000  0.60285400  1
  Ti  Ti8  1  0.67815400  0.00000000  0.49834900  1
  Ti  Ti9  1  0.84425900  0.50000000  0.02236200  1
  Ti  Ti10  1  0.17815400  0.50000000  0.49834900  1
  Ti  Ti11  1  0.34425900  0.00000000  0.02236200  1
  V  V12  1  0.82867300  0.00000000  0.78603500  1
  V  V13  1  0.91721050  0.26554550  0.28684300  1
  V  V14  1  0.91721050  0.73445450  0.28684300  1
  V  V15  1  0.32867300  0.50000000  0.78603500  1
  V  V16  1  0.41721050  0.76554550  0.28684300  1
  V  V17  1  0.41721050  0.23445450  0.28684300  1
  Sn  Sn18  1  0.58374200  0.75425400  0.78543000  1
  Sn  Sn19  1  0.58374200  0.24574600  0.78543000  1
  Sn  Sn20  1  0.67012400  0.50000000  0.28614500  1
  Sn  Sn21  1  0.08374200  0.25425400  0.78543000  1
  Sn  Sn22  1  0.08374200  0.74574600  0.78543000  1
  Sn  Sn23  1  0.17012400  0.00000000  0.28614500  1
  O  O24  1  0.58861450  0.75718250  0.40882100  1
  O  O25  1  0.51577800  0.00000000  0.65605700  1
  O  O26  1  0.66642700  0.00000000  0.90232900  1
  O  O27  1  0.99634600  0.00000000  0.68395900  1
  O  O28  1  0.99823000  0.00000000  0.19630200  1
  O  O29  1  0.58861450  0.24281750  0.40882100  1
  O  O30  1  0.74038300  0.78456500  0.65727800  1
  O  O31  1  0.74038300  0.21543500  0.65727800  1
  O  O32  1  0.66040000  0.50000000  0.90602800  1
  O  O33  1  0.82866100  0.00000000  0.40531200  1
  O  O34  1  0.76188550  0.28416650  0.14947000  1
  O  O35  1  0.76188550  0.71583350  0.14947000  1
  O  O36  1  0.83120200  0.50000000  0.40012700  1
  O  O37  1  0.91289600  0.24734000  0.90277500  1
  O  O38  1  0.98122900  0.50000000  0.14752700  1
  O  O39  1  0.91289600  0.75266000  0.90277500  1
  O  O40  1  0.08861450  0.25718250  0.40882100  1
  O  O41  1  0.01577800  0.50000000  0.65605700  1
  O  O42  1  0.16642700  0.50000000  0.90232900  1
  O  O43  1  0.49634600  0.50000000  0.68395900  1
  O  O44  1  0.49823000  0.50000000  0.19630200  1
  O  O45  1  0.08861450  0.74281750  0.40882100  1
  O  O46  1  0.24038300  0.28456500  0.65727800  1
  O  O47  1  0.24038300  0.71543500  0.65727800  1
  O  O48  1  0.16040000  0.00000000  0.90602800  1
  O  O49  1  0.32866100  0.50000000  0.40531200  1
  O  O50  1  0.26188550  0.78416650  0.14947000  1
  O  O51  1  0.26188550  0.21583350  0.14947000  1
  O  O52  1  0.33120200  0.00000000  0.40012700  1
  O  O53  1  0.41289600  0.74734000  0.90277500  1
  O  O54  1  0.48122900  0.00000000  0.14752700  1
  O  O55  1  0.41289600  0.25266000  0.90277500  1
