# generated using pymatgen
data_Li4Ti3Co3(TeO8)2
_symmetry_space_group_name_H-M   'P 1'
_cell_length_a   10.39966200
_cell_length_b   5.99140400
_cell_length_c   10.11412279
_cell_angle_alpha   90.00000000
_cell_angle_beta   90.09799198
_cell_angle_gamma   90.00000000
_symmetry_Int_Tables_number   1
_chemical_formula_structural   Li4Ti3Co3(TeO8)2
_chemical_formula_sum   'Li8 Ti6 Co6 Te4 O32'
_cell_volume   630.19567210
_cell_formula_units_Z   2
loop_
 _symmetry_equiv_pos_site_id
 _symmetry_equiv_pos_as_xyz
  1  'x, y, z'
loop_
 _atom_site_type_symbol
 _atom_site_label
 _atom_site_symmetry_multiplicity
 _atom_site_fract_x
 _atom_site_fract_y
 _atom_site_fract_z
 _atom_site_occupancy
  Li  Li0  1  0.66183900  0.00000000  0.08989200  1
  Li  Li1  1  0.99666900  0.00000000  0.01759000  1
  Li  Li2  1  0.50661500  0.50000000  0.50823200  1
  Li  Li3  1  0.83250500  0.50000000  0.59860700  1
  Li  Li4  1  0.16183900  0.50000000  0.08989200  1
  Li  Li5  1  0.49666900  0.50000000  0.01759000  1
  Li  Li6  1  0.00661500  0.00000000  0.50823200  1
  Li  Li7  1  0.33250500  0.00000000  0.59860700  1
  Ti  Ti8  1  0.59164450  0.75983650  0.78109900  1
  Ti  Ti9  1  0.59164450  0.24016350  0.78109900  1
  Ti  Ti10  1  0.67408500  0.50000000  0.27506100  1
  Ti  Ti11  1  0.09164450  0.25983650  0.78109900  1
  Ti  Ti12  1  0.09164450  0.74016350  0.78109900  1
  Ti  Ti13  1  0.17408500  0.00000000  0.27506100  1
  Co  Co14  1  0.82604400  0.00000000  0.79826900  1
  Co  Co15  1  0.91366400  0.25742000  0.27942100  1
  Co  Co16  1  0.91366400  0.74258000  0.27942100  1
  Co  Co17  1  0.32604400  0.50000000  0.79826900  1
  Co  Co18  1  0.41366400  0.75742000  0.27942100  1
  Co  Co19  1  0.41366400  0.24258000  0.27942100  1
  Te  Te20  1  0.67501600  0.00000000  0.48940200  1
  Te  Te21  1  0.83414000  0.50000000  0.01301500  1
  Te  Te22  1  0.17501600  0.50000000  0.48940200  1
  Te  Te23  1  0.33414000  0.00000000  0.01301500  1
  O  O24  1  0.59592250  0.74922450  0.38786900  1
  O  O25  1  0.51033900  0.00000000  0.68389200  1
  O  O26  1  0.65004600  0.00000000  0.89627300  1
  O  O27  1  0.50348200  0.50000000  0.70528500  1
  O  O28  1  0.50637100  0.50000000  0.19936100  1
  O  O29  1  0.59592250  0.25077550  0.38786900  1
  O  O30  1  0.73454700  0.75297700  0.67874700  1
  O  O31  1  0.73454700  0.24702300  0.67874700  1
  O  O32  1  0.66631900  0.50000000  0.91157100  1
  O  O33  1  0.84275800  0.00000000  0.40597700  1
  O  O34  1  0.75166300  0.28525500  0.14164500  1
  O  O35  1  0.75166300  0.71474500  0.14164500  1
  O  O36  1  0.82174200  0.50000000  0.38877900  1
  O  O37  1  0.91201900  0.25202000  0.91572600  1
  O  O38  1  0.97683900  0.50000000  0.14218600  1
  O  O39  1  0.91201900  0.74798000  0.91572600  1
  O  O40  1  0.09592250  0.24922450  0.38786900  1
  O  O41  1  0.01033900  0.50000000  0.68389200  1
  O  O42  1  0.15004600  0.50000000  0.89627300  1
  O  O43  1  0.00348200  0.00000000  0.70528500  1
  O  O44  1  0.00637100  0.00000000  0.19936100  1
  O  O45  1  0.09592250  0.75077550  0.38786900  1
  O  O46  1  0.23454700  0.25297700  0.67874700  1
  O  O47  1  0.23454700  0.74702300  0.67874700  1
  O  O48  1  0.16631900  0.00000000  0.91157100  1
  O  O49  1  0.34275800  0.50000000  0.40597700  1
  O  O50  1  0.25166300  0.78525500  0.14164500  1
  O  O51  1  0.25166300  0.21474500  0.14164500  1
  O  O52  1  0.32174200  0.00000000  0.38877900  1
  O  O53  1  0.41201900  0.75202000  0.91572600  1
  O  O54  1  0.47683900  0.00000000  0.14218600  1
  O  O55  1  0.41201900  0.24798000  0.91572600  1
