# generated using pymatgen
data_V3O5F
_symmetry_space_group_name_H-M   'P 1'
_cell_length_a   6.42350000
_cell_length_b   20.04885400
_cell_length_c   2.99171100
_cell_angle_alpha   90.00000000
_cell_angle_beta   90.00000000
_cell_angle_gamma   90.00000000
_symmetry_Int_Tables_number   1
_chemical_formula_structural   V3O5F
_chemical_formula_sum   'V12 O20 F4'
_cell_volume   385.28395198
_cell_formula_units_Z   4
loop_
 _symmetry_equiv_pos_site_id
 _symmetry_equiv_pos_as_xyz
  1  'x, y, z'
loop_
 _atom_site_type_symbol
 _atom_site_label
 _atom_site_symmetry_multiplicity
 _atom_site_fract_x
 _atom_site_fract_y
 _atom_site_fract_z
 _atom_site_occupancy
  V  V0  1  0.00000000  0.32206000  0.00000000  1
  V  V1  1  0.00000000  0.16102800  0.50000000  1
  V  V2  1  0.50000000  0.33897200  0.50000000  1
  V  V3  1  0.50000000  0.17794000  0.00000000  1
  V  V4  1  0.00000000  0.00000000  0.00000000  1
  V  V5  1  0.50000000  0.00000000  0.50000000  1
  V  V6  1  0.50000000  0.82206000  0.00000000  1
  V  V7  1  0.50000000  0.66102800  0.50000000  1
  V  V8  1  0.00000000  0.83897200  0.50000000  1
  V  V9  1  0.00000000  0.67794000  0.00000000  1
  V  V10  1  0.50000000  0.50000000  0.00000000  1
  V  V11  1  0.00000000  0.50000000  0.50000000  1
  O  O12  1  0.00000000  0.26323100  0.50000000  1
  O  O13  1  0.29064200  0.33447200  0.00000000  1
  O  O14  1  0.70935800  0.33447200  0.00000000  1
  O  O15  1  0.20935800  0.16552800  0.00000000  1
  O  O16  1  0.69672900  0.00000000  0.00000000  1
  O  O17  1  0.50000000  0.23676900  0.50000000  1
  O  O18  1  0.00000000  0.06459000  0.50000000  1
  O  O19  1  0.50000000  0.43541000  0.50000000  1
  O  O20  1  0.79064200  0.16552800  0.00000000  1
  O  O21  1  0.30327100  0.00000000  0.00000000  1
  O  O22  1  0.50000000  0.76323100  0.50000000  1
  O  O23  1  0.79064200  0.83447200  0.00000000  1
  O  O24  1  0.20935800  0.83447200  0.00000000  1
  O  O25  1  0.70935800  0.66552800  0.00000000  1
  O  O26  1  0.19672900  0.50000000  0.00000000  1
  O  O27  1  0.00000000  0.73676900  0.50000000  1
  O  O28  1  0.50000000  0.56459000  0.50000000  1
  O  O29  1  0.00000000  0.93541000  0.50000000  1
  O  O30  1  0.29064200  0.66552800  0.00000000  1
  O  O31  1  0.80327100  0.50000000  0.00000000  1
  F  F32  1  0.50000000  0.10393900  0.50000000  1
  F  F33  1  0.00000000  0.39606100  0.50000000  1
  F  F34  1  0.00000000  0.60393900  0.50000000  1
  F  F35  1  0.50000000  0.89606100  0.50000000  1
