# generated using pymatgen
data_NaCo2O3
_symmetry_space_group_name_H-M   'P 1'
_cell_length_a   5.93369200
_cell_length_b   10.25449000
_cell_length_c   5.16113400
_cell_angle_alpha   90.00000000
_cell_angle_beta   90.00000000
_cell_angle_gamma   90.00000000
_symmetry_Int_Tables_number   1
_chemical_formula_structural   NaCo2O3
_chemical_formula_sum   'Na4 Co8 O12'
_cell_volume   314.03944451
_cell_formula_units_Z   4
loop_
 _symmetry_equiv_pos_site_id
 _symmetry_equiv_pos_as_xyz
  1  'x, y, z'
loop_
 _atom_site_type_symbol
 _atom_site_label
 _atom_site_symmetry_multiplicity
 _atom_site_fract_x
 _atom_site_fract_y
 _atom_site_fract_z
 _atom_site_occupancy
  Na  Na0  1  0.32695900  0.00000000  0.99527100  1
  Na  Na1  1  0.67304100  0.00000000  0.49527100  1
  Na  Na2  1  0.82695900  0.50000000  0.99527100  1
  Na  Na3  1  0.17304100  0.50000000  0.49527100  1
  Co  Co4  1  0.66180850  0.33259350  0.50788400  1
  Co  Co5  1  0.33819150  0.33259350  0.00788400  1
  Co  Co6  1  0.66180850  0.66740650  0.50788400  1
  Co  Co7  1  0.33819150  0.66740650  0.00788400  1
  Co  Co8  1  0.16180850  0.83259350  0.50788400  1
  Co  Co9  1  0.83819150  0.83259350  0.00788400  1
  Co  Co10  1  0.16180850  0.16740650  0.50788400  1
  Co  Co11  1  0.83819150  0.16740650  0.00788400  1
  O  O12  1  0.35697500  0.30634600  0.38998900  1
  O  O13  1  0.64302500  0.30634600  0.88998900  1
  O  O14  1  0.28131000  0.00000000  0.46988200  1
  O  O15  1  0.71869000  0.00000000  0.96988200  1
  O  O16  1  0.35697500  0.69365400  0.38998900  1
  O  O17  1  0.64302500  0.69365400  0.88998900  1
  O  O18  1  0.85697500  0.80634600  0.38998900  1
  O  O19  1  0.14302500  0.80634600  0.88998900  1
  O  O20  1  0.78131000  0.50000000  0.46988200  1
  O  O21  1  0.21869000  0.50000000  0.96988200  1
  O  O22  1  0.85697500  0.19365400  0.38998900  1
  O  O23  1  0.14302500  0.19365400  0.88998900  1
