# generated using pymatgen
data_CoO2
_symmetry_space_group_name_H-M   'P 1'
_cell_length_a   5.65996029
_cell_length_b   5.65996029
_cell_length_c   14.05080280
_cell_angle_alpha   90.00000000
_cell_angle_beta   90.00000000
_cell_angle_gamma   120.00000000
_symmetry_Int_Tables_number   1
_chemical_formula_structural   CoO2
_chemical_formula_sum   'Co12 O24'
_cell_volume   389.81499286
_cell_formula_units_Z   12
loop_
 _symmetry_equiv_pos_site_id
 _symmetry_equiv_pos_as_xyz
  1  'x, y, z'
loop_
 _atom_site_type_symbol
 _atom_site_label
 _atom_site_symmetry_multiplicity
 _atom_site_fract_x
 _atom_site_fract_y
 _atom_site_fract_z
 _atom_site_occupancy
  Co  Co0  1  0.01094067  0.50547033  0.00077933  1
  Co  Co1  1  0.49452967  0.50547033  0.00077933  1
  Co  Co2  1  0.49452967  0.98905933  0.00077933  1
  Co  Co3  1  0.66666667  0.33333333  0.21114233  1
  Co  Co4  1  0.67760733  0.83880367  0.33411267  1
  Co  Co5  1  0.16119633  0.83880367  0.33411267  1
  Co  Co6  1  0.16119633  0.32239267  0.33411267  1
  Co  Co7  1  0.33333333  0.66666667  0.54447567  1
  Co  Co8  1  0.34427400  0.17213700  0.66744600  1
  Co  Co9  1  0.82786300  0.17213700  0.66744600  1
  Co  Co10  1  0.82786300  0.65572600  0.66744600  1
  Co  Co11  1  0.00000000  0.00000000  0.87780900  1
  O  O12  1  0.00000000  0.00000000  0.26361800  1
  O  O13  1  0.18403533  0.36807067  0.06757567  1
  O  O14  1  0.18403533  0.81596467  0.06757567  1
  O  O15  1  0.63192933  0.81596467  0.06757567  1
  O  O16  1  0.00677000  0.50338500  0.26272700  1
  O  O17  1  0.49661500  0.50338500  0.26272700  1
  O  O18  1  0.49661500  0.99323000  0.26272700  1
  O  O19  1  0.66666667  0.33333333  0.07365933  1
  O  O20  1  0.66666667  0.33333333  0.59695133  1
  O  O21  1  0.85070200  0.70140400  0.40090900  1
  O  O22  1  0.85070200  0.14929800  0.40090900  1
  O  O23  1  0.29859600  0.14929800  0.40090900  1
  O  O24  1  0.67343667  0.83671833  0.59606033  1
  O  O25  1  0.16328167  0.83671833  0.59606033  1
  O  O26  1  0.16328167  0.32656333  0.59606033  1
  O  O27  1  0.33333333  0.66666667  0.40699267  1
  O  O28  1  0.33333333  0.66666667  0.93028467  1
  O  O29  1  0.51736867  0.03473733  0.73424233  1
  O  O30  1  0.51736867  0.48263133  0.73424233  1
  O  O31  1  0.96526267  0.48263133  0.73424233  1
  O  O32  1  0.34010333  0.17005167  0.92939367  1
  O  O33  1  0.82994833  0.17005167  0.92939367  1
  O  O34  1  0.82994833  0.65989667  0.92939367  1
  O  O35  1  0.00000000  0.00000000  0.74032600  1
