# generated using pymatgen
data_LiNiPO4
_symmetry_space_group_name_H-M   'P 1'
_cell_length_a   5.55995800
_cell_length_b   5.78955100
_cell_length_c   7.93027200
_cell_angle_alpha   90.00000000
_cell_angle_beta   90.00000000
_cell_angle_gamma   90.00000000
_symmetry_Int_Tables_number   1
_chemical_formula_structural   LiNiPO4
_chemical_formula_sum   'Li4 Ni4 P4 O16'
_cell_volume   255.27276255
_cell_formula_units_Z   4
loop_
 _symmetry_equiv_pos_site_id
 _symmetry_equiv_pos_as_xyz
  1  'x, y, z'
loop_
 _atom_site_type_symbol
 _atom_site_label
 _atom_site_symmetry_multiplicity
 _atom_site_fract_x
 _atom_site_fract_y
 _atom_site_fract_z
 _atom_site_occupancy
  Li  Li0  1  0.25000000  0.25000000  0.75000000  1
  Li  Li1  1  0.75000000  0.25000000  0.75000000  1
  Li  Li2  1  0.75000000  0.75000000  0.25000000  1
  Li  Li3  1  0.25000000  0.75000000  0.25000000  1
  Ni  Ni4  1  0.00000000  0.00000000  0.00000000  1
  Ni  Ni5  1  0.00000000  0.50000000  0.00000000  1
  Ni  Ni6  1  0.50000000  0.50000000  0.50000000  1
  Ni  Ni7  1  0.50000000  0.00000000  0.50000000  1
  P  P8  1  0.00000000  0.25000000  0.37031200  1
  P  P9  1  0.50000000  0.25000000  0.12968800  1
  P  P10  1  0.50000000  0.75000000  0.87031200  1
  P  P11  1  0.00000000  0.75000000  0.62968800  1
  O  O12  1  0.00000000  0.47301050  0.26162600  1
  O  O13  1  0.50000000  0.47301050  0.23837400  1
  O  O14  1  0.00000000  0.02698950  0.26162600  1
  O  O15  1  0.50000000  0.02698950  0.23837400  1
  O  O16  1  0.77084750  0.25000000  0.48940000  1
  O  O17  1  0.22915250  0.25000000  0.48940000  1
  O  O18  1  0.27084750  0.25000000  0.01060000  1
  O  O19  1  0.72915250  0.25000000  0.01060000  1
  O  O20  1  0.50000000  0.97301050  0.76162600  1
  O  O21  1  0.00000000  0.97301050  0.73837400  1
  O  O22  1  0.50000000  0.52698950  0.76162600  1
  O  O23  1  0.00000000  0.52698950  0.73837400  1
  O  O24  1  0.27084750  0.75000000  0.98940000  1
  O  O25  1  0.72915250  0.75000000  0.98940000  1
  O  O26  1  0.77084750  0.75000000  0.51060000  1
  O  O27  1  0.22915250  0.75000000  0.51060000  1
