# generated using pymatgen
data_Li2MnFe(PO4)2
_symmetry_space_group_name_H-M   'P 1'
_cell_length_a   9.54164500
_cell_length_b   6.13058700
_cell_length_c   10.50547541
_cell_angle_alpha   90.00000000
_cell_angle_beta   90.06807010
_cell_angle_gamma   90.00000000
_symmetry_Int_Tables_number   1
_chemical_formula_structural   Li2MnFe(PO4)2
_chemical_formula_sum   'Li8 Mn4 Fe4 P8 O32'
_cell_volume   614.52664585
_cell_formula_units_Z   4
loop_
 _symmetry_equiv_pos_site_id
 _symmetry_equiv_pos_as_xyz
  1  'x, y, z'
loop_
 _atom_site_type_symbol
 _atom_site_label
 _atom_site_symmetry_multiplicity
 _atom_site_fract_x
 _atom_site_fract_y
 _atom_site_fract_z
 _atom_site_occupancy
  Li  Li0  1  0.99996600  0.75085500  0.99957900  1
  Li  Li1  1  0.99996600  0.24914500  0.99957900  1
  Li  Li2  1  0.24991000  0.24937600  0.49991100  1
  Li  Li3  1  0.24991000  0.75062400  0.49991100  1
  Li  Li4  1  0.50014500  0.75042600  0.00021900  1
  Li  Li5  1  0.50014500  0.24957400  0.00021900  1
  Li  Li6  1  0.75004200  0.75064800  0.49992800  1
  Li  Li7  1  0.75004200  0.24935200  0.49992800  1
  Mn  Mn8  1  0.01260900  0.50000000  0.28142500  1
  Mn  Mn9  1  0.23763100  0.50000000  0.78147800  1
  Mn  Mn10  1  0.26246300  0.00000000  0.21882500  1
  Mn  Mn11  1  0.73731200  0.50000000  0.78151500  1
  Fe  Fe12  1  0.48649200  0.00000000  0.71833900  1
  Fe  Fe13  1  0.51395700  0.50000000  0.28154200  1
  Fe  Fe14  1  0.76313500  0.00000000  0.21799700  1
  Fe  Fe15  1  0.98641300  0.00000000  0.71833700  1
  P  P16  1  0.04208400  0.00000000  0.40773600  1
  P  P17  1  0.20582100  0.00000000  0.90549500  1
  P  P18  1  0.29520200  0.50000000  0.09372800  1
  P  P19  1  0.45832900  0.50000000  0.59226700  1
  P  P20  1  0.54345200  0.00000000  0.40671300  1
  P  P21  1  0.70600800  0.00000000  0.90636600  1
  P  P22  1  0.79148700  0.50000000  0.09380800  1
  P  P23  1  0.95771900  0.50000000  0.59319500  1
  O  O24  1  0.10329000  0.00000000  0.54527300  1
  O  O25  1  0.10979700  0.79861000  0.33834100  1
  O  O26  1  0.10979700  0.20139000  0.33834100  1
  O  O27  1  0.11896600  0.50000000  0.59517800  1
  O  O28  1  0.13345800  0.50000000  0.09635500  1
  O  O29  1  0.13796300  0.79867200  0.83638900  1
  O  O30  1  0.13796300  0.20132800  0.83638900  1
  O  O31  1  0.14510200  0.00000000  0.04325800  1
  O  O32  1  0.35561300  0.50000000  0.95639700  1
  O  O33  1  0.36195600  0.29890000  0.16362600  1
  O  O34  1  0.36195600  0.70110000  0.16362600  1
  O  O35  1  0.36698300  0.00000000  0.90246300  1
  O  O36  1  0.38195900  0.00000000  0.40422500  1
  O  O37  1  0.39283800  0.29738000  0.66272700  1
  O  O38  1  0.39283800  0.70262000  0.66272700  1
  O  O39  1  0.39569300  0.50000000  0.45541200  1
  O  O40  1  0.60488000  0.00000000  0.54380000  1
  O  O41  1  0.60913400  0.79765800  0.33615100  1
  O  O42  1  0.60913400  0.20234200  0.33615100  1
  O  O43  1  0.61929400  0.50000000  0.59541000  1
  O  O44  1  0.63066400  0.50000000  0.09635500  1
  O  O45  1  0.63798600  0.79900300  0.83707400  1
  O  O46  1  0.63798600  0.20099700  0.83707400  1
  O  O47  1  0.64652900  0.00000000  0.04455000  1
  O  O48  1  0.85503300  0.50000000  0.95748800  1
  O  O49  1  0.85745300  0.29699900  0.16375800  1
  O  O50  1  0.85745300  0.70300100  0.16375800  1
  O  O51  1  0.86745000  0.00000000  0.90249700  1
  O  O52  1  0.88115800  0.00000000  0.40299300  1
  O  O53  1  0.89274800  0.29729800  0.66359600  1
  O  O54  1  0.89274800  0.70270200  0.66359600  1
  O  O55  1  0.89393600  0.50000000  0.45699000  1
