# generated using pymatgen
data_LiTi3VO8
_symmetry_space_group_name_H-M   'P 1'
_cell_length_a   5.98765016
_cell_length_b   5.98765016
_cell_length_c   15.16332235
_cell_angle_alpha   90.00000000
_cell_angle_beta   90.00000000
_cell_angle_gamma   120.00000000
_symmetry_Int_Tables_number   1
_chemical_formula_structural   LiTi3VO8
_chemical_formula_sum   'Li3 Ti9 V3 O24'
_cell_volume   470.80149734
_cell_formula_units_Z   3
loop_
 _symmetry_equiv_pos_site_id
 _symmetry_equiv_pos_as_xyz
  1  'x, y, z'
loop_
 _atom_site_type_symbol
 _atom_site_label
 _atom_site_symmetry_multiplicity
 _atom_site_fract_x
 _atom_site_fract_y
 _atom_site_fract_z
 _atom_site_occupancy
  Li  Li0  1  0.33333333  0.66666667  0.16666667  1
  Li  Li1  1  1.00000000  1.00000000  0.50000000  1
  Li  Li2  1  0.66666667  0.33333333  0.83333333  1
  Ti  Ti3  1  0.66666667  0.83333333  0.33333333  1
  Ti  Ti4  1  0.50000000  0.00000000  0.00000000  1
  Ti  Ti5  1  0.16666667  0.83333333  0.33333333  1
  Ti  Ti6  1  0.33333333  0.16666667  0.66666667  1
  Ti  Ti7  1  0.16666667  0.33333333  0.33333333  1
  Ti  Ti8  1  0.83333333  0.16666667  0.66666667  1
  Ti  Ti9  1  0.00000000  0.50000000  0.00000000  1
  Ti  Ti10  1  0.83333333  0.66666667  0.66666667  1
  Ti  Ti11  1  0.50000000  0.50000000  0.00000000  1
  V  V12  1  0.66666667  0.33333333  0.33333333  1
  V  V13  1  0.33333333  0.66666667  0.66666667  1
  V  V14  1  1.00000000  1.00000000  0.00000000  1
  O  O15  1  0.00000000  0.00000000  0.26813692  1
  O  O16  1  0.66666667  0.33333333  0.06519642  1
  O  O17  1  0.01364942  0.50682471  0.26634583  1
  O  O18  1  0.49317529  0.50682471  0.26634583  1
  O  O19  1  0.49317529  0.98635058  0.26634583  1
  O  O20  1  0.17349138  0.34698275  0.06698750  1
  O  O21  1  0.17349138  0.82650862  0.06698750  1
  O  O22  1  0.65301725  0.82650862  0.06698750  1
  O  O23  1  0.66666667  0.33333333  0.60147025  1
  O  O24  1  0.33333333  0.66666667  0.39852975  1
  O  O25  1  0.68031608  0.84015804  0.59967917  1
  O  O26  1  0.15984196  0.84015804  0.59967917  1
  O  O27  1  0.15984196  0.31968392  0.59967917  1
  O  O28  1  0.84015804  0.68031608  0.40032083  1
  O  O29  1  0.84015804  0.15984196  0.40032083  1
  O  O30  1  0.31968392  0.15984196  0.40032083  1
  O  O31  1  0.33333333  0.66666667  0.93480358  1
  O  O32  1  0.00000000  1.00000000  0.73186308  1
  O  O33  1  0.34698275  0.17349138  0.93301250  1
  O  O34  1  0.82650862  0.17349138  0.93301250  1
  O  O35  1  0.82650862  0.65301725  0.93301250  1
  O  O36  1  0.50682471  0.01364942  0.73365417  1
  O  O37  1  0.50682471  0.49317529  0.73365417  1
  O  O38  1  0.98635058  0.49317529  0.73365417  1
