# generated using pymatgen
data_Li2VSiO5
_symmetry_space_group_name_H-M   'P 1'
_cell_length_a   4.50846000
_cell_length_b   9.10819800
_cell_length_c   9.25644000
_cell_angle_alpha   90.00000000
_cell_angle_beta   90.00000000
_cell_angle_gamma   90.00000000
_symmetry_Int_Tables_number   1
_chemical_formula_structural   Li2VSiO5
_chemical_formula_sum   'Li8 V4 Si4 O20'
_cell_volume   380.10595560
_cell_formula_units_Z   4
loop_
 _symmetry_equiv_pos_site_id
 _symmetry_equiv_pos_as_xyz
  1  'x, y, z'
loop_
 _atom_site_type_symbol
 _atom_site_label
 _atom_site_symmetry_multiplicity
 _atom_site_fract_x
 _atom_site_fract_y
 _atom_site_fract_z
 _atom_site_occupancy
  Li  Li0  1  0.61694900  0.50000000  0.99556400  1
  Li  Li1  1  0.38305100  0.50000000  0.49556400  1
  Li  Li2  1  0.00303300  0.75024500  0.99828800  1
  Li  Li3  1  0.99696700  0.75024500  0.49828800  1
  Li  Li4  1  0.00780900  0.00000000  0.74585000  1
  Li  Li5  1  0.99219100  0.00000000  0.24585000  1
  Li  Li6  1  0.00303300  0.24975500  0.99828800  1
  Li  Li7  1  0.99696700  0.24975500  0.49828800  1
  V  V8  1  0.95817600  0.50000000  0.71020500  1
  V  V9  1  0.04182400  0.50000000  0.21020500  1
  V  V10  1  0.43257400  0.00000000  0.00291400  1
  V  V11  1  0.56742600  0.00000000  0.50291400  1
  Si  Si12  1  0.50076300  0.74954500  0.75142900  1
  Si  Si13  1  0.49923700  0.74954500  0.25142900  1
  Si  Si14  1  0.50076300  0.25045500  0.75142900  1
  Si  Si15  1  0.49923700  0.25045500  0.25142900  1
  O  O16  1  0.80487000  0.50000000  0.54461500  1
  O  O17  1  0.19513000  0.50000000  0.04461500  1
  O  O18  1  0.74216100  0.64439300  0.83747400  1
  O  O19  1  0.25783900  0.64439300  0.33747400  1
  O  O20  1  0.26196000  0.64919200  0.66086700  1
  O  O21  1  0.73804000  0.64919200  0.16086700  1
  O  O22  1  0.30155900  0.85217300  0.86038800  1
  O  O23  1  0.69844100  0.85217300  0.36038800  1
  O  O24  1  0.70323500  0.85335700  0.64470300  1
  O  O25  1  0.29676500  0.85335700  0.14470300  1
  O  O26  1  0.19353000  0.00000000  0.50548400  1
  O  O27  1  0.80647000  0.00000000  0.00548400  1
  O  O28  1  0.70323500  0.14664300  0.64470300  1
  O  O29  1  0.29676500  0.14664300  0.14470300  1
  O  O30  1  0.30155900  0.14782700  0.86038800  1
  O  O31  1  0.69844100  0.14782700  0.36038800  1
  O  O32  1  0.26196000  0.35080800  0.66086700  1
  O  O33  1  0.73804000  0.35080800  0.16086700  1
  O  O34  1  0.25783900  0.35560700  0.33747400  1
  O  O35  1  0.74216100  0.35560700  0.83747400  1
