# generated using pymatgen
data_Na2FeCSO7
_symmetry_space_group_name_H-M   'P 1'
_cell_length_a   5.27609377
_cell_length_b   6.81522006
_cell_length_c   9.15145252
_cell_angle_alpha   90.00000000
_cell_angle_beta   91.69894773
_cell_angle_gamma   90.00000000
_symmetry_Int_Tables_number   1
_chemical_formula_structural   Na2FeCSO7
_chemical_formula_sum   'Na4 Fe2 C2 S2 O14'
_cell_volume   328.92089537
_cell_formula_units_Z   2
loop_
 _symmetry_equiv_pos_site_id
 _symmetry_equiv_pos_as_xyz
  1  'x, y, z'
loop_
 _atom_site_type_symbol
 _atom_site_label
 _atom_site_symmetry_multiplicity
 _atom_site_fract_x
 _atom_site_fract_y
 _atom_site_fract_z
 _atom_site_occupancy
  Na  Na0  1  0.23049525  0.00464750  0.79236000  1
  Na  Na1  1  0.23049525  0.49535250  0.79236000  1
  Na  Na2  1  0.76950475  0.50464750  0.20764000  1
  Na  Na3  1  0.76950475  0.99535250  0.20764000  1
  Fe  Fe4  1  0.77362275  0.25000000  0.64150800  1
  Fe  Fe5  1  0.22637725  0.75000000  0.35849200  1
  C  C6  1  0.72877975  0.25000000  0.91847600  1
  C  C7  1  0.27122025  0.75000000  0.08152400  1
  S  S8  1  0.72732725  0.75000000  0.57734000  1
  S  S9  1  0.27267275  0.25000000  0.42266000  1
  O  O10  1  0.31107325  0.75000000  0.94584700  1
  O  O11  1  0.68892675  0.25000000  0.05415300  1
  O  O12  1  0.95285825  0.25000000  0.86086700  1
  O  O13  1  0.04714175  0.75000000  0.13913300  1
  O  O14  1  0.53719225  0.25000000  0.82120800  1
  O  O15  1  0.46280775  0.75000000  0.17879200  1
  O  O16  1  0.16813875  0.25000000  0.57321900  1
  O  O17  1  0.83186125  0.75000000  0.42678100  1
  O  O18  1  0.44245775  0.75000000  0.56200400  1
  O  O19  1  0.55754225  0.25000000  0.43799600  1
  O  O20  1  0.81326025  0.92733650  0.65888300  1
  O  O21  1  0.81326025  0.57266350  0.65888300  1
  O  O22  1  0.18673975  0.42733650  0.34111700  1
  O  O23  1  0.18673975  0.07266350  0.34111700  1
