# generated using pymatgen
data_Fe6OF11
_symmetry_space_group_name_H-M   'P 1'
_cell_length_a   6.81380800
_cell_length_b   6.86868000
_cell_length_c   9.69334400
_cell_angle_alpha   90.00000000
_cell_angle_beta   90.00000000
_cell_angle_gamma   90.00000000
_symmetry_Int_Tables_number   1
_chemical_formula_structural   Fe6OF11
_chemical_formula_sum   'Fe12 O2 F22'
_cell_volume   453.66659409
_cell_formula_units_Z   2
loop_
 _symmetry_equiv_pos_site_id
 _symmetry_equiv_pos_as_xyz
  1  'x, y, z'
loop_
 _atom_site_type_symbol
 _atom_site_label
 _atom_site_symmetry_multiplicity
 _atom_site_fract_x
 _atom_site_fract_y
 _atom_site_fract_z
 _atom_site_occupancy
  Fe  Fe0  1  0.00941400  0.00000000  0.65140700  1
  Fe  Fe1  1  0.00941400  0.00000000  0.34859300  1
  Fe  Fe2  1  0.00014700  0.00000000  0.00000000  1
  Fe  Fe3  1  0.48062600  0.00000000  0.50000000  1
  Fe  Fe4  1  0.50360200  0.00000000  0.83184700  1
  Fe  Fe5  1  0.50360200  0.00000000  0.16815300  1
  Fe  Fe6  1  0.50941400  0.50000000  0.65140700  1
  Fe  Fe7  1  0.50941400  0.50000000  0.34859300  1
  Fe  Fe8  1  0.50014700  0.50000000  0.00000000  1
  Fe  Fe9  1  0.98062600  0.50000000  0.50000000  1
  Fe  Fe10  1  0.00360200  0.50000000  0.83184700  1
  Fe  Fe11  1  0.00360200  0.50000000  0.16815300  1
  O  O12  1  0.19421000  0.00000000  0.50000000  1
  O  O13  1  0.69421000  0.50000000  0.50000000  1
  F  F14  1  0.19909000  0.00000000  0.17216600  1
  F  F15  1  0.19909000  0.00000000  0.82783400  1
  F  F16  1  0.49960600  0.20666800  0.66984100  1
  F  F17  1  0.49960600  0.20666800  0.33015900  1
  F  F18  1  0.50178900  0.20174600  0.00000000  1
  F  F19  1  0.49960600  0.79333200  0.66984100  1
  F  F20  1  0.49960600  0.79333200  0.33015900  1
  F  F21  1  0.50178900  0.79825400  0.00000000  1
  F  F22  1  0.78578400  0.00000000  0.50000000  1
  F  F23  1  0.80651100  0.00000000  0.82561600  1
  F  F24  1  0.80651100  0.00000000  0.17438400  1
  F  F25  1  0.69909000  0.50000000  0.17216600  1
  F  F26  1  0.69909000  0.50000000  0.82783400  1
  F  F27  1  0.99960600  0.70666800  0.66984100  1
  F  F28  1  0.99960600  0.70666800  0.33015900  1
  F  F29  1  0.00178900  0.70174600  0.00000000  1
  F  F30  1  0.99960600  0.29333200  0.66984100  1
  F  F31  1  0.99960600  0.29333200  0.33015900  1
  F  F32  1  0.00178900  0.29825400  0.00000000  1
  F  F33  1  0.28578400  0.50000000  0.50000000  1
  F  F34  1  0.30651100  0.50000000  0.82561600  1
  F  F35  1  0.30651100  0.50000000  0.17438400  1
