# generated using pymatgen
data_Li6WO6
_symmetry_space_group_name_H-M   'P 1'
_cell_length_a   5.79528639
_cell_length_b   5.79528639
_cell_length_c   13.82563824
_cell_angle_alpha   90.00000000
_cell_angle_beta   90.00000000
_cell_angle_gamma   120.00000000
_symmetry_Int_Tables_number   1
_chemical_formula_structural   Li6WO6
_chemical_formula_sum   'Li18 W3 O18'
_cell_volume   402.12921432
_cell_formula_units_Z   3
loop_
 _symmetry_equiv_pos_site_id
 _symmetry_equiv_pos_as_xyz
  1  'x, y, z'
loop_
 _atom_site_type_symbol
 _atom_site_label
 _atom_site_symmetry_multiplicity
 _atom_site_fract_x
 _atom_site_fract_y
 _atom_site_fract_z
 _atom_site_occupancy
  Li  Li0  1  0.68836267  0.74047333  0.22820833  1
  Li  Li1  1  0.40714000  0.38544400  0.10512500  1
  Li  Li2  1  0.61455600  0.02169600  0.10512500  1
  Li  Li3  1  0.05211067  0.31163733  0.22820833  1
  Li  Li4  1  0.25952667  0.94788933  0.22820833  1
  Li  Li5  1  0.97830400  0.59286000  0.10512500  1
  Li  Li6  1  0.35502933  0.07380667  0.56154167  1
  Li  Li7  1  0.07380667  0.71877733  0.43845833  1
  Li  Li8  1  0.28122267  0.35502933  0.43845833  1
  Li  Li9  1  0.71877733  0.64497067  0.56154167  1
  Li  Li10  1  0.92619333  0.28122267  0.56154167  1
  Li  Li11  1  0.64497067  0.92619333  0.43845833  1
  Li  Li12  1  0.02169600  0.40714000  0.89487500  1
  Li  Li13  1  0.74047333  0.05211067  0.77179167  1
  Li  Li14  1  0.94788933  0.68836267  0.77179167  1
  Li  Li15  1  0.38544400  0.97830400  0.89487500  1
  Li  Li16  1  0.59286000  0.61455600  0.89487500  1
  Li  Li17  1  0.31163733  0.25952667  0.77179167  1
  W  W18  1  0.00000000  0.00000000  0.00000000  1
  W  W19  1  0.66666667  0.33333333  0.33333333  1
  W  W20  1  0.33333333  0.66666667  0.66666667  1
  O  O21  1  0.71547633  0.73110867  0.08173967  1
  O  O22  1  0.39777533  0.34896567  0.25159367  1
  O  O23  1  0.65103433  0.04880967  0.25159367  1
  O  O24  1  0.01563233  0.28452367  0.08173967  1
  O  O25  1  0.26889133  0.98436767  0.08173967  1
  O  O26  1  0.95119033  0.60222467  0.25159367  1
  O  O27  1  0.38214300  0.06444200  0.41507300  1
  O  O28  1  0.06444200  0.68229900  0.58492700  1
  O  O29  1  0.31770100  0.38214300  0.58492700  1
  O  O30  1  0.68229900  0.61785700  0.41507300  1
  O  O31  1  0.93555800  0.31770100  0.41507300  1
  O  O32  1  0.61785700  0.93555800  0.58492700  1
  O  O33  1  0.04880967  0.39777533  0.74840633  1
  O  O34  1  0.73110867  0.01563233  0.91826033  1
  O  O35  1  0.98436767  0.71547633  0.91826033  1
  O  O36  1  0.34896567  0.95119033  0.74840633  1
  O  O37  1  0.60222467  0.65103433  0.74840633  1
  O  O38  1  0.28452367  0.26889133  0.91826033  1
