# generated using pymatgen
data_Li4V(PO3)6
_symmetry_space_group_name_H-M   'P 1'
_cell_length_a   12.46609800
_cell_length_b   7.81686000
_cell_length_c   13.99525098
_cell_angle_alpha   90.00000000
_cell_angle_beta   93.94719892
_cell_angle_gamma   90.00000000
_symmetry_Int_Tables_number   1
_chemical_formula_structural   Li4V(PO3)6
_chemical_formula_sum   'Li16 V4 P24 O72'
_cell_volume   1360.54262577
_cell_formula_units_Z   4
loop_
 _symmetry_equiv_pos_site_id
 _symmetry_equiv_pos_as_xyz
  1  'x, y, z'
loop_
 _atom_site_type_symbol
 _atom_site_label
 _atom_site_symmetry_multiplicity
 _atom_site_fract_x
 _atom_site_fract_y
 _atom_site_fract_z
 _atom_site_occupancy
  Li  Li0  1  0.16999350  0.86974450  0.92486300  1
  Li  Li1  1  0.16999350  0.13025550  0.42486300  1
  Li  Li2  1  0.32870850  0.88862350  0.54736400  1
  Li  Li3  1  0.32870850  0.11137650  0.04736400  1
  Li  Li4  1  0.67129150  0.88862350  0.95263600  1
  Li  Li5  1  0.67129150  0.11137650  0.45263600  1
  Li  Li6  1  0.83000650  0.86974450  0.57513700  1
  Li  Li7  1  0.83000650  0.13025550  0.07513700  1
  Li  Li8  1  0.66999350  0.36974450  0.92486300  1
  Li  Li9  1  0.66999350  0.63025550  0.42486300  1
  Li  Li10  1  0.82870850  0.38862350  0.54736400  1
  Li  Li11  1  0.82870850  0.61137650  0.04736400  1
  Li  Li12  1  0.17129150  0.38862350  0.95263600  1
  Li  Li13  1  0.17129150  0.61137650  0.45263600  1
  Li  Li14  1  0.33000650  0.36974450  0.57513700  1
  Li  Li15  1  0.33000650  0.63025550  0.07513700  1
  V  V16  1  0.50000000  0.12776800  0.75000000  1
  V  V17  1  0.50000000  0.87223200  0.25000000  1
  V  V18  1  0.00000000  0.62776800  0.75000000  1
  V  V19  1  0.00000000  0.37223200  0.25000000  1
  P  P20  1  0.09173000  0.94470300  0.61356400  1
  P  P21  1  0.09173000  0.05529700  0.11356400  1
  P  P22  1  0.23100000  0.13839900  0.75115700  1
  P  P23  1  0.23100000  0.86160100  0.25115700  1
  P  P24  1  0.41524700  0.81506000  0.88978500  1
  P  P25  1  0.41524700  0.18494000  0.38978500  1
  P  P26  1  0.58475300  0.81506000  0.61021500  1
  P  P27  1  0.58475300  0.18494000  0.11021500  1
  P  P28  1  0.76900000  0.13839900  0.74884300  1
  P  P29  1  0.76900000  0.86160100  0.24884300  1
  P  P30  1  0.90827000  0.94470300  0.88643600  1
  P  P31  1  0.90827000  0.05529700  0.38643600  1
  P  P32  1  0.59173000  0.44470300  0.61356400  1
  P  P33  1  0.59173000  0.55529700  0.11356400  1
  P  P34  1  0.73100000  0.63839900  0.75115700  1
  P  P35  1  0.73100000  0.36160100  0.25115700  1
  P  P36  1  0.91524700  0.31506000  0.88978500  1
  P  P37  1  0.91524700  0.68494000  0.38978500  1
  P  P38  1  0.08475300  0.31506000  0.61021500  1
  P  P39  1  0.08475300  0.68494000  0.11021500  1
  P  P40  1  0.26900000  0.63839900  0.74884300  1
  P  P41  1  0.26900000  0.36160100  0.24884300  1
  P  P42  1  0.40827000  0.44470300  0.88643600  1
  P  P43  1  0.40827000  0.55529700  0.38643600  1
  O  O44  1  0.15937900  0.97487300  0.71433000  1
  O  O45  1  0.16631800  0.92037700  0.53484500  1
  O  O46  1  0.15937900  0.02512700  0.21433000  1
  O  O47  1  0.16631800  0.07962300  0.03484500  1
  O  O48  1  0.23413250  0.13578250  0.85743300  1
  O  O49  1  0.23413250  0.86421750  0.35743300  1
  O  O50  1  0.34156100  0.84591900  0.96876000  1
  O  O51  1  0.33228550  0.14414250  0.69804200  1
  O  O52  1  0.34596850  0.79446850  0.78832200  1
  O  O53  1  0.34156100  0.15408100  0.46876000  1
  O  O54  1  0.33228550  0.85585750  0.19804200  1
  O  O55  1  0.34596850  0.20553150  0.28832200  1
  O  O56  1  0.46970650  0.62696950  0.90192400  1
  O  O57  1  0.49441950  0.31654050  0.86854100  1
  O  O58  1  0.50538550  0.93686250  0.87256900  1
  O  O59  1  0.46970650  0.37303050  0.40192400  1
  O  O60  1  0.49461450  0.93686250  0.62743100  1
  O  O61  1  0.49441950  0.68345950  0.36854100  1
  O  O62  1  0.50558050  0.31654050  0.63145900  1
  O  O63  1  0.50538550  0.06313750  0.37256900  1
  O  O64  1  0.53029350  0.62696950  0.59807600  1
  O  O65  1  0.49461450  0.06313750  0.12743100  1
  O  O66  1  0.50558050  0.68345950  0.13145900  1
  O  O67  1  0.53029350  0.37303050  0.09807600  1
  O  O68  1  0.65403150  0.79446850  0.71167800  1
  O  O69  1  0.66771450  0.14414250  0.80195800  1
  O  O70  1  0.65843900  0.84591900  0.53124000  1
  O  O71  1  0.65403150  0.20553150  0.21167800  1
  O  O72  1  0.66771450  0.85585750  0.30195800  1
  O  O73  1  0.65843900  0.15408100  0.03124000  1
  O  O74  1  0.76586750  0.13578250  0.64256700  1
  O  O75  1  0.76586750  0.86421750  0.14256700  1
  O  O76  1  0.83368200  0.92037700  0.96515500  1
  O  O77  1  0.84062100  0.97487300  0.78567000  1
  O  O78  1  0.83368200  0.07962300  0.46515500  1
  O  O79  1  0.84062100  0.02512700  0.28567000  1
  O  O80  1  0.65937900  0.47487300  0.71433000  1
  O  O81  1  0.66631800  0.42037700  0.53484500  1
  O  O82  1  0.65937900  0.52512700  0.21433000  1
  O  O83  1  0.66631800  0.57962300  0.03484500  1
  O  O84  1  0.73413250  0.63578250  0.85743300  1
  O  O85  1  0.73413250  0.36421750  0.35743300  1
  O  O86  1  0.84156100  0.34591900  0.96876000  1
  O  O87  1  0.83228550  0.64414250  0.69804200  1
  O  O88  1  0.84596850  0.29446850  0.78832200  1
  O  O89  1  0.84156100  0.65408100  0.46876000  1
  O  O90  1  0.83228550  0.35585750  0.19804200  1
  O  O91  1  0.84596850  0.70553150  0.28832200  1
  O  O92  1  0.96970650  0.12696950  0.90192400  1
  O  O93  1  0.99441950  0.81654050  0.86854100  1
  O  O94  1  0.00538550  0.43686250  0.87256900  1
  O  O95  1  0.96970650  0.87303050  0.40192400  1
  O  O96  1  0.99461450  0.43686250  0.62743100  1
  O  O97  1  0.99441950  0.18345950  0.36854100  1
  O  O98  1  0.00558050  0.81654050  0.63145900  1
  O  O99  1  0.00538550  0.56313750  0.37256900  1
  O  O100  1  0.03029350  0.12696950  0.59807600  1
  O  O101  1  0.99461450  0.56313750  0.12743100  1
  O  O102  1  0.00558050  0.18345950  0.13145900  1
  O  O103  1  0.03029350  0.87303050  0.09807600  1
  O  O104  1  0.15403150  0.29446850  0.71167800  1
  O  O105  1  0.16771450  0.64414250  0.80195800  1
  O  O106  1  0.15843900  0.34591900  0.53124000  1
  O  O107  1  0.15403150  0.70553150  0.21167800  1
  O  O108  1  0.16771450  0.35585750  0.30195800  1
  O  O109  1  0.15843900  0.65408100  0.03124000  1
  O  O110  1  0.26586750  0.63578250  0.64256700  1
  O  O111  1  0.26586750  0.36421750  0.14256700  1
  O  O112  1  0.33368200  0.42037700  0.96515500  1
  O  O113  1  0.34062100  0.47487300  0.78567000  1
  O  O114  1  0.33368200  0.57962300  0.46515500  1
  O  O115  1  0.34062100  0.52512700  0.28567000  1
