# generated using pymatgen
data_Li5CoO3F
_symmetry_space_group_name_H-M   'P 1'
_cell_length_a   9.34108000
_cell_length_b   9.16344000
_cell_length_c   4.75479910
_cell_angle_alpha   90.00000000
_cell_angle_beta   103.74347886
_cell_angle_gamma   90.00000000
_symmetry_Int_Tables_number   1
_chemical_formula_structural   Li5CoO3F
_chemical_formula_sum   'Li20 Co4 O12 F4'
_cell_volume   395.34121742
_cell_formula_units_Z   4
loop_
 _symmetry_equiv_pos_site_id
 _symmetry_equiv_pos_as_xyz
  1  'x, y, z'
loop_
 _atom_site_type_symbol
 _atom_site_label
 _atom_site_symmetry_multiplicity
 _atom_site_fract_x
 _atom_site_fract_y
 _atom_site_fract_z
 _atom_site_occupancy
  Li  Li0  1  0.13059850  0.69916450  0.37372800  1
  Li  Li1  1  0.86940150  0.30083550  0.62627200  1
  Li  Li2  1  0.13059850  0.30083550  0.37372800  1
  Li  Li3  1  0.86940150  0.69916450  0.62627200  1
  Li  Li4  1  0.64008400  0.50000000  0.38159400  1
  Li  Li5  1  0.35991600  0.50000000  0.61840600  1
  Li  Li6  1  0.87131800  0.78730200  0.11616200  1
  Li  Li7  1  0.87131800  0.21269800  0.11616200  1
  Li  Li8  1  0.12868200  0.21269800  0.88383800  1
  Li  Li9  1  0.12868200  0.78730200  0.88383800  1
  Li  Li10  1  0.63059850  0.19916450  0.37372800  1
  Li  Li11  1  0.36940150  0.80083550  0.62627200  1
  Li  Li12  1  0.63059850  0.80083550  0.37372800  1
  Li  Li13  1  0.36940150  0.19916450  0.62627200  1
  Li  Li14  1  0.14008400  0.00000000  0.38159400  1
  Li  Li15  1  0.85991600  0.00000000  0.61840600  1
  Li  Li16  1  0.37131800  0.28730200  0.11616200  1
  Li  Li17  1  0.37131800  0.71269800  0.11616200  1
  Li  Li18  1  0.62868200  0.71269800  0.88383800  1
  Li  Li19  1  0.62868200  0.28730200  0.88383800  1
  Co  Co20  1  0.12818900  0.50000000  0.87635900  1
  Co  Co21  1  0.87181100  0.50000000  0.12364100  1
  Co  Co22  1  0.62818900  0.00000000  0.87635900  1
  Co  Co23  1  0.37181100  0.00000000  0.12364100  1
  O  O24  1  0.75263650  0.35388350  0.24648900  1
  O  O25  1  0.00000000  0.63656700  0.00000000  1
  O  O26  1  0.75263650  0.64611650  0.24648900  1
  O  O27  1  0.00000000  0.36343300  0.00000000  1
  O  O28  1  0.24736350  0.35388350  0.75351100  1
  O  O29  1  0.24736350  0.64611650  0.75351100  1
  O  O30  1  0.25263650  0.85388350  0.24648900  1
  O  O31  1  0.50000000  0.13656700  0.00000000  1
  O  O32  1  0.25263650  0.14611650  0.24648900  1
  O  O33  1  0.50000000  0.86343300  0.00000000  1
  O  O34  1  0.74736350  0.85388350  0.75351100  1
  O  O35  1  0.74736350  0.14611650  0.75351100  1
  F  F36  1  0.00000000  0.85204000  0.50000000  1
  F  F37  1  0.00000000  0.14796000  0.50000000  1
  F  F38  1  0.50000000  0.35204000  0.50000000  1
  F  F39  1  0.50000000  0.64796000  0.50000000  1
