# generated using pymatgen
data_Li4Cr3Fe2Sb3O16
_symmetry_space_group_name_H-M   'P 1'
_cell_length_a   10.52607345
_cell_length_b   6.12461961
_cell_length_c   9.91657327
_cell_angle_alpha   90.00000000
_cell_angle_beta   90.10141386
_cell_angle_gamma   90.00000000
_symmetry_Int_Tables_number   1
_chemical_formula_structural   Li4Cr3Fe2Sb3O16
_chemical_formula_sum   'Li8 Cr6 Fe4 Sb6 O32'
_cell_volume   639.30258669
_cell_formula_units_Z   2
loop_
 _symmetry_equiv_pos_site_id
 _symmetry_equiv_pos_as_xyz
  1  'x, y, z'
loop_
 _atom_site_type_symbol
 _atom_site_label
 _atom_site_symmetry_multiplicity
 _atom_site_fract_x
 _atom_site_fract_y
 _atom_site_fract_z
 _atom_site_occupancy
  Li  Li0  1  0.17222050  0.50000000  0.09692100  1
  Li  Li1  1  0.50846400  0.50000000  0.99414600  1
  Li  Li2  1  0.51133600  0.50000000  0.50908800  1
  Li  Li3  1  0.83661500  0.50000000  0.63162400  1
  Li  Li4  1  0.67222050  0.00000000  0.09692100  1
  Li  Li5  1  0.00846400  0.00000000  0.99414600  1
  Li  Li6  1  0.01133600  0.00000000  0.50908800  1
  Li  Li7  1  0.33661500  0.00000000  0.63162400  1
  Cr  Cr8  1  0.08435450  0.74743750  0.78504000  1
  Cr  Cr9  1  0.08435450  0.25256250  0.78504000  1
  Cr  Cr10  1  0.66760900  0.50000000  0.28299800  1
  Cr  Cr11  1  0.58435450  0.24743750  0.78504000  1
  Cr  Cr12  1  0.58435450  0.75256250  0.78504000  1
  Cr  Cr13  1  0.16760900  0.00000000  0.28299800  1
  Fe  Fe14  1  0.15475800  0.50000000  0.52375800  1
  Fe  Fe15  1  0.82680000  0.50000000  0.98565700  1
  Fe  Fe16  1  0.65475800  0.00000000  0.52375800  1
  Fe  Fe17  1  0.32680000  0.00000000  0.98565700  1
  Sb  Sb18  1  0.33108850  0.50000000  0.78476300  1
  Sb  Sb19  1  0.91515850  0.74708550  0.28426200  1
  Sb  Sb20  1  0.91515850  0.25291450  0.28426200  1
  Sb  Sb21  1  0.83108850  0.00000000  0.78476300  1
  Sb  Sb22  1  0.41515850  0.24708550  0.28426200  1
  Sb  Sb23  1  0.41515850  0.75291450  0.28426200  1
  O  O24  1  0.07389100  0.76556800  0.39217200  1
  O  O25  1  0.01796250  0.50000000  0.66986200  1
  O  O26  1  0.16795350  0.50000000  0.89447200  1
  O  O27  1  0.49952250  0.50000000  0.68713700  1
  O  O28  1  0.49966800  0.50000000  0.17952200  1
  O  O29  1  0.07389100  0.23443200  0.39217200  1
  O  O30  1  0.24400100  0.72362600  0.66728700  1
  O  O31  1  0.24400100  0.27637400  0.66728700  1
  O  O32  1  0.65761050  0.50000000  0.89348800  1
  O  O33  1  0.34344100  0.50000000  0.39614200  1
  O  O34  1  0.76023350  0.72764150  0.17234700  1
  O  O35  1  0.76023350  0.27235850  0.17234700  1
  O  O36  1  0.83306900  0.50000000  0.39569500  1
  O  O37  1  0.92047850  0.76854350  0.89738600  1
  O  O38  1  0.98800300  0.50000000  0.17034500  1
  O  O39  1  0.92047850  0.23145650  0.89738600  1
  O  O40  1  0.57389100  0.26556800  0.39217200  1
  O  O41  1  0.51796250  0.00000000  0.66986200  1
  O  O42  1  0.66795350  0.00000000  0.89447200  1
  O  O43  1  0.99952250  0.00000000  0.68713700  1
  O  O44  1  0.99966800  0.00000000  0.17952200  1
  O  O45  1  0.57389100  0.73443200  0.39217200  1
  O  O46  1  0.74400100  0.22362600  0.66728700  1
  O  O47  1  0.74400100  0.77637400  0.66728700  1
  O  O48  1  0.15761050  0.00000000  0.89348800  1
  O  O49  1  0.84344100  0.00000000  0.39614200  1
  O  O50  1  0.26023350  0.22764150  0.17234700  1
  O  O51  1  0.26023350  0.77235850  0.17234700  1
  O  O52  1  0.33306900  0.00000000  0.39569500  1
  O  O53  1  0.42047850  0.26854350  0.89738600  1
  O  O54  1  0.48800300  0.00000000  0.17034500  1
  O  O55  1  0.42047850  0.73145650  0.89738600  1
