# generated using pymatgen
data_Li4Cr5WO12
_symmetry_space_group_name_H-M   'P 1'
_cell_length_a   5.21056800
_cell_length_b   9.15433800
_cell_length_c   10.35968577
_cell_angle_alpha   90.00000000
_cell_angle_beta   95.87782464
_cell_angle_gamma   90.00000000
_symmetry_Int_Tables_number   1
_chemical_formula_structural   Li4Cr5WO12
_chemical_formula_sum   'Li8 Cr10 W2 O24'
_cell_volume   491.55178698
_cell_formula_units_Z   2
loop_
 _symmetry_equiv_pos_site_id
 _symmetry_equiv_pos_as_xyz
  1  'x, y, z'
loop_
 _atom_site_type_symbol
 _atom_site_label
 _atom_site_symmetry_multiplicity
 _atom_site_fract_x
 _atom_site_fract_y
 _atom_site_fract_z
 _atom_site_occupancy
  Li  Li0  1  0.70820400  0.83151600  0.70922700  1
  Li  Li1  1  0.29179600  0.83151600  0.29077300  1
  Li  Li2  1  0.20820400  0.66848400  0.70922700  1
  Li  Li3  1  0.79179600  0.66848400  0.29077300  1
  Li  Li4  1  0.20820400  0.33151600  0.70922700  1
  Li  Li5  1  0.79179600  0.33151600  0.29077300  1
  Li  Li6  1  0.70820400  0.16848400  0.70922700  1
  Li  Li7  1  0.29179600  0.16848400  0.29077300  1
  Cr  Cr8  1  0.50000000  0.66355200  0.50000000  1
  Cr  Cr9  1  0.50000000  0.83326700  0.00000000  1
  Cr  Cr10  1  0.50000000  0.00000000  0.50000000  1
  Cr  Cr11  1  0.00000000  0.66673300  0.00000000  1
  Cr  Cr12  1  0.00000000  0.83644800  0.50000000  1
  Cr  Cr13  1  0.00000000  0.16355200  0.50000000  1
  Cr  Cr14  1  0.00000000  0.33326700  0.00000000  1
  Cr  Cr15  1  0.00000000  0.50000000  0.50000000  1
  Cr  Cr16  1  0.50000000  0.16673300  0.00000000  1
  Cr  Cr17  1  0.50000000  0.33644800  0.50000000  1
  W  W18  1  0.00000000  0.00000000  0.00000000  1
  W  W19  1  0.50000000  0.50000000  0.00000000  1
  O  O20  1  0.68422000  0.66898200  0.10021000  1
  O  O21  1  0.31578000  0.66898200  0.89979000  1
  O  O22  1  0.63946650  0.82745050  0.39633000  1
  O  O23  1  0.36053350  0.82745050  0.60367000  1
  O  O24  1  0.84390300  0.00000000  0.60456900  1
  O  O25  1  0.69570100  0.00000000  0.09494000  1
  O  O26  1  0.30429900  0.00000000  0.90506000  1
  O  O27  1  0.15609700  0.00000000  0.39543100  1
  O  O28  1  0.13946650  0.67254950  0.39633000  1
  O  O29  1  0.86053350  0.67254950  0.60367000  1
  O  O30  1  0.18422000  0.83101800  0.10021000  1
  O  O31  1  0.81578000  0.83101800  0.89979000  1
  O  O32  1  0.18422000  0.16898200  0.10021000  1
  O  O33  1  0.81578000  0.16898200  0.89979000  1
  O  O34  1  0.13946650  0.32745050  0.39633000  1
  O  O35  1  0.86053350  0.32745050  0.60367000  1
  O  O36  1  0.34390300  0.50000000  0.60456900  1
  O  O37  1  0.19570100  0.50000000  0.09494000  1
  O  O38  1  0.80429900  0.50000000  0.90506000  1
  O  O39  1  0.65609700  0.50000000  0.39543100  1
  O  O40  1  0.63946650  0.17254950  0.39633000  1
  O  O41  1  0.36053350  0.17254950  0.60367000  1
  O  O42  1  0.68422000  0.33101800  0.10021000  1
  O  O43  1  0.31578000  0.33101800  0.89979000  1
