# generated using pymatgen
data_Ni3OF5
_symmetry_space_group_name_H-M   'P 1'
_cell_length_a   9.02476800
_cell_length_b   6.71720200
_cell_length_c   7.27361783
_cell_angle_alpha   90.00000000
_cell_angle_beta   111.61035070
_cell_angle_gamma   90.00000000
_symmetry_Int_Tables_number   1
_chemical_formula_structural   Ni3OF5
_chemical_formula_sum   'Ni12 O4 F20'
_cell_volume   409.94200500
_cell_formula_units_Z   4
loop_
 _symmetry_equiv_pos_site_id
 _symmetry_equiv_pos_as_xyz
  1  'x, y, z'
loop_
 _atom_site_type_symbol
 _atom_site_label
 _atom_site_symmetry_multiplicity
 _atom_site_fract_x
 _atom_site_fract_y
 _atom_site_fract_z
 _atom_site_occupancy
  Ni  Ni0  1  0.82812700  0.50000000  0.83891400  1
  Ni  Ni1  1  0.83377300  0.50000000  0.32562100  1
  Ni  Ni2  1  0.16622700  0.50000000  0.67437900  1
  Ni  Ni3  1  0.17187300  0.50000000  0.16108600  1
  Ni  Ni4  1  0.00000000  0.00000000  0.50000000  1
  Ni  Ni5  1  0.00000000  0.00000000  0.00000000  1
  Ni  Ni6  1  0.32812700  0.00000000  0.83891400  1
  Ni  Ni7  1  0.33377300  0.00000000  0.32562100  1
  Ni  Ni8  1  0.66622700  0.00000000  0.67437900  1
  Ni  Ni9  1  0.67187300  0.00000000  0.16108600  1
  Ni  Ni10  1  0.50000000  0.50000000  0.50000000  1
  Ni  Ni11  1  0.50000000  0.50000000  0.00000000  1
  O  O12  1  0.27100400  0.50000000  0.96475800  1
  O  O13  1  0.72899600  0.50000000  0.03524200  1
  O  O14  1  0.77100400  0.00000000  0.96475800  1
  O  O15  1  0.22899600  0.00000000  0.03524200  1
  F  F16  1  0.16613600  0.19765100  0.66652200  1
  F  F17  1  0.83386400  0.19765100  0.33347800  1
  F  F18  1  0.60139100  0.50000000  0.29952100  1
  F  F19  1  0.92994100  0.50000000  0.62997000  1
  F  F20  1  0.39860900  0.50000000  0.70047900  1
  F  F21  1  0.07005900  0.50000000  0.37003000  1
  F  F22  1  0.00000000  0.30510100  0.00000000  1
  F  F23  1  0.83386400  0.80234900  0.33347800  1
  F  F24  1  0.16613600  0.80234900  0.66652200  1
  F  F25  1  0.00000000  0.69489900  0.00000000  1
  F  F26  1  0.66613600  0.69765100  0.66652200  1
  F  F27  1  0.33386400  0.69765100  0.33347800  1
  F  F28  1  0.10139100  0.00000000  0.29952100  1
  F  F29  1  0.42994100  0.00000000  0.62997000  1
  F  F30  1  0.89860900  0.00000000  0.70047900  1
  F  F31  1  0.57005900  0.00000000  0.37003000  1
  F  F32  1  0.50000000  0.80510100  0.00000000  1
  F  F33  1  0.33386400  0.30234900  0.33347800  1
  F  F34  1  0.66613600  0.30234900  0.66652200  1
  F  F35  1  0.50000000  0.19489900  0.00000000  1
