# generated using pymatgen
data_Li3FePCO7
_symmetry_space_group_name_H-M   'P 1'
_cell_length_a   5.05007590
_cell_length_b   6.35136577
_cell_length_c   8.79154166
_cell_angle_alpha   89.77468189
_cell_angle_beta   84.76478342
_cell_angle_gamma   89.32777893
_symmetry_Int_Tables_number   1
_chemical_formula_structural   Li3FePCO7
_chemical_formula_sum   'Li6 Fe2 P2 C2 O14'
_cell_volume   280.79083980
_cell_formula_units_Z   2
loop_
 _symmetry_equiv_pos_site_id
 _symmetry_equiv_pos_as_xyz
  1  'x, y, z'
loop_
 _atom_site_type_symbol
 _atom_site_label
 _atom_site_symmetry_multiplicity
 _atom_site_fract_x
 _atom_site_fract_y
 _atom_site_fract_z
 _atom_site_occupancy
  Li  Li0  1  0.74938550  0.27463700  0.37797425  1
  Li  Li1  1  0.25061450  0.72536300  0.62202575  1
  Li  Li2  1  0.84880250  0.95039900  0.76469525  1
  Li  Li3  1  0.15119750  0.04960100  0.23530475  1
  Li  Li4  1  0.70975400  0.43686550  0.71487875  1
  Li  Li5  1  0.29024600  0.56313450  0.28512125  1
  Fe  Fe6  1  0.79887450  0.75402600  0.13896725  1
  Fe  Fe7  1  0.20112550  0.24597400  0.86103275  1
  P  P8  1  0.64544500  0.25223150  0.08413925  1
  P  P9  1  0.35455500  0.74776850  0.91586075  1
  C  C10  1  0.77689300  0.73688550  0.47142075  1
  C  C11  1  0.22310700  0.26311450  0.52857925  1
  O  O12  1  0.77165450  0.07687600  0.18116025  1
  O  O13  1  0.22834550  0.92312400  0.81883975  1
  O  O14  1  0.78933550  0.27242200  0.92151975  1
  O  O15  1  0.21066450  0.72757800  0.07848025  1
  O  O16  1  0.66638000  0.45419750  0.18352125  1
  O  O17  1  0.33362000  0.54580250  0.81647875  1
  O  O18  1  0.85656200  0.71639750  0.60840075  1
  O  O19  1  0.14343800  0.28360250  0.39159925  1
  O  O20  1  0.65089300  0.79481350  0.92813525  1
  O  O21  1  0.34910700  0.20518650  0.07186475  1
  O  O22  1  0.52828600  0.73149150  0.44958025  1
  O  O23  1  0.47171400  0.26850850  0.55041975  1
  O  O24  1  0.95874850  0.75894100  0.35659925  1
  O  O25  1  0.04125150  0.24105900  0.64340075  1
