# generated using pymatgen
data_ZnFeO3
_symmetry_space_group_name_H-M   'P 1'
_cell_length_a   9.67333800
_cell_length_b   8.93483200
_cell_length_c   5.31160073
_cell_angle_alpha   90.00000000
_cell_angle_beta   97.68921173
_cell_angle_gamma   90.00000000
_symmetry_Int_Tables_number   1
_chemical_formula_structural   ZnFeO3
_chemical_formula_sum   'Zn8 Fe8 O24'
_cell_volume   454.95193481
_cell_formula_units_Z   8
loop_
 _symmetry_equiv_pos_site_id
 _symmetry_equiv_pos_as_xyz
  1  'x, y, z'
loop_
 _atom_site_type_symbol
 _atom_site_label
 _atom_site_symmetry_multiplicity
 _atom_site_fract_x
 _atom_site_fract_y
 _atom_site_fract_z
 _atom_site_occupancy
  Zn  Zn0  1  0.31570700  0.90508400  0.69947300  1
  Zn  Zn1  1  0.31570700  0.09491600  0.19947300  1
  Zn  Zn2  1  0.68429300  0.90508400  0.80052700  1
  Zn  Zn3  1  0.68429300  0.09491600  0.30052700  1
  Zn  Zn4  1  0.81570700  0.40508400  0.69947300  1
  Zn  Zn5  1  0.81570700  0.59491600  0.19947300  1
  Zn  Zn6  1  0.18429300  0.40508400  0.80052700  1
  Zn  Zn7  1  0.18429300  0.59491600  0.30052700  1
  Fe  Fe8  1  0.50000000  0.58752200  0.75000000  1
  Fe  Fe9  1  0.50000000  0.23508900  0.75000000  1
  Fe  Fe10  1  0.50000000  0.76491100  0.25000000  1
  Fe  Fe11  1  0.50000000  0.41247800  0.25000000  1
  Fe  Fe12  1  0.00000000  0.08752200  0.75000000  1
  Fe  Fe13  1  0.00000000  0.73508900  0.75000000  1
  Fe  Fe14  1  0.00000000  0.26491100  0.25000000  1
  Fe  Fe15  1  0.00000000  0.91247800  0.25000000  1
  O  O16  1  0.10821150  0.91778650  0.62048500  1
  O  O17  1  0.10821150  0.08221350  0.12048500  1
  O  O18  1  0.39803600  0.73986500  0.90843700  1
  O  O19  1  0.36896150  0.90101150  0.35622600  1
  O  O20  1  0.39803600  0.26013500  0.40843700  1
  O  O21  1  0.36896150  0.09898850  0.85622600  1
  O  O22  1  0.63103850  0.90101150  0.14377400  1
  O  O23  1  0.60196400  0.73986500  0.59156300  1
  O  O24  1  0.63103850  0.09898850  0.64377400  1
  O  O25  1  0.60196400  0.26013500  0.09156300  1
  O  O26  1  0.89178850  0.91778650  0.87951500  1
  O  O27  1  0.89178850  0.08221350  0.37951500  1
  O  O28  1  0.60821150  0.41778650  0.62048500  1
  O  O29  1  0.60821150  0.58221350  0.12048500  1
  O  O30  1  0.89803600  0.23986500  0.90843700  1
  O  O31  1  0.86896150  0.40101150  0.35622600  1
  O  O32  1  0.89803600  0.76013500  0.40843700  1
  O  O33  1  0.86896150  0.59898850  0.85622600  1
  O  O34  1  0.13103850  0.40101150  0.14377400  1
  O  O35  1  0.10196400  0.23986500  0.59156300  1
  O  O36  1  0.13103850  0.59898850  0.64377400  1
  O  O37  1  0.10196400  0.76013500  0.09156300  1
  O  O38  1  0.39178850  0.41778650  0.87951500  1
  O  O39  1  0.39178850  0.58221350  0.37951500  1
