# generated using pymatgen
data_Li2TiVO4
_symmetry_space_group_name_H-M   'P 1'
_cell_length_a   4.13061632
_cell_length_b   4.13061632
_cell_length_c   8.54400531
_cell_angle_alpha   90.00000000
_cell_angle_beta   90.00000000
_cell_angle_gamma   90.00000000
_symmetry_Int_Tables_number   1
_chemical_formula_structural   Li2TiVO4
_chemical_formula_sum   'Li4 Ti2 V2 O8'
_cell_volume   145.77774297
_cell_formula_units_Z   2
loop_
 _symmetry_equiv_pos_site_id
 _symmetry_equiv_pos_as_xyz
  1  'x, y, z'
loop_
 _atom_site_type_symbol
 _atom_site_label
 _atom_site_symmetry_multiplicity
 _atom_site_fract_x
 _atom_site_fract_y
 _atom_site_fract_z
 _atom_site_occupancy
  Li  Li0  1  0.00000000  0.50000000  0.75000000  1
  Li  Li1  1  0.50000000  0.50000000  0.50000000  1
  Li  Li2  1  0.50000000  0.00000000  0.25000000  1
  Li  Li3  1  0.00000000  0.00000000  0.00000000  1
  Ti  Ti4  1  0.50000000  0.00000000  0.75000000  1
  Ti  Ti5  1  0.00000000  0.50000000  0.25000000  1
  V  V6  1  0.00000000  0.00000000  0.50000000  1
  V  V7  1  0.50000000  0.50000000  0.00000000  1
  O  O8  1  0.50000000  0.00000000  0.51634850  1
  O  O9  1  0.50000000  0.00000000  0.98365150  1
  O  O10  1  0.00000000  0.00000000  0.74853575  1
  O  O11  1  0.50000000  0.50000000  0.75146425  1
  O  O12  1  0.00000000  0.50000000  0.01634850  1
  O  O13  1  0.00000000  0.50000000  0.48365150  1
  O  O14  1  0.50000000  0.50000000  0.24853575  1
  O  O15  1  0.00000000  0.00000000  0.25146425  1
