# generated using pymatgen
data_LiMnF3
_symmetry_space_group_name_H-M   'P 1'
_cell_length_a   5.93759702
_cell_length_b   5.93759702
_cell_length_c   11.67697050
_cell_angle_alpha   90.00000000
_cell_angle_beta   90.00000000
_cell_angle_gamma   120.00000000
_symmetry_Int_Tables_number   1
_chemical_formula_structural   LiMnF3
_chemical_formula_sum   'Li6 Mn6 F18'
_cell_volume   356.51864898
_cell_formula_units_Z   6
loop_
 _symmetry_equiv_pos_site_id
 _symmetry_equiv_pos_as_xyz
  1  'x, y, z'
loop_
 _atom_site_type_symbol
 _atom_site_label
 _atom_site_symmetry_multiplicity
 _atom_site_fract_x
 _atom_site_fract_y
 _atom_site_fract_z
 _atom_site_occupancy
  Li  Li0  1  0.65847067  0.66715633  0.74671400  1
  Li  Li1  1  0.33284367  0.99131433  0.74671400  1
  Li  Li2  1  0.66313767  0.99543233  0.24492000  1
  Li  Li3  1  0.00456767  0.66770533  0.24492000  1
  Li  Li4  1  0.00868567  0.34152933  0.74671400  1
  Li  Li5  1  0.33229467  0.33686233  0.24492000  1
  Mn  Mn6  1  0.66666667  0.33333333  0.02787500  1
  Mn  Mn7  1  0.66666667  0.33333333  0.52916300  1
  Mn  Mn8  1  0.33333333  0.66666667  0.49405700  1
  Mn  Mn9  1  0.00000000  0.00000000  0.96310000  1
  Mn  Mn10  1  0.00000000  0.00000000  0.46218900  1
  Mn  Mn11  1  0.33333333  0.66666667  0.99980000  1
  F  F12  1  0.37998667  0.35687233  0.41772800  1
  F  F13  1  0.29200367  0.31123633  0.07304900  1
  F  F14  1  0.64290967  0.62443433  0.91952400  1
  F  F15  1  0.68894267  0.71010833  0.57194600  1
  F  F16  1  0.37556567  0.01847533  0.91952400  1
  F  F17  1  0.28989167  0.97883433  0.57194600  1
  F  F18  1  0.66666667  0.33333333  0.71208200  1
  F  F19  1  0.66666667  0.33333333  0.21120200  1
  F  F20  1  0.33333333  0.66666667  0.24233400  1
  F  F21  1  0.33333333  0.66666667  0.74479600  1
  F  F22  1  0.97688567  0.62001333  0.41772800  1
  F  F23  1  0.64312767  0.02311433  0.41772800  1
  F  F24  1  0.01923267  0.70799633  0.07304900  1
  F  F25  1  0.68876367  0.98076733  0.07304900  1
  F  F26  1  0.98152467  0.35709033  0.91952400  1
  F  F27  1  0.02116567  0.31105733  0.57194600  1
  F  F28  1  0.00000000  0.00000000  0.78021500  1
  F  F29  1  0.00000000  0.00000000  0.27915100  1
