# generated using pymatgen
data_Li4Ni5SnO12
_symmetry_space_group_name_H-M   'P 1'
_cell_length_a   5.12134200
_cell_length_b   8.69256400
_cell_length_c   10.04394205
_cell_angle_alpha   90.00000000
_cell_angle_beta   91.75586666
_cell_angle_gamma   90.00000000
_symmetry_Int_Tables_number   1
_chemical_formula_structural   Li4Ni5SnO12
_chemical_formula_sum   'Li8 Ni10 Sn2 O24'
_cell_volume   446.92217812
_cell_formula_units_Z   2
loop_
 _symmetry_equiv_pos_site_id
 _symmetry_equiv_pos_as_xyz
  1  'x, y, z'
loop_
 _atom_site_type_symbol
 _atom_site_label
 _atom_site_symmetry_multiplicity
 _atom_site_fract_x
 _atom_site_fract_y
 _atom_site_fract_z
 _atom_site_occupancy
  Li  Li0  1  0.59594900  0.74829000  0.74745500  1
  Li  Li1  1  0.40405100  0.74829000  0.25254500  1
  Li  Li2  1  0.59594900  0.25171000  0.74745500  1
  Li  Li3  1  0.40405100  0.25171000  0.25254500  1
  Li  Li4  1  0.09594900  0.24829000  0.74745500  1
  Li  Li5  1  0.90405100  0.24829000  0.25254500  1
  Li  Li6  1  0.09594900  0.75171000  0.74745500  1
  Li  Li7  1  0.90405100  0.75171000  0.25254500  1
  Ni  Ni8  1  0.50000000  0.66238200  0.50000000  1
  Ni  Ni9  1  0.50000000  0.16401900  0.00000000  1
  Ni  Ni10  1  0.50000000  0.83598100  0.00000000  1
  Ni  Ni11  1  0.50000000  0.33761800  0.50000000  1
  Ni  Ni12  1  0.50000000  0.00000000  0.50000000  1
  Ni  Ni13  1  0.00000000  0.16238200  0.50000000  1
  Ni  Ni14  1  0.00000000  0.66401900  0.00000000  1
  Ni  Ni15  1  0.00000000  0.33598100  0.00000000  1
  Ni  Ni16  1  0.00000000  0.83761800  0.50000000  1
  Ni  Ni17  1  0.00000000  0.50000000  0.50000000  1
  Sn  Sn18  1  0.00000000  0.00000000  0.00000000  1
  Sn  Sn19  1  0.50000000  0.50000000  0.00000000  1
  O  O20  1  0.65212450  0.68040950  0.11209900  1
  O  O21  1  0.34787550  0.68040950  0.88790100  1
  O  O22  1  0.67562650  0.81848350  0.39845500  1
  O  O23  1  0.67562650  0.18151650  0.39845500  1
  O  O24  1  0.32437350  0.81848350  0.60154500  1
  O  O25  1  0.86271200  0.00000000  0.59665800  1
  O  O26  1  0.32437350  0.18151650  0.60154500  1
  O  O27  1  0.65212450  0.31959050  0.11209900  1
  O  O28  1  0.64975000  0.00000000  0.10224600  1
  O  O29  1  0.34787550  0.31959050  0.88790100  1
  O  O30  1  0.35025000  0.00000000  0.89775400  1
  O  O31  1  0.13728800  0.00000000  0.40334200  1
  O  O32  1  0.15212450  0.18040950  0.11209900  1
  O  O33  1  0.84787550  0.18040950  0.88790100  1
  O  O34  1  0.17562650  0.31848350  0.39845500  1
  O  O35  1  0.17562650  0.68151650  0.39845500  1
  O  O36  1  0.82437350  0.31848350  0.60154500  1
  O  O37  1  0.36271200  0.50000000  0.59665800  1
  O  O38  1  0.82437350  0.68151650  0.60154500  1
  O  O39  1  0.15212450  0.81959050  0.11209900  1
  O  O40  1  0.14975000  0.50000000  0.10224600  1
  O  O41  1  0.84787550  0.81959050  0.88790100  1
  O  O42  1  0.85025000  0.50000000  0.89775400  1
  O  O43  1  0.63728800  0.50000000  0.40334200  1
