# generated using pymatgen
data_Li3V2F9
_symmetry_space_group_name_H-M   'P 1'
_cell_length_a   10.05072800
_cell_length_b   5.29664800
_cell_length_c   7.43985552
_cell_angle_alpha   90.00000000
_cell_angle_beta   96.13473505
_cell_angle_gamma   90.00000000
_symmetry_Int_Tables_number   1
_chemical_formula_structural   Li3V2F9
_chemical_formula_sum   'Li6 V4 F18'
_cell_volume   393.79384915
_cell_formula_units_Z   2
loop_
 _symmetry_equiv_pos_site_id
 _symmetry_equiv_pos_as_xyz
  1  'x, y, z'
loop_
 _atom_site_type_symbol
 _atom_site_label
 _atom_site_symmetry_multiplicity
 _atom_site_fract_x
 _atom_site_fract_y
 _atom_site_fract_z
 _atom_site_occupancy
  Li  Li0  1  0.64000250  0.82430350  0.46173600  1
  Li  Li1  1  0.00000000  0.03078400  0.00000000  1
  Li  Li2  1  0.85999750  0.32430350  0.53826400  1
  Li  Li3  1  0.14000250  0.32430350  0.46173600  1
  Li  Li4  1  0.50000000  0.53078400  0.00000000  1
  Li  Li5  1  0.35999750  0.82430350  0.53826400  1
  V  V6  1  0.64351400  0.02121000  0.84770500  1
  V  V7  1  0.85648600  0.52121000  0.15229500  1
  V  V8  1  0.14351400  0.52121000  0.84770500  1
  V  V9  1  0.35648600  0.02121000  0.15229500  1
  F  F10  1  0.74089700  0.71433400  0.95433400  1
  F  F11  1  0.53649150  0.82521450  0.66678700  1
  F  F12  1  0.75546200  0.07936000  0.64537100  1
  F  F13  1  0.54198550  0.32145250  0.81050800  1
  F  F14  1  0.75910300  0.21433400  0.04566600  1
  F  F15  1  0.96350850  0.32521450  0.33321300  1
  F  F16  1  0.00000000  0.39726500  0.00000000  1
  F  F17  1  0.74453800  0.57936000  0.35462900  1
  F  F18  1  0.95801450  0.82145250  0.18949200  1
  F  F19  1  0.24089700  0.21433400  0.95433400  1
  F  F20  1  0.03649150  0.32521450  0.66678700  1
  F  F21  1  0.25546200  0.57936000  0.64537100  1
  F  F22  1  0.04198550  0.82145250  0.81050800  1
  F  F23  1  0.25910300  0.71433400  0.04566600  1
  F  F24  1  0.46350850  0.82521450  0.33321300  1
  F  F25  1  0.50000000  0.89726500  0.00000000  1
  F  F26  1  0.24453800  0.07936000  0.35462900  1
  F  F27  1  0.45801450  0.32145250  0.18949200  1
