# generated using pymatgen
data_Co2(SO4)3
_symmetry_space_group_name_H-M   'P 1'
_cell_length_a   8.59718951
_cell_length_b   8.59718951
_cell_length_c   20.98280837
_cell_angle_alpha   90.00000000
_cell_angle_beta   90.00000000
_cell_angle_gamma   120.00000000
_symmetry_Int_Tables_number   1
_chemical_formula_structural   Co2(SO4)3
_chemical_formula_sum   'Co12 S18 O72'
_cell_volume   1343.09659043
_cell_formula_units_Z   6
loop_
 _symmetry_equiv_pos_site_id
 _symmetry_equiv_pos_as_xyz
  1  'x, y, z'
loop_
 _atom_site_type_symbol
 _atom_site_label
 _atom_site_symmetry_multiplicity
 _atom_site_fract_x
 _atom_site_fract_y
 _atom_site_fract_z
 _atom_site_occupancy
  Co  Co0  1  0.33333333  0.66666667  0.02682167  1
  Co  Co1  1  0.33333333  0.66666667  0.80651167  1
  Co  Co2  1  0.33333333  0.66666667  0.30651167  1
  Co  Co3  1  0.33333333  0.66666667  0.52682167  1
  Co  Co4  1  0.00000000  0.00000000  0.36015500  1
  Co  Co5  1  1.00000000  0.00000000  0.13984500  1
  Co  Co6  1  0.00000000  0.00000000  0.63984500  1
  Co  Co7  1  0.00000000  0.00000000  0.86015500  1
  Co  Co8  1  0.66666667  0.33333333  0.69348833  1
  Co  Co9  1  0.66666667  0.33333333  0.47317833  1
  Co  Co10  1  0.66666667  0.33333333  0.97317833  1
  Co  Co11  1  0.66666667  0.33333333  0.19348833  1
  S  S12  1  0.66666667  0.62409733  0.08333333  1
  S  S13  1  0.70923600  0.00000000  0.25000000  1
  S  S14  1  0.29076400  0.29076400  0.25000000  1
  S  S15  1  0.37590267  0.04256933  0.08333333  1
  S  S16  1  0.95743067  0.33333333  0.08333333  1
  S  S17  1  0.00000000  0.70923600  0.25000000  1
  S  S18  1  0.33333333  0.95743067  0.41666667  1
  S  S19  1  0.37590267  0.33333333  0.58333333  1
  S  S20  1  0.95743067  0.62409733  0.58333333  1
  S  S21  1  0.04256933  0.37590267  0.41666667  1
  S  S22  1  0.62409733  0.66666667  0.41666667  1
  S  S23  1  0.66666667  0.04256933  0.58333333  1
  S  S24  1  0.00000000  0.29076400  0.75000000  1
  S  S25  1  0.04256933  0.66666667  0.91666667  1
  S  S26  1  0.62409733  0.95743067  0.91666667  1
  S  S27  1  0.70923600  0.70923600  0.75000000  1
  S  S28  1  0.29076400  0.00000000  0.75000000  1
  S  S29  1  0.33333333  0.37590267  0.91666667  1
  O  O30  1  0.82899500  0.80542100  0.08190200  1
  O  O31  1  0.47208767  0.30975933  0.25143133  1
  O  O32  1  0.52678967  0.66272733  0.35820933  1
  O  O33  1  0.86406233  0.33727267  0.14179067  1
  O  O34  1  0.50433833  0.64309267  0.08476467  1
  O  O35  1  0.52791233  0.83767167  0.24856867  1
  O  O36  1  0.69024067  0.16232833  0.25143133  1
  O  O37  1  0.00393933  0.80654367  0.19154267  1
  O  O38  1  0.53072900  0.86012300  0.97512400  1
  O  O39  1  0.32939400  0.46927100  0.97512400  1
  O  O40  1  0.19345633  0.19739567  0.19154267  1
  O  O41  1  0.30975933  0.47208767  0.24856867  1
  O  O42  1  0.35690733  0.86124567  0.08476467  1
  O  O43  1  0.33727267  0.86406233  0.35820933  1
  O  O44  1  0.47321033  0.13593767  0.14179067  1
  O  O45  1  0.66272733  0.52678967  0.14179067  1
  O  O46  1  0.13593767  0.47321033  0.35820933  1
  O  O47  1  0.97642600  0.17100500  0.08190200  1
  O  O48  1  0.13875433  0.49566167  0.08476467  1
  O  O49  1  0.16232833  0.69024067  0.24856867  1
  O  O50  1  0.13987700  0.67060600  0.97512400  1
  O  O51  1  0.80260433  0.99606067  0.19154267  1
  O  O52  1  0.19457900  0.02357400  0.08190200  1
  O  O53  1  0.83767167  0.52791233  0.25143133  1
  O  O54  1  0.49566167  0.13875433  0.41523533  1
  O  O55  1  0.13875433  0.64309267  0.58476467  1
  O  O56  1  0.19345633  0.99606067  0.69154267  1
  O  O57  1  0.53072900  0.67060600  0.47512400  1
  O  O58  1  0.17100500  0.97642600  0.41809800  1
  O  O59  1  0.19457900  0.17100500  0.58190200  1
  O  O60  1  0.35690733  0.49566167  0.58476467  1
  O  O61  1  0.67060600  0.13987700  0.52487600  1
  O  O62  1  0.19739567  0.19345633  0.30845733  1
  O  O63  1  0.99606067  0.80260433  0.30845733  1
  O  O64  1  0.86012300  0.53072900  0.52487600  1
  O  O65  1  0.97642600  0.80542100  0.58190200  1
  O  O66  1  0.02357400  0.19457900  0.41809800  1
  O  O67  1  0.00393933  0.19739567  0.69154267  1
  O  O68  1  0.13987700  0.46927100  0.47512400  1
  O  O69  1  0.32939400  0.86012300  0.47512400  1
  O  O70  1  0.80260433  0.80654367  0.69154267  1
  O  O71  1  0.64309267  0.50433833  0.41523533  1
  O  O72  1  0.80542100  0.82899500  0.41809800  1
  O  O73  1  0.82899500  0.02357400  0.58190200  1
  O  O74  1  0.80654367  0.00393933  0.30845733  1
  O  O75  1  0.46927100  0.32939400  0.52487600  1
  O  O76  1  0.86124567  0.35690733  0.41523533  1
  O  O77  1  0.50433833  0.86124567  0.58476467  1
  O  O78  1  0.16232833  0.47208767  0.74856867  1
  O  O79  1  0.80542100  0.97642600  0.91809800  1
  O  O80  1  0.86012300  0.32939400  0.02487600  1
  O  O81  1  0.19739567  0.00393933  0.80845733  1
  O  O82  1  0.83767167  0.30975933  0.75143133  1
  O  O83  1  0.86124567  0.50433833  0.91523533  1
  O  O84  1  0.02357400  0.82899500  0.91809800  1
  O  O85  1  0.33727267  0.47321033  0.85820933  1
  O  O86  1  0.86406233  0.52678967  0.64179067  1
  O  O87  1  0.66272733  0.13593767  0.64179067  1
  O  O88  1  0.52678967  0.86406233  0.85820933  1
  O  O89  1  0.64309267  0.13875433  0.91523533  1
  O  O90  1  0.69024067  0.52791233  0.75143133  1
  O  O91  1  0.67060600  0.53072900  0.02487600  1
  O  O92  1  0.80654367  0.80260433  0.80845733  1
  O  O93  1  0.99606067  0.19345633  0.80845733  1
  O  O94  1  0.46927100  0.13987700  0.02487600  1
  O  O95  1  0.30975933  0.83767167  0.74856867  1
  O  O96  1  0.47208767  0.16232833  0.75143133  1
  O  O97  1  0.49566167  0.35690733  0.91523533  1
  O  O98  1  0.47321033  0.33727267  0.64179067  1
  O  O99  1  0.13593767  0.66272733  0.85820933  1
  O  O100  1  0.52791233  0.69024067  0.74856867  1
  O  O101  1  0.17100500  0.19457900  0.91809800  1
