# generated using pymatgen
data_LiCoSiO4
_symmetry_space_group_name_H-M   'P 1'
_cell_length_a   4.48546813
_cell_length_b   4.48546813
_cell_length_c   8.54775000
_cell_angle_alpha   90.00000000
_cell_angle_beta   90.00000000
_cell_angle_gamma   90.00000000
_symmetry_Int_Tables_number   1
_chemical_formula_structural   LiCoSiO4
_chemical_formula_sum   'Li2 Co2 Si2 O8'
_cell_volume   171.97580909
_cell_formula_units_Z   2
loop_
 _symmetry_equiv_pos_site_id
 _symmetry_equiv_pos_as_xyz
  1  'x, y, z'
loop_
 _atom_site_type_symbol
 _atom_site_label
 _atom_site_symmetry_multiplicity
 _atom_site_fract_x
 _atom_site_fract_y
 _atom_site_fract_z
 _atom_site_occupancy
  Li  Li0  1  0.00000000  0.00000000  0.50000000  1
  Li  Li1  1  0.50000000  0.50000000  0.00000000  1
  Co  Co2  1  0.50000000  0.00000000  0.75000000  1
  Co  Co3  1  0.00000000  0.50000000  0.25000000  1
  Si  Si4  1  0.00000000  0.00000000  0.00000000  1
  Si  Si5  1  0.50000000  0.50000000  0.50000000  1
  O  O6  1  0.75544638  0.81614388  0.89245162  1
  O  O7  1  0.68385612  0.25544638  0.60754838  1
  O  O8  1  0.24455362  0.18385612  0.89245162  1
  O  O9  1  0.31614388  0.74455362  0.60754838  1
  O  O10  1  0.25544638  0.31614388  0.39245163  1
  O  O11  1  0.18385612  0.75544638  0.10754837  1
  O  O12  1  0.74455362  0.68385612  0.39245163  1
  O  O13  1  0.81614388  0.24455362  0.10754837  1
