# generated using pymatgen
data_Tb2C3
_symmetry_space_group_name_H-M   'P 1'
_cell_length_a   8.28864600
_cell_length_b   8.28864600
_cell_length_c   8.28864600
_cell_angle_alpha   90.00000000
_cell_angle_beta   90.00000000
_cell_angle_gamma   90.00000000
_symmetry_Int_Tables_number   1
_chemical_formula_structural   Tb2C3
_chemical_formula_sum   'Tb16 C24'
_cell_volume   569.44367730
_cell_formula_units_Z   8
loop_
 _symmetry_equiv_pos_site_id
 _symmetry_equiv_pos_as_xyz
  1  'x, y, z'
loop_
 _atom_site_type_symbol
 _atom_site_label
 _atom_site_symmetry_multiplicity
 _atom_site_fract_x
 _atom_site_fract_y
 _atom_site_fract_z
 _atom_site_occupancy
  Tb  Tb0  1  0.05069400  0.55069400  0.94930600  1
  Tb  Tb1  1  0.19930600  0.80069400  0.30069400  1
  Tb  Tb2  1  0.19930600  0.19930600  0.19930600  1
  Tb  Tb3  1  0.30069400  0.19930600  0.80069400  1
  Tb  Tb4  1  0.44930600  0.44930600  0.44930600  1
  Tb  Tb5  1  0.55069400  0.94930600  0.05069400  1
  Tb  Tb6  1  0.94930600  0.05069400  0.55069400  1
  Tb  Tb7  1  0.80069400  0.30069400  0.19930600  1
  Tb  Tb8  1  0.55069400  0.05069400  0.44930600  1
  Tb  Tb9  1  0.69930600  0.30069400  0.80069400  1
  Tb  Tb10  1  0.69930600  0.69930600  0.69930600  1
  Tb  Tb11  1  0.80069400  0.69930600  0.30069400  1
  Tb  Tb12  1  0.94930600  0.94930600  0.94930600  1
  Tb  Tb13  1  0.05069400  0.44930600  0.55069400  1
  Tb  Tb14  1  0.44930600  0.55069400  0.05069400  1
  Tb  Tb15  1  0.30069400  0.80069400  0.69930600  1
  C  C16  1  0.75000000  0.29428800  0.50000000  1
  C  C17  1  0.75000000  0.45571200  0.50000000  1
  C  C18  1  0.04428800  0.50000000  0.25000000  1
  C  C19  1  0.50000000  0.75000000  0.45571200  1
  C  C20  1  0.45571200  0.50000000  0.75000000  1
  C  C21  1  0.50000000  0.25000000  0.04428800  1
  C  C22  1  0.25000000  0.20571200  0.50000000  1
  C  C23  1  0.50000000  0.75000000  0.29428800  1
  C  C24  1  0.25000000  0.04428800  0.50000000  1
  C  C25  1  0.20571200  0.50000000  0.25000000  1
  C  C26  1  0.29428800  0.50000000  0.75000000  1
  C  C27  1  0.50000000  0.25000000  0.20571200  1
  C  C28  1  0.25000000  0.79428800  0.00000000  1
  C  C29  1  0.25000000  0.95571200  0.00000000  1
  C  C30  1  0.54428800  0.00000000  0.75000000  1
  C  C31  1  0.00000000  0.25000000  0.95571200  1
  C  C32  1  0.95571200  0.00000000  0.25000000  1
  C  C33  1  0.00000000  0.75000000  0.54428800  1
  C  C34  1  0.75000000  0.70571200  0.00000000  1
  C  C35  1  0.00000000  0.25000000  0.79428800  1
  C  C36  1  0.75000000  0.54428800  0.00000000  1
  C  C37  1  0.70571200  0.00000000  0.75000000  1
  C  C38  1  0.79428800  0.00000000  0.25000000  1
  C  C39  1  0.00000000  0.75000000  0.70571200  1
