# generated using pymatgen
data_Cr4OF11
_symmetry_space_group_name_H-M   'P 1'
_cell_length_a   5.09968716
_cell_length_b   5.32715501
_cell_length_c   16.89029560
_cell_angle_alpha   84.15238854
_cell_angle_beta   81.33450464
_cell_angle_gamma   61.42667105
_symmetry_Int_Tables_number   1
_chemical_formula_structural   Cr4OF11
_chemical_formula_sum   'Cr8 O2 F22'
_cell_volume   398.13461096
_cell_formula_units_Z   2
loop_
 _symmetry_equiv_pos_site_id
 _symmetry_equiv_pos_as_xyz
  1  'x, y, z'
loop_
 _atom_site_type_symbol
 _atom_site_label
 _atom_site_symmetry_multiplicity
 _atom_site_fract_x
 _atom_site_fract_y
 _atom_site_fract_z
 _atom_site_occupancy
  Cr  Cr0  1  0.11294700  0.14143200  0.62846800  1
  Cr  Cr1  1  0.62141300  0.62954600  0.12578300  1
  Cr  Cr2  1  0.00000000  0.00000000  0.00000000  1
  Cr  Cr3  1  0.50000000  0.50000000  0.50000000  1
  Cr  Cr4  1  0.88705300  0.85856800  0.37153200  1
  Cr  Cr5  1  0.37858700  0.37045400  0.87421700  1
  Cr  Cr6  1  0.24137600  0.26803200  0.25372600  1
  Cr  Cr7  1  0.75862400  0.73196800  0.74627400  1
  O  O8  1  0.81483400  0.43708000  0.68746600  1
  O  O9  1  0.18516600  0.56292000  0.31253400  1
  F  F10  1  0.35011700  0.96793900  0.71733600  1
  F  F11  1  0.42425000  0.81741300  0.56379800  1
  F  F12  1  0.31612300  0.94459400  0.18925400  1
  F  F13  1  0.40259400  0.78174200  0.03245700  1
  F  F14  1  0.09017300  0.09285700  0.34234200  1
  F  F15  1  0.90311700  0.28289600  0.53324200  1
  F  F16  1  0.15766700  0.15617500  0.90705000  1
  F  F17  1  0.65621400  0.65725300  0.40683600  1
  F  F18  1  0.84470300  0.46852700  0.21844700  1
  F  F19  1  0.90982700  0.90714300  0.65765800  1
  F  F20  1  0.93434600  0.31456300  0.06278400  1
  F  F21  1  0.57575000  0.18258700  0.43620200  1
  F  F22  1  0.59406600  0.59193500  0.84163300  1
  F  F23  1  0.84233300  0.84382500  0.09295000  1
  F  F24  1  0.34378600  0.34274700  0.59316400  1
  F  F25  1  0.64988300  0.03206100  0.28266400  1
  F  F26  1  0.59740600  0.21825800  0.96754300  1
  F  F27  1  0.40593400  0.40806500  0.15836700  1
  F  F28  1  0.09688300  0.71710400  0.46675800  1
  F  F29  1  0.68387700  0.05540600  0.81074600  1
  F  F30  1  0.06565400  0.68543700  0.93721600  1
  F  F31  1  0.15529700  0.53147300  0.78155300  1
