# generated using pymatgen
data_Li3TiMn3O8
_symmetry_space_group_name_H-M   'P 1'
_cell_length_a   6.04439800
_cell_length_b   10.07206400
_cell_length_c   9.67673647
_cell_angle_alpha   90.00000000
_cell_angle_beta   94.55448320
_cell_angle_gamma   90.00000000
_symmetry_Int_Tables_number   1
_chemical_formula_structural   Li3TiMn3O8
_chemical_formula_sum   'Li12 Ti4 Mn12 O32'
_cell_volume   587.25522782
_cell_formula_units_Z   4
loop_
 _symmetry_equiv_pos_site_id
 _symmetry_equiv_pos_as_xyz
  1  'x, y, z'
loop_
 _atom_site_type_symbol
 _atom_site_label
 _atom_site_symmetry_multiplicity
 _atom_site_fract_x
 _atom_site_fract_y
 _atom_site_fract_z
 _atom_site_occupancy
  Li  Li0  1  0.74022100  0.90762600  0.55158200  1
  Li  Li1  1  0.25974050  0.91133750  0.56229100  1
  Li  Li2  1  0.49788550  0.67387550  0.55841500  1
  Li  Li3  1  0.49788550  0.32612450  0.05841500  1
  Li  Li4  1  0.74022100  0.09237400  0.05158200  1
  Li  Li5  1  0.25974050  0.08866250  0.06229100  1
  Li  Li6  1  0.24022100  0.40762600  0.55158200  1
  Li  Li7  1  0.75974050  0.41133750  0.56229100  1
  Li  Li8  1  0.99788550  0.17387550  0.55841500  1
  Li  Li9  1  0.99788550  0.82612450  0.05841500  1
  Li  Li10  1  0.24022100  0.59237400  0.05158200  1
  Li  Li11  1  0.75974050  0.58866250  0.06229100  1
  Ti  Ti12  1  0.51484100  0.84016600  0.00239800  1
  Ti  Ti13  1  0.51484100  0.15983400  0.50239800  1
  Ti  Ti14  1  0.01484100  0.34016600  0.00239800  1
  Ti  Ti15  1  0.01484100  0.65983400  0.50239800  1
  Mn  Mn16  1  0.74545450  0.91497150  0.28122300  1
  Mn  Mn17  1  0.25489800  0.91360500  0.28722500  1
  Mn  Mn18  1  0.50233500  0.66614500  0.28705300  1
  Mn  Mn19  1  0.50233500  0.33385500  0.78705300  1
  Mn  Mn20  1  0.74545450  0.08502850  0.78122300  1
  Mn  Mn21  1  0.25489800  0.08639500  0.78722500  1
  Mn  Mn22  1  0.24545450  0.41497150  0.28122300  1
  Mn  Mn23  1  0.75489800  0.41360500  0.28722500  1
  Mn  Mn24  1  0.00233500  0.16614500  0.28705300  1
  Mn  Mn25  1  0.00233500  0.83385500  0.78705300  1
  Mn  Mn26  1  0.24545450  0.58502850  0.78122300  1
  Mn  Mn27  1  0.75489800  0.58639500  0.78722500  1
  O  O28  1  0.01853400  0.00567600  0.17555200  1
  O  O29  1  0.01853400  0.99432400  0.67555200  1
  O  O30  1  0.73435600  0.92751000  0.90854200  1
  O  O31  1  0.51873000  0.98744500  0.14984000  1
  O  O32  1  0.73168800  0.76762300  0.14836700  1
  O  O33  1  0.48467450  0.82234950  0.40360600  1
  O  O34  1  0.24197750  0.92531150  0.91005700  1
  O  O35  1  0.28327300  0.76270600  0.15802300  1
  O  O36  1  0.47477650  0.32619550  0.41096300  1
  O  O37  1  0.47477650  0.67380450  0.91096300  1
  O  O38  1  0.73168800  0.23237700  0.64836700  1
  O  O39  1  0.48467450  0.17765050  0.90360600  1
  O  O40  1  0.28327300  0.23729400  0.65802300  1
  O  O41  1  0.73435600  0.07249000  0.40854200  1
  O  O42  1  0.51873000  0.01255500  0.64984000  1
  O  O43  1  0.24197750  0.07468850  0.41005700  1
  O  O44  1  0.51853400  0.50567600  0.17555200  1
  O  O45  1  0.51853400  0.49432400  0.67555200  1
  O  O46  1  0.23435600  0.42751000  0.90854200  1
  O  O47  1  0.01873000  0.48744500  0.14984000  1
  O  O48  1  0.23168800  0.26762300  0.14836700  1
  O  O49  1  0.98467450  0.32234950  0.40360600  1
  O  O50  1  0.74197750  0.42531150  0.91005700  1
  O  O51  1  0.78327300  0.26270600  0.15802300  1
  O  O52  1  0.97477650  0.82619550  0.41096300  1
  O  O53  1  0.97477650  0.17380450  0.91096300  1
  O  O54  1  0.23168800  0.73237700  0.64836700  1
  O  O55  1  0.98467450  0.67765050  0.90360600  1
  O  O56  1  0.78327300  0.73729400  0.65802300  1
  O  O57  1  0.23435600  0.57249000  0.40854200  1
  O  O58  1  0.01873000  0.51255500  0.64984000  1
  O  O59  1  0.74197750  0.57468850  0.41005700  1
