# generated using pymatgen
data_Li2Mn2SnO6
_symmetry_space_group_name_H-M   'P 1'
_cell_length_a   5.57247535
_cell_length_b   8.97828561
_cell_length_c   10.33408700
_cell_angle_alpha   90.00000000
_cell_angle_beta   90.00000000
_cell_angle_gamma   90.00000000
_symmetry_Int_Tables_number   1
_chemical_formula_structural   Li2Mn2SnO6
_chemical_formula_sum   'Li8 Mn8 Sn4 O24'
_cell_volume   517.02755171
_cell_formula_units_Z   4
loop_
 _symmetry_equiv_pos_site_id
 _symmetry_equiv_pos_as_xyz
  1  'x, y, z'
loop_
 _atom_site_type_symbol
 _atom_site_label
 _atom_site_symmetry_multiplicity
 _atom_site_fract_x
 _atom_site_fract_y
 _atom_site_fract_z
 _atom_site_occupancy
  Li  Li0  1  0.35971000  0.25000000  0.75000000  1
  Li  Li1  1  0.64029000  0.25000000  0.25000000  1
  Li  Li2  1  0.35971000  0.75000000  0.75000000  1
  Li  Li3  1  0.64029000  0.75000000  0.25000000  1
  Li  Li4  1  0.85971000  0.75000000  0.75000000  1
  Li  Li5  1  0.14029000  0.75000000  0.25000000  1
  Li  Li6  1  0.85971000  0.25000000  0.75000000  1
  Li  Li7  1  0.14029000  0.25000000  0.25000000  1
  Mn  Mn8  1  0.50000000  0.33698950  0.00000000  1
  Mn  Mn9  1  0.50000000  0.83698950  0.50000000  1
  Mn  Mn10  1  0.50000000  0.16301050  0.50000000  1
  Mn  Mn11  1  0.50000000  0.66301050  0.00000000  1
  Mn  Mn12  1  0.00000000  0.83698950  0.00000000  1
  Mn  Mn13  1  0.00000000  0.33698950  0.50000000  1
  Mn  Mn14  1  0.00000000  0.66301050  0.50000000  1
  Mn  Mn15  1  0.00000000  0.16301050  0.00000000  1
  Sn  Sn16  1  0.00000000  0.50000000  0.00000000  1
  Sn  Sn17  1  0.50000000  0.50000000  0.50000000  1
  Sn  Sn18  1  0.50000000  0.00000000  0.00000000  1
  Sn  Sn19  1  0.00000000  0.00000000  0.50000000  1
  O  O20  1  0.16040300  0.50000000  0.59162900  1
  O  O21  1  0.33959700  0.50000000  0.09162900  1
  O  O22  1  0.66040300  0.50000000  0.90837100  1
  O  O23  1  0.83959700  0.50000000  0.40837100  1
  O  O24  1  0.37306050  0.17970900  0.11204900  1
  O  O25  1  0.62693950  0.82029100  0.88795100  1
  O  O26  1  0.37306050  0.32029100  0.38795100  1
  O  O27  1  0.62693950  0.32029100  0.61204900  1
  O  O28  1  0.62693950  0.17970900  0.88795100  1
  O  O29  1  0.37306050  0.67970900  0.38795100  1
  O  O30  1  0.62693950  0.67970900  0.61204900  1
  O  O31  1  0.37306050  0.82029100  0.11204900  1
  O  O32  1  0.66040300  0.00000000  0.59162900  1
  O  O33  1  0.83959700  0.00000000  0.09162900  1
  O  O34  1  0.16040300  0.00000000  0.90837100  1
  O  O35  1  0.33959700  0.00000000  0.40837100  1
  O  O36  1  0.87306050  0.67970900  0.11204900  1
  O  O37  1  0.12693950  0.32029100  0.88795100  1
  O  O38  1  0.87306050  0.82029100  0.38795100  1
  O  O39  1  0.12693950  0.82029100  0.61204900  1
  O  O40  1  0.12693950  0.67970900  0.88795100  1
  O  O41  1  0.87306050  0.17970900  0.38795100  1
  O  O42  1  0.12693950  0.17970900  0.61204900  1
  O  O43  1  0.87306050  0.32029100  0.11204900  1
