# generated using pymatgen
data_Li4Ti3Co3(WO8)2
_symmetry_space_group_name_H-M   'P 1'
_cell_length_a   10.34579747
_cell_length_b   5.99135580
_cell_length_c   9.82758275
_cell_angle_alpha   90.00000000
_cell_angle_beta   90.94049062
_cell_angle_gamma   90.00000000
_symmetry_Int_Tables_number   1
_chemical_formula_structural   Li4Ti3Co3(WO8)2
_chemical_formula_sum   'Li8 Ti6 Co6 W4 O32'
_cell_volume   609.08412688
_cell_formula_units_Z   2
loop_
 _symmetry_equiv_pos_site_id
 _symmetry_equiv_pos_as_xyz
  1  'x, y, z'
loop_
 _atom_site_type_symbol
 _atom_site_label
 _atom_site_symmetry_multiplicity
 _atom_site_fract_x
 _atom_site_fract_y
 _atom_site_fract_z
 _atom_site_occupancy
  Li  Li0  1  0.33533050  0.00000000  0.09510900  1
  Li  Li1  1  0.00558550  0.00000000  0.01664400  1
  Li  Li2  1  0.99548150  0.00000000  0.50839700  1
  Li  Li3  1  0.66566800  0.00000000  0.59271500  1
  Li  Li4  1  0.83533050  0.50000000  0.09510900  1
  Li  Li5  1  0.50558550  0.50000000  0.01664400  1
  Li  Li6  1  0.49548150  0.50000000  0.50839700  1
  Li  Li7  1  0.16566800  0.50000000  0.59271500  1
  Ti  Ti8  1  0.40933100  0.75036800  0.78435800  1
  Ti  Ti9  1  0.40933100  0.24963200  0.78435800  1
  Ti  Ti10  1  0.81997000  0.00000000  0.26743400  1
  Ti  Ti11  1  0.90933100  0.25036800  0.78435800  1
  Ti  Ti12  1  0.90933100  0.74963200  0.78435800  1
  Ti  Ti13  1  0.31997000  0.50000000  0.26743400  1
  Co  Co14  1  0.17834350  0.00000000  0.78906200  1
  Co  Co15  1  0.58316300  0.76108300  0.28837900  1
  Co  Co16  1  0.58316300  0.23891700  0.28837900  1
  Co  Co17  1  0.67834350  0.50000000  0.78906200  1
  Co  Co18  1  0.08316300  0.26108300  0.28837900  1
  Co  Co19  1  0.08316300  0.73891700  0.28837900  1
  W  W20  1  0.32934900  0.00000000  0.50966700  1
  W  W21  1  0.65471500  0.00000000  0.01041800  1
  W  W22  1  0.82934900  0.50000000  0.50966700  1
  W  W23  1  0.15471500  0.50000000  0.01041800  1
  O  O24  1  0.40854850  0.76310550  0.41378500  1
  O  O25  1  0.47780000  0.00000000  0.65995300  1
  O  O26  1  0.35209300  0.00000000  0.89424900  1
  O  O27  1  0.99606450  0.00000000  0.69760400  1
  O  O28  1  0.99253600  0.00000000  0.20664900  1
  O  O29  1  0.40854850  0.23689450  0.41378500  1
  O  O30  1  0.26621850  0.77416750  0.64998300  1
  O  O31  1  0.26621850  0.22583250  0.64998300  1
  O  O32  1  0.82966600  0.00000000  0.89325800  1
  O  O33  1  0.16874100  0.00000000  0.42045400  1
  O  O34  1  0.74814900  0.78480600  0.14753900  1
  O  O35  1  0.74814900  0.21519400  0.14753900  1
  O  O36  1  0.68069300  0.00000000  0.39173400  1
  O  O37  1  0.58124250  0.74997450  0.91026200  1
  O  O38  1  0.51633700  0.00000000  0.14955800  1
  O  O39  1  0.58124250  0.25002550  0.91026200  1
  O  O40  1  0.90854850  0.26310550  0.41378500  1
  O  O41  1  0.97780000  0.50000000  0.65995300  1
  O  O42  1  0.85209300  0.50000000  0.89424900  1
  O  O43  1  0.49606450  0.50000000  0.69760400  1
  O  O44  1  0.49253600  0.50000000  0.20664900  1
  O  O45  1  0.90854850  0.73689450  0.41378500  1
  O  O46  1  0.76621850  0.27416750  0.64998300  1
  O  O47  1  0.76621850  0.72583250  0.64998300  1
  O  O48  1  0.32966600  0.50000000  0.89325800  1
  O  O49  1  0.66874100  0.50000000  0.42045400  1
  O  O50  1  0.24814900  0.28480600  0.14753900  1
  O  O51  1  0.24814900  0.71519400  0.14753900  1
  O  O52  1  0.18069300  0.50000000  0.39173400  1
  O  O53  1  0.08124250  0.24997450  0.91026200  1
  O  O54  1  0.01633700  0.50000000  0.14955800  1
  O  O55  1  0.08124250  0.75002550  0.91026200  1
