# generated using pymatgen
data_Li8(CoO2)5
_symmetry_space_group_name_H-M   'P 1'
_cell_length_a   6.64378219
_cell_length_b   8.63692236
_cell_length_c   10.08942144
_cell_angle_alpha   105.93490891
_cell_angle_beta   103.26323174
_cell_angle_gamma   104.47846859
_symmetry_Int_Tables_number   1
_chemical_formula_structural   Li8(CoO2)5
_chemical_formula_sum   'Li16 Co10 O20'
_cell_volume   510.65350982
_cell_formula_units_Z   2
loop_
 _symmetry_equiv_pos_site_id
 _symmetry_equiv_pos_as_xyz
  1  'x, y, z'
loop_
 _atom_site_type_symbol
 _atom_site_label
 _atom_site_symmetry_multiplicity
 _atom_site_fract_x
 _atom_site_fract_y
 _atom_site_fract_z
 _atom_site_occupancy
  Li  Li0  1  0.22810500  0.53558400  0.87023100  1
  Li  Li1  1  0.72207200  0.53393700  0.36602200  1
  Li  Li2  1  0.27792800  0.46606300  0.63397800  1
  Li  Li3  1  0.77189500  0.46441600  0.12976900  1
  Li  Li4  1  0.12179800  0.15876900  0.58618000  1
  Li  Li5  1  0.62426300  0.15794100  0.08265500  1
  Li  Li6  1  0.87820200  0.84123100  0.41382000  1
  Li  Li7  1  0.37573700  0.84205900  0.91734500  1
  Li  Li8  1  0.44147900  0.33271500  0.45118300  1
  Li  Li9  1  0.93767800  0.32963200  0.94764500  1
  Li  Li10  1  0.06232200  0.67036800  0.05235500  1
  Li  Li11  1  0.55852100  0.66728500  0.54881700  1
  Li  Li12  1  0.15468900  0.04930900  0.33093500  1
  Li  Li13  1  0.65492700  0.05064400  0.83441800  1
  Li  Li14  1  0.34507300  0.94935600  0.16558200  1
  Li  Li15  1  0.84531100  0.95069100  0.66906500  1
  Co  Co16  1  0.50000000  0.00000000  0.50000000  1
  Co  Co17  1  0.00000000  0.00000000  0.00000000  1
  Co  Co18  1  0.60233200  0.40205500  0.80317600  1
  Co  Co19  1  0.10285700  0.40109200  0.30092500  1
  Co  Co20  1  0.89714300  0.59890800  0.69907500  1
  Co  Co21  1  0.39766800  0.59794500  0.19682400  1
  Co  Co22  1  0.79273400  0.19273000  0.39165000  1
  Co  Co23  1  0.29384800  0.19520800  0.89048300  1
  Co  Co24  1  0.70615200  0.80479200  0.10951700  1
  Co  Co25  1  0.20726600  0.80727000  0.60835000  1
  O  O26  1  0.28479500  0.33668100  0.76844400  1
  O  O27  1  0.80266600  0.33905800  0.27204500  1
  O  O28  1  0.71520500  0.66331900  0.23155600  1
  O  O29  1  0.19733400  0.66094200  0.72795500  1
  O  O30  1  0.92220200  0.51077500  0.85025800  1
  O  O31  1  0.40448800  0.49669600  0.35529500  1
  O  O32  1  0.59551200  0.50330400  0.64470500  1
  O  O33  1  0.07779800  0.48922500  0.14974200  1
  O  O34  1  0.79237300  0.03752500  0.50636300  1
  O  O35  1  0.29306700  0.04141200  0.00800600  1
  O  O36  1  0.20762700  0.96247500  0.49363700  1
  O  O37  1  0.70693300  0.95858800  0.99199400  1
  O  O38  1  0.12141500  0.27908900  0.43088500  1
  O  O39  1  0.62023600  0.27046600  0.93649400  1
  O  O40  1  0.37976400  0.72953400  0.06350600  1
  O  O41  1  0.87858500  0.72091100  0.56911500  1
  O  O42  1  0.47522400  0.11168400  0.36767600  1
  O  O43  1  0.97378200  0.10971400  0.86620600  1
  O  O44  1  0.02621800  0.89028600  0.13379400  1
  O  O45  1  0.52477600  0.88831600  0.63232400  1
