# generated using pymatgen
data_TiVO3
_symmetry_space_group_name_H-M   'P 1'
_cell_length_a   5.14624750
_cell_length_b   5.14624750
_cell_length_c   14.32599732
_cell_angle_alpha   90.00000000
_cell_angle_beta   90.00000000
_cell_angle_gamma   120.00000000
_symmetry_Int_Tables_number   1
_chemical_formula_structural   TiVO3
_chemical_formula_sum   'Ti6 V6 O18'
_cell_volume   328.57675416
_cell_formula_units_Z   6
loop_
 _symmetry_equiv_pos_site_id
 _symmetry_equiv_pos_as_xyz
  1  'x, y, z'
loop_
 _atom_site_type_symbol
 _atom_site_label
 _atom_site_symmetry_multiplicity
 _atom_site_fract_x
 _atom_site_fract_y
 _atom_site_fract_z
 _atom_site_occupancy
  Ti  Ti0  1  0.33333333  0.66666667  0.52155367  1
  Ti  Ti1  1  0.66666667  0.33333333  0.47844633  1
  Ti  Ti2  1  0.00000000  0.00000000  0.85488700  1
  Ti  Ti3  1  0.33333333  0.66666667  0.81177967  1
  Ti  Ti4  1  0.66666667  0.33333333  0.18822033  1
  Ti  Ti5  1  0.00000000  0.00000000  0.14511300  1
  V  V6  1  0.00000000  0.00000000  0.34733367  1
  V  V7  1  0.00000000  0.00000000  0.65266633  1
  V  V8  1  0.66666667  0.33333333  0.68066700  1
  V  V9  1  0.66666667  0.33333333  0.98599967  1
  V  V10  1  0.33333333  0.66666667  0.01400033  1
  V  V11  1  0.33333333  0.66666667  0.31933300  1
  O  O12  1  0.64468633  0.01512667  0.57871267  1
  O  O13  1  0.37044033  0.35531367  0.57871267  1
  O  O14  1  0.98487333  0.62955967  0.57871267  1
  O  O15  1  0.01512667  0.37044033  0.42128733  1
  O  O16  1  0.62955967  0.64468633  0.42128733  1
  O  O17  1  0.35531367  0.98487333  0.42128733  1
  O  O18  1  0.31135300  0.34846000  0.91204600  1
  O  O19  1  0.03710700  0.68864700  0.91204600  1
  O  O20  1  0.65154000  0.96289300  0.91204600  1
  O  O21  1  0.68179333  0.70377367  0.75462067  1
  O  O22  1  0.29622633  0.97801967  0.75462067  1
  O  O23  1  0.02198033  0.31820667  0.75462067  1
  O  O24  1  0.97801967  0.68179333  0.24537933  1
  O  O25  1  0.70377367  0.02198033  0.24537933  1
  O  O26  1  0.31820667  0.29622633  0.24537933  1
  O  O27  1  0.34846000  0.03710700  0.08795400  1
  O  O28  1  0.96289300  0.31135300  0.08795400  1
  O  O29  1  0.68864700  0.65154000  0.08795400  1
