# generated using pymatgen
data_LiV2O3F
_symmetry_space_group_name_H-M   'P 1'
_cell_length_a   13.55900000
_cell_length_b   8.55877600
_cell_length_c   6.01793188
_cell_angle_alpha   90.00000000
_cell_angle_beta   116.29203254
_cell_angle_gamma   90.00000000
_symmetry_Int_Tables_number   1
_chemical_formula_structural   LiV2O3F
_chemical_formula_sum   'Li8 V16 O24 F8'
_cell_volume   626.12371190
_cell_formula_units_Z   8
loop_
 _symmetry_equiv_pos_site_id
 _symmetry_equiv_pos_as_xyz
  1  'x, y, z'
loop_
 _atom_site_type_symbol
 _atom_site_label
 _atom_site_symmetry_multiplicity
 _atom_site_fract_x
 _atom_site_fract_y
 _atom_site_fract_z
 _atom_site_occupancy
  Li  Li0  1  0.12928900  0.12011700  0.89639600  1
  Li  Li1  1  0.86790000  0.12851800  0.60879300  1
  Li  Li2  1  0.12928900  0.87988300  0.39639600  1
  Li  Li3  1  0.86790000  0.87148200  0.10879300  1
  Li  Li4  1  0.62928900  0.62011700  0.89639600  1
  Li  Li5  1  0.36790000  0.62851800  0.60879300  1
  Li  Li6  1  0.62928900  0.37988300  0.39639600  1
  Li  Li7  1  0.36790000  0.37148200  0.10879300  1
  V  V8  1  0.49360850  0.73086150  0.22653400  1
  V  V9  1  0.25490600  0.24641300  0.49825000  1
  V  V10  1  0.25490600  0.75358700  0.99825000  1
  V  V11  1  0.37260550  0.00243550  0.87380500  1
  V  V12  1  0.37260550  0.99756450  0.37380500  1
  V  V13  1  0.62612250  0.00749250  0.63176200  1
  V  V14  1  0.62612250  0.99250750  0.13176200  1
  V  V15  1  0.49360850  0.26913850  0.72653400  1
  V  V16  1  0.99360850  0.23086150  0.22653400  1
  V  V17  1  0.75490600  0.74641300  0.49825000  1
  V  V18  1  0.75490600  0.25358700  0.99825000  1
  V  V19  1  0.87260550  0.50243550  0.87380500  1
  V  V20  1  0.87260550  0.49756450  0.37380500  1
  V  V21  1  0.12612250  0.50749250  0.63176200  1
  V  V22  1  0.12612250  0.49250750  0.13176200  1
  V  V23  1  0.99360850  0.76913850  0.72653400  1
  O  O24  1  0.37792350  0.76141850  0.34636900  1
  O  O25  1  0.62502750  0.75478650  0.16306900  1
  O  O26  1  0.37853500  0.76623900  0.89018900  1
  O  O27  1  0.50450950  0.98084950  0.26143600  1
  O  O28  1  0.73243100  0.98450800  0.48822200  1
  O  O29  1  0.26411000  0.98933900  0.00623100  1
  O  O30  1  0.73243100  0.01549200  0.98822200  1
  O  O31  1  0.26411000  0.01066100  0.50623100  1
  O  O32  1  0.50450950  0.01915050  0.76143600  1
  O  O33  1  0.37792350  0.23858150  0.84636900  1
  O  O34  1  0.62502750  0.24521350  0.66306900  1
  O  O35  1  0.37853500  0.23376100  0.39018900  1
  O  O36  1  0.87792350  0.26141850  0.34636900  1
  O  O37  1  0.12502750  0.25478650  0.16306900  1
  O  O38  1  0.87853500  0.26623900  0.89018900  1
  O  O39  1  0.00450950  0.48084950  0.26143600  1
  O  O40  1  0.23243100  0.48450800  0.48822200  1
  O  O41  1  0.76411000  0.48933900  0.00623100  1
  O  O42  1  0.23243100  0.51549200  0.98822200  1
  O  O43  1  0.76411000  0.51066100  0.50623100  1
  O  O44  1  0.00450950  0.51915050  0.76143600  1
  O  O45  1  0.87792350  0.73858150  0.84636900  1
  O  O46  1  0.12502750  0.74521350  0.66306900  1
  O  O47  1  0.87853500  0.73376100  0.39018900  1
  F  F48  1  0.49736050  0.50282450  0.74064200  1
  F  F49  1  0.62567150  0.75352150  0.61830000  1
  F  F50  1  0.62567150  0.24647850  0.11830000  1
  F  F51  1  0.49736050  0.49717550  0.24064200  1
  F  F52  1  0.99736050  0.00282450  0.74064200  1
  F  F53  1  0.12567150  0.25352150  0.61830000  1
  F  F54  1  0.12567150  0.74647850  0.11830000  1
  F  F55  1  0.99736050  0.99717550  0.24064200  1
