# generated using pymatgen
data_Mn3CrSn2(PO4)6
_symmetry_space_group_name_H-M   'P 1'
_cell_length_a   8.79333304
_cell_length_b   8.79333304
_cell_length_c   20.80672166
_cell_angle_alpha   90.00000000
_cell_angle_beta   90.00000000
_cell_angle_gamma   120.00000000
_symmetry_Int_Tables_number   1
_chemical_formula_structural   Mn3CrSn2(PO4)6
_chemical_formula_sum   'Mn9 Cr3 Sn6 P18 O72'
_cell_volume   1393.28940026
_cell_formula_units_Z   3
loop_
 _symmetry_equiv_pos_site_id
 _symmetry_equiv_pos_as_xyz
  1  'x, y, z'
loop_
 _atom_site_type_symbol
 _atom_site_label
 _atom_site_symmetry_multiplicity
 _atom_site_fract_x
 _atom_site_fract_y
 _atom_site_fract_z
 _atom_site_occupancy
  Mn  Mn0  1  0.33333333  0.66666667  0.51474667  1
  Mn  Mn1  1  0.33333333  0.66666667  0.31985667  1
  Mn  Mn2  1  0.33333333  0.66666667  0.01623167  1
  Mn  Mn3  1  0.00000000  0.00000000  0.84808000  1
  Mn  Mn4  1  0.00000000  0.00000000  0.65319000  1
  Mn  Mn5  1  0.00000000  0.00000000  0.34956500  1
  Mn  Mn6  1  0.66666667  0.33333333  0.18141333  1
  Mn  Mn7  1  0.66666667  0.33333333  0.98652333  1
  Mn  Mn8  1  0.66666667  0.33333333  0.68289833  1
  Cr  Cr9  1  0.33333333  0.66666667  0.81216267  1
  Cr  Cr10  1  0.00000000  0.00000000  0.14549600  1
  Cr  Cr11  1  0.66666667  0.33333333  0.47882933  1
  Sn  Sn12  1  0.33333333  0.66666667  0.66437167  1
  Sn  Sn13  1  0.33333333  0.66666667  0.16745667  1
  Sn  Sn14  1  0.00000000  0.00000000  0.99770500  1
  Sn  Sn15  1  0.00000000  0.00000000  0.50079000  1
  Sn  Sn16  1  0.66666667  0.33333333  0.33103833  1
  Sn  Sn17  1  0.66666667  0.33333333  0.83412333  1
  P  P18  1  0.00036333  0.70388067  0.24912267  1
  P  P19  1  0.66699000  0.63825100  0.08432200  1
  P  P20  1  0.36174900  0.02873900  0.08432200  1
  P  P21  1  0.97126100  0.33301000  0.08432200  1
  P  P22  1  0.70351733  0.99963667  0.24912267  1
  P  P23  1  0.29611933  0.29648267  0.24912267  1
  P  P24  1  0.66703000  0.03721400  0.58245600  1
  P  P25  1  0.33365667  0.97158433  0.41765533  1
  P  P26  1  0.02841567  0.36207233  0.41765533  1
  P  P27  1  0.63792767  0.66634333  0.41765533  1
  P  P28  1  0.37018400  0.33297000  0.58245600  1
  P  P29  1  0.96278600  0.62981600  0.58245600  1
  P  P30  1  0.33369667  0.37054733  0.91578933  1
  P  P31  1  0.00032333  0.30491767  0.75098867  1
  P  P32  1  0.69508233  0.69540567  0.75098867  1
  P  P33  1  0.30459433  0.99967667  0.75098867  1
  P  P34  1  0.03685067  0.66630333  0.91578933  1
  P  P35  1  0.62945267  0.96314933  0.91578933  1
  O  O36  1  0.55357233  0.67306867  0.35576967  1
  O  O37  1  0.32693133  0.88050367  0.35576967  1
  O  O38  1  0.67474067  0.16409233  0.25899133  1
  O  O39  1  0.11949633  0.44642767  0.35576967  1
  O  O40  1  0.14365967  0.68058733  0.85654833  1
  O  O41  1  0.51234633  0.83845967  0.23684467  1
  O  O42  1  0.48935167  0.32525933  0.25899133  1
  O  O43  1  0.32611333  0.48765367  0.23684467  1
  O  O44  1  0.67664400  0.54928300  0.14496300  1
  O  O45  1  0.16154033  0.67388667  0.23684467  1
  O  O46  1  0.83357733  0.83287967  0.07569267  1
  O  O47  1  0.45071700  0.12736100  0.14496300  1
  O  O48  1  0.53692767  0.85634033  0.85654833  1
  O  O49  1  0.83590767  0.51064833  0.25899133  1
  O  O50  1  0.50669100  0.67091200  0.09470400  1
  O  O51  1  0.31941267  0.46307233  0.85654833  1
  O  O52  1  0.32908800  0.83577900  0.09470400  1
  O  O53  1  0.16712033  0.00069767  0.07569267  1
  O  O54  1  0.16422100  0.49330900  0.09470400  1
  O  O55  1  0.87263900  0.32335600  0.14496300  1
  O  O56  1  0.53634800  0.88206800  0.97809800  1
  O  O57  1  0.99930233  0.16642267  0.07569267  1
  O  O58  1  0.34572000  0.46365200  0.97809800  1
  O  O59  1  0.11793200  0.65428000  0.97809800  1
  O  O60  1  0.22023900  0.00640200  0.68910300  1
  O  O61  1  0.99359800  0.21383700  0.68910300  1
  O  O62  1  0.34140733  0.49742567  0.59232467  1
  O  O63  1  0.78616300  0.77976100  0.68910300  1
  O  O64  1  0.81032633  0.01392067  0.18988167  1
  O  O65  1  0.17901300  0.17179300  0.57017800  1
  O  O66  1  0.15601833  0.65859267  0.59232467  1
  O  O67  1  0.99278000  0.82098700  0.57017800  1
  O  O68  1  0.34331067  0.88261633  0.47829633  1
  O  O69  1  0.82820700  0.00722000  0.57017800  1
  O  O70  1  0.50024400  0.16621300  0.40902600  1
  O  O71  1  0.11738367  0.46069433  0.47829633  1
  O  O72  1  0.20359433  0.18967367  0.18988167  1
  O  O73  1  0.50257433  0.84398167  0.59232467  1
  O  O74  1  0.17335767  0.00424533  0.42803733  1
  O  O75  1  0.98607933  0.79640567  0.18988167  1
  O  O76  1  0.99575467  0.16911233  0.42803733  1
  O  O77  1  0.83378700  0.33403100  0.40902600  1
  O  O78  1  0.83088767  0.82664233  0.42803733  1
  O  O79  1  0.53930567  0.65668933  0.47829633  1
  O  O80  1  0.20301467  0.21540133  0.31143133  1
  O  O81  1  0.66596900  0.49975600  0.40902600  1
  O  O82  1  0.01238667  0.79698533  0.31143133  1
  O  O83  1  0.78459867  0.98761333  0.31143133  1
  O  O84  1  0.88690567  0.33973533  0.02243633  1
  O  O85  1  0.66026467  0.54717033  0.02243633  1
  O  O86  1  0.00807400  0.83075900  0.92565800  1
  O  O87  1  0.45282967  0.11309433  0.02243633  1
  O  O88  1  0.47699300  0.34725400  0.52321500  1
  O  O89  1  0.84567967  0.50512633  0.90351133  1
  O  O90  1  0.82268500  0.99192600  0.92565800  1
  O  O91  1  0.65944667  0.15432033  0.90351133  1
  O  O92  1  0.00997733  0.21594967  0.81162967  1
  O  O93  1  0.49487367  0.34055333  0.90351133  1
  O  O94  1  0.16691067  0.49954633  0.74235933  1
  O  O95  1  0.78405033  0.79402767  0.81162967  1
  O  O96  1  0.87026100  0.52300700  0.52321500  1
  O  O97  1  0.16924100  0.17731500  0.92565800  1
  O  O98  1  0.84002433  0.33757867  0.76137067  1
  O  O99  1  0.65274600  0.12973900  0.52321500  1
  O  O100  1  0.66242133  0.50244567  0.76137067  1
  O  O101  1  0.50045367  0.66736433  0.74235933  1
  O  O102  1  0.49755433  0.15997567  0.76137067  1
  O  O103  1  0.20597233  0.99002267  0.81162967  1
  O  O104  1  0.86968133  0.54873467  0.64476467  1
  O  O105  1  0.33263567  0.83308933  0.74235933  1
  O  O106  1  0.67905333  0.13031867  0.64476467  1
  O  O107  1  0.45126533  0.32094667  0.64476467  1
