# generated using pymatgen
data_CuCO3
_symmetry_space_group_name_H-M   'P 1'
_cell_length_a   8.10523919
_cell_length_b   8.10523919
_cell_length_c   3.25826900
_cell_angle_alpha   90.00000000
_cell_angle_beta   90.00000000
_cell_angle_gamma   120.00000000
_symmetry_Int_Tables_number   1
_chemical_formula_structural   CuCO3
_chemical_formula_sum   'Cu3 C3 O9'
_cell_volume   185.37417833
_cell_formula_units_Z   3
loop_
 _symmetry_equiv_pos_site_id
 _symmetry_equiv_pos_as_xyz
  1  'x, y, z'
loop_
 _atom_site_type_symbol
 _atom_site_label
 _atom_site_symmetry_multiplicity
 _atom_site_fract_x
 _atom_site_fract_y
 _atom_site_fract_z
 _atom_site_occupancy
  Cu  Cu0  1  0.34494700  0.03441100  0.00000000  1
  Cu  Cu1  1  0.68946400  0.65505300  0.00000000  1
  Cu  Cu2  1  0.96558900  0.31053600  0.00000000  1
  C  C3  1  0.66666667  0.33333333  0.50000000  1
  C  C4  1  0.33333333  0.66666667  0.00000000  1
  C  C5  1  0.00000000  0.00000000  0.00000000  1
  O  O6  1  0.42570200  0.57538000  0.00000000  1
  O  O7  1  0.48633200  0.21077300  0.50000000  1
  O  O8  1  0.72444100  0.51366800  0.50000000  1
  O  O9  1  0.42462000  0.85032200  0.00000000  1
  O  O10  1  0.78922700  0.27555900  0.50000000  1
  O  O11  1  0.14967800  0.57429800  0.00000000  1
  O  O12  1  0.81839300  0.92981200  0.00000000  1
  O  O13  1  0.11141900  0.18160700  0.00000000  1
  O  O14  1  0.07018800  0.88858100  0.00000000  1
