# generated using pymatgen
data_Li6NiO4
_symmetry_space_group_name_H-M   'P 1'
_cell_length_a   4.66832404
_cell_length_b   6.52379009
_cell_length_c   6.67788152
_cell_angle_alpha   90.00000000
_cell_angle_beta   90.00000000
_cell_angle_gamma   90.00000000
_symmetry_Int_Tables_number   1
_chemical_formula_structural   Li6NiO4
_chemical_formula_sum   'Li12 Ni2 O8'
_cell_volume   203.37599084
_cell_formula_units_Z   2
loop_
 _symmetry_equiv_pos_site_id
 _symmetry_equiv_pos_as_xyz
  1  'x, y, z'
loop_
 _atom_site_type_symbol
 _atom_site_label
 _atom_site_symmetry_multiplicity
 _atom_site_fract_x
 _atom_site_fract_y
 _atom_site_fract_z
 _atom_site_occupancy
  Li  Li0  1  0.69878725  0.00000000  0.50000000  1
  Li  Li1  1  0.30121275  0.50000000  0.00000000  1
  Li  Li2  1  0.19899425  0.00000000  0.50000000  1
  Li  Li3  1  0.80100575  0.50000000  0.00000000  1
  Li  Li4  1  0.74731075  0.28235500  0.71796800  1
  Li  Li5  1  0.74731075  0.71764500  0.71796800  1
  Li  Li6  1  0.74731075  0.28235500  0.28203200  1
  Li  Li7  1  0.74731075  0.71764500  0.28203200  1
  Li  Li8  1  0.25268925  0.78235500  0.21796800  1
  Li  Li9  1  0.25268925  0.21764500  0.21796800  1
  Li  Li10  1  0.25268925  0.78235500  0.78203200  1
  Li  Li11  1  0.25268925  0.21764500  0.78203200  1
  Ni  Ni12  1  0.23626175  0.50000000  0.50000000  1
  Ni  Ni13  1  0.76373825  0.00000000  0.00000000  1
  O  O14  1  0.96002525  0.00000000  0.73276050  1
  O  O15  1  0.96002525  0.00000000  0.26723950  1
  O  O16  1  0.03997475  0.50000000  0.23276050  1
  O  O17  1  0.03997475  0.50000000  0.76723950  1
  O  O18  1  0.46186575  0.76032450  0.50000000  1
  O  O19  1  0.46186575  0.23967550  0.50000000  1
  O  O20  1  0.53813425  0.73967550  0.00000000  1
  O  O21  1  0.53813425  0.26032450  0.00000000  1
