# generated using pymatgen
data_Fe3Cu2Sb(PO4)6
_symmetry_space_group_name_H-M   'P 1'
_cell_length_a   8.64394868
_cell_length_b   8.64394868
_cell_length_c   21.11806285
_cell_angle_alpha   90.00000000
_cell_angle_beta   90.00000000
_cell_angle_gamma   120.00000000
_symmetry_Int_Tables_number   1
_chemical_formula_structural   Fe3Cu2Sb(PO4)6
_chemical_formula_sum   'Fe9 Cu6 Sb3 P18 O72'
_cell_volume   1366.49821589
_cell_formula_units_Z   3
loop_
 _symmetry_equiv_pos_site_id
 _symmetry_equiv_pos_as_xyz
  1  'x, y, z'
loop_
 _atom_site_type_symbol
 _atom_site_label
 _atom_site_symmetry_multiplicity
 _atom_site_fract_x
 _atom_site_fract_y
 _atom_site_fract_z
 _atom_site_occupancy
  Fe  Fe0  1  0.33333333  0.66666667  0.52166867  1
  Fe  Fe1  1  0.33333333  0.66666667  0.31163867  1
  Fe  Fe2  1  0.33333333  0.66666667  0.02308067  1
  Fe  Fe3  1  0.00000000  0.00000000  0.85500200  1
  Fe  Fe4  1  0.00000000  0.00000000  0.64497200  1
  Fe  Fe5  1  0.00000000  0.00000000  0.35641400  1
  Fe  Fe6  1  0.66666667  0.33333333  0.18833533  1
  Fe  Fe7  1  0.66666667  0.33333333  0.97830533  1
  Fe  Fe8  1  0.66666667  0.33333333  0.68974733  1
  Cu  Cu9  1  0.33333333  0.66666667  0.65957267  1
  Cu  Cu10  1  0.33333333  0.66666667  0.16671167  1
  Cu  Cu11  1  0.00000000  0.00000000  0.99290600  1
  Cu  Cu12  1  0.00000000  0.00000000  0.50004500  1
  Cu  Cu13  1  0.66666667  0.33333333  0.32623933  1
  Cu  Cu14  1  0.66666667  0.33333333  0.83337833  1
  Sb  Sb15  1  0.33333333  0.66666667  0.80962867  1
  Sb  Sb16  1  0.00000000  0.00000000  0.14296200  1
  Sb  Sb17  1  0.66666667  0.33333333  0.47629533  1
  P  P18  1  0.00206533  0.70495967  0.25123567  1
  P  P19  1  0.70289433  0.99793467  0.25123567  1
  P  P20  1  0.29504033  0.29710567  0.25123567  1
  P  P21  1  0.37649867  0.03942433  0.08439733  1
  P  P22  1  0.96057567  0.33707433  0.08439733  1
  P  P23  1  0.66292567  0.62350133  0.08439733  1
  P  P24  1  0.66873200  0.03829300  0.58456900  1
  P  P25  1  0.36956100  0.33126800  0.58456900  1
  P  P26  1  0.96170700  0.63043900  0.58456900  1
  P  P27  1  0.04316533  0.37275767  0.41773067  1
  P  P28  1  0.62724233  0.67040767  0.41773067  1
  P  P29  1  0.32959233  0.95683467  0.41773067  1
  P  P30  1  0.33539867  0.37162633  0.91790233  1
  P  P31  1  0.03622767  0.66460133  0.91790233  1
  P  P32  1  0.62837367  0.96377233  0.91790233  1
  P  P33  1  0.70983200  0.70609100  0.75106400  1
  P  P34  1  0.29390900  0.00374100  0.75106400  1
  P  P35  1  0.99625900  0.29016800  0.75106400  1
  O  O36  1  0.33736733  0.86625767  0.35721167  1
  O  O37  1  0.13374233  0.47110967  0.35721167  1
  O  O38  1  0.83222033  0.51806067  0.25452967  1
  O  O39  1  0.52889033  0.66263267  0.35721167  1
  O  O40  1  0.00409200  0.80374500  0.18836700  1
  O  O41  1  0.17143600  0.68824800  0.24434000  1
  O  O42  1  0.68584033  0.16777967  0.25452967  1
  O  O43  1  0.51681200  0.82856400  0.24434000  1
  O  O44  1  0.46919300  0.13805400  0.14468500  1
  O  O45  1  0.31175200  0.48318800  0.24434000  1
  O  O46  1  0.18177067  0.01957733  0.07894733  1
  O  O47  1  0.86194600  0.33113900  0.14468500  1
  O  O48  1  0.79965300  0.99590800  0.18836700  1
  O  O49  1  0.48193933  0.31415967  0.25452967  1
  O  O50  1  0.34971067  0.84862233  0.08956533  1
  O  O51  1  0.19625500  0.20034700  0.18836700  1
  O  O52  1  0.15137767  0.50108833  0.08956533  1
  O  O53  1  0.98042267  0.16219333  0.07894733  1
  O  O54  1  0.49891167  0.65028933  0.08956533  1
  O  O55  1  0.66886100  0.53080700  0.14468500  1
  O  O56  1  0.13977467  0.66497333  0.97595333  1
  O  O57  1  0.83780667  0.81822933  0.07894733  1
  O  O58  1  0.52519867  0.86022533  0.97595333  1
  O  O59  1  0.33502667  0.47480133  0.97595333  1
  O  O60  1  0.00403400  0.19959100  0.69054500  1
  O  O61  1  0.80040900  0.80444300  0.69054500  1
  O  O62  1  0.49888700  0.85139400  0.58786300  1
  O  O63  1  0.19555700  0.99596600  0.69054500  1
  O  O64  1  0.67075867  0.13707833  0.52170033  1
  O  O65  1  0.83810267  0.02158133  0.57767333  1
  O  O66  1  0.35250700  0.50111300  0.58786300  1
  O  O67  1  0.18347867  0.16189733  0.57767333  1
  O  O68  1  0.13585967  0.47138733  0.47801833  1
  O  O69  1  0.97841867  0.81652133  0.57767333  1
  O  O70  1  0.84843733  0.35291067  0.41228067  1
  O  O71  1  0.52861267  0.66447233  0.47801833  1
  O  O72  1  0.46631967  0.32924133  0.52170033  1
  O  O73  1  0.14860600  0.64749300  0.58786300  1
  O  O74  1  0.01637733  0.18195567  0.42289867  1
  O  O75  1  0.86292167  0.53368033  0.52170033  1
  O  O76  1  0.81804433  0.83442167  0.42289867  1
  O  O77  1  0.64708933  0.49552667  0.41228067  1
  O  O78  1  0.16557833  0.98362267  0.42289867  1
  O  O79  1  0.33552767  0.86414033  0.47801833  1
  O  O80  1  0.80644133  0.99830667  0.30928667  1
  O  O81  1  0.50447333  0.15156267  0.41228067  1
  O  O82  1  0.19186533  0.19355867  0.30928667  1
  O  O83  1  0.00169333  0.80813467  0.30928667  1
  O  O84  1  0.67070067  0.53292433  0.02387833  1
  O  O85  1  0.46707567  0.13777633  0.02387833  1
  O  O86  1  0.16555367  0.18472733  0.92119633  1
  O  O87  1  0.86222367  0.32929933  0.02387833  1
  O  O88  1  0.33742533  0.47041167  0.85503367  1
  O  O89  1  0.50476933  0.35491467  0.91100667  1
  O  O90  1  0.01917367  0.83444633  0.92119633  1
  O  O91  1  0.85014533  0.49523067  0.91100667  1
  O  O92  1  0.80252633  0.80472067  0.81135167  1
  O  O93  1  0.64508533  0.14985467  0.91100667  1
  O  O94  1  0.51510400  0.68624400  0.74561400  1
  O  O95  1  0.19527933  0.99780567  0.81135167  1
  O  O96  1  0.13298633  0.66257467  0.85503367  1
  O  O97  1  0.81527267  0.98082633  0.92119633  1
  O  O98  1  0.68304400  0.51528900  0.75623200  1
  O  O99  1  0.52958833  0.86701367  0.85503367  1
  O  O100  1  0.48471100  0.16775500  0.75623200  1
  O  O101  1  0.31375600  0.82886000  0.74561400  1
  O  O102  1  0.83224500  0.31695600  0.75623200  1
  O  O103  1  0.00219433  0.19747367  0.81135167  1
  O  O104  1  0.47310800  0.33164000  0.64262000  1
  O  O105  1  0.17114000  0.48489600  0.74561400  1
  O  O106  1  0.85853200  0.52689200  0.64262000  1
  O  O107  1  0.66836000  0.14146800  0.64262000  1
