# generated using pymatgen
data_Sm(FeO2)2
_symmetry_space_group_name_H-M   'P 1'
_cell_length_a   3.61467614
_cell_length_b   3.61467614
_cell_length_c   25.19964676
_cell_angle_alpha   90.00000000
_cell_angle_beta   90.00000000
_cell_angle_gamma   120.00000000
_symmetry_Int_Tables_number   1
_chemical_formula_structural   Sm(FeO2)2
_chemical_formula_sum   'Sm3 Fe6 O12'
_cell_volume   285.14375903
_cell_formula_units_Z   3
loop_
 _symmetry_equiv_pos_site_id
 _symmetry_equiv_pos_as_xyz
  1  'x, y, z'
loop_
 _atom_site_type_symbol
 _atom_site_label
 _atom_site_symmetry_multiplicity
 _atom_site_fract_x
 _atom_site_fract_y
 _atom_site_fract_z
 _atom_site_occupancy
  Sm  Sm0  1  0.00000000  0.00000000  0.00016000  1
  Sm  Sm1  1  0.66666667  0.33333333  0.33349333  1
  Sm  Sm2  1  0.33333333  0.66666667  0.66682667  1
  Fe  Fe3  1  0.66666667  0.33333333  0.12200233  1
  Fe  Fe4  1  0.00000000  0.00000000  0.21333700  1
  Fe  Fe5  1  0.33333333  0.66666667  0.45533567  1
  Fe  Fe6  1  0.66666667  0.33333333  0.54667033  1
  Fe  Fe7  1  0.00000000  0.00000000  0.78866900  1
  Fe  Fe8  1  0.33333333  0.66666667  0.88000367  1
  O  O9  1  0.66666667  0.33333333  0.21162833  1
  O  O10  1  0.66666667  0.33333333  0.04107133  1
  O  O11  1  0.00000000  0.00000000  0.28990500  1
  O  O12  1  0.00000000  0.00000000  0.13510000  1
  O  O13  1  0.33333333  0.66666667  0.54496167  1
  O  O14  1  0.33333333  0.66666667  0.37440467  1
  O  O15  1  0.66666667  0.33333333  0.62323833  1
  O  O16  1  0.66666667  0.33333333  0.46843333  1
  O  O17  1  0.00000000  0.00000000  0.87829500  1
  O  O18  1  0.00000000  0.00000000  0.70773800  1
  O  O19  1  0.33333333  0.66666667  0.95657167  1
  O  O20  1  0.33333333  0.66666667  0.80176667  1
