# generated using pymatgen
data_Hg2W2O7
_symmetry_space_group_name_H-M   'P 1'
_cell_length_a   7.28367157
_cell_length_b   7.40976078
_cell_length_c   8.40193632
_cell_angle_alpha   115.70557634
_cell_angle_beta   91.13603970
_cell_angle_gamma   117.29972781
_symmetry_Int_Tables_number   1
_chemical_formula_structural   Hg2W2O7
_chemical_formula_sum   'Hg4 W4 O14'
_cell_volume   349.25633778
_cell_formula_units_Z   2
loop_
 _symmetry_equiv_pos_site_id
 _symmetry_equiv_pos_as_xyz
  1  'x, y, z'
loop_
 _atom_site_type_symbol
 _atom_site_label
 _atom_site_symmetry_multiplicity
 _atom_site_fract_x
 _atom_site_fract_y
 _atom_site_fract_z
 _atom_site_occupancy
  Hg  Hg0  1  0.17495733  0.67852218  0.62629202  1
  Hg  Hg1  1  0.37258789  0.82369686  0.37883669  1
  Hg  Hg2  1  0.62741211  0.17630314  0.62116331  1
  Hg  Hg3  1  0.82504267  0.32147782  0.37370798  1
  W  W4  1  0.32591648  0.14146075  0.88221700  1
  W  W5  1  0.16470959  0.35320490  0.12533412  1
  W  W6  1  0.83529041  0.64679510  0.87466588  1
  W  W7  1  0.67408352  0.85853925  0.11778300  1
  O  O8  1  0.10260888  0.88443337  0.94872936  1
  O  O9  1  0.02585890  0.54717864  0.84557581  1
  O  O10  1  0.46521823  0.99783456  0.83822454  1
  O  O11  1  0.18000222  0.24482732  0.65498142  1
  O  O12  1  0.71082775  0.71841299  0.99233039  1
  O  O13  1  0.23802857  0.18918187  0.35401783  1
  O  O14  1  0.59715637  0.39460879  0.85689020  1
  O  O15  1  0.40284363  0.60539121  0.14310980  1
  O  O16  1  0.76197143  0.81081813  0.64598217  1
  O  O17  1  0.28917225  0.28158701  0.00766961  1
  O  O18  1  0.81999778  0.75517268  0.34501858  1
  O  O19  1  0.53478177  0.00216544  0.16177546  1
  O  O20  1  0.97414110  0.45282136  0.15442419  1
  O  O21  1  0.89739112  0.11556663  0.05127064  1
