# generated using pymatgen
data_Fe5O7F3
_symmetry_space_group_name_H-M   'P 1'
_cell_length_a   6.69709400
_cell_length_b   6.50649800
_cell_length_c   15.22698520
_cell_angle_alpha   90.00000000
_cell_angle_beta   90.12665148
_cell_angle_gamma   90.00000000
_symmetry_Int_Tables_number   1
_chemical_formula_structural   Fe5O7F3
_chemical_formula_sum   'Fe20 O28 F12'
_cell_volume   663.50860559
_cell_formula_units_Z   4
loop_
 _symmetry_equiv_pos_site_id
 _symmetry_equiv_pos_as_xyz
  1  'x, y, z'
loop_
 _atom_site_type_symbol
 _atom_site_label
 _atom_site_symmetry_multiplicity
 _atom_site_fract_x
 _atom_site_fract_y
 _atom_site_fract_z
 _atom_site_occupancy
  Fe  Fe0  1  0.02895550  0.99080350  0.29300600  1
  Fe  Fe1  1  0.97207100  0.99862300  0.09859000  1
  Fe  Fe2  1  0.02792900  0.99862300  0.90141000  1
  Fe  Fe3  1  0.97104450  0.99080350  0.70699400  1
  Fe  Fe4  1  0.50000000  0.48353100  0.50000000  1
  Fe  Fe5  1  0.50060550  0.99549550  0.20027200  1
  Fe  Fe6  1  0.49939450  0.99549550  0.79972800  1
  Fe  Fe7  1  0.50000000  0.99860600  0.00000000  1
  Fe  Fe8  1  0.50646250  0.01861050  0.59517200  1
  Fe  Fe9  1  0.49353750  0.01861050  0.40482800  1
  Fe  Fe10  1  0.52895550  0.49080350  0.29300600  1
  Fe  Fe11  1  0.47207100  0.49862300  0.09859000  1
  Fe  Fe12  1  0.52792900  0.49862300  0.90141000  1
  Fe  Fe13  1  0.47104450  0.49080350  0.70699400  1
  Fe  Fe14  1  0.00000000  0.98353100  0.50000000  1
  Fe  Fe15  1  0.00060550  0.49549550  0.20027200  1
  Fe  Fe16  1  0.99939450  0.49549550  0.79972800  1
  Fe  Fe17  1  0.00000000  0.49860600  0.00000000  1
  Fe  Fe18  1  0.00646250  0.51861050  0.59517200  1
  Fe  Fe19  1  0.99353750  0.51861050  0.40482800  1
  O  O20  1  0.49481200  0.30033800  0.19511300  1
  O  O21  1  0.50000000  0.30602100  0.00000000  1
  O  O22  1  0.50518800  0.30033800  0.80488700  1
  O  O23  1  0.49035800  0.31439600  0.60430000  1
  O  O24  1  0.50964200  0.31439600  0.39570000  1
  O  O25  1  0.67712650  0.99696550  0.09927800  1
  O  O26  1  0.67850250  0.00063450  0.70144000  1
  O  O27  1  0.69889850  0.00524250  0.49828600  1
  O  O28  1  0.32149750  0.00063450  0.29856000  1
  O  O29  1  0.32287350  0.99696550  0.90072200  1
  O  O30  1  0.30110150  0.00524250  0.50171400  1
  O  O31  1  0.49714600  0.69083100  0.19733900  1
  O  O32  1  0.50285400  0.69083100  0.80266100  1
  O  O33  1  0.50000000  0.69127700  0.00000000  1
  O  O34  1  0.99481200  0.80033800  0.19511300  1
  O  O35  1  0.00000000  0.80602100  0.00000000  1
  O  O36  1  0.00518800  0.80033800  0.80488700  1
  O  O37  1  0.99035800  0.81439600  0.60430000  1
  O  O38  1  0.00964200  0.81439600  0.39570000  1
  O  O39  1  0.17712650  0.49696550  0.09927800  1
  O  O40  1  0.17850250  0.50063450  0.70144000  1
  O  O41  1  0.19889850  0.50524250  0.49828600  1
  O  O42  1  0.82149750  0.50063450  0.29856000  1
  O  O43  1  0.82287350  0.49696550  0.90072200  1
  O  O44  1  0.80110150  0.50524250  0.50171400  1
  O  O45  1  0.99714600  0.19083100  0.19733900  1
  O  O46  1  0.00285400  0.19083100  0.80266100  1
  O  O47  1  0.00000000  0.19127700  0.00000000  1
  F  F48  1  0.70615150  0.00045450  0.30074400  1
  F  F49  1  0.70480750  0.99677850  0.90077800  1
  F  F50  1  0.29519250  0.99677850  0.09922200  1
  F  F51  1  0.29384850  0.00045450  0.69925600  1
  F  F52  1  0.50674450  0.70110950  0.39737600  1
  F  F53  1  0.49325550  0.70110950  0.60262400  1
  F  F54  1  0.20615150  0.50045450  0.30074400  1
  F  F55  1  0.20480750  0.49677850  0.90077800  1
  F  F56  1  0.79519250  0.49677850  0.09922200  1
  F  F57  1  0.79384850  0.50045450  0.69925600  1
  F  F58  1  0.00674450  0.20110950  0.39737600  1
  F  F59  1  0.99325550  0.20110950  0.60262400  1
