# generated using pymatgen
data_AlVO3
_symmetry_space_group_name_H-M   'P 1'
_cell_length_a   25.76496000
_cell_length_b   5.87980800
_cell_length_c   5.83720921
_cell_angle_alpha   90.00000000
_cell_angle_beta   103.02937326
_cell_angle_gamma   90.00000000
_symmetry_Int_Tables_number   1
_chemical_formula_structural   AlVO3
_chemical_formula_sum   'Al16 V16 O48'
_cell_volume   861.52988546
_cell_formula_units_Z   16
loop_
 _symmetry_equiv_pos_site_id
 _symmetry_equiv_pos_as_xyz
  1  'x, y, z'
loop_
 _atom_site_type_symbol
 _atom_site_label
 _atom_site_symmetry_multiplicity
 _atom_site_fract_x
 _atom_site_fract_y
 _atom_site_fract_z
 _atom_site_occupancy
  Al  Al0  1  0.49622500  0.50000000  0.99193700  1
  Al  Al1  1  0.46035800  0.00000000  0.69918900  1
  Al  Al2  1  0.46051000  0.00000000  0.21783900  1
  Al  Al3  1  0.33860000  0.00000000  0.34173500  1
  Al  Al4  1  0.29221100  0.50000000  0.53944000  1
  Al  Al5  1  0.24608900  0.00000000  0.74400300  1
  Al  Al6  1  0.12221700  0.00000000  0.86540800  1
  Al  Al7  1  0.08497700  0.50000000  0.07462300  1
  Al  Al8  1  0.99622500  0.00000000  0.99193700  1
  Al  Al9  1  0.96035800  0.50000000  0.69918900  1
  Al  Al10  1  0.96051000  0.50000000  0.21783900  1
  Al  Al11  1  0.83860000  0.50000000  0.34173500  1
  Al  Al12  1  0.79221100  0.00000000  0.53944000  1
  Al  Al13  1  0.74608900  0.50000000  0.74400300  1
  Al  Al14  1  0.62221700  0.50000000  0.86540800  1
  Al  Al15  1  0.58497700  0.00000000  0.07462300  1
  V  V16  1  0.37465250  0.74404750  0.87327600  1
  V  V17  1  0.37465250  0.25595250  0.87327600  1
  V  V18  1  0.29253900  0.50000000  0.04112300  1
  V  V19  1  0.20929150  0.25638650  0.20583800  1
  V  V20  1  0.20929150  0.74361350  0.20583800  1
  V  V21  1  0.12222700  0.00000000  0.37462500  1
  V  V22  1  0.04076300  0.25006200  0.53870400  1
  V  V23  1  0.04076300  0.74993800  0.53870400  1
  V  V24  1  0.87465250  0.24404750  0.87327600  1
  V  V25  1  0.87465250  0.75595250  0.87327600  1
  V  V26  1  0.79253900  0.00000000  0.04112300  1
  V  V27  1  0.70929150  0.75638650  0.20583800  1
  V  V28  1  0.70929150  0.24361350  0.20583800  1
  V  V29  1  0.62222700  0.50000000  0.37462500  1
  V  V30  1  0.54076300  0.75006200  0.53870400  1
  V  V31  1  0.54076300  0.24993800  0.53870400  1
  O  O32  1  0.46446500  0.79370400  0.46195200  1
  O  O33  1  0.46446500  0.20629600  0.46195200  1
  O  O34  1  0.45809000  0.77003200  0.95520500  1
  O  O35  1  0.45809000  0.22996800  0.95520500  1
  O  O36  1  0.38085600  0.00000000  0.12741300  1
  O  O37  1  0.38120700  0.00000000  0.63683400  1
  O  O38  1  0.37021700  0.50000000  0.09418700  1
  O  O39  1  0.36404100  0.50000000  0.64310500  1
  O  O40  1  0.28890550  0.25247850  0.78155000  1
  O  O41  1  0.28890550  0.74752150  0.78155000  1
  O  O42  1  0.29544550  0.74644750  0.30095300  1
  O  O43  1  0.29544550  0.25355250  0.30095300  1
  O  O44  1  0.21518100  0.50000000  0.98817100  1
  O  O45  1  0.22005300  0.50000000  0.43818000  1
  O  O46  1  0.20529800  0.00000000  0.44702500  1
  O  O47  1  0.20305900  0.00000000  0.95469700  1
  O  O48  1  0.12510750  0.76077350  0.10782800  1
  O  O49  1  0.12510750  0.23922650  0.10782800  1
  O  O50  1  0.11784350  0.21371450  0.62896200  1
  O  O51  1  0.11784350  0.78628550  0.62896200  1
  O  O52  1  0.04204200  0.00000000  0.79956200  1
  O  O53  1  0.03958100  0.00000000  0.28565100  1
  O  O54  1  0.03917100  0.50000000  0.78972400  1
  O  O55  1  0.04033200  0.50000000  0.27659400  1
  O  O56  1  0.96446500  0.29370400  0.46195200  1
  O  O57  1  0.96446500  0.70629600  0.46195200  1
  O  O58  1  0.95809000  0.27003200  0.95520500  1
  O  O59  1  0.95809000  0.72996800  0.95520500  1
  O  O60  1  0.88085600  0.50000000  0.12741300  1
  O  O61  1  0.88120700  0.50000000  0.63683400  1
  O  O62  1  0.87021700  0.00000000  0.09418700  1
  O  O63  1  0.86404100  0.00000000  0.64310500  1
  O  O64  1  0.78890550  0.75247850  0.78155000  1
  O  O65  1  0.78890550  0.24752150  0.78155000  1
  O  O66  1  0.79544550  0.24644750  0.30095300  1
  O  O67  1  0.79544550  0.75355250  0.30095300  1
  O  O68  1  0.71518100  0.00000000  0.98817100  1
  O  O69  1  0.72005300  0.00000000  0.43818000  1
  O  O70  1  0.70529800  0.50000000  0.44702500  1
  O  O71  1  0.70305900  0.50000000  0.95469700  1
  O  O72  1  0.62510750  0.26077350  0.10782800  1
  O  O73  1  0.62510750  0.73922650  0.10782800  1
  O  O74  1  0.61784350  0.71371450  0.62896200  1
  O  O75  1  0.61784350  0.28628550  0.62896200  1
  O  O76  1  0.54204200  0.50000000  0.79956200  1
  O  O77  1  0.53958100  0.50000000  0.28565100  1
  O  O78  1  0.53917100  0.00000000  0.78972400  1
  O  O79  1  0.54033200  0.00000000  0.27659400  1
