# generated using pymatgen
data_Na2Cr7O14
_symmetry_space_group_name_H-M   'P 1'
_cell_length_a   5.75522254
_cell_length_b   5.75522254
_cell_length_c   28.13106066
_cell_angle_alpha   90.00000000
_cell_angle_beta   90.00000000
_cell_angle_gamma   120.00000000
_symmetry_Int_Tables_number   1
_chemical_formula_structural   Na2Cr7O14
_chemical_formula_sum   'Na6 Cr21 O42'
_cell_volume   806.93951233
_cell_formula_units_Z   3
loop_
 _symmetry_equiv_pos_site_id
 _symmetry_equiv_pos_as_xyz
  1  'x, y, z'
loop_
 _atom_site_type_symbol
 _atom_site_label
 _atom_site_symmetry_multiplicity
 _atom_site_fract_x
 _atom_site_fract_y
 _atom_site_fract_z
 _atom_site_occupancy
  Na  Na0  1  0.66666667  0.33333333  0.03162633  1
  Na  Na1  1  0.00000000  0.00000000  0.30170700  1
  Na  Na2  1  0.33333333  0.66666667  0.36495967  1
  Na  Na3  1  0.66666667  0.33333333  0.63504033  1
  Na  Na4  1  0.00000000  0.00000000  0.69829300  1
  Na  Na5  1  0.33333333  0.66666667  0.96837367  1
  Cr  Cr6  1  0.83333333  0.16666667  0.16666667  1
  Cr  Cr7  1  0.66666667  0.33333333  0.27292133  1
  Cr  Cr8  1  0.83333333  0.66666667  0.16666667  1
  Cr  Cr9  1  0.33333333  0.16666667  0.16666667  1
  Cr  Cr10  1  0.33333333  0.66666667  0.09058067  1
  Cr  Cr11  1  0.33333333  0.66666667  0.24275267  1
  Cr  Cr12  1  0.00000000  0.00000000  0.06041200  1
  Cr  Cr13  1  0.50000000  0.50000000  0.50000000  1
  Cr  Cr14  1  0.33333333  0.66666667  0.60625467  1
  Cr  Cr15  1  0.50000000  0.00000000  0.50000000  1
  Cr  Cr16  1  0.00000000  0.50000000  0.50000000  1
  Cr  Cr17  1  0.00000000  0.00000000  0.42391400  1
  Cr  Cr18  1  0.00000000  0.00000000  0.57608600  1
  Cr  Cr19  1  0.66666667  0.33333333  0.39374533  1
  Cr  Cr20  1  0.16666667  0.83333333  0.83333333  1
  Cr  Cr21  1  0.00000000  0.00000000  0.93958800  1
  Cr  Cr22  1  0.16666667  0.33333333  0.83333333  1
  Cr  Cr23  1  0.66666667  0.83333333  0.83333333  1
  Cr  Cr24  1  0.66666667  0.33333333  0.75724733  1
  Cr  Cr25  1  0.66666667  0.33333333  0.90941933  1
  Cr  Cr26  1  0.33333333  0.66666667  0.72707867  1
  O  O27  1  0.66666667  0.33333333  0.20479733  1
  O  O28  1  0.68041933  0.84020967  0.20314967  1
  O  O29  1  0.50687633  0.49312367  0.13018367  1
  O  O30  1  0.65269267  0.82634633  0.04824733  1
  O  O31  1  0.49301300  0.50698700  0.28508600  1
  O  O32  1  0.49301300  0.98602600  0.28508600  1
  O  O33  1  0.50687633  0.01375267  0.13018367  1
  O  O34  1  0.15979033  0.31958067  0.20314967  1
  O  O35  1  0.17365367  0.34730733  0.04824733  1
  O  O36  1  0.17365367  0.82634633  0.04824733  1
  O  O37  1  0.01397400  0.50698700  0.28508600  1
  O  O38  1  0.15979033  0.84020967  0.20314967  1
  O  O39  1  0.98624733  0.49312367  0.13018367  1
  O  O40  1  0.00000000  0.00000000  0.12853600  1
  O  O41  1  0.33333333  0.66666667  0.53813067  1
  O  O42  1  0.34708600  0.17354300  0.53648300  1
  O  O43  1  0.17354300  0.82645700  0.46351700  1
  O  O44  1  0.31935933  0.15967967  0.38158067  1
  O  O45  1  0.15967967  0.84032033  0.61841933  1
  O  O46  1  0.15967967  0.31935933  0.61841933  1
  O  O47  1  0.17354300  0.34708600  0.46351700  1
  O  O48  1  0.82645700  0.65291400  0.53648300  1
  O  O49  1  0.84032033  0.68064067  0.38158067  1
  O  O50  1  0.84032033  0.15967967  0.38158067  1
  O  O51  1  0.68064067  0.84032033  0.61841933  1
  O  O52  1  0.82645700  0.17354300  0.53648300  1
  O  O53  1  0.65291400  0.82645700  0.46351700  1
  O  O54  1  0.66666667  0.33333333  0.46186933  1
  O  O55  1  0.00000000  0.00000000  0.87146400  1
  O  O56  1  0.01375267  0.50687633  0.86981633  1
  O  O57  1  0.84020967  0.15979033  0.79685033  1
  O  O58  1  0.98602600  0.49301300  0.71491400  1
  O  O59  1  0.82634633  0.17365367  0.95175267  1
  O  O60  1  0.82634633  0.65269267  0.95175267  1
  O  O61  1  0.84020967  0.68041933  0.79685033  1
  O  O62  1  0.49312367  0.98624733  0.86981633  1
  O  O63  1  0.50698700  0.01397400  0.71491400  1
  O  O64  1  0.50698700  0.49301300  0.71491400  1
  O  O65  1  0.34730733  0.17365367  0.95175267  1
  O  O66  1  0.49312367  0.50687633  0.86981633  1
  O  O67  1  0.31958067  0.15979033  0.79685033  1
  O  O68  1  0.33333333  0.66666667  0.79520267  1
