# generated using pymatgen
data_FeCu5S4
_symmetry_space_group_name_H-M   'P 1'
_cell_length_a   3.84270801
_cell_length_b   3.84270801
_cell_length_c   37.80709697
_cell_angle_alpha   90.00000000
_cell_angle_beta   90.00000000
_cell_angle_gamma   120.00000000
_symmetry_Int_Tables_number   1
_chemical_formula_structural   FeCu5S4
_chemical_formula_sum   'Fe3 Cu15 S12'
_cell_volume   483.48024644
_cell_formula_units_Z   3
loop_
 _symmetry_equiv_pos_site_id
 _symmetry_equiv_pos_as_xyz
  1  'x, y, z'
loop_
 _atom_site_type_symbol
 _atom_site_label
 _atom_site_symmetry_multiplicity
 _atom_site_fract_x
 _atom_site_fract_y
 _atom_site_fract_z
 _atom_site_occupancy
  Fe  Fe0  1  0.66666667  0.33333333  0.02803333  1
  Fe  Fe1  1  0.33333333  0.66666667  0.36136667  1
  Fe  Fe2  1  0.00000000  0.00000000  0.69470000  1
  Cu  Cu3  1  0.33333333  0.66666667  0.22607467  1
  Cu  Cu4  1  0.00000000  0.00000000  0.16874100  1
  Cu  Cu5  1  0.00000000  0.00000000  0.31381100  1
  Cu  Cu6  1  0.33333333  0.66666667  0.10082367  1
  Cu  Cu7  1  0.66666667  0.33333333  0.27323133  1
  Cu  Cu8  1  0.00000000  0.00000000  0.55940800  1
  Cu  Cu9  1  0.66666667  0.33333333  0.50207433  1
  Cu  Cu10  1  0.66666667  0.33333333  0.64714433  1
  Cu  Cu11  1  0.00000000  0.00000000  0.43415700  1
  Cu  Cu12  1  0.33333333  0.66666667  0.60656467  1
  Cu  Cu13  1  0.66666667  0.33333333  0.89274133  1
  Cu  Cu14  1  0.33333333  0.66666667  0.83540767  1
  Cu  Cu15  1  0.33333333  0.66666667  0.98047767  1
  Cu  Cu16  1  0.66666667  0.33333333  0.76749033  1
  Cu  Cu17  1  0.00000000  0.00000000  0.93989800  1
  S  S18  1  0.00000000  0.00000000  0.00671800  1
  S  S19  1  0.00000000  0.00000000  0.25255900  1
  S  S20  1  0.66666667  0.33333333  0.08643733  1
  S  S21  1  0.33333333  0.66666667  0.16592567  1
  S  S22  1  0.66666667  0.33333333  0.34005133  1
  S  S23  1  0.66666667  0.33333333  0.58589233  1
  S  S24  1  0.33333333  0.66666667  0.41977067  1
  S  S25  1  0.00000000  0.00000000  0.49925900  1
  S  S26  1  0.33333333  0.66666667  0.67338467  1
  S  S27  1  0.33333333  0.66666667  0.91922567  1
  S  S28  1  0.00000000  0.00000000  0.75310400  1
  S  S29  1  0.66666667  0.33333333  0.83259233  1
