# generated using pymatgen
data_Ca6Al7O16
_symmetry_space_group_name_H-M   'P 1'
_cell_length_a   12.10001600
_cell_length_b   12.10001600
_cell_length_c   12.10001600
_cell_angle_alpha   90.00000000
_cell_angle_beta   90.00000000
_cell_angle_gamma   90.00000000
_symmetry_Int_Tables_number   1
_chemical_formula_structural   Ca6Al7O16
_chemical_formula_sum   'Ca24 Al28 O64'
_cell_volume   1771.56802769
_cell_formula_units_Z   4
loop_
 _symmetry_equiv_pos_site_id
 _symmetry_equiv_pos_as_xyz
  1  'x, y, z'
loop_
 _atom_site_type_symbol
 _atom_site_label
 _atom_site_symmetry_multiplicity
 _atom_site_fract_x
 _atom_site_fract_y
 _atom_site_fract_z
 _atom_site_occupancy
  Ca  Ca0  1  0.25000000  0.64049300  0.00000000  1
  Ca  Ca1  1  0.25000000  0.35950700  0.50000000  1
  Ca  Ca2  1  0.25000000  0.89049300  0.50000000  1
  Ca  Ca3  1  0.25000000  0.10950700  0.00000000  1
  Ca  Ca4  1  0.00000000  0.25000000  0.64049300  1
  Ca  Ca5  1  0.50000000  0.25000000  0.35950700  1
  Ca  Ca6  1  0.50000000  0.25000000  0.89049300  1
  Ca  Ca7  1  0.00000000  0.25000000  0.10950700  1
  Ca  Ca8  1  0.64049300  0.00000000  0.25000000  1
  Ca  Ca9  1  0.35950700  0.50000000  0.25000000  1
  Ca  Ca10  1  0.89049300  0.50000000  0.25000000  1
  Ca  Ca11  1  0.10950700  0.00000000  0.25000000  1
  Ca  Ca12  1  0.75000000  0.14049300  0.50000000  1
  Ca  Ca13  1  0.75000000  0.85950700  0.00000000  1
  Ca  Ca14  1  0.75000000  0.39049300  0.00000000  1
  Ca  Ca15  1  0.75000000  0.60950700  0.50000000  1
  Ca  Ca16  1  0.50000000  0.75000000  0.14049300  1
  Ca  Ca17  1  0.00000000  0.75000000  0.85950700  1
  Ca  Ca18  1  0.00000000  0.75000000  0.39049300  1
  Ca  Ca19  1  0.50000000  0.75000000  0.60950700  1
  Ca  Ca20  1  0.14049300  0.50000000  0.75000000  1
  Ca  Ca21  1  0.85950700  0.00000000  0.75000000  1
  Ca  Ca22  1  0.39049300  0.00000000  0.75000000  1
  Ca  Ca23  1  0.60950700  0.50000000  0.75000000  1
  Al  Al24  1  0.25000000  0.37500000  0.00000000  1
  Al  Al25  1  0.75000000  0.12500000  0.00000000  1
  Al  Al26  1  0.00000000  0.25000000  0.37500000  1
  Al  Al27  1  0.00000000  0.75000000  0.12500000  1
  Al  Al28  1  0.37500000  0.00000000  0.25000000  1
  Al  Al29  1  0.12500000  0.00000000  0.75000000  1
  Al  Al30  1  0.76824800  0.26824800  0.23175200  1
  Al  Al31  1  0.23175200  0.76824800  0.26824800  1
  Al  Al32  1  0.26824800  0.23175200  0.76824800  1
  Al  Al33  1  0.23175200  0.23175200  0.23175200  1
  Al  Al34  1  0.98175200  0.01824800  0.51824800  1
  Al  Al35  1  0.01824800  0.51824800  0.98175200  1
  Al  Al36  1  0.51824800  0.98175200  0.01824800  1
  Al  Al37  1  0.48175200  0.48175200  0.48175200  1
  Al  Al38  1  0.75000000  0.87500000  0.50000000  1
  Al  Al39  1  0.25000000  0.62500000  0.50000000  1
  Al  Al40  1  0.50000000  0.75000000  0.87500000  1
  Al  Al41  1  0.50000000  0.25000000  0.62500000  1
  Al  Al42  1  0.87500000  0.50000000  0.75000000  1
  Al  Al43  1  0.62500000  0.50000000  0.25000000  1
  Al  Al44  1  0.26824800  0.76824800  0.73175200  1
  Al  Al45  1  0.73175200  0.26824800  0.76824800  1
  Al  Al46  1  0.76824800  0.73175200  0.26824800  1
  Al  Al47  1  0.73175200  0.73175200  0.73175200  1
  Al  Al48  1  0.48175200  0.51824800  0.01824800  1
  Al  Al49  1  0.51824800  0.01824800  0.48175200  1
  Al  Al50  1  0.01824800  0.48175200  0.51824800  1
  Al  Al51  1  0.98175200  0.98175200  0.98175200  1
  O  O52  1  0.18534350  0.68534350  0.81465650  1
  O  O53  1  0.81465650  0.18534350  0.68534350  1
  O  O54  1  0.68534350  0.81465650  0.18534350  1
  O  O55  1  0.31465650  0.31465650  0.31465650  1
  O  O56  1  0.06465650  0.93534350  0.43534350  1
  O  O57  1  0.93534350  0.43534350  0.06465650  1
  O  O58  1  0.43534350  0.06465650  0.93534350  1
  O  O59  1  0.06465650  0.06465650  0.06465650  1
  O  O60  1  0.15131850  0.46557350  0.94247950  1
  O  O61  1  0.34868150  0.46557350  0.05752050  1
  O  O62  1  0.65131850  0.03442650  0.05752050  1
  O  O63  1  0.34868150  0.53442650  0.44247950  1
  O  O64  1  0.69247950  0.21557350  0.90131850  1
  O  O65  1  0.30752050  0.71557350  0.59868150  1
  O  O66  1  0.30752050  0.28442650  0.90131850  1
  O  O67  1  0.19247950  0.28442650  0.09868150  1
  O  O68  1  0.94247950  0.15131850  0.46557350  1
  O  O69  1  0.05752050  0.34868150  0.46557350  1
  O  O70  1  0.05752050  0.65131850  0.03442650  1
  O  O71  1  0.44247950  0.34868150  0.53442650  1
  O  O72  1  0.90131850  0.69247950  0.21557350  1
  O  O73  1  0.59868150  0.30752050  0.71557350  1
  O  O74  1  0.90131850  0.30752050  0.28442650  1
  O  O75  1  0.09868150  0.19247950  0.28442650  1
  O  O76  1  0.46557350  0.94247950  0.15131850  1
  O  O77  1  0.46557350  0.05752050  0.34868150  1
  O  O78  1  0.03442650  0.05752050  0.65131850  1
  O  O79  1  0.53442650  0.44247950  0.34868150  1
  O  O80  1  0.21557350  0.90131850  0.69247950  1
  O  O81  1  0.71557350  0.59868150  0.30752050  1
  O  O82  1  0.28442650  0.90131850  0.30752050  1
  O  O83  1  0.28442650  0.09868150  0.19247950  1
  O  O84  1  0.68534350  0.18534350  0.31465650  1
  O  O85  1  0.31465650  0.68534350  0.18534350  1
  O  O86  1  0.18534350  0.31465650  0.68534350  1
  O  O87  1  0.81465650  0.81465650  0.81465650  1
  O  O88  1  0.56465650  0.43534350  0.93534350  1
  O  O89  1  0.43534350  0.93534350  0.56465650  1
  O  O90  1  0.93534350  0.56465650  0.43534350  1
  O  O91  1  0.56465650  0.56465650  0.56465650  1
  O  O92  1  0.65131850  0.96557350  0.44247950  1
  O  O93  1  0.84868150  0.96557350  0.55752050  1
  O  O94  1  0.15131850  0.53442650  0.55752050  1
  O  O95  1  0.84868150  0.03442650  0.94247950  1
  O  O96  1  0.19247950  0.71557350  0.40131850  1
  O  O97  1  0.80752050  0.21557350  0.09868150  1
  O  O98  1  0.80752050  0.78442650  0.40131850  1
  O  O99  1  0.69247950  0.78442650  0.59868150  1
  O  O100  1  0.44247950  0.65131850  0.96557350  1
  O  O101  1  0.55752050  0.84868150  0.96557350  1
  O  O102  1  0.55752050  0.15131850  0.53442650  1
  O  O103  1  0.94247950  0.84868150  0.03442650  1
  O  O104  1  0.40131850  0.19247950  0.71557350  1
  O  O105  1  0.09868150  0.80752050  0.21557350  1
  O  O106  1  0.40131850  0.80752050  0.78442650  1
  O  O107  1  0.59868150  0.69247950  0.78442650  1
  O  O108  1  0.96557350  0.44247950  0.65131850  1
  O  O109  1  0.96557350  0.55752050  0.84868150  1
  O  O110  1  0.53442650  0.55752050  0.15131850  1
  O  O111  1  0.03442650  0.94247950  0.84868150  1
  O  O112  1  0.71557350  0.40131850  0.19247950  1
  O  O113  1  0.21557350  0.09868150  0.80752050  1
  O  O114  1  0.78442650  0.40131850  0.80752050  1
  O  O115  1  0.78442650  0.59868150  0.69247950  1
