# generated using pymatgen
data_Li3Mn2C3O9F
_symmetry_space_group_name_H-M   'P 1'
_cell_length_a   7.60001400
_cell_length_b   15.42719400
_cell_length_c   6.48029344
_cell_angle_alpha   90.00000000
_cell_angle_beta   100.77749928
_cell_angle_gamma   90.00000000
_symmetry_Int_Tables_number   1
_chemical_formula_structural   Li3Mn2C3O9F
_chemical_formula_sum   'Li12 Mn8 C12 O36 F4'
_cell_volume   746.39206271
_cell_formula_units_Z   4
loop_
 _symmetry_equiv_pos_site_id
 _symmetry_equiv_pos_as_xyz
  1  'x, y, z'
loop_
 _atom_site_type_symbol
 _atom_site_label
 _atom_site_symmetry_multiplicity
 _atom_site_fract_x
 _atom_site_fract_y
 _atom_site_fract_z
 _atom_site_occupancy
  Li  Li0  1  0.40667450  0.83592850  0.52385400  1
  Li  Li1  1  0.56089500  0.61699900  0.67987600  1
  Li  Li2  1  0.55328600  0.61056400  0.17994200  1
  Li  Li3  1  0.90667450  0.66407150  0.02385400  1
  Li  Li4  1  0.05328600  0.88943600  0.67994200  1
  Li  Li5  1  0.06089500  0.88300100  0.17987600  1
  Li  Li6  1  0.90667450  0.33592850  0.52385400  1
  Li  Li7  1  0.06089500  0.11699900  0.67987600  1
  Li  Li8  1  0.05328600  0.11056400  0.17994200  1
  Li  Li9  1  0.40667450  0.16407150  0.02385400  1
  Li  Li10  1  0.55328600  0.38943600  0.67994200  1
  Li  Li11  1  0.56089500  0.38300100  0.17987600  1
  Mn  Mn12  1  0.43526300  0.81334300  0.02944900  1
  Mn  Mn13  1  0.69097750  0.98968350  0.84427400  1
  Mn  Mn14  1  0.19097750  0.51031650  0.34427400  1
  Mn  Mn15  1  0.93526300  0.68665700  0.52944900  1
  Mn  Mn16  1  0.93526300  0.31334300  0.02944900  1
  Mn  Mn17  1  0.19097750  0.48968350  0.84427400  1
  Mn  Mn18  1  0.69097750  0.01031650  0.34427400  1
  Mn  Mn19  1  0.43526300  0.18665700  0.52944900  1
  C  C20  1  0.31833150  0.99819750  0.99388900  1
  C  C21  1  0.75258050  0.80449450  0.80892400  1
  C  C22  1  0.74972550  0.80841350  0.30532800  1
  C  C23  1  0.81833150  0.50180250  0.49388900  1
  C  C24  1  0.24972550  0.69158650  0.80532800  1
  C  C25  1  0.25258050  0.69550550  0.30892400  1
  C  C26  1  0.81833150  0.49819750  0.99388900  1
  C  C27  1  0.25258050  0.30449450  0.80892400  1
  C  C28  1  0.24972550  0.30841350  0.30532800  1
  C  C29  1  0.31833150  0.00180250  0.49388900  1
  C  C30  1  0.74972550  0.19158650  0.80532800  1
  C  C31  1  0.75258050  0.19550550  0.30892400  1
  O  O32  1  0.24504250  0.92200450  0.96897300  1
  O  O33  1  0.22495950  0.93188050  0.47250600  1
  O  O34  1  0.24935200  0.77383100  0.23542200  1
  O  O35  1  0.40834900  0.67685600  0.91120200  1
  O  O36  1  0.39804700  0.65780800  0.39256300  1
  O  O37  1  0.49374750  0.99627150  0.54224500  1
  O  O38  1  0.59958050  0.84766450  0.79483800  1
  O  O39  1  0.72495950  0.56811950  0.97250600  1
  O  O40  1  0.62145950  0.86519550  0.30195400  1
  O  O41  1  0.74935200  0.72616900  0.73542200  1
  O  O42  1  0.71444800  0.73664100  0.20161100  1
  O  O43  1  0.74504250  0.57799550  0.46897300  1
  O  O44  1  0.89804700  0.84219200  0.89256300  1
  O  O45  1  0.90834900  0.82314400  0.41120200  1
  O  O46  1  0.99374750  0.50372850  0.04224500  1
  O  O47  1  0.12145950  0.63480450  0.80195400  1
  O  O48  1  0.09958050  0.65233550  0.29483800  1
  O  O49  1  0.21444800  0.76335900  0.70161100  1
  O  O50  1  0.74504250  0.42200450  0.96897300  1
  O  O51  1  0.72495950  0.43188050  0.47250600  1
  O  O52  1  0.74935200  0.27383100  0.23542200  1
  O  O53  1  0.90834900  0.17685600  0.91120200  1
  O  O54  1  0.89804700  0.15780800  0.39256300  1
  O  O55  1  0.99374750  0.49627150  0.54224500  1
  O  O56  1  0.09958050  0.34766450  0.79483800  1
  O  O57  1  0.22495950  0.06811950  0.97250600  1
  O  O58  1  0.12145950  0.36519550  0.30195400  1
  O  O59  1  0.24935200  0.22616900  0.73542200  1
  O  O60  1  0.21444800  0.23664100  0.20161100  1
  O  O61  1  0.24504250  0.07799550  0.46897300  1
  O  O62  1  0.39804700  0.34219200  0.89256300  1
  O  O63  1  0.40834900  0.32314400  0.41120200  1
  O  O64  1  0.49374750  0.00372850  0.04224500  1
  O  O65  1  0.62145950  0.13480450  0.80195400  1
  O  O66  1  0.59958050  0.15233550  0.29483800  1
  O  O67  1  0.71444800  0.26335900  0.70161100  1
  F  F68  1  0.87750000  0.99942400  0.13876200  1
  F  F69  1  0.37750000  0.50057600  0.63876200  1
  F  F70  1  0.37750000  0.49942400  0.13876200  1
  F  F71  1  0.87750000  0.00057600  0.63876200  1
