# generated using pymatgen
data_SrLiLa3MnO8
_symmetry_space_group_name_H-M   'P 1'
_cell_length_a   5.42754600
_cell_length_b   12.65137000
_cell_length_c   5.44325600
_cell_angle_alpha   90.00000000
_cell_angle_beta   90.00000000
_cell_angle_gamma   90.00000000
_symmetry_Int_Tables_number   1
_chemical_formula_structural   SrLiLa3MnO8
_chemical_formula_sum   'Sr2 Li2 La6 Mn2 O16'
_cell_volume   373.76603210
_cell_formula_units_Z   2
loop_
 _symmetry_equiv_pos_site_id
 _symmetry_equiv_pos_as_xyz
  1  'x, y, z'
loop_
 _atom_site_type_symbol
 _atom_site_label
 _atom_site_symmetry_multiplicity
 _atom_site_fract_x
 _atom_site_fract_y
 _atom_site_fract_z
 _atom_site_occupancy
  Sr  Sr0  1  0.50000000  0.85886100  0.00000000  1
  Sr  Sr1  1  0.00000000  0.35886100  0.00000000  1
  Li  Li2  1  0.50000000  0.99504900  0.50000000  1
  Li  Li3  1  0.00000000  0.49504900  0.50000000  1
  La  La4  1  0.50000000  0.63991300  0.50000000  1
  La  La5  1  0.00000000  0.63338100  0.00000000  1
  La  La6  1  0.00000000  0.86303000  0.50000000  1
  La  La7  1  0.00000000  0.13991300  0.50000000  1
  La  La8  1  0.50000000  0.13338100  0.00000000  1
  La  La9  1  0.50000000  0.36303000  0.50000000  1
  Mn  Mn10  1  0.00000000  0.99990900  0.00000000  1
  Mn  Mn11  1  0.50000000  0.49990900  0.00000000  1
  O  O12  1  0.25516550  0.50334750  0.75593700  1
  O  O13  1  0.25516550  0.50334750  0.24406300  1
  O  O14  1  0.74483450  0.50334750  0.75593700  1
  O  O15  1  0.74483450  0.50334750  0.24406300  1
  O  O16  1  0.50000000  0.65835500  0.00000000  1
  O  O17  1  0.00000000  0.68303700  0.50000000  1
  O  O18  1  0.50000000  0.81855200  0.50000000  1
  O  O19  1  0.00000000  0.83640200  0.00000000  1
  O  O20  1  0.75516550  0.00334750  0.75593700  1
  O  O21  1  0.75516550  0.00334750  0.24406300  1
  O  O22  1  0.24483450  0.00334750  0.75593700  1
  O  O23  1  0.24483450  0.00334750  0.24406300  1
  O  O24  1  0.00000000  0.15835500  0.00000000  1
  O  O25  1  0.50000000  0.18303700  0.50000000  1
  O  O26  1  0.00000000  0.31855200  0.50000000  1
  O  O27  1  0.50000000  0.33640200  0.00000000  1
