# generated using pymatgen
data_Li3V(FeO3)2
_symmetry_space_group_name_H-M   'P 1'
_cell_length_a   5.15880674
_cell_length_b   9.05943444
_cell_length_c   10.24149500
_cell_angle_alpha   90.00000000
_cell_angle_beta   90.00000000
_cell_angle_gamma   90.00000000
_symmetry_Int_Tables_number   1
_chemical_formula_structural   Li3V(FeO3)2
_chemical_formula_sum   'Li12 V4 Fe8 O24'
_cell_volume   478.64519422
_cell_formula_units_Z   4
loop_
 _symmetry_equiv_pos_site_id
 _symmetry_equiv_pos_as_xyz
  1  'x, y, z'
loop_
 _atom_site_type_symbol
 _atom_site_label
 _atom_site_symmetry_multiplicity
 _atom_site_fract_x
 _atom_site_fract_y
 _atom_site_fract_z
 _atom_site_occupancy
  Li  Li0  1  0.91260300  0.00000000  0.22314900  1
  Li  Li1  1  0.08739700  0.00000000  0.72314900  1
  Li  Li2  1  0.58004000  0.16911100  0.72214300  1
  Li  Li3  1  0.91996000  0.33088900  0.22214300  1
  Li  Li4  1  0.41996000  0.16911100  0.22214300  1
  Li  Li5  1  0.08004000  0.33088900  0.72214300  1
  Li  Li6  1  0.41260300  0.50000000  0.22314900  1
  Li  Li7  1  0.58739700  0.50000000  0.72314900  1
  Li  Li8  1  0.08004000  0.66911100  0.72214300  1
  Li  Li9  1  0.41996000  0.83088900  0.22214300  1
  Li  Li10  1  0.91996000  0.66911100  0.22214300  1
  Li  Li11  1  0.58004000  0.83088900  0.72214300  1
  V  V12  1  0.25085400  0.00000000  0.99695900  1
  V  V13  1  0.74914600  0.00000000  0.49695900  1
  V  V14  1  0.75085400  0.50000000  0.99695900  1
  V  V15  1  0.24914600  0.50000000  0.49695900  1
  Fe  Fe16  1  0.75153150  0.16705450  0.99341500  1
  Fe  Fe17  1  0.24846850  0.16705450  0.49341500  1
  Fe  Fe18  1  0.74846850  0.33294550  0.49341500  1
  Fe  Fe19  1  0.25153150  0.33294550  0.99341500  1
  Fe  Fe20  1  0.25153150  0.66705450  0.99341500  1
  Fe  Fe21  1  0.74846850  0.66705450  0.49341500  1
  Fe  Fe22  1  0.24846850  0.83294550  0.49341500  1
  Fe  Fe23  1  0.75153150  0.83294550  0.99341500  1
  O  O24  1  0.41994700  0.00000000  0.60971700  1
  O  O25  1  0.58005300  0.00000000  0.10971700  1
  O  O26  1  0.41527150  0.16665550  0.89284400  1
  O  O27  1  0.92096000  0.00000000  0.89364500  1
  O  O28  1  0.07904000  0.00000000  0.39364500  1
  O  O29  1  0.58472850  0.16665550  0.39284400  1
  O  O30  1  0.91731050  0.16766550  0.61035400  1
  O  O31  1  0.08268950  0.16766550  0.11035400  1
  O  O32  1  0.91527150  0.33334450  0.89284400  1
  O  O33  1  0.08472850  0.33334450  0.39284400  1
  O  O34  1  0.41731050  0.33233450  0.61035400  1
  O  O35  1  0.58268950  0.33233450  0.11035400  1
  O  O36  1  0.91994700  0.50000000  0.60971700  1
  O  O37  1  0.08005300  0.50000000  0.10971700  1
  O  O38  1  0.91527150  0.66665550  0.89284400  1
  O  O39  1  0.42096000  0.50000000  0.89364500  1
  O  O40  1  0.57904000  0.50000000  0.39364500  1
  O  O41  1  0.08472850  0.66665550  0.39284400  1
  O  O42  1  0.41731050  0.66766550  0.61035400  1
  O  O43  1  0.58268950  0.66766550  0.11035400  1
  O  O44  1  0.41527150  0.83334450  0.89284400  1
  O  O45  1  0.58472850  0.83334450  0.39284400  1
  O  O46  1  0.91731050  0.83233450  0.61035400  1
  O  O47  1  0.08268950  0.83233450  0.11035400  1
