# generated using pymatgen
data_Li12V3CoP4(CO7)4
_symmetry_space_group_name_H-M   'P 1'
_cell_length_a   8.48174000
_cell_length_b   6.59471600
_cell_length_c   10.00792810
_cell_angle_alpha   90.00000000
_cell_angle_beta   95.36622656
_cell_angle_gamma   90.00000000
_symmetry_Int_Tables_number   1
_chemical_formula_structural   Li12V3CoP4(CO7)4
_chemical_formula_sum   'Li12 V3 Co1 P4 C4 O28'
_cell_volume   557.33670855
_cell_formula_units_Z   1
loop_
 _symmetry_equiv_pos_site_id
 _symmetry_equiv_pos_as_xyz
  1  'x, y, z'
loop_
 _atom_site_type_symbol
 _atom_site_label
 _atom_site_symmetry_multiplicity
 _atom_site_fract_x
 _atom_site_fract_y
 _atom_site_fract_z
 _atom_site_occupancy
  Li  Li0  1  0.09929400  0.00000000  0.61585400  1
  Li  Li1  1  0.09697400  0.00000000  0.11558400  1
  Li  Li2  1  0.27975900  0.77611700  0.87476600  1
  Li  Li3  1  0.27975900  0.22388300  0.87476600  1
  Li  Li4  1  0.27941500  0.77786700  0.37442300  1
  Li  Li5  1  0.27941500  0.22213300  0.37442300  1
  Li  Li6  1  0.72178500  0.27203900  0.62283700  1
  Li  Li7  1  0.72178500  0.72796100  0.62283700  1
  Li  Li8  1  0.72098000  0.27330400  0.12754600  1
  Li  Li9  1  0.72098000  0.72669600  0.12754600  1
  Li  Li10  1  0.90169000  0.50000000  0.88485000  1
  Li  Li11  1  0.90258300  0.50000000  0.38496900  1
  V  V12  1  0.32881600  0.50000000  0.60448100  1
  V  V13  1  0.32901800  0.50000000  0.10344300  1
  V  V14  1  0.67124300  0.00000000  0.89603000  1
  Co  Co15  1  0.66887800  0.00000000  0.39471300  1
  P  P16  1  0.41195300  0.00000000  0.63879300  1
  P  P17  1  0.41076900  0.00000000  0.13911200  1
  P  P18  1  0.58967900  0.50000000  0.86055400  1
  P  P19  1  0.58879500  0.50000000  0.36080200  1
  C  C20  1  0.03485300  0.50000000  0.65240300  1
  C  C21  1  0.03483500  0.50000000  0.15247800  1
  C  C22  1  0.96571400  0.00000000  0.84773100  1
  C  C23  1  0.96296000  0.00000000  0.34935800  1
  O  O24  1  0.07303600  0.50000000  0.52975100  1
  O  O25  1  0.11158500  0.00000000  0.81979300  1
  O  O26  1  0.07293700  0.50000000  0.02960900  1
  O  O27  1  0.14998400  0.50000000  0.74842300  1
  O  O28  1  0.10851000  0.00000000  0.31862900  1
  O  O29  1  0.14991300  0.50000000  0.24833700  1
  O  O30  1  0.30820500  0.81704500  0.58657500  1
  O  O31  1  0.30820500  0.18295500  0.58657500  1
  O  O32  1  0.30672200  0.81748400  0.08609600  1
  O  O33  1  0.30672200  0.18251600  0.08609600  1
  O  O34  1  0.42308600  0.50000000  0.91138100  1
  O  O35  1  0.43180100  0.00000000  0.79574600  1
  O  O36  1  0.42262300  0.50000000  0.41197400  1
  O  O37  1  0.43330600  0.00000000  0.29607000  1
  O  O38  1  0.56847900  0.50000000  0.70377200  1
  O  O39  1  0.57808400  0.00000000  0.58689000  1
  O  O40  1  0.56913600  0.50000000  0.20414000  1
  O  O41  1  0.57737300  0.00000000  0.08859100  1
  O  O42  1  0.69294900  0.68310400  0.91343800  1
  O  O43  1  0.69294900  0.31689600  0.91343800  1
  O  O44  1  0.69125400  0.31420500  0.41205800  1
  O  O45  1  0.69125400  0.68579500  0.41205800  1
  O  O46  1  0.85069100  0.00000000  0.75192000  1
  O  O47  1  0.88889700  0.50000000  0.68018900  1
  O  O48  1  0.84596800  0.00000000  0.25479100  1
  O  O49  1  0.92752300  0.00000000  0.97062900  1
  O  O50  1  0.88896500  0.50000000  0.18042700  1
  O  O51  1  0.92791400  0.00000000  0.47230400  1
