# generated using pymatgen
data_Li3Mn5Cr3O16
_symmetry_space_group_name_H-M   'P 1'
_cell_length_a   10.27903600
_cell_length_b   5.84065200
_cell_length_c   10.19571751
_cell_angle_alpha   90.00000000
_cell_angle_beta   109.10681977
_cell_angle_gamma   90.00000000
_symmetry_Int_Tables_number   1
_chemical_formula_structural   Li3Mn5Cr3O16
_chemical_formula_sum   'Li6 Mn10 Cr6 O32'
_cell_volume   578.39154737
_cell_formula_units_Z   2
loop_
 _symmetry_equiv_pos_site_id
 _symmetry_equiv_pos_as_xyz
  1  'x, y, z'
loop_
 _atom_site_type_symbol
 _atom_site_label
 _atom_site_symmetry_multiplicity
 _atom_site_fract_x
 _atom_site_fract_y
 _atom_site_fract_z
 _atom_site_occupancy
  Li  Li0  1  0.68674200  0.00000000  0.56796800  1
  Li  Li1  1  0.68469700  0.50000000  0.06094700  1
  Li  Li2  1  0.81769500  0.50000000  0.43702300  1
  Li  Li3  1  0.18674200  0.50000000  0.56796800  1
  Li  Li4  1  0.18469700  0.00000000  0.06094700  1
  Li  Li5  1  0.31769500  0.00000000  0.43702300  1
  Mn  Mn6  1  0.99988300  0.50000000  0.99838600  1
  Mn  Mn7  1  0.50071350  0.74979250  0.75282100  1
  Mn  Mn8  1  0.50006000  0.25020800  0.24970800  1
  Mn  Mn9  1  0.50071350  0.25020750  0.75282100  1
  Mn  Mn10  1  0.50006000  0.74979200  0.24970800  1
  Mn  Mn11  1  0.49988300  0.00000000  0.99838600  1
  Mn  Mn12  1  0.00071350  0.24979250  0.75282100  1
  Mn  Mn13  1  0.00006000  0.75020800  0.24970800  1
  Mn  Mn14  1  0.00071350  0.75020750  0.75282100  1
  Mn  Mn15  1  0.00006000  0.24979200  0.24970800  1
  Cr  Cr16  1  0.75158100  0.50000000  0.75314100  1
  Cr  Cr17  1  0.50054200  0.50000000  0.50129300  1
  Cr  Cr18  1  0.75043100  0.00000000  0.24843200  1
  Cr  Cr19  1  0.25158100  0.00000000  0.75314100  1
  Cr  Cr20  1  0.00054200  0.00000000  0.50129300  1
  Cr  Cr21  1  0.25043100  0.50000000  0.24843200  1
  O  O22  1  0.88896000  0.27918400  0.87149700  1
  O  O23  1  0.88896000  0.72081600  0.87149700  1
  O  O24  1  0.61417700  0.00000000  0.35436000  1
  O  O25  1  0.61419000  0.50000000  0.85624600  1
  O  O26  1  0.61682950  0.27200550  0.63584500  1
  O  O27  1  0.89596700  0.50000000  0.13178800  1
  O  O28  1  0.61682950  0.72799450  0.63584500  1
  O  O29  1  0.89572700  0.00000000  0.63826800  1
  O  O30  1  0.60579600  0.50000000  0.36327700  1
  O  O31  1  0.60212800  0.00000000  0.86896000  1
  O  O32  1  0.88518250  0.76841850  0.36550300  1
  O  O33  1  0.88887200  0.00000000  0.14830200  1
  O  O34  1  0.88518250  0.23158150  0.36550300  1
  O  O35  1  0.88726600  0.50000000  0.64649600  1
  O  O36  1  0.61273550  0.77255050  0.12918500  1
  O  O37  1  0.61273550  0.22744950  0.12918500  1
  O  O38  1  0.38896000  0.77918400  0.87149700  1
  O  O39  1  0.38896000  0.22081600  0.87149700  1
  O  O40  1  0.11417700  0.50000000  0.35436000  1
  O  O41  1  0.11419000  0.00000000  0.85624600  1
  O  O42  1  0.11682950  0.77200550  0.63584500  1
  O  O43  1  0.39596700  0.00000000  0.13178800  1
  O  O44  1  0.11682950  0.22799450  0.63584500  1
  O  O45  1  0.39572700  0.50000000  0.63826800  1
  O  O46  1  0.10579600  0.00000000  0.36327700  1
  O  O47  1  0.10212800  0.50000000  0.86896000  1
  O  O48  1  0.38518250  0.26841850  0.36550300  1
  O  O49  1  0.38887200  0.50000000  0.14830200  1
  O  O50  1  0.38518250  0.73158150  0.36550300  1
  O  O51  1  0.38726600  0.00000000  0.64649600  1
  O  O52  1  0.11273550  0.27255050  0.12918500  1
  O  O53  1  0.11273550  0.72744950  0.12918500  1
