# generated using pymatgen
data_Li3Mn4O8
_symmetry_space_group_name_H-M   'P 1'
_cell_length_a   10.64527906
_cell_length_b   5.81210056
_cell_length_c   5.77976950
_cell_angle_alpha   90.00000000
_cell_angle_beta   122.58454007
_cell_angle_gamma   90.00000000
_symmetry_Int_Tables_number   1
_chemical_formula_structural   Li3Mn4O8
_chemical_formula_sum   'Li6 Mn8 O16'
_cell_volume   301.31515736
_cell_formula_units_Z   2
loop_
 _symmetry_equiv_pos_site_id
 _symmetry_equiv_pos_as_xyz
  1  'x, y, z'
loop_
 _atom_site_type_symbol
 _atom_site_label
 _atom_site_symmetry_multiplicity
 _atom_site_fract_x
 _atom_site_fract_y
 _atom_site_fract_z
 _atom_site_occupancy
  Li  Li0  1  0.00000000  0.50000000  0.50000000  1
  Li  Li1  1  0.25000000  0.75000000  0.00000000  1
  Li  Li2  1  0.25000000  0.25000000  0.00000000  1
  Li  Li3  1  0.50000000  0.00000000  0.50000000  1
  Li  Li4  1  0.75000000  0.25000000  0.00000000  1
  Li  Li5  1  0.75000000  0.75000000  0.00000000  1
  Mn  Mn6  1  0.50000000  0.50000000  0.50000000  1
  Mn  Mn7  1  0.25000000  0.25000000  0.50000000  1
  Mn  Mn8  1  0.00000000  0.00000000  0.00000000  1
  Mn  Mn9  1  0.25000000  0.75000000  0.50000000  1
  Mn  Mn10  1  0.00000000  0.00000000  0.50000000  1
  Mn  Mn11  1  0.75000000  0.75000000  0.50000000  1
  Mn  Mn12  1  0.50000000  0.50000000  0.00000000  1
  Mn  Mn13  1  0.75000000  0.25000000  0.50000000  1
  O  O14  1  0.21906800  0.00000000  0.70303900  1
  O  O15  1  0.28093200  0.50000000  0.29696100  1
  O  O16  1  0.24418900  0.50000000  0.71861500  1
  O  O17  1  0.25581100  0.00000000  0.28138500  1
  O  O18  1  0.49724550  0.27693250  0.25270500  1
  O  O19  1  0.49724550  0.72306750  0.25270500  1
  O  O20  1  0.00275450  0.77693250  0.74729500  1
  O  O21  1  0.00275450  0.22306750  0.74729500  1
  O  O22  1  0.71906800  0.50000000  0.70303900  1
  O  O23  1  0.78093200  0.00000000  0.29696100  1
  O  O24  1  0.74418900  0.00000000  0.71861500  1
  O  O25  1  0.75581100  0.50000000  0.28138500  1
  O  O26  1  0.99724550  0.77693250  0.25270500  1
  O  O27  1  0.99724550  0.22306750  0.25270500  1
  O  O28  1  0.50275450  0.27693250  0.74729500  1
  O  O29  1  0.50275450  0.72306750  0.74729500  1
