# generated using pymatgen
data_Li5Cr3FeO8
_symmetry_space_group_name_H-M   'P 1'
_cell_length_a   5.99575390
_cell_length_b   5.99575390
_cell_length_c   14.90551337
_cell_angle_alpha   90.00000000
_cell_angle_beta   90.00000000
_cell_angle_gamma   120.00000000
_symmetry_Int_Tables_number   1
_chemical_formula_structural   Li5Cr3FeO8
_chemical_formula_sum   'Li15 Cr9 Fe3 O24'
_cell_volume   464.05041704
_cell_formula_units_Z   3
loop_
 _symmetry_equiv_pos_site_id
 _symmetry_equiv_pos_as_xyz
  1  'x, y, z'
loop_
 _atom_site_type_symbol
 _atom_site_label
 _atom_site_symmetry_multiplicity
 _atom_site_fract_x
 _atom_site_fract_y
 _atom_site_fract_z
 _atom_site_occupancy
  Li  Li0  1  0.00000000  0.00000000  0.06693400  1
  Li  Li1  1  0.83333333  0.66666667  0.16666667  1
  Li  Li2  1  0.66666667  0.33333333  0.26639933  1
  Li  Li3  1  0.83333333  0.16666667  0.16666667  1
  Li  Li4  1  0.33333333  0.16666667  0.16666667  1
  Li  Li5  1  0.66666667  0.33333333  0.40026733  1
  Li  Li6  1  0.50000000  0.00000000  0.50000000  1
  Li  Li7  1  0.33333333  0.66666667  0.59973267  1
  Li  Li8  1  0.50000000  0.50000000  0.50000000  1
  Li  Li9  1  0.00000000  0.50000000  0.50000000  1
  Li  Li10  1  0.33333333  0.66666667  0.73360067  1
  Li  Li11  1  0.16666667  0.33333333  0.83333333  1
  Li  Li12  1  0.00000000  0.00000000  0.93306600  1
  Li  Li13  1  0.16666667  0.83333333  0.83333333  1
  Li  Li14  1  0.66666667  0.83333333  0.83333333  1
  Cr  Cr15  1  0.00000000  0.50000000  0.00000000  1
  Cr  Cr16  1  0.50000000  0.50000000  0.00000000  1
  Cr  Cr17  1  0.50000000  0.00000000  0.00000000  1
  Cr  Cr18  1  0.66666667  0.83333333  0.33333333  1
  Cr  Cr19  1  0.16666667  0.83333333  0.33333333  1
  Cr  Cr20  1  0.16666667  0.33333333  0.33333333  1
  Cr  Cr21  1  0.33333333  0.16666667  0.66666667  1
  Cr  Cr22  1  0.83333333  0.16666667  0.66666667  1
  Cr  Cr23  1  0.83333333  0.66666667  0.66666667  1
  Fe  Fe24  1  0.33333333  0.66666667  0.16666667  1
  Fe  Fe25  1  1.00000000  1.00000000  0.50000000  1
  Fe  Fe26  1  0.66666667  0.33333333  0.83333333  1
  O  O27  1  0.00000000  0.00000000  0.25784400  1
  O  O28  1  0.64553600  0.82276800  0.07872700  1
  O  O29  1  0.17723200  0.82276800  0.07872700  1
  O  O30  1  0.17723200  0.35446400  0.07872700  1
  O  O31  1  0.48943467  0.97886933  0.25460633  1
  O  O32  1  0.48943467  0.51056533  0.25460633  1
  O  O33  1  0.02113067  0.51056533  0.25460633  1
  O  O34  1  0.66666667  0.33333333  0.07548933  1
  O  O35  1  0.66666667  0.33333333  0.59117733  1
  O  O36  1  0.31220267  0.15610133  0.41206033  1
  O  O37  1  0.84389867  0.15610133  0.41206033  1
  O  O38  1  0.84389867  0.68779733  0.41206033  1
  O  O39  1  0.15610133  0.31220267  0.58793967  1
  O  O40  1  0.15610133  0.84389867  0.58793967  1
  O  O41  1  0.68779733  0.84389867  0.58793967  1
  O  O42  1  0.33333333  0.66666667  0.40882267  1
  O  O43  1  0.33333333  0.66666667  0.92451067  1
  O  O44  1  0.97886933  0.48943467  0.74539367  1
  O  O45  1  0.51056533  0.48943467  0.74539367  1
  O  O46  1  0.51056533  0.02113067  0.74539367  1
  O  O47  1  0.82276800  0.64553600  0.92127300  1
  O  O48  1  0.82276800  0.17723200  0.92127300  1
  O  O49  1  0.35446400  0.17723200  0.92127300  1
  O  O50  1  0.00000000  0.00000000  0.74215600  1
