# generated using pymatgen
data_KLiNiO2
_symmetry_space_group_name_H-M   'P 1'
_cell_length_a   11.14334683
_cell_length_b   3.31570169
_cell_length_c   8.23589734
_cell_angle_alpha   90.00000000
_cell_angle_beta   118.82296428
_cell_angle_gamma   90.00000000
_symmetry_Int_Tables_number   1
_chemical_formula_structural   KLiNiO2
_chemical_formula_sum   'K4 Li4 Ni4 O8'
_cell_volume   266.60138834
_cell_formula_units_Z   4
loop_
 _symmetry_equiv_pos_site_id
 _symmetry_equiv_pos_as_xyz
  1  'x, y, z'
loop_
 _atom_site_type_symbol
 _atom_site_label
 _atom_site_symmetry_multiplicity
 _atom_site_fract_x
 _atom_site_fract_y
 _atom_site_fract_z
 _atom_site_occupancy
  K  K0  1  0.83877200  0.00000000  0.37389500  1
  K  K1  1  0.16122800  0.00000000  0.62610500  1
  K  K2  1  0.33877200  0.50000000  0.37389500  1
  K  K3  1  0.66122800  0.50000000  0.62610500  1
  Li  Li4  1  0.84143250  0.50000000  0.05145000  1
  Li  Li5  1  0.15856750  0.50000000  0.94855000  1
  Li  Li6  1  0.34143250  0.00000000  0.05145000  1
  Li  Li7  1  0.65856750  0.00000000  0.94855000  1
  Ni  Ni8  1  0.94676350  0.00000000  0.81587100  1
  Ni  Ni9  1  0.05323650  0.00000000  0.18412900  1
  Ni  Ni10  1  0.44676350  0.50000000  0.81587100  1
  Ni  Ni11  1  0.55323650  0.50000000  0.18412900  1
  O  O12  1  0.32461375  0.50000000  0.91797200  1
  O  O13  1  0.67538625  0.50000000  0.08202800  1
  O  O14  1  0.03766025  0.50000000  0.29930100  1
  O  O15  1  0.96233975  0.50000000  0.70069900  1
  O  O16  1  0.82461375  0.00000000  0.91797200  1
  O  O17  1  0.17538625  0.00000000  0.08202800  1
  O  O18  1  0.53766025  0.00000000  0.29930100  1
  O  O19  1  0.46233975  0.00000000  0.70069900  1
