# generated using pymatgen
data_In2Ag
_symmetry_space_group_name_H-M   'P 1'
_cell_length_a   7.49921400
_cell_length_b   7.49921400
_cell_length_c   5.49124600
_cell_angle_alpha   90.00000000
_cell_angle_beta   90.00000000
_cell_angle_gamma   90.00000000
_symmetry_Int_Tables_number   1
_chemical_formula_structural   In2Ag
_chemical_formula_sum   'In8 Ag4'
_cell_volume   308.81784910
_cell_formula_units_Z   4
loop_
 _symmetry_equiv_pos_site_id
 _symmetry_equiv_pos_as_xyz
  1  'x, y, z'
loop_
 _atom_site_type_symbol
 _atom_site_label
 _atom_site_symmetry_multiplicity
 _atom_site_fract_x
 _atom_site_fract_y
 _atom_site_fract_z
 _atom_site_occupancy
  In  In0  1  0.64904500  0.14904500  0.00000000  1
  In  In1  1  0.64904500  0.85095500  0.50000000  1
  In  In2  1  0.35095500  0.14904500  0.50000000  1
  In  In3  1  0.35095500  0.85095500  0.00000000  1
  In  In4  1  0.14904500  0.64904500  0.50000000  1
  In  In5  1  0.14904500  0.35095500  0.00000000  1
  In  In6  1  0.85095500  0.64904500  0.00000000  1
  In  In7  1  0.85095500  0.35095500  0.50000000  1
  Ag  Ag8  1  0.00000000  0.00000000  0.50000000  1
  Ag  Ag9  1  0.00000000  0.00000000  0.00000000  1
  Ag  Ag10  1  0.50000000  0.50000000  0.00000000  1
  Ag  Ag11  1  0.50000000  0.50000000  0.50000000  1
