# generated using pymatgen
data_LiFe4(PO4)3
_symmetry_space_group_name_H-M   'P 1'
_cell_length_a   6.83342200
_cell_length_b   6.83342200
_cell_length_c   18.66666800
_cell_angle_alpha   90.00000000
_cell_angle_beta   90.00000000
_cell_angle_gamma   90.00000000
_symmetry_Int_Tables_number   1
_chemical_formula_structural   LiFe4(PO4)3
_chemical_formula_sum   'Li4 Fe16 P12 O48'
_cell_volume   871.65231189
_cell_formula_units_Z   4
loop_
 _symmetry_equiv_pos_site_id
 _symmetry_equiv_pos_as_xyz
  1  'x, y, z'
loop_
 _atom_site_type_symbol
 _atom_site_label
 _atom_site_symmetry_multiplicity
 _atom_site_fract_x
 _atom_site_fract_y
 _atom_site_fract_z
 _atom_site_occupancy
  Li  Li0  1  0.50000000  0.00000000  0.25000000  1
  Li  Li1  1  0.50000000  0.50000000  0.00000000  1
  Li  Li2  1  0.00000000  0.50000000  0.75000000  1
  Li  Li3  1  0.00000000  0.00000000  0.50000000  1
  Fe  Fe4  1  0.23993900  0.25000000  0.12500000  1
  Fe  Fe5  1  0.50000000  0.50000000  0.27504800  1
  Fe  Fe6  1  0.75000000  0.26006100  0.37500000  1
  Fe  Fe7  1  0.76006100  0.75000000  0.12500000  1
  Fe  Fe8  1  0.00000000  0.00000000  0.22495200  1
  Fe  Fe9  1  0.00000000  0.50000000  0.02504800  1
  Fe  Fe10  1  0.00000000  0.50000000  0.47495200  1
  Fe  Fe11  1  0.25000000  0.73993900  0.37500000  1
  Fe  Fe12  1  0.73993900  0.75000000  0.62500000  1
  Fe  Fe13  1  0.00000000  0.00000000  0.77504800  1
  Fe  Fe14  1  0.25000000  0.76006100  0.87500000  1
  Fe  Fe15  1  0.26006100  0.25000000  0.62500000  1
  Fe  Fe16  1  0.50000000  0.50000000  0.72495200  1
  Fe  Fe17  1  0.50000000  0.00000000  0.52504800  1
  Fe  Fe18  1  0.50000000  0.00000000  0.97495200  1
  Fe  Fe19  1  0.75000000  0.23993900  0.87500000  1
  P  P20  1  0.00000000  0.00000000  0.00000000  1
  P  P21  1  0.35414900  0.75000000  0.12500000  1
  P  P22  1  0.64585100  0.25000000  0.12500000  1
  P  P23  1  0.75000000  0.85414900  0.37500000  1
  P  P24  1  0.00000000  0.50000000  0.25000000  1
  P  P25  1  0.25000000  0.14585100  0.37500000  1
  P  P26  1  0.50000000  0.50000000  0.50000000  1
  P  P27  1  0.85414900  0.25000000  0.62500000  1
  P  P28  1  0.14585100  0.75000000  0.62500000  1
  P  P29  1  0.25000000  0.35414900  0.87500000  1
  P  P30  1  0.50000000  0.00000000  0.75000000  1
  P  P31  1  0.75000000  0.64585100  0.87500000  1
  O  O32  1  0.05260750  0.18872350  0.04291150  1
  O  O33  1  0.23629500  0.56528500  0.10390800  1
  O  O34  1  0.23629500  0.93471500  0.14609200  1
  O  O35  1  0.43471500  0.26370500  0.35390800  1
  O  O36  1  0.50204500  0.21558800  0.05962300  1
  O  O37  1  0.50204500  0.28441200  0.19037700  1
  O  O38  1  0.49795500  0.71558800  0.19037700  1
  O  O39  1  0.49795500  0.78441200  0.05962300  1
  O  O40  1  0.56528500  0.73629500  0.35390800  1
  O  O41  1  0.68872350  0.44739250  0.45708850  1
  O  O42  1  0.71558800  0.99795500  0.44037700  1
  O  O43  1  0.76370500  0.06528500  0.14609200  1
  O  O44  1  0.76370500  0.43471500  0.10390800  1
  O  O45  1  0.78441200  0.99795500  0.30962300  1
  O  O46  1  0.81127650  0.44739250  0.29291150  1
  O  O47  1  0.94739250  0.68872350  0.20708850  1
  O  O48  1  0.94739250  0.81127650  0.04291150  1
  O  O49  1  0.93471500  0.73629500  0.39609200  1
  O  O50  1  0.06528500  0.26370500  0.39609200  1
  O  O51  1  0.05260750  0.31127650  0.20708850  1
  O  O52  1  0.18872350  0.55260750  0.29291150  1
  O  O53  1  0.21558800  0.00204500  0.30962300  1
  O  O54  1  0.28441200  0.00204500  0.44037700  1
  O  O55  1  0.31127650  0.55260750  0.45708850  1
  O  O56  1  0.55260750  0.68872350  0.54291150  1
  O  O57  1  0.73629500  0.06528500  0.60390800  1
  O  O58  1  0.73629500  0.43471500  0.64609200  1
  O  O59  1  0.93471500  0.76370500  0.85390800  1
  O  O60  1  0.00204500  0.71558800  0.55962300  1
  O  O61  1  0.00204500  0.78441200  0.69037700  1
  O  O62  1  0.99795500  0.21558800  0.69037700  1
  O  O63  1  0.99795500  0.28441200  0.55962300  1
  O  O64  1  0.06528500  0.23629500  0.85390800  1
  O  O65  1  0.18872350  0.94739250  0.95708850  1
  O  O66  1  0.21558800  0.49795500  0.94037700  1
  O  O67  1  0.26370500  0.56528500  0.64609200  1
  O  O68  1  0.26370500  0.93471500  0.60390800  1
  O  O69  1  0.28441200  0.49795500  0.80962300  1
  O  O70  1  0.31127650  0.94739250  0.79291150  1
  O  O71  1  0.44739250  0.18872350  0.70708850  1
  O  O72  1  0.44739250  0.31127650  0.54291150  1
  O  O73  1  0.43471500  0.23629500  0.89609200  1
  O  O74  1  0.56528500  0.76370500  0.89609200  1
  O  O75  1  0.55260750  0.81127650  0.70708850  1
  O  O76  1  0.68872350  0.05260750  0.79291150  1
  O  O77  1  0.71558800  0.50204500  0.80962300  1
  O  O78  1  0.78441200  0.50204500  0.94037700  1
  O  O79  1  0.81127650  0.05260750  0.95708850  1
