# generated using pymatgen
data_Li2MnF5
_symmetry_space_group_name_H-M   'P 1'
_cell_length_a   4.10094600
_cell_length_b   9.87936400
_cell_length_c   9.72933300
_cell_angle_alpha   90.00000000
_cell_angle_beta   90.00000000
_cell_angle_gamma   90.00000000
_symmetry_Int_Tables_number   1
_chemical_formula_structural   Li2MnF5
_chemical_formula_sum   'Li8 Mn4 F20'
_cell_volume   394.18138012
_cell_formula_units_Z   4
loop_
 _symmetry_equiv_pos_site_id
 _symmetry_equiv_pos_as_xyz
  1  'x, y, z'
loop_
 _atom_site_type_symbol
 _atom_site_label
 _atom_site_symmetry_multiplicity
 _atom_site_fract_x
 _atom_site_fract_y
 _atom_site_fract_z
 _atom_site_occupancy
  Li  Li0  1  0.50000000  0.36053500  0.42904500  1
  Li  Li1  1  0.50000000  0.36053500  0.07095500  1
  Li  Li2  1  0.00000000  0.13946500  0.57095500  1
  Li  Li3  1  0.00000000  0.13946500  0.92904500  1
  Li  Li4  1  0.00000000  0.86053500  0.42904500  1
  Li  Li5  1  0.00000000  0.86053500  0.07095500  1
  Li  Li6  1  0.50000000  0.63946500  0.57095500  1
  Li  Li7  1  0.50000000  0.63946500  0.92904500  1
  Mn  Mn8  1  0.50000000  0.30967400  0.75000000  1
  Mn  Mn9  1  0.00000000  0.19032600  0.25000000  1
  Mn  Mn10  1  0.00000000  0.80967400  0.75000000  1
  Mn  Mn11  1  0.50000000  0.69032600  0.25000000  1
  F  F12  1  0.50000000  0.44568000  0.61678800  1
  F  F13  1  0.50000000  0.44568000  0.88321200  1
  F  F14  1  0.00000000  0.31327900  0.40433800  1
  F  F15  1  0.00000000  0.31327900  0.09566200  1
  F  F16  1  0.50000000  0.24717700  0.25000000  1
  F  F17  1  0.00000000  0.25282300  0.75000000  1
  F  F18  1  0.50000000  0.18672100  0.90433800  1
  F  F19  1  0.50000000  0.18672100  0.59566200  1
  F  F20  1  0.00000000  0.05432000  0.11678800  1
  F  F21  1  0.00000000  0.05432000  0.38321200  1
  F  F22  1  0.00000000  0.94568000  0.61678800  1
  F  F23  1  0.00000000  0.94568000  0.88321200  1
  F  F24  1  0.50000000  0.81327900  0.40433800  1
  F  F25  1  0.50000000  0.81327900  0.09566200  1
  F  F26  1  0.00000000  0.74717700  0.25000000  1
  F  F27  1  0.50000000  0.75282300  0.75000000  1
  F  F28  1  0.00000000  0.68672100  0.90433800  1
  F  F29  1  0.00000000  0.68672100  0.59566200  1
  F  F30  1  0.50000000  0.55432000  0.11678800  1
  F  F31  1  0.50000000  0.55432000  0.38321200  1
