# generated using pymatgen
data_La12Cu6O25
_symmetry_space_group_name_H-M   'P 1'
_cell_length_a   12.13655400
_cell_length_b   13.05041200
_cell_length_c   7.67581589
_cell_angle_alpha   90.00000000
_cell_angle_beta   108.47214508
_cell_angle_gamma   90.00000000
_symmetry_Int_Tables_number   1
_chemical_formula_structural   La12Cu6O25
_chemical_formula_sum   'La24 Cu12 O50'
_cell_volume   1153.11158809
_cell_formula_units_Z   2
loop_
 _symmetry_equiv_pos_site_id
 _symmetry_equiv_pos_as_xyz
  1  'x, y, z'
loop_
 _atom_site_type_symbol
 _atom_site_label
 _atom_site_symmetry_multiplicity
 _atom_site_fract_x
 _atom_site_fract_y
 _atom_site_fract_z
 _atom_site_occupancy
  La  La0  1  0.33472800  0.30809000  0.91733850  1
  La  La1  1  0.49767550  0.52855350  0.25172750  1
  La  La2  1  0.50053200  0.81035400  0.24718750  1
  La  La3  1  0.33845550  0.30670150  0.42130650  1
  La  La4  1  0.66527200  0.30809000  0.08266150  1
  La  La5  1  0.66297050  0.02588250  0.08179850  1
  La  La6  1  0.50232450  0.52855350  0.74827250  1
  La  La7  1  0.49946800  0.81035400  0.75281250  1
  La  La8  1  0.33339600  0.01952800  0.41772350  1
  La  La9  1  0.66660400  0.01952800  0.58227650  1
  La  La10  1  0.33702950  0.02588250  0.91820150  1
  La  La11  1  0.66154450  0.30670150  0.57869350  1
  La  La12  1  0.83472800  0.80809000  0.91733850  1
  La  La13  1  0.99767550  0.02855350  0.25172750  1
  La  La14  1  0.00053200  0.31035400  0.24718750  1
  La  La15  1  0.83845550  0.80670150  0.42130650  1
  La  La16  1  0.16527200  0.80809000  0.08266150  1
  La  La17  1  0.16297050  0.52588250  0.08179850  1
  La  La18  1  0.00232450  0.02855350  0.74827250  1
  La  La19  1  0.99946800  0.31035400  0.75281250  1
  La  La20  1  0.83339600  0.51952800  0.41772350  1
  La  La21  1  0.16660400  0.51952800  0.58227650  1
  La  La22  1  0.83702950  0.52588250  0.91820150  1
  La  La23  1  0.16154450  0.80670150  0.57869350  1
  Cu  Cu24  1  0.83288200  0.16645400  0.91597950  1
  Cu  Cu25  1  0.16711800  0.16645400  0.08402050  1
  Cu  Cu26  1  0.49934850  0.16359150  0.24903050  1
  Cu  Cu27  1  0.83137350  0.16761550  0.41613350  1
  Cu  Cu28  1  0.16862650  0.16761550  0.58386650  1
  Cu  Cu29  1  0.50065150  0.16359150  0.75096950  1
  Cu  Cu30  1  0.33288200  0.66645400  0.91597950  1
  Cu  Cu31  1  0.66711800  0.66645400  0.08402050  1
  Cu  Cu32  1  0.99934850  0.66359150  0.24903050  1
  Cu  Cu33  1  0.33137350  0.66761550  0.41613350  1
  Cu  Cu34  1  0.66862650  0.66761550  0.58386650  1
  Cu  Cu35  1  0.00065150  0.66359150  0.75096950  1
  O  O36  1  0.50000000  0.66030900  0.00000000  1
  O  O37  1  0.67049450  0.84388550  0.08560750  1
  O  O38  1  0.16289200  0.98810500  0.07565950  1
  O  O39  1  0.83710800  0.98810500  0.92434050  1
  O  O40  1  0.33393400  0.67278900  0.16819350  1
  O  O41  1  0.50000000  0.67154500  0.50000000  1
  O  O42  1  0.50000000  0.18493500  0.00000000  1
  O  O43  1  0.66411000  0.67002200  0.33323950  1
  O  O44  1  0.33371150  0.16171250  0.16954550  1
  O  O45  1  0.72131650  0.84628950  0.60954950  1
  O  O46  1  0.49712100  0.35031900  0.26069350  1
  O  O47  1  0.49890550  0.98895150  0.18962950  1
  O  O48  1  0.83805550  0.98783950  0.41391050  1
  O  O49  1  0.16194450  0.98783950  0.58608950  1
  O  O50  1  0.27868350  0.84628950  0.39045050  1
  O  O51  1  0.66460100  0.15395100  0.33551650  1
  O  O52  1  0.33589000  0.67002200  0.66676050  1
  O  O53  1  0.50000000  0.90785500  0.50000000  1
  O  O54  1  0.33539900  0.15395100  0.66448350  1
  O  O55  1  0.66606600  0.67278900  0.83180650  1
  O  O56  1  0.50000000  0.15613100  0.50000000  1
  O  O57  1  0.32950550  0.84388550  0.91439250  1
  O  O58  1  0.50287900  0.35031900  0.73930650  1
  O  O59  1  0.50109450  0.98895150  0.81037050  1
  O  O60  1  0.66628850  0.16171250  0.83045450  1
  O  O61  1  0.00000000  0.16030900  0.00000000  1
  O  O62  1  0.17049450  0.34388550  0.08560750  1
  O  O63  1  0.66289200  0.48810500  0.07565950  1
  O  O64  1  0.33710800  0.48810500  0.92434050  1
  O  O65  1  0.83393400  0.17278900  0.16819350  1
  O  O66  1  0.00000000  0.17154500  0.50000000  1
  O  O67  1  0.00000000  0.68493500  0.00000000  1
  O  O68  1  0.16411000  0.17002200  0.33323950  1
  O  O69  1  0.83371150  0.66171250  0.16954550  1
  O  O70  1  0.22131650  0.34628950  0.60954950  1
  O  O71  1  0.99712100  0.85031900  0.26069350  1
  O  O72  1  0.99890550  0.48895150  0.18962950  1
  O  O73  1  0.33805550  0.48783950  0.41391050  1
  O  O74  1  0.66194450  0.48783950  0.58608950  1
  O  O75  1  0.77868350  0.34628950  0.39045050  1
  O  O76  1  0.16460100  0.65395100  0.33551650  1
  O  O77  1  0.83589000  0.17002200  0.66676050  1
  O  O78  1  0.00000000  0.40785500  0.50000000  1
  O  O79  1  0.83539900  0.65395100  0.66448350  1
  O  O80  1  0.16606600  0.17278900  0.83180650  1
  O  O81  1  0.00000000  0.65613100  0.50000000  1
  O  O82  1  0.82950550  0.34388550  0.91439250  1
  O  O83  1  0.00287900  0.85031900  0.73930650  1
  O  O84  1  0.00109450  0.48895150  0.81037050  1
  O  O85  1  0.16628850  0.66171250  0.83045450  1
