# generated using pymatgen
data_Ti13(Fe5O14)3
_symmetry_space_group_name_H-M   'P 1'
_cell_length_a   8.91016815
_cell_length_b   9.17742373
_cell_length_c   9.96179573
_cell_angle_alpha   104.51312467
_cell_angle_beta   98.36347548
_cell_angle_gamma   99.27678718
_symmetry_Int_Tables_number   1
_chemical_formula_structural   Ti13(Fe5O14)3
_chemical_formula_sum   'Ti13 Fe15 O42'
_cell_volume   763.42550165
_cell_formula_units_Z   1
loop_
 _symmetry_equiv_pos_site_id
 _symmetry_equiv_pos_as_xyz
  1  'x, y, z'
loop_
 _atom_site_type_symbol
 _atom_site_label
 _atom_site_symmetry_multiplicity
 _atom_site_fract_x
 _atom_site_fract_y
 _atom_site_fract_z
 _atom_site_occupancy
  Ti  Ti0  1  0.01680800  0.93738100  0.18523800  1
  Ti  Ti1  1  0.73413900  0.79457200  0.61476900  1
  Ti  Ti2  1  0.69220900  0.92069900  0.24136300  1
  Ti  Ti3  1  0.40699900  0.77374400  0.66776700  1
  Ti  Ti4  1  0.87978700  0.36992600  0.90345100  1
  Ti  Ti5  1  0.83893500  0.49098900  0.52759400  1
  Ti  Ti6  1  0.12320900  0.63662200  0.09933700  1
  Ti  Ti7  1  0.45241400  0.65164700  0.04334600  1
  Ti  Ti8  1  0.55164600  0.34742700  0.95737000  1
  Ti  Ti9  1  0.30531000  0.07896500  0.75770500  1
  Ti  Ti10  1  0.59152300  0.22311500  0.33024500  1
  Ti  Ti11  1  0.97808200  0.06108400  0.81190800  1
  Ti  Ti12  1  0.26257000  0.20516100  0.38507600  1
  Fe  Fe13  1  0.04891900  0.84273600  0.45459500  1
  Fe  Fe14  1  0.76460600  0.70628200  0.88340400  1
  Fe  Fe15  1  0.09203400  0.72592100  0.83038300  1
  Fe  Fe16  1  0.37877800  0.86956500  0.40269600  1
  Fe  Fe17  1  0.33426400  0.98805700  0.02674000  1
  Fe  Fe18  1  0.16463400  0.51053500  0.47352700  1
  Fe  Fe19  1  0.19224700  0.42030200  0.74045100  1
  Fe  Fe20  1  0.80966500  0.58062100  0.25830700  1
  Fe  Fe21  1  0.51963600  0.43621000  0.68682000  1
  Fe  Fe22  1  0.47493700  0.56455600  0.31678700  1
  Fe  Fe23  1  0.94729000  0.14930500  0.54333100  1
  Fe  Fe24  1  0.23440600  0.29519400  0.11828000  1
  Fe  Fe25  1  0.90939500  0.27980800  0.17352100  1
  Fe  Fe26  1  0.65945700  0.00787400  0.97064600  1
  Fe  Fe27  1  0.62497400  0.13550600  0.60005500  1
  O  O28  1  0.14023300  0.95835300  0.84697100  1
  O  O29  1  0.44070400  0.94028800  0.84116500  1
  O  O30  1  0.80732700  0.92940500  0.83218400  1
  O  O31  1  0.90990500  0.93048900  0.59975500  1
  O  O32  1  0.27205800  0.92038200  0.59298100  1
  O  O33  1  0.57610400  0.90286900  0.58349800  1
  O  O34  1  0.85647000  0.81939800  0.27247100  1
  O  O35  1  0.57077100  0.67631100  0.70568000  1
  O  O36  1  0.86792000  0.65261100  0.69572500  1
  O  O37  1  0.15816900  0.79581200  0.26367900  1
  O  O38  1  0.23586700  0.64283400  0.69019500  1
  O  O39  1  0.51844800  0.78373300  0.25681500  1
  O  O40  1  0.34673700  0.65265900  0.45592900  1
  O  O41  1  0.05272200  0.50363300  0.88106600  1
  O  O42  1  0.62361400  0.78610700  0.02219600  1
  O  O43  1  0.69860400  0.63252300  0.44835400  1
  O  O44  1  0.98633600  0.77458000  0.02063500  1
  O  O45  1  0.41563500  0.48750200  0.87831700  1
  O  O46  1  0.99413300  0.61331800  0.43777300  1
  O  O47  1  0.71434200  0.46587900  0.86578300  1
  O  O48  1  0.28736300  0.74977700  0.01168500  1
  O  O49  1  0.71795300  0.24822900  0.99555100  1
  O  O50  1  0.28071200  0.52032700  0.13035400  1
  O  O51  1  0.99846100  0.38690400  0.56076900  1
  O  O52  1  0.30229100  0.36500300  0.55314300  1
  O  O53  1  0.02778400  0.23011600  0.98370800  1
  O  O54  1  0.58443900  0.51186000  0.12408600  1
  O  O55  1  0.66225300  0.35119600  0.54377100  1
  O  O56  1  0.94795100  0.50183000  0.11668000  1
  O  O57  1  0.37163000  0.22012400  0.98225700  1
  O  O58  1  0.48117700  0.21553000  0.74625300  1
  O  O59  1  0.76314900  0.35874000  0.31252300  1
  O  O60  1  0.13007000  0.33779800  0.29341200  1
  O  O61  1  0.84503400  0.20522200  0.73996800  1
  O  O62  1  0.14145500  0.17936300  0.72101900  1
  O  O63  1  0.42461100  0.32204400  0.28808200  1
  O  O64  1  0.42586200  0.10322600  0.41779000  1
  O  O65  1  0.73264100  0.08159700  0.40881800  1
  O  O66  1  0.09176800  0.06557500  0.39912000  1
  O  O67  1  0.19511200  0.07481000  0.16263200  1
  O  O68  1  0.55707900  0.05997500  0.16382100  1
  O  O69  1  0.85622900  0.03825900  0.14867900  1
