# generated using pymatgen
data_Li3Nb(NiO2)4
_symmetry_space_group_name_H-M   'P 1'
_cell_length_a   10.31630232
_cell_length_b   6.03288615
_cell_length_c   6.02548777
_cell_angle_alpha   90.00000000
_cell_angle_beta   125.83540646
_cell_angle_gamma   90.00000000
_symmetry_Int_Tables_number   1
_chemical_formula_structural   Li3Nb(NiO2)4
_chemical_formula_sum   'Li6 Nb2 Ni8 O16'
_cell_volume   304.02041182
_cell_formula_units_Z   2
loop_
 _symmetry_equiv_pos_site_id
 _symmetry_equiv_pos_as_xyz
  1  'x, y, z'
loop_
 _atom_site_type_symbol
 _atom_site_label
 _atom_site_symmetry_multiplicity
 _atom_site_fract_x
 _atom_site_fract_y
 _atom_site_fract_z
 _atom_site_occupancy
  Li  Li0  1  0.00000000  0.00000000  0.00000000  1
  Li  Li1  1  0.25000000  0.75000000  0.00000000  1
  Li  Li2  1  0.75000000  0.75000000  0.00000000  1
  Li  Li3  1  0.50000000  0.50000000  0.00000000  1
  Li  Li4  1  0.75000000  0.25000000  0.00000000  1
  Li  Li5  1  0.25000000  0.25000000  0.00000000  1
  Nb  Nb6  1  0.00000000  0.50000000  0.50000000  1
  Nb  Nb7  1  0.50000000  0.00000000  0.50000000  1
  Ni  Ni8  1  0.00000000  0.50000000  0.00000000  1
  Ni  Ni9  1  0.25000000  0.75000000  0.50000000  1
  Ni  Ni10  1  0.00000000  0.00000000  0.50000000  1
  Ni  Ni11  1  0.75000000  0.75000000  0.50000000  1
  Ni  Ni12  1  0.50000000  0.00000000  0.00000000  1
  Ni  Ni13  1  0.75000000  0.25000000  0.50000000  1
  Ni  Ni14  1  0.50000000  0.50000000  0.50000000  1
  Ni  Ni15  1  0.25000000  0.25000000  0.50000000  1
  O  O16  1  0.76043550  0.50000000  0.26169300  1
  O  O17  1  0.73956450  0.00000000  0.73830700  1
  O  O18  1  0.75010300  0.00000000  0.26674400  1
  O  O19  1  0.74989700  0.50000000  0.73325600  1
  O  O20  1  0.49853700  0.23999400  0.25846400  1
  O  O21  1  0.49853700  0.76000600  0.25846400  1
  O  O22  1  0.00146300  0.26000600  0.74153600  1
  O  O23  1  0.00146300  0.73999400  0.74153600  1
  O  O24  1  0.26043550  0.00000000  0.26169300  1
  O  O25  1  0.23956450  0.50000000  0.73830700  1
  O  O26  1  0.25010300  0.50000000  0.26674400  1
  O  O27  1  0.24989700  0.00000000  0.73325600  1
  O  O28  1  0.99853700  0.73999400  0.25846400  1
  O  O29  1  0.99853700  0.26000600  0.25846400  1
  O  O30  1  0.50146300  0.76000600  0.74153600  1
  O  O31  1  0.50146300  0.23999400  0.74153600  1
