# generated using pymatgen
data_LiMn2F5
_symmetry_space_group_name_H-M   'P 1'
_cell_length_a   12.42345000
_cell_length_b   5.21408800
_cell_length_c   5.49046767
_cell_angle_alpha   90.00000000
_cell_angle_beta   93.37022015
_cell_angle_gamma   90.00000000
_symmetry_Int_Tables_number   1
_chemical_formula_structural   LiMn2F5
_chemical_formula_sum   'Li4 Mn8 F20'
_cell_volume   355.04071258
_cell_formula_units_Z   4
loop_
 _symmetry_equiv_pos_site_id
 _symmetry_equiv_pos_as_xyz
  1  'x, y, z'
loop_
 _atom_site_type_symbol
 _atom_site_label
 _atom_site_symmetry_multiplicity
 _atom_site_fract_x
 _atom_site_fract_y
 _atom_site_fract_z
 _atom_site_occupancy
  Li  Li0  1  0.75000000  0.25000000  0.00000000  1
  Li  Li1  1  0.75000000  0.75000000  0.50000000  1
  Li  Li2  1  0.25000000  0.75000000  0.00000000  1
  Li  Li3  1  0.25000000  0.25000000  0.50000000  1
  Mn  Mn4  1  0.60105350  0.73332450  0.05150000  1
  Mn  Mn5  1  0.60105350  0.26667550  0.55150000  1
  Mn  Mn6  1  0.89894650  0.23332450  0.44850000  1
  Mn  Mn7  1  0.89894650  0.76667550  0.94850000  1
  Mn  Mn8  1  0.10105350  0.23332450  0.05150000  1
  Mn  Mn9  1  0.10105350  0.76667550  0.55150000  1
  Mn  Mn10  1  0.39894650  0.73332450  0.44850000  1
  Mn  Mn11  1  0.39894650  0.26667550  0.94850000  1
  F  F12  1  0.59458800  0.88914900  0.41054900  1
  F  F13  1  0.59458800  0.11085100  0.91054900  1
  F  F14  1  0.71352800  0.43006900  0.31910900  1
  F  F15  1  0.71352800  0.56993100  0.81910900  1
  F  F16  1  0.78647200  0.93006900  0.18089100  1
  F  F17  1  0.78647200  0.06993100  0.68089100  1
  F  F18  1  0.90541200  0.38914900  0.08945100  1
  F  F19  1  0.90541200  0.61085100  0.58945100  1
  F  F20  1  0.00000000  0.94655100  0.25000000  1
  F  F21  1  0.00000000  0.05344900  0.75000000  1
  F  F22  1  0.09458800  0.38914900  0.41054900  1
  F  F23  1  0.09458800  0.61085100  0.91054900  1
  F  F24  1  0.21352800  0.93006900  0.31910900  1
  F  F25  1  0.21352800  0.06993100  0.81910900  1
  F  F26  1  0.28647200  0.43006900  0.18089100  1
  F  F27  1  0.28647200  0.56993100  0.68089100  1
  F  F28  1  0.40541200  0.88914900  0.08945100  1
  F  F29  1  0.40541200  0.11085100  0.58945100  1
  F  F30  1  0.50000000  0.44655100  0.25000000  1
  F  F31  1  0.50000000  0.55344900  0.75000000  1
