# generated using pymatgen
data_Co5Te3O16
_symmetry_space_group_name_H-M   'P 1'
_cell_length_a   10.30149000
_cell_length_b   5.97582000
_cell_length_c   8.95469737
_cell_angle_alpha   90.00000000
_cell_angle_beta   90.88837733
_cell_angle_gamma   90.00000000
_symmetry_Int_Tables_number   1
_chemical_formula_structural   Co5Te3O16
_chemical_formula_sum   'Co10 Te6 O32'
_cell_volume   551.18356546
_cell_formula_units_Z   2
loop_
 _symmetry_equiv_pos_site_id
 _symmetry_equiv_pos_as_xyz
  1  'x, y, z'
loop_
 _atom_site_type_symbol
 _atom_site_label
 _atom_site_symmetry_multiplicity
 _atom_site_fract_x
 _atom_site_fract_y
 _atom_site_fract_z
 _atom_site_occupancy
  Co  Co0  1  0.31728000  0.00000000  0.49345300  1
  Co  Co1  1  0.17017800  0.00000000  0.79621800  1
  Co  Co2  1  0.65176300  0.00000000  0.02754500  1
  Co  Co3  1  0.58510450  0.24582150  0.28539500  1
  Co  Co4  1  0.58510450  0.75417850  0.28539500  1
  Co  Co5  1  0.81728000  0.50000000  0.49345300  1
  Co  Co6  1  0.67017800  0.50000000  0.79621800  1
  Co  Co7  1  0.15176300  0.50000000  0.02754500  1
  Co  Co8  1  0.08510450  0.74582150  0.28539500  1
  Co  Co9  1  0.08510450  0.25417850  0.28539500  1
  Te  Te10  1  0.41900700  0.24717600  0.78927900  1
  Te  Te11  1  0.41900700  0.75282400  0.78927900  1
  Te  Te12  1  0.83628100  0.00000000  0.28857900  1
  Te  Te13  1  0.91900700  0.74717600  0.78927900  1
  Te  Te14  1  0.91900700  0.25282400  0.78927900  1
  Te  Te15  1  0.33628100  0.50000000  0.28857900  1
  O  O16  1  0.41971550  0.25379550  0.39387200  1
  O  O17  1  0.48775800  0.00000000  0.66123700  1
  O  O18  1  0.34700200  0.00000000  0.91492900  1
  O  O19  1  0.99493700  0.00000000  0.67570500  1
  O  O20  1  0.00173400  0.00000000  0.18126100  1
  O  O21  1  0.41971550  0.74620450  0.39387200  1
  O  O22  1  0.26812450  0.22458650  0.66590500  1
  O  O23  1  0.26812450  0.77541350  0.66590500  1
  O  O24  1  0.83655100  0.00000000  0.90441800  1
  O  O25  1  0.16366500  0.00000000  0.38918600  1
  O  O26  1  0.73175150  0.21315950  0.15588000  1
  O  O27  1  0.73175150  0.78684050  0.15588000  1
  O  O28  1  0.66739900  0.00000000  0.39641700  1
  O  O29  1  0.57794200  0.24714300  0.90229900  1
  O  O30  1  0.52259300  0.00000000  0.16843800  1
  O  O31  1  0.57794200  0.75285700  0.90229900  1
  O  O32  1  0.91971550  0.75379550  0.39387200  1
  O  O33  1  0.98775800  0.50000000  0.66123700  1
  O  O34  1  0.84700200  0.50000000  0.91492900  1
  O  O35  1  0.49493700  0.50000000  0.67570500  1
  O  O36  1  0.50173400  0.50000000  0.18126100  1
  O  O37  1  0.91971550  0.24620450  0.39387200  1
  O  O38  1  0.76812450  0.72458650  0.66590500  1
  O  O39  1  0.76812450  0.27541350  0.66590500  1
  O  O40  1  0.33655100  0.50000000  0.90441800  1
  O  O41  1  0.66366500  0.50000000  0.38918600  1
  O  O42  1  0.23175150  0.71315950  0.15588000  1
  O  O43  1  0.23175150  0.28684050  0.15588000  1
  O  O44  1  0.16739900  0.50000000  0.39641700  1
  O  O45  1  0.07794200  0.74714300  0.90229900  1
  O  O46  1  0.02259300  0.50000000  0.16843800  1
  O  O47  1  0.07794200  0.25285700  0.90229900  1
