# generated using pymatgen
data_P6H24N6O19
_symmetry_space_group_name_H-M   'P 1'
_cell_length_a   15.62194045
_cell_length_b   15.62194045
_cell_length_c   7.59703290
_cell_angle_alpha   90.00000000
_cell_angle_beta   90.00000000
_cell_angle_gamma   120.00000000
_symmetry_Int_Tables_number   1
_chemical_formula_structural   P6H24N6O19
_chemical_formula_sum   'P18 H72 N18 O57'
_cell_volume   1605.62674968
_cell_formula_units_Z   3
loop_
 _symmetry_equiv_pos_site_id
 _symmetry_equiv_pos_as_xyz
  1  'x, y, z'
loop_
 _atom_site_type_symbol
 _atom_site_label
 _atom_site_symmetry_multiplicity
 _atom_site_fract_x
 _atom_site_fract_y
 _atom_site_fract_z
 _atom_site_occupancy
  P  P0  1  0.81344133  0.28017267  0.40209167  1
  P  P1  1  0.05316067  0.19993533  0.06875833  1
  P  P2  1  0.13339800  0.51989200  0.73542500  1
  P  P3  1  0.85322533  0.05316067  0.93124167  1
  P  P4  1  0.61350600  0.13339800  0.26457500  1
  P  P5  1  0.53326867  0.81344133  0.59790833  1
  P  P6  1  0.48010800  0.61350600  0.73542500  1
  P  P7  1  0.71982733  0.53326867  0.40209167  1
  P  P8  1  0.80006467  0.85322533  0.06875833  1
  P  P9  1  0.51989200  0.38649400  0.26457500  1
  P  P10  1  0.28017267  0.46673133  0.59790833  1
  P  P11  1  0.19993533  0.14677467  0.93124167  1
  P  P12  1  0.14677467  0.94683933  0.06875833  1
  P  P13  1  0.38649400  0.86660200  0.73542500  1
  P  P14  1  0.46673133  0.18655867  0.40209167  1
  P  P15  1  0.18655867  0.71982733  0.59790833  1
  P  P16  1  0.94683933  0.80006467  0.93124167  1
  P  P17  1  0.86660200  0.48010800  0.26457500  1
  H  H18  1  0.01693600  0.39363700  0.26639200  1
  H  H19  1  0.93969633  0.28996567  0.93305867  1
  H  H20  1  0.04336767  0.31639733  0.59972533  1
  H  H21  1  0.64973067  0.93969633  0.06694133  1
  H  H22  1  0.72697033  0.04336767  0.40027467  1
  H  H23  1  0.62329900  0.01693600  0.73360800  1
  H  H24  1  0.84517967  0.11794033  0.34721033  1
  H  H25  1  0.54872633  0.06057267  0.68054367  1
  H  H26  1  0.60609400  0.82148700  0.01387700  1
  H  H27  1  0.82148700  0.21539300  0.98612300  1
  H  H28  1  0.11794033  0.27276067  0.65278967  1
  H  H29  1  0.06057267  0.51184633  0.31945633  1
  H  H30  1  0.05976833  0.23976367  0.45756767  1
  H  H31  1  0.09356967  0.48667133  0.12423433  1
  H  H32  1  0.84666200  0.27356500  0.79090100  1
  H  H33  1  0.60689833  0.09356967  0.87576567  1
  H  H34  1  0.57309700  0.84666200  0.20909900  1
  H  H35  1  0.82000467  0.05976833  0.54243233  1
  H  H36  1  0.52750800  0.86655000  0.01523400  1
  H  H37  1  0.80011667  0.99429133  0.34856733  1
  H  H38  1  0.67237533  0.13915867  0.68190067  1
  H  H39  1  0.13915867  0.46678333  0.31809933  1
  H  H40  1  0.86655000  0.33904200  0.98476600  1
  H  H41  1  0.99429133  0.19417467  0.65143267  1
  H  H42  1  0.68360267  0.72697033  0.59972533  1
  H  H43  1  0.60636300  0.62329900  0.26639200  1
  H  H44  1  0.71003433  0.64973067  0.93305867  1
  H  H45  1  0.31639733  0.27302967  0.40027467  1
  H  H46  1  0.39363700  0.37670100  0.73360800  1
  H  H47  1  0.28996567  0.35026933  0.06694133  1
  H  H48  1  0.51184633  0.45127367  0.68054367  1
  H  H49  1  0.21539300  0.39390600  0.01387700  1
  H  H50  1  0.27276067  0.15482033  0.34721033  1
  H  H51  1  0.48815367  0.54872633  0.31945633  1
  H  H52  1  0.78460700  0.60609400  0.98612300  1
  H  H53  1  0.72723933  0.84517967  0.65278967  1
  H  H54  1  0.72643500  0.57309700  0.79090100  1
  H  H55  1  0.76023633  0.82000467  0.45756767  1
  H  H56  1  0.51332867  0.60689833  0.12423433  1
  H  H57  1  0.27356500  0.42690300  0.20909900  1
  H  H58  1  0.23976367  0.17999533  0.54243233  1
  H  H59  1  0.48667133  0.39310167  0.87576567  1
  H  H60  1  0.19417467  0.19988333  0.34856733  1
  H  H61  1  0.46678333  0.32762467  0.68190067  1
  H  H62  1  0.33904200  0.47249200  0.01523400  1
  H  H63  1  0.80582533  0.80011667  0.65143267  1
  H  H64  1  0.53321667  0.67237533  0.31809933  1
  H  H65  1  0.66095800  0.52750800  0.98476600  1
  H  H66  1  0.35026933  0.06030367  0.93305867  1
  H  H67  1  0.27302967  0.95663233  0.59972533  1
  H  H68  1  0.37670100  0.98306400  0.26639200  1
  H  H69  1  0.98306400  0.60636300  0.73360800  1
  H  H70  1  0.06030367  0.71003433  0.06694133  1
  H  H71  1  0.95663233  0.68360267  0.40027467  1
  H  H72  1  0.17851300  0.78460700  0.01387700  1
  H  H73  1  0.88205967  0.72723933  0.34721033  1
  H  H74  1  0.93942733  0.48815367  0.68054367  1
  H  H75  1  0.15482033  0.88205967  0.65278967  1
  H  H76  1  0.45127367  0.93942733  0.31945633  1
  H  H77  1  0.39390600  0.17851300  0.98612300  1
  H  H78  1  0.39310167  0.90643033  0.12423433  1
  H  H79  1  0.42690300  0.15333800  0.79090100  1
  H  H80  1  0.17999533  0.94023167  0.45756767  1
  H  H81  1  0.94023167  0.76023633  0.54243233  1
  H  H82  1  0.90643033  0.51332867  0.87576567  1
  H  H83  1  0.15333800  0.72643500  0.20909900  1
  H  H84  1  0.86084133  0.53321667  0.68190067  1
  H  H85  1  0.13345000  0.66095800  0.01523400  1
  H  H86  1  0.00570867  0.80582533  0.34856733  1
  H  H87  1  0.47249200  0.13345000  0.98476600  1
  H  H88  1  0.19988333  0.00570867  0.65143267  1
  H  H89  1  0.32762467  0.86084133  0.31809933  1
  N  N90  1  0.05293067  0.25507933  0.58906533  1
  N  N91  1  0.07825400  0.46451800  0.25573200  1
  N  N92  1  0.86881533  0.28040267  0.92239867  1
  N  N93  1  0.61373600  0.07825400  0.74426800  1
  N  N94  1  0.58841267  0.86881533  0.07760133  1
  N  N95  1  0.79785133  0.05293067  0.41093467  1
  N  N96  1  0.71959733  0.58841267  0.92239867  1
  N  N97  1  0.74492067  0.79785133  0.58906533  1
  N  N98  1  0.53548200  0.61373600  0.25573200  1
  N  N99  1  0.28040267  0.41158733  0.07760133  1
  N  N100  1  0.25507933  0.20214867  0.41093467  1
  N  N101  1  0.46451800  0.38626400  0.74426800  1
  N  N102  1  0.38626400  0.92174600  0.25573200  1
  N  N103  1  0.41158733  0.13118467  0.92239867  1
  N  N104  1  0.20214867  0.94706933  0.58906533  1
  N  N105  1  0.94706933  0.74492067  0.41093467  1
  N  N106  1  0.92174600  0.53548200  0.74426800  1
  N  N107  1  0.13118467  0.71959733  0.07760133  1
  O  O108  1  0.77886233  0.23728367  0.58295867  1
  O  O109  1  0.09604967  0.20824533  0.24962533  1
  O  O110  1  0.12508800  0.55447100  0.91629200  1
  O  O111  1  0.88780433  0.09604967  0.75037467  1
  O  O112  1  0.57061700  0.12508800  0.08370800  1
  O  O113  1  0.54157867  0.77886233  0.41704133  1
  O  O114  1  0.90136733  0.27954767  0.32287167  1
  O  O115  1  0.05378567  0.28848633  0.98953833  1
  O  O116  1  0.04484700  0.43196600  0.65620500  1
  O  O117  1  0.76529933  0.05378567  0.01046167  1
  O  O118  1  0.61288100  0.04484700  0.34379500  1
  O  O119  1  0.62181967  0.90136733  0.67712833  1
  O  O120  1  0.72404233  0.22740167  0.25925067  1
  O  O121  1  0.43926500  0.82997400  0.59258400  1
  O  O122  1  0.83669267  0.94262433  0.92591733  1
  O  O123  1  0.94262433  0.10593167  0.07408267  1
  O  O124  1  0.22740167  0.50335933  0.74074933  1
  O  O125  1  0.82997400  0.39070900  0.40741600  1
  O  O126  1  0.00000000  0.00000000  0.50000000  1
  O  O127  1  0.44552900  0.57061700  0.91629200  1
  O  O128  1  0.76271633  0.54157867  0.58295867  1
  O  O129  1  0.79175467  0.88780433  0.24962533  1
  O  O130  1  0.55447100  0.42938300  0.08370800  1
  O  O131  1  0.23728367  0.45842133  0.41704133  1
  O  O132  1  0.20824533  0.11219567  0.75037467  1
  O  O133  1  0.56803400  0.61288100  0.65620500  1
  O  O134  1  0.72045233  0.62181967  0.32287167  1
  O  O135  1  0.71151367  0.76529933  0.98953833  1
  O  O136  1  0.43196600  0.38711900  0.34379500  1
  O  O137  1  0.27954767  0.37818033  0.67712833  1
  O  O138  1  0.28848633  0.23470067  0.01046167  1
  O  O139  1  0.39070900  0.56073500  0.59258400  1
  O  O140  1  0.10593167  0.16330733  0.92591733  1
  O  O141  1  0.50335933  0.27595767  0.25925067  1
  O  O142  1  0.60929100  0.43926500  0.40741600  1
  O  O143  1  0.89406833  0.83669267  0.07408267  1
  O  O144  1  0.49664067  0.72404233  0.74074933  1
  O  O145  1  0.66666667  0.33333333  0.83333333  1
  O  O146  1  0.11219567  0.90395033  0.24962533  1
  O  O147  1  0.42938300  0.87491200  0.91629200  1
  O  O148  1  0.45842133  0.22113767  0.58295867  1
  O  O149  1  0.22113767  0.76271633  0.41704133  1
  O  O150  1  0.90395033  0.79175467  0.75037467  1
  O  O151  1  0.87491200  0.44552900  0.08370800  1
  O  O152  1  0.23470067  0.94621433  0.98953833  1
  O  O153  1  0.38711900  0.95515300  0.65620500  1
  O  O154  1  0.37818033  0.09863267  0.32287167  1
  O  O155  1  0.09863267  0.72045233  0.67712833  1
  O  O156  1  0.94621433  0.71151367  0.01046167  1
  O  O157  1  0.95515300  0.56803400  0.34379500  1
  O  O158  1  0.05737567  0.89406833  0.92591733  1
  O  O159  1  0.77259833  0.49664067  0.25925067  1
  O  O160  1  0.17002600  0.60929100  0.59258400  1
  O  O161  1  0.27595767  0.77259833  0.74074933  1
  O  O162  1  0.56073500  0.17002600  0.40741600  1
  O  O163  1  0.16330733  0.05737567  0.07408267  1
  O  O164  1  0.33333333  0.66666667  0.16666667  1
