# generated using pymatgen
data_Li2Co2(SO4)3
_symmetry_space_group_name_H-M   'P 1'
_cell_length_a   13.09175000
_cell_length_b   8.63489800
_cell_length_c   8.80678064
_cell_angle_alpha   90.00000000
_cell_angle_beta   115.89834718
_cell_angle_gamma   90.00000000
_symmetry_Int_Tables_number   1
_chemical_formula_structural   Li2Co2(SO4)3
_chemical_formula_sum   'Li8 Co8 S12 O48'
_cell_volume   895.58588656
_cell_formula_units_Z   4
loop_
 _symmetry_equiv_pos_site_id
 _symmetry_equiv_pos_as_xyz
  1  'x, y, z'
loop_
 _atom_site_type_symbol
 _atom_site_label
 _atom_site_symmetry_multiplicity
 _atom_site_fract_x
 _atom_site_fract_y
 _atom_site_fract_z
 _atom_site_occupancy
  Li  Li0  1  0.26715850  0.59575350  0.94469600  1
  Li  Li1  1  0.26715850  0.40424650  0.44469600  1
  Li  Li2  1  0.73284150  0.59575350  0.55530400  1
  Li  Li3  1  0.73284150  0.40424650  0.05530400  1
  Li  Li4  1  0.76715850  0.09575350  0.94469600  1
  Li  Li5  1  0.76715850  0.90424650  0.44469600  1
  Li  Li6  1  0.23284150  0.09575350  0.55530400  1
  Li  Li7  1  0.23284150  0.90424650  0.05530400  1
  Co  Co8  1  0.12117350  0.75230850  0.51677400  1
  Co  Co9  1  0.12117350  0.24769150  0.01677400  1
  Co  Co10  1  0.87882650  0.75230850  0.98322600  1
  Co  Co11  1  0.87882650  0.24769150  0.48322600  1
  Co  Co12  1  0.62117350  0.25230850  0.51677400  1
  Co  Co13  1  0.62117350  0.74769150  0.01677400  1
  Co  Co14  1  0.37882650  0.25230850  0.98322600  1
  Co  Co15  1  0.37882650  0.74769150  0.48322600  1
  S  S16  1  0.14453200  0.39470300  0.67706100  1
  S  S17  1  0.14453200  0.60529700  0.17706100  1
  S  S18  1  0.00000000  0.94113600  0.75000000  1
  S  S19  1  0.00000000  0.05886400  0.25000000  1
  S  S20  1  0.85546800  0.39470300  0.82293900  1
  S  S21  1  0.85546800  0.60529700  0.32293900  1
  S  S22  1  0.64453200  0.89470300  0.67706100  1
  S  S23  1  0.64453200  0.10529700  0.17706100  1
  S  S24  1  0.50000000  0.44113600  0.75000000  1
  S  S25  1  0.50000000  0.55886400  0.25000000  1
  S  S26  1  0.35546800  0.89470300  0.82293900  1
  S  S27  1  0.35546800  0.10529700  0.32293900  1
  O  O28  1  0.41178850  0.53934050  0.61509900  1
  O  O29  1  0.41178850  0.46065950  0.11509900  1
  O  O30  1  0.18902800  0.31307500  0.57169900  1
  O  O31  1  0.17519900  0.56295400  0.68862700  1
  O  O32  1  0.20528350  0.33765850  0.86005300  1
  O  O33  1  0.18902800  0.68692500  0.07169900  1
  O  O34  1  0.05971200  0.84390100  0.67770400  1
  O  O35  1  0.02322050  0.37190150  0.61708400  1
  O  O36  1  0.17519900  0.43704600  0.18862700  1
  O  O37  1  0.20528350  0.66234150  0.36005300  1
  O  O38  1  0.05971200  0.15609900  0.17770400  1
  O  O39  1  0.97677950  0.37190150  0.88291600  1
  O  O40  1  0.02322050  0.62809850  0.11708400  1
  O  O41  1  0.94028800  0.84390100  0.82229600  1
  O  O42  1  0.79471650  0.33765850  0.63994700  1
  O  O43  1  0.82480100  0.56295400  0.81137300  1
  O  O44  1  0.97677950  0.62809850  0.38291600  1
  O  O45  1  0.94028800  0.15609900  0.32229600  1
  O  O46  1  0.81097200  0.31307500  0.92830100  1
  O  O47  1  0.79471650  0.66234150  0.13994700  1
  O  O48  1  0.82480100  0.43704600  0.31137300  1
  O  O49  1  0.81097200  0.68692500  0.42830100  1
  O  O50  1  0.58821150  0.53934050  0.88490100  1
  O  O51  1  0.58821150  0.46065950  0.38490100  1
  O  O52  1  0.91178850  0.03934050  0.61509900  1
  O  O53  1  0.91178850  0.96065950  0.11509900  1
  O  O54  1  0.68902800  0.81307500  0.57169900  1
  O  O55  1  0.67519900  0.06295400  0.68862700  1
  O  O56  1  0.70528350  0.83765850  0.86005300  1
  O  O57  1  0.68902800  0.18692500  0.07169900  1
  O  O58  1  0.55971200  0.34390100  0.67770400  1
  O  O59  1  0.52322050  0.87190150  0.61708400  1
  O  O60  1  0.67519900  0.93704600  0.18862700  1
  O  O61  1  0.70528350  0.16234150  0.36005300  1
  O  O62  1  0.55971200  0.65609900  0.17770400  1
  O  O63  1  0.47677950  0.87190150  0.88291600  1
  O  O64  1  0.52322050  0.12809850  0.11708400  1
  O  O65  1  0.44028800  0.34390100  0.82229600  1
  O  O66  1  0.29471650  0.83765850  0.63994700  1
  O  O67  1  0.32480100  0.06295400  0.81137300  1
  O  O68  1  0.47677950  0.12809850  0.38291600  1
  O  O69  1  0.44028800  0.65609900  0.32229600  1
  O  O70  1  0.31097200  0.81307500  0.92830100  1
  O  O71  1  0.29471650  0.16234150  0.13994700  1
  O  O72  1  0.32480100  0.93704600  0.31137300  1
  O  O73  1  0.31097200  0.18692500  0.42830100  1
  O  O74  1  0.08821150  0.03934050  0.88490100  1
  O  O75  1  0.08821150  0.96065950  0.38490100  1
