# generated using pymatgen
data_Li4TiFe5O12
_symmetry_space_group_name_H-M   'P 1'
_cell_length_a   5.16527200
_cell_length_b   8.90311600
_cell_length_c   10.26739102
_cell_angle_alpha   90.00000000
_cell_angle_beta   91.12354437
_cell_angle_gamma   90.00000000
_symmetry_Int_Tables_number   1
_chemical_formula_structural   Li4TiFe5O12
_chemical_formula_sum   'Li8 Ti2 Fe10 O24'
_cell_volume   472.07589364
_cell_formula_units_Z   2
loop_
 _symmetry_equiv_pos_site_id
 _symmetry_equiv_pos_as_xyz
  1  'x, y, z'
loop_
 _atom_site_type_symbol
 _atom_site_label
 _atom_site_symmetry_multiplicity
 _atom_site_fract_x
 _atom_site_fract_y
 _atom_site_fract_z
 _atom_site_occupancy
  Li  Li0  1  0.61002650  0.74492350  0.75040500  1
  Li  Li1  1  0.38997350  0.74492350  0.24959500  1
  Li  Li2  1  0.61002650  0.25507650  0.75040500  1
  Li  Li3  1  0.38997350  0.25507650  0.24959500  1
  Li  Li4  1  0.11002650  0.24492350  0.75040500  1
  Li  Li5  1  0.88997350  0.24492350  0.24959500  1
  Li  Li6  1  0.11002650  0.75507650  0.75040500  1
  Li  Li7  1  0.88997350  0.75507650  0.24959500  1
  Ti  Ti8  1  0.00000000  0.00000000  0.00000000  1
  Ti  Ti9  1  0.50000000  0.50000000  0.00000000  1
  Fe  Fe10  1  0.50000000  0.66433100  0.50000000  1
  Fe  Fe11  1  0.50000000  0.16349800  0.00000000  1
  Fe  Fe12  1  0.50000000  0.83650200  0.00000000  1
  Fe  Fe13  1  0.50000000  0.33566900  0.50000000  1
  Fe  Fe14  1  0.50000000  0.00000000  0.50000000  1
  Fe  Fe15  1  0.00000000  0.16433100  0.50000000  1
  Fe  Fe16  1  0.00000000  0.66349800  0.00000000  1
  Fe  Fe17  1  0.00000000  0.33650200  0.00000000  1
  Fe  Fe18  1  0.00000000  0.83566900  0.50000000  1
  Fe  Fe19  1  0.00000000  0.50000000  0.50000000  1
  O  O20  1  0.65931600  0.66819600  0.10796200  1
  O  O21  1  0.34068400  0.66819600  0.89203800  1
  O  O22  1  0.65038050  0.83256850  0.39321400  1
  O  O23  1  0.65038050  0.16743150  0.39321400  1
  O  O24  1  0.34961950  0.83256850  0.60678600  1
  O  O25  1  0.81506200  0.00000000  0.59494500  1
  O  O26  1  0.34961950  0.16743150  0.60678600  1
  O  O27  1  0.65931600  0.33180400  0.10796200  1
  O  O28  1  0.68493500  0.00000000  0.09713700  1
  O  O29  1  0.34068400  0.33180400  0.89203800  1
  O  O30  1  0.31506500  0.00000000  0.90286300  1
  O  O31  1  0.18493800  0.00000000  0.40505500  1
  O  O32  1  0.15931600  0.16819600  0.10796200  1
  O  O33  1  0.84068400  0.16819600  0.89203800  1
  O  O34  1  0.15038050  0.33256850  0.39321400  1
  O  O35  1  0.15038050  0.66743150  0.39321400  1
  O  O36  1  0.84961950  0.33256850  0.60678600  1
  O  O37  1  0.31506200  0.50000000  0.59494500  1
  O  O38  1  0.84961950  0.66743150  0.60678600  1
  O  O39  1  0.15931600  0.83180400  0.10796200  1
  O  O40  1  0.18493500  0.50000000  0.09713700  1
  O  O41  1  0.84068400  0.83180400  0.89203800  1
  O  O42  1  0.81506500  0.50000000  0.90286300  1
  O  O43  1  0.68493800  0.50000000  0.40505500  1
