# generated using pymatgen
data_K2TbO3
_symmetry_space_group_name_H-M   'P 1'
_cell_length_a   7.04133400
_cell_length_b   11.01947200
_cell_length_c   6.18653700
_cell_angle_alpha   90.00000000
_cell_angle_beta   90.00000000
_cell_angle_gamma   90.00000000
_symmetry_Int_Tables_number   1
_chemical_formula_structural   K2TbO3
_chemical_formula_sum   'K8 Tb4 O12'
_cell_volume   480.02443553
_cell_formula_units_Z   4
loop_
 _symmetry_equiv_pos_site_id
 _symmetry_equiv_pos_as_xyz
  1  'x, y, z'
loop_
 _atom_site_type_symbol
 _atom_site_label
 _atom_site_symmetry_multiplicity
 _atom_site_fract_x
 _atom_site_fract_y
 _atom_site_fract_z
 _atom_site_occupancy
  K  K0  1  0.35689250  0.16848050  0.76741100  1
  K  K1  1  0.64310750  0.16848050  0.26741100  1
  K  K2  1  0.35689250  0.83151950  0.76741100  1
  K  K3  1  0.64310750  0.83151950  0.26741100  1
  K  K4  1  0.85689250  0.66848050  0.76741100  1
  K  K5  1  0.14310750  0.66848050  0.26741100  1
  K  K6  1  0.85689250  0.33151950  0.76741100  1
  K  K7  1  0.14310750  0.33151950  0.26741100  1
  Tb  Tb8  1  0.89335300  0.00000000  0.73179300  1
  Tb  Tb9  1  0.10664700  0.00000000  0.23179300  1
  Tb  Tb10  1  0.39335300  0.50000000  0.73179300  1
  Tb  Tb11  1  0.60664700  0.50000000  0.23179300  1
  O  O12  1  0.52530000  0.36863200  0.49965300  1
  O  O13  1  0.47470000  0.36863200  0.99965300  1
  O  O14  1  0.39842200  0.00000000  0.13407800  1
  O  O15  1  0.60157800  0.00000000  0.63407800  1
  O  O16  1  0.47470000  0.63136800  0.99965300  1
  O  O17  1  0.52530000  0.63136800  0.49965300  1
  O  O18  1  0.02530000  0.86863200  0.49965300  1
  O  O19  1  0.97470000  0.86863200  0.99965300  1
  O  O20  1  0.89842200  0.50000000  0.13407800  1
  O  O21  1  0.10157800  0.50000000  0.63407800  1
  O  O22  1  0.97470000  0.13136800  0.99965300  1
  O  O23  1  0.02530000  0.13136800  0.49965300  1
