# generated using pymatgen
data_LiFe2(BO3)2
_symmetry_space_group_name_H-M   'P 1'
_cell_length_a   5.27560000
_cell_length_b   9.14235000
_cell_length_c   10.05598758
_cell_angle_alpha   90.00000000
_cell_angle_beta   90.28405890
_cell_angle_gamma   90.00000000
_symmetry_Int_Tables_number   1
_chemical_formula_structural   LiFe2(BO3)2
_chemical_formula_sum   'Li4 Fe8 B8 O24'
_cell_volume   485.00821451
_cell_formula_units_Z   4
loop_
 _symmetry_equiv_pos_site_id
 _symmetry_equiv_pos_as_xyz
  1  'x, y, z'
loop_
 _atom_site_type_symbol
 _atom_site_label
 _atom_site_symmetry_multiplicity
 _atom_site_fract_x
 _atom_site_fract_y
 _atom_site_fract_z
 _atom_site_occupancy
  Li  Li0  1  0.34804300  0.51198000  0.83578800  1
  Li  Li1  1  0.84804300  0.98802000  0.33578800  1
  Li  Li2  1  0.84804300  0.01198000  0.83578800  1
  Li  Li3  1  0.34804300  0.48802000  0.33578800  1
  Fe  Fe4  1  0.15695400  0.67030000  0.11921000  1
  Fe  Fe5  1  0.65695400  0.82970000  0.61921000  1
  Fe  Fe6  1  0.83940400  0.65427300  0.37175500  1
  Fe  Fe7  1  0.33940400  0.84572700  0.87175500  1
  Fe  Fe8  1  0.65695400  0.17030000  0.11921000  1
  Fe  Fe9  1  0.15695400  0.32970000  0.61921000  1
  Fe  Fe10  1  0.33940400  0.15427300  0.37175500  1
  Fe  Fe11  1  0.83940400  0.34572700  0.87175500  1
  B  B12  1  0.66025300  0.83339700  0.12519800  1
  B  B13  1  0.16025300  0.66660300  0.62519800  1
  B  B14  1  0.33664850  0.83013850  0.37117600  1
  B  B15  1  0.83664850  0.66986150  0.87117600  1
  B  B16  1  0.16025300  0.33339700  0.12519800  1
  B  B17  1  0.66025300  0.16660300  0.62519800  1
  B  B18  1  0.83664850  0.33013850  0.37117600  1
  B  B19  1  0.33664850  0.16986150  0.87117600  1
  O  O20  1  0.25286500  0.52813200  0.64165100  1
  O  O21  1  0.73361900  0.80403500  0.82786800  1
  O  O22  1  0.23361900  0.69596500  0.32786800  1
  O  O23  1  0.09154450  0.66762250  0.91616400  1
  O  O24  1  0.59154450  0.83237750  0.41616400  1
  O  O25  1  0.69757500  0.54483700  0.86822500  1
  O  O26  1  0.75286500  0.97186800  0.14165100  1
  O  O27  1  0.91822000  0.69009800  0.57618600  1
  O  O28  1  0.41822000  0.80990200  0.07618600  1
  O  O29  1  0.30999900  0.78529800  0.66190500  1
  O  O30  1  0.80999900  0.71470200  0.16190500  1
  O  O31  1  0.19757500  0.95516300  0.36822500  1
  O  O32  1  0.75286500  0.02813200  0.64165100  1
  O  O33  1  0.23361900  0.30403500  0.82786800  1
  O  O34  1  0.73361900  0.19596500  0.32786800  1
  O  O35  1  0.59154450  0.16762250  0.91616400  1
  O  O36  1  0.09154450  0.33237750  0.41616400  1
  O  O37  1  0.19757500  0.04483700  0.86822500  1
  O  O38  1  0.25286500  0.47186800  0.14165100  1
  O  O39  1  0.41822000  0.19009800  0.57618600  1
  O  O40  1  0.91822000  0.30990200  0.07618600  1
  O  O41  1  0.80999900  0.28529800  0.66190500  1
  O  O42  1  0.30999900  0.21470200  0.16190500  1
  O  O43  1  0.69757500  0.45516300  0.36822500  1
