# generated using pymatgen
data_Zn2Ni3O5
_symmetry_space_group_name_H-M   'P 1'
_cell_length_a   9.51971400
_cell_length_b   4.26075200
_cell_length_c   6.73247299
_cell_angle_alpha   90.00000000
_cell_angle_beta   134.71040734
_cell_angle_gamma   90.00000000
_symmetry_Int_Tables_number   1
_chemical_formula_structural   Zn2Ni3O5
_chemical_formula_sum   'Zn4 Ni6 O10'
_cell_volume   194.06794032
_cell_formula_units_Z   2
loop_
 _symmetry_equiv_pos_site_id
 _symmetry_equiv_pos_as_xyz
  1  'x, y, z'
loop_
 _atom_site_type_symbol
 _atom_site_label
 _atom_site_symmetry_multiplicity
 _atom_site_fract_x
 _atom_site_fract_y
 _atom_site_fract_z
 _atom_site_occupancy
  Zn  Zn0  1  0.40088600  0.00000000  0.20029400  1
  Zn  Zn1  1  0.59911400  0.00000000  0.79970600  1
  Zn  Zn2  1  0.90088600  0.50000000  0.20029400  1
  Zn  Zn3  1  0.09911400  0.50000000  0.79970600  1
  Ni  Ni4  1  0.00000000  0.00000000  0.00000000  1
  Ni  Ni5  1  0.70057300  0.50000000  0.59954600  1
  Ni  Ni6  1  0.29942700  0.50000000  0.40045400  1
  Ni  Ni7  1  0.50000000  0.50000000  0.00000000  1
  Ni  Ni8  1  0.20057300  0.00000000  0.59954600  1
  Ni  Ni9  1  0.79942700  0.00000000  0.40045400  1
  O  O10  1  0.40558500  0.50000000  0.20727100  1
  O  O11  1  0.00000000  0.50000000  0.00000000  1
  O  O12  1  0.70639200  0.00000000  0.60597700  1
  O  O13  1  0.59441500  0.50000000  0.79272900  1
  O  O14  1  0.29360800  0.00000000  0.39402300  1
  O  O15  1  0.90558500  0.00000000  0.20727100  1
  O  O16  1  0.50000000  0.00000000  0.00000000  1
  O  O17  1  0.20639200  0.50000000  0.60597700  1
  O  O18  1  0.09441500  0.00000000  0.79272900  1
  O  O19  1  0.79360800  0.50000000  0.39402300  1
