# generated using pymatgen
data_Cr3(FeO4)2
_symmetry_space_group_name_H-M   'P 1'
_cell_length_a   5.97929777
_cell_length_b   5.97929777
_cell_length_c   14.49918264
_cell_angle_alpha   90.00000000
_cell_angle_beta   90.00000000
_cell_angle_gamma   120.00000000
_symmetry_Int_Tables_number   1
_chemical_formula_structural   Cr3(FeO4)2
_chemical_formula_sum   'Cr9 Fe6 O24'
_cell_volume   448.92574910
_cell_formula_units_Z   3
loop_
 _symmetry_equiv_pos_site_id
 _symmetry_equiv_pos_as_xyz
  1  'x, y, z'
loop_
 _atom_site_type_symbol
 _atom_site_label
 _atom_site_symmetry_multiplicity
 _atom_site_fract_x
 _atom_site_fract_y
 _atom_site_fract_z
 _atom_site_occupancy
  Cr  Cr0  1  0.01106400  0.50553200  0.12764600  1
  Cr  Cr1  1  0.49446800  0.50553200  0.12764600  1
  Cr  Cr2  1  0.49446800  0.98893600  0.12764600  1
  Cr  Cr3  1  0.67773067  0.83886533  0.46097933  1
  Cr  Cr4  1  0.16113467  0.83886533  0.46097933  1
  Cr  Cr5  1  0.16113467  0.32226933  0.46097933  1
  Cr  Cr6  1  0.34439733  0.17219867  0.79431267  1
  Cr  Cr7  1  0.82780133  0.17219867  0.79431267  1
  Cr  Cr8  1  0.82780133  0.65560267  0.79431267  1
  Fe  Fe9  1  0.33333333  0.66666667  0.66849567  1
  Fe  Fe10  1  0.33333333  0.66666667  0.28858433  1
  Fe  Fe11  1  0.00000000  0.00000000  0.00182900  1
  Fe  Fe12  1  0.00000000  0.00000000  0.62191767  1
  Fe  Fe13  1  0.66666667  0.33333333  0.33516233  1
  Fe  Fe14  1  0.66666667  0.33333333  0.95525100  1
  O  O15  1  0.18342650  0.81657350  0.20014100  1
  O  O16  1  0.18342650  0.36685300  0.20014100  1
  O  O17  1  0.63314700  0.81657350  0.20014100  1
  O  O18  1  0.33333333  0.66666667  0.05822600  1
  O  O19  1  0.33333333  0.66666667  0.53438400  1
  O  O20  1  0.02020700  0.51010350  0.37787200  1
  O  O21  1  0.48989650  0.51010350  0.37787200  1
  O  O22  1  0.48989650  0.97979300  0.37787200  1
  O  O23  1  0.85009317  0.14990683  0.53347433  1
  O  O24  1  0.85009317  0.70018633  0.53347433  1
  O  O25  1  0.29981367  0.14990683  0.53347433  1
  O  O26  1  0.00000000  0.00000000  0.39155933  1
  O  O27  1  0.00000000  0.00000000  0.86771733  1
  O  O28  1  0.68687367  0.84343683  0.71120533  1
  O  O29  1  0.15656317  0.84343683  0.71120533  1
  O  O30  1  0.15656317  0.31312633  0.71120533  1
  O  O31  1  0.51675983  0.48324017  0.86680767  1
  O  O32  1  0.51675983  0.03351967  0.86680767  1
  O  O33  1  0.96648033  0.48324017  0.86680767  1
  O  O34  1  0.66666667  0.33333333  0.72489267  1
  O  O35  1  0.66666667  0.33333333  0.20105067  1
  O  O36  1  0.35354033  0.17677017  0.04453867  1
  O  O37  1  0.82322983  0.17677017  0.04453867  1
  O  O38  1  0.82322983  0.64645967  0.04453867  1
