# generated using pymatgen
data_Li6Ti9O20
_symmetry_space_group_name_H-M   'P 1'
_cell_length_a   10.34596400
_cell_length_b   5.97524000
_cell_length_c   24.69447778
_cell_angle_alpha   90.00000000
_cell_angle_beta   97.96660196
_cell_angle_gamma   90.00000000
_symmetry_Int_Tables_number   1
_chemical_formula_structural   Li6Ti9O20
_chemical_formula_sum   'Li24 Ti36 O80'
_cell_volume   1511.86997271
_cell_formula_units_Z   4
loop_
 _symmetry_equiv_pos_site_id
 _symmetry_equiv_pos_as_xyz
  1  'x, y, z'
loop_
 _atom_site_type_symbol
 _atom_site_label
 _atom_site_symmetry_multiplicity
 _atom_site_fract_x
 _atom_site_fract_y
 _atom_site_fract_z
 _atom_site_occupancy
  Li  Li0  1  0.97135300  0.00000000  0.92593500  1
  Li  Li1  1  0.22441100  0.00000000  0.67397900  1
  Li  Li2  1  0.63067900  0.00000000  0.87766600  1
  Li  Li3  1  0.17568200  0.00000000  0.52665300  1
  Li  Li4  1  0.57297200  0.00000000  0.72527200  1
  Li  Li5  1  0.50000000  0.00000000  0.50000000  1
  Li  Li6  1  0.82431800  0.00000000  0.47334700  1
  Li  Li7  1  0.42702800  0.00000000  0.27472800  1
  Li  Li8  1  0.02864700  0.00000000  0.07406500  1
  Li  Li9  1  0.77558900  0.00000000  0.32602100  1
  Li  Li10  1  0.36932100  0.00000000  0.12233400  1
  Li  Li11  1  0.50000000  0.00000000  0.00000000  1
  Li  Li12  1  0.47135300  0.50000000  0.92593500  1
  Li  Li13  1  0.72441100  0.50000000  0.67397900  1
  Li  Li14  1  0.13067900  0.50000000  0.87766600  1
  Li  Li15  1  0.67568200  0.50000000  0.52665300  1
  Li  Li16  1  0.07297200  0.50000000  0.72527200  1
  Li  Li17  1  0.00000000  0.50000000  0.50000000  1
  Li  Li18  1  0.32431800  0.50000000  0.47334700  1
  Li  Li19  1  0.92702800  0.50000000  0.27472800  1
  Li  Li20  1  0.52864700  0.50000000  0.07406500  1
  Li  Li21  1  0.27558900  0.50000000  0.32602100  1
  Li  Li22  1  0.86932100  0.50000000  0.12233400  1
  Li  Li23  1  0.00000000  0.50000000  0.00000000  1
  Ti  Ti24  1  0.34696650  0.25133050  0.79933200  1
  Ti  Ti25  1  0.31236600  0.00000000  0.90402800  1
  Ti  Ti26  1  0.10099200  0.00000000  0.80123700  1
  Ti  Ti27  1  0.34696650  0.74866950  0.79933200  1
  Ti  Ti28  1  0.69577000  0.00000000  0.59782400  1
  Ti  Ti29  1  0.44947550  0.24308250  0.59782600  1
  Ti  Ti30  1  0.55052450  0.24308250  0.40217400  1
  Ti  Ti31  1  0.09808000  0.00000000  0.30172200  1
  Ti  Ti32  1  0.90192000  0.00000000  0.69827800  1
  Ti  Ti33  1  0.44947550  0.75691750  0.59782600  1
  Ti  Ti34  1  0.55052450  0.75691750  0.40217400  1
  Ti  Ti35  1  0.30423000  0.00000000  0.40217600  1
  Ti  Ti36  1  0.25000000  0.25000000  0.00000000  1
  Ti  Ti37  1  0.89900800  0.00000000  0.19876300  1
  Ti  Ti38  1  0.65303350  0.25133050  0.20066800  1
  Ti  Ti39  1  0.65303350  0.74866950  0.20066800  1
  Ti  Ti40  1  0.68763400  0.00000000  0.09597200  1
  Ti  Ti41  1  0.25000000  0.75000000  0.00000000  1
  Ti  Ti42  1  0.84696650  0.75133050  0.79933200  1
  Ti  Ti43  1  0.81236600  0.50000000  0.90402800  1
  Ti  Ti44  1  0.60099200  0.50000000  0.80123700  1
  Ti  Ti45  1  0.84696650  0.24866950  0.79933200  1
  Ti  Ti46  1  0.19577000  0.50000000  0.59782400  1
  Ti  Ti47  1  0.94947550  0.74308250  0.59782600  1
  Ti  Ti48  1  0.05052450  0.74308250  0.40217400  1
  Ti  Ti49  1  0.59808000  0.50000000  0.30172200  1
  Ti  Ti50  1  0.40192000  0.50000000  0.69827800  1
  Ti  Ti51  1  0.94947550  0.25691750  0.59782600  1
  Ti  Ti52  1  0.05052450  0.25691750  0.40217400  1
  Ti  Ti53  1  0.80423000  0.50000000  0.40217600  1
  Ti  Ti54  1  0.75000000  0.75000000  0.00000000  1
  Ti  Ti55  1  0.39900800  0.50000000  0.19876300  1
  Ti  Ti56  1  0.15303350  0.75133050  0.20066800  1
  Ti  Ti57  1  0.15303350  0.24866950  0.20066800  1
  Ti  Ti58  1  0.18763400  0.50000000  0.09597200  1
  Ti  Ti59  1  0.75000000  0.25000000  0.00000000  1
  O  O60  1  0.70701750  0.72298850  0.84601700  1
  O  O61  1  0.43279400  0.00000000  0.84714700  1
  O  O62  1  0.30991050  0.27689850  0.64838000  1
  O  O63  1  0.70701750  0.27701150  0.84601700  1
  O  O64  1  0.25237200  0.00000000  0.75693100  1
  O  O65  1  0.49213300  0.27616200  0.75233800  1
  O  O66  1  0.76726600  0.00000000  0.75209400  1
  O  O67  1  0.30991050  0.72310150  0.64838000  1
  O  O68  1  0.03109100  0.00000000  0.64786100  1
  O  O69  1  0.59672250  0.23121650  0.55735700  1
  O  O70  1  0.94671400  0.00000000  0.84189500  1
  O  O71  1  0.54781100  0.00000000  0.64300400  1
  O  O72  1  0.49213300  0.72383800  0.75233800  1
  O  O73  1  0.14775700  0.00000000  0.44330500  1
  O  O74  1  0.59672250  0.76878350  0.55735700  1
  O  O75  1  0.36447600  0.00000000  0.55772800  1
  O  O76  1  0.40327750  0.23121650  0.44264300  1
  O  O77  1  0.63552400  0.00000000  0.44227200  1
  O  O78  1  0.50786700  0.27616200  0.24766200  1
  O  O79  1  0.40327750  0.76878350  0.44264300  1
  O  O80  1  0.45218900  0.00000000  0.35699600  1
  O  O81  1  0.85224300  0.00000000  0.55669500  1
  O  O82  1  0.05328600  0.00000000  0.15810500  1
  O  O83  1  0.96890900  0.00000000  0.35213900  1
  O  O84  1  0.69008950  0.27689850  0.35162000  1
  O  O85  1  0.56720600  0.00000000  0.15285300  1
  O  O86  1  0.29298250  0.27701150  0.15398300  1
  O  O87  1  0.50786700  0.72383800  0.24766200  1
  O  O88  1  0.23273400  0.00000000  0.24790600  1
  O  O89  1  0.74762800  0.00000000  0.24306900  1
  O  O90  1  0.33616800  0.00000000  0.04067200  1
  O  O91  1  0.38268100  0.22981100  0.94895400  1
  O  O92  1  0.29298250  0.72298850  0.15398300  1
  O  O93  1  0.69008950  0.72310150  0.35162000  1
  O  O94  1  0.38268100  0.77018900  0.94895400  1
  O  O95  1  0.16547800  0.00000000  0.95148100  1
  O  O96  1  0.83452200  0.00000000  0.04851900  1
  O  O97  1  0.61731900  0.22981100  0.05104600  1
  O  O98  1  0.61731900  0.77018900  0.05104600  1
  O  O99  1  0.66383200  0.00000000  0.95932800  1
  O  O100  1  0.20701750  0.22298850  0.84601700  1
  O  O101  1  0.93279400  0.50000000  0.84714700  1
  O  O102  1  0.80991050  0.77689850  0.64838000  1
  O  O103  1  0.20701750  0.77701150  0.84601700  1
  O  O104  1  0.75237200  0.50000000  0.75693100  1
  O  O105  1  0.99213300  0.77616200  0.75233800  1
  O  O106  1  0.26726600  0.50000000  0.75209400  1
  O  O107  1  0.80991050  0.22310150  0.64838000  1
  O  O108  1  0.53109100  0.50000000  0.64786100  1
  O  O109  1  0.09672250  0.73121650  0.55735700  1
  O  O110  1  0.44671400  0.50000000  0.84189500  1
  O  O111  1  0.04781100  0.50000000  0.64300400  1
  O  O112  1  0.99213300  0.22383800  0.75233800  1
  O  O113  1  0.64775700  0.50000000  0.44330500  1
  O  O114  1  0.09672250  0.26878350  0.55735700  1
  O  O115  1  0.86447600  0.50000000  0.55772800  1
  O  O116  1  0.90327750  0.73121650  0.44264300  1
  O  O117  1  0.13552400  0.50000000  0.44227200  1
  O  O118  1  0.00786700  0.77616200  0.24766200  1
  O  O119  1  0.90327750  0.26878350  0.44264300  1
  O  O120  1  0.95218900  0.50000000  0.35699600  1
  O  O121  1  0.35224300  0.50000000  0.55669500  1
  O  O122  1  0.55328600  0.50000000  0.15810500  1
  O  O123  1  0.46890900  0.50000000  0.35213900  1
  O  O124  1  0.19008950  0.77689850  0.35162000  1
  O  O125  1  0.06720600  0.50000000  0.15285300  1
  O  O126  1  0.79298250  0.77701150  0.15398300  1
  O  O127  1  0.00786700  0.22383800  0.24766200  1
  O  O128  1  0.73273400  0.50000000  0.24790600  1
  O  O129  1  0.24762800  0.50000000  0.24306900  1
  O  O130  1  0.83616800  0.50000000  0.04067200  1
  O  O131  1  0.88268100  0.72981100  0.94895400  1
  O  O132  1  0.79298250  0.22298850  0.15398300  1
  O  O133  1  0.19008950  0.22310150  0.35162000  1
  O  O134  1  0.88268100  0.27018900  0.94895400  1
  O  O135  1  0.66547800  0.50000000  0.95148100  1
  O  O136  1  0.33452200  0.50000000  0.04851900  1
  O  O137  1  0.11731900  0.72981100  0.05104600  1
  O  O138  1  0.11731900  0.27018900  0.05104600  1
  O  O139  1  0.16383200  0.50000000  0.95932800  1
