# generated using pymatgen
data_Li32Mn5Cr11O48
_symmetry_space_group_name_H-M   'P 1'
_cell_length_a   5.04016000
_cell_length_b   8.68823800
_cell_length_c   38.48053647
_cell_angle_alpha   90.00000000
_cell_angle_beta   92.09673466
_cell_angle_gamma   90.00000000
_symmetry_Int_Tables_number   1
_chemical_formula_structural   Li32Mn5Cr11O48
_chemical_formula_sum   'Li64 Mn10 Cr22 O96'
_cell_volume   1683.93872578
_cell_formula_units_Z   2
loop_
 _symmetry_equiv_pos_site_id
 _symmetry_equiv_pos_as_xyz
  1  'x, y, z'
loop_
 _atom_site_type_symbol
 _atom_site_label
 _atom_site_symmetry_multiplicity
 _atom_site_fract_x
 _atom_site_fract_y
 _atom_site_fract_z
 _atom_site_occupancy
  Li  Li0  1  0.18993850  0.90162050  0.56257900  1
  Li  Li1  1  0.43800600  0.06174800  0.81231500  1
  Li  Li2  1  0.37594000  0.06075100  0.62502800  1
  Li  Li3  1  0.31386650  0.06033750  0.43745000  1
  Li  Li4  1  0.24893150  0.06363350  0.25007400  1
  Li  Li5  1  0.18945350  0.06493150  0.06229700  1
  Li  Li6  1  0.12517100  0.06246100  0.87502500  1
  Li  Li7  1  0.56646900  0.22544100  0.68758800  1
  Li  Li8  1  0.06185050  0.05962050  0.68752700  1
  Li  Li9  1  0.43353100  0.22544100  0.31241200  1
  Li  Li10  1  0.31558850  0.22208650  0.93773400  1
  Li  Li11  1  0.50000000  0.56300400  0.50000000  1
  Li  Li12  1  0.93814950  0.05962050  0.31247300  1
  Li  Li13  1  0.68704400  0.72527300  0.56246900  1
  Li  Li14  1  0.56618400  0.72248900  0.18777400  1
  Li  Li15  1  0.56022900  0.40253900  0.18754900  1
  Li  Li16  1  0.43977100  0.40253900  0.81245100  1
  Li  Li17  1  0.43381600  0.72248900  0.81222600  1
  Li  Li18  1  0.31295600  0.72527300  0.43753100  1
  Li  Li19  1  0.81006150  0.90162050  0.43742100  1
  Li  Li20  1  0.68759800  0.90063900  0.06235400  1
  Li  Li21  1  0.87482900  0.06246100  0.12497500  1
  Li  Li22  1  0.55856150  0.90191650  0.68745100  1
  Li  Li23  1  0.44143850  0.90191650  0.31254900  1
  Li  Li24  1  0.81054650  0.06493150  0.93770300  1
  Li  Li25  1  0.31240200  0.90063900  0.93764600  1
  Li  Li26  1  0.75106850  0.06363350  0.74992600  1
  Li  Li27  1  0.68613350  0.06033750  0.56255000  1
  Li  Li28  1  0.62406000  0.06075100  0.37497200  1
  Li  Li29  1  0.56199400  0.06174800  0.18768500  1
  Li  Li30  1  0.50000000  0.06429800  0.00000000  1
  Li  Li31  1  0.68441150  0.22208650  0.06226600  1
  Li  Li32  1  0.68993850  0.40162050  0.56257900  1
  Li  Li33  1  0.93800600  0.56174800  0.81231500  1
  Li  Li34  1  0.87594000  0.56075100  0.62502800  1
  Li  Li35  1  0.81386650  0.56033750  0.43745000  1
  Li  Li36  1  0.74893150  0.56363350  0.25007400  1
  Li  Li37  1  0.68945350  0.56493150  0.06229700  1
  Li  Li38  1  0.62517100  0.56246100  0.87502500  1
  Li  Li39  1  0.06646900  0.72544100  0.68758800  1
  Li  Li40  1  0.56185050  0.55962050  0.68752700  1
  Li  Li41  1  0.93353100  0.72544100  0.31241200  1
  Li  Li42  1  0.81558850  0.72208650  0.93773400  1
  Li  Li43  1  0.00000000  0.06300400  0.50000000  1
  Li  Li44  1  0.43814950  0.55962050  0.31247300  1
  Li  Li45  1  0.18704400  0.22527300  0.56246900  1
  Li  Li46  1  0.06618400  0.22248900  0.18777400  1
  Li  Li47  1  0.06022900  0.90253900  0.18754900  1
  Li  Li48  1  0.93977100  0.90253900  0.81245100  1
  Li  Li49  1  0.93381600  0.22248900  0.81222600  1
  Li  Li50  1  0.81295600  0.22527300  0.43753100  1
  Li  Li51  1  0.31006150  0.40162050  0.43742100  1
  Li  Li52  1  0.18759800  0.40063900  0.06235400  1
  Li  Li53  1  0.37482900  0.56246100  0.12497500  1
  Li  Li54  1  0.05856150  0.40191650  0.68745100  1
  Li  Li55  1  0.94143850  0.40191650  0.31254900  1
  Li  Li56  1  0.31054650  0.56493150  0.93770300  1
  Li  Li57  1  0.81240200  0.40063900  0.93764600  1
  Li  Li58  1  0.25106850  0.56363350  0.74992600  1
  Li  Li59  1  0.18613350  0.56033750  0.56255000  1
  Li  Li60  1  0.12406000  0.56075100  0.37497200  1
  Li  Li61  1  0.06199400  0.56174800  0.18768500  1
  Li  Li62  1  0.00000000  0.56429800  0.00000000  1
  Li  Li63  1  0.18441150  0.72208650  0.06226600  1
  Mn  Mn64  1  0.25029000  0.89568900  0.75001900  1
  Mn  Mn65  1  0.12515950  0.89471550  0.37509300  1
  Mn  Mn66  1  0.50000000  0.73030000  0.00000000  1
  Mn  Mn67  1  0.87484050  0.89471550  0.62490700  1
  Mn  Mn68  1  0.74971000  0.89568900  0.24998100  1
  Mn  Mn69  1  0.75029000  0.39568900  0.75001900  1
  Mn  Mn70  1  0.62515950  0.39471550  0.37509300  1
  Mn  Mn71  1  0.00000000  0.23030000  0.00000000  1
  Mn  Mn72  1  0.37484050  0.39471550  0.62490700  1
  Mn  Mn73  1  0.24971000  0.39568900  0.24998100  1
  Cr  Cr74  1  0.50000000  0.22859200  0.50000000  1
  Cr  Cr75  1  0.37489350  0.23324850  0.12504600  1
  Cr  Cr76  1  0.25145850  0.23268450  0.74996400  1
  Cr  Cr77  1  0.62342650  0.72693350  0.37506100  1
  Cr  Cr78  1  0.50000000  0.39810900  0.00000000  1
  Cr  Cr79  1  0.37657350  0.72693350  0.62493900  1
  Cr  Cr80  1  0.62518100  0.89149900  0.87503100  1
  Cr  Cr81  1  0.50000000  0.89678400  0.50000000  1
  Cr  Cr82  1  0.37481900  0.89149900  0.12496900  1
  Cr  Cr83  1  0.74854150  0.23268450  0.25003600  1
  Cr  Cr84  1  0.62510650  0.23324850  0.87495400  1
  Cr  Cr85  1  0.00000000  0.72859200  0.50000000  1
  Cr  Cr86  1  0.87489350  0.73324850  0.12504600  1
  Cr  Cr87  1  0.75145850  0.73268450  0.74996400  1
  Cr  Cr88  1  0.12342650  0.22693350  0.37506100  1
  Cr  Cr89  1  0.00000000  0.89810900  0.00000000  1
  Cr  Cr90  1  0.87657350  0.22693350  0.62493900  1
  Cr  Cr91  1  0.12518100  0.39149900  0.87503100  1
  Cr  Cr92  1  0.00000000  0.39678400  0.50000000  1
  Cr  Cr93  1  0.87481900  0.39149900  0.12496900  1
  Cr  Cr94  1  0.24854150  0.73268450  0.25003600  1
  Cr  Cr95  1  0.12510650  0.73324850  0.87495400  1
  O  O96  1  0.17734400  0.88453900  0.47197900  1
  O  O97  1  0.20176950  0.88506950  0.65304800  1
  O  O98  1  0.36610450  0.06277150  0.52881600  1
  O  O99  1  0.24351050  0.06247050  0.15348000  1
  O  O100  1  0.38015800  0.06308200  0.72162000  1
  O  O101  1  0.25895050  0.06051650  0.34640400  1
  O  O102  1  0.13335850  0.06382950  0.97149500  1
  O  O103  1  0.11676750  0.06162550  0.77854900  1
  O  O104  1  0.49272700  0.56181900  0.40357300  1
  O  O105  1  0.54919250  0.24291850  0.59708300  1
  O  O106  1  0.50727300  0.56181900  0.59642700  1
  O  O107  1  0.41603300  0.24173300  0.22188400  1
  O  O108  1  0.28743700  0.24471100  0.84660200  1
  O  O109  1  0.58396700  0.24173300  0.77811600  1
  O  O110  1  0.45080750  0.24291850  0.40291700  1
  O  O111  1  0.32644050  0.23949950  0.02812500  1
  O  O112  1  0.53713950  0.38013450  0.09657300  1
  O  O113  1  0.57869300  0.38266700  0.27787700  1
  O  O114  1  0.46286050  0.38013450  0.90342700  1
  O  O115  1  0.67728500  0.74069500  0.47187300  1
  O  O116  1  0.53714650  0.74425150  0.09668400  1
  O  O117  1  0.69974300  0.74312200  0.65286200  1
  O  O118  1  0.58509850  0.74213650  0.27823200  1
  O  O119  1  0.46285350  0.74425150  0.90331600  1
  O  O120  1  0.42130700  0.38266700  0.72212300  1
  O  O121  1  0.79823050  0.88506950  0.34695200  1
  O  O122  1  0.67499400  0.88214200  0.97216500  1
  O  O123  1  0.82265600  0.88453900  0.52802100  1
  O  O124  1  0.71251400  0.88053000  0.15332900  1
  O  O125  1  0.41490150  0.74213650  0.72176800  1
  O  O126  1  0.30025700  0.74312200  0.34713800  1
  O  O127  1  0.32271500  0.74069500  0.52812700  1
  O  O128  1  0.54859400  0.88564400  0.59673600  1
  O  O129  1  0.42138900  0.88108900  0.22209400  1
  O  O130  1  0.28748600  0.88053000  0.84667100  1
  O  O131  1  0.57861100  0.88108900  0.77790600  1
  O  O132  1  0.45140600  0.88564400  0.40326400  1
  O  O133  1  0.86664150  0.06382950  0.02850500  1
  O  O134  1  0.32500600  0.88214200  0.02783500  1
  O  O135  1  0.88323250  0.06162550  0.22145100  1
  O  O136  1  0.75648950  0.06247050  0.84652000  1
  O  O137  1  0.74104950  0.06051650  0.65359600  1
  O  O138  1  0.61984200  0.06308200  0.27838000  1
  O  O139  1  0.49305350  0.06221850  0.90349500  1
  O  O140  1  0.63389550  0.06277150  0.47118400  1
  O  O141  1  0.50694650  0.06221850  0.09650500  1
  O  O142  1  0.67355950  0.23949950  0.97187500  1
  O  O143  1  0.71256300  0.24471100  0.15339800  1
  O  O144  1  0.67734400  0.38453900  0.47197900  1
  O  O145  1  0.70176950  0.38506950  0.65304800  1
  O  O146  1  0.86610450  0.56277150  0.52881600  1
  O  O147  1  0.74351050  0.56247050  0.15348000  1
  O  O148  1  0.88015800  0.56308200  0.72162000  1
  O  O149  1  0.75895050  0.56051650  0.34640400  1
  O  O150  1  0.63335850  0.56382950  0.97149500  1
  O  O151  1  0.61676750  0.56162550  0.77854900  1
  O  O152  1  0.99272700  0.06181900  0.40357300  1
  O  O153  1  0.04919250  0.74291850  0.59708300  1
  O  O154  1  0.00727300  0.06181900  0.59642700  1
  O  O155  1  0.91603300  0.74173300  0.22188400  1
  O  O156  1  0.78743700  0.74471100  0.84660200  1
  O  O157  1  0.08396700  0.74173300  0.77811600  1
  O  O158  1  0.95080750  0.74291850  0.40291700  1
  O  O159  1  0.82644050  0.73949950  0.02812500  1
  O  O160  1  0.03713950  0.88013450  0.09657300  1
  O  O161  1  0.07869300  0.88266700  0.27787700  1
  O  O162  1  0.96286050  0.88013450  0.90342700  1
  O  O163  1  0.17728500  0.24069500  0.47187300  1
  O  O164  1  0.03714650  0.24425150  0.09668400  1
  O  O165  1  0.19974300  0.24312200  0.65286200  1
  O  O166  1  0.08509850  0.24213650  0.27823200  1
  O  O167  1  0.96285350  0.24425150  0.90331600  1
  O  O168  1  0.92130700  0.88266700  0.72212300  1
  O  O169  1  0.29823050  0.38506950  0.34695200  1
  O  O170  1  0.17499400  0.38214200  0.97216500  1
  O  O171  1  0.32265600  0.38453900  0.52802100  1
  O  O172  1  0.21251400  0.38053000  0.15332900  1
  O  O173  1  0.91490150  0.24213650  0.72176800  1
  O  O174  1  0.80025700  0.24312200  0.34713800  1
  O  O175  1  0.82271500  0.24069500  0.52812700  1
  O  O176  1  0.04859400  0.38564400  0.59673600  1
  O  O177  1  0.92138900  0.38108900  0.22209400  1
  O  O178  1  0.78748600  0.38053000  0.84667100  1
  O  O179  1  0.07861100  0.38108900  0.77790600  1
  O  O180  1  0.95140600  0.38564400  0.40326400  1
  O  O181  1  0.36664150  0.56382950  0.02850500  1
  O  O182  1  0.82500600  0.38214200  0.02783500  1
  O  O183  1  0.38323250  0.56162550  0.22145100  1
  O  O184  1  0.25648950  0.56247050  0.84652000  1
  O  O185  1  0.24104950  0.56051650  0.65359600  1
  O  O186  1  0.11984200  0.56308200  0.27838000  1
  O  O187  1  0.99305350  0.56221850  0.90349500  1
  O  O188  1  0.13389550  0.56277150  0.47118400  1
  O  O189  1  0.00694650  0.56221850  0.09650500  1
  O  O190  1  0.17355950  0.73949950  0.97187500  1
  O  O191  1  0.21256300  0.74471100  0.15339800  1
