# generated using pymatgen
data_Fe2O3F
_symmetry_space_group_name_H-M   'P 1'
_cell_length_a   6.40663200
_cell_length_b   6.90551400
_cell_length_c   3.01467600
_cell_angle_alpha   90.00000000
_cell_angle_beta   90.00000000
_cell_angle_gamma   90.00000000
_symmetry_Int_Tables_number   1
_chemical_formula_structural   Fe2O3F
_chemical_formula_sum   'Fe4 O6 F2'
_cell_volume   133.37254310
_cell_formula_units_Z   2
loop_
 _symmetry_equiv_pos_site_id
 _symmetry_equiv_pos_as_xyz
  1  'x, y, z'
loop_
 _atom_site_type_symbol
 _atom_site_label
 _atom_site_symmetry_multiplicity
 _atom_site_fract_x
 _atom_site_fract_y
 _atom_site_fract_z
 _atom_site_occupancy
  Fe  Fe0  1  0.50000000  0.48200400  0.00000000  1
  Fe  Fe1  1  0.50000000  0.01943900  0.50000000  1
  Fe  Fe2  1  0.00000000  0.98200400  0.00000000  1
  Fe  Fe3  1  0.00000000  0.51943900  0.50000000  1
  O  O4  1  0.50000000  0.30758200  0.50000000  1
  O  O5  1  0.30741150  0.00031050  0.00000000  1
  O  O6  1  0.69258850  0.00031050  0.00000000  1
  O  O7  1  0.00000000  0.80758200  0.50000000  1
  O  O8  1  0.80741150  0.50031050  0.00000000  1
  O  O9  1  0.19258850  0.50031050  0.00000000  1
  F  F10  1  0.50000000  0.69035300  0.50000000  1
  F  F11  1  0.00000000  0.19035300  0.50000000  1
