# generated using pymatgen
data_Li5V5(NiO6)2
_symmetry_space_group_name_H-M   'P 1'
_cell_length_a   5.18521400
_cell_length_b   8.94648000
_cell_length_c   9.89492632
_cell_angle_alpha   90.00000000
_cell_angle_beta   99.73965459
_cell_angle_gamma   90.00000000
_symmetry_Int_Tables_number   1
_chemical_formula_structural   Li5V5(NiO6)2
_chemical_formula_sum   'Li10 V10 Ni4 O24'
_cell_volume   452.40380051
_cell_formula_units_Z   2
loop_
 _symmetry_equiv_pos_site_id
 _symmetry_equiv_pos_as_xyz
  1  'x, y, z'
loop_
 _atom_site_type_symbol
 _atom_site_label
 _atom_site_symmetry_multiplicity
 _atom_site_fract_x
 _atom_site_fract_y
 _atom_site_fract_z
 _atom_site_occupancy
  Li  Li0  1  0.25059950  0.91188250  0.26305000  1
  Li  Li1  1  0.22818050  0.08340350  0.73668100  1
  Li  Li2  1  0.74940050  0.91188250  0.73695000  1
  Li  Li3  1  0.77181950  0.08340350  0.26331900  1
  Li  Li4  1  0.50000000  0.42123000  0.50000000  1
  Li  Li5  1  0.75059950  0.41188250  0.26305000  1
  Li  Li6  1  0.72818050  0.58340350  0.73668100  1
  Li  Li7  1  0.24940050  0.41188250  0.73695000  1
  Li  Li8  1  0.27181950  0.58340350  0.26331900  1
  Li  Li9  1  0.00000000  0.92123000  0.50000000  1
  V  V10  1  0.50000000  0.92302200  0.00000000  1
  V  V11  1  0.50000000  0.07464700  0.50000000  1
  V  V12  1  0.50000000  0.58403800  0.00000000  1
  V  V13  1  0.74109850  0.25550750  0.74026300  1
  V  V14  1  0.25890150  0.25550750  0.25973700  1
  V  V15  1  0.00000000  0.42302200  0.00000000  1
  V  V16  1  0.00000000  0.57464700  0.50000000  1
  V  V17  1  0.00000000  0.08403800  0.00000000  1
  V  V18  1  0.24109850  0.75550750  0.74026300  1
  V  V19  1  0.75890150  0.75550750  0.25973700  1
  Ni  Ni20  1  0.50000000  0.74660000  0.50000000  1
  Ni  Ni21  1  0.50000000  0.25371100  0.00000000  1
  Ni  Ni22  1  0.00000000  0.24660000  0.50000000  1
  Ni  Ni23  1  0.00000000  0.75371100  0.00000000  1
  O  O24  1  0.85790650  0.08693150  0.62075800  1
  O  O25  1  0.14209350  0.08693150  0.37924200  1
  O  O26  1  0.39628700  0.75386300  0.12194300  1
  O  O27  1  0.60371300  0.75386300  0.87805700  1
  O  O28  1  0.37487000  0.90948200  0.62528800  1
  O  O29  1  0.62513000  0.90948200  0.37471200  1
  O  O30  1  0.35935750  0.08912050  0.11713100  1
  O  O31  1  0.64064250  0.08912050  0.88286900  1
  O  O32  1  0.39168200  0.23918300  0.62791200  1
  O  O33  1  0.60831800  0.23918300  0.37208800  1
  O  O34  1  0.86445550  0.91900250  0.11739000  1
  O  O35  1  0.13554450  0.91900250  0.88261000  1
  O  O36  1  0.35790650  0.58693150  0.62075800  1
  O  O37  1  0.64209350  0.58693150  0.37924200  1
  O  O38  1  0.89628700  0.25386300  0.12194300  1
  O  O39  1  0.10371300  0.25386300  0.87805700  1
  O  O40  1  0.87487000  0.40948200  0.62528800  1
  O  O41  1  0.12513000  0.40948200  0.37471200  1
  O  O42  1  0.85935750  0.58912050  0.11713100  1
  O  O43  1  0.14064250  0.58912050  0.88286900  1
  O  O44  1  0.89168200  0.73918300  0.62791200  1
  O  O45  1  0.10831800  0.73918300  0.37208800  1
  O  O46  1  0.36445550  0.41900250  0.11739000  1
  O  O47  1  0.63554450  0.41900250  0.88261000  1
