# generated using pymatgen
data_MnSb3(PO4)6
_symmetry_space_group_name_H-M   'P 1'
_cell_length_a   8.63176640
_cell_length_b   8.63176640
_cell_length_c   22.11725505
_cell_angle_alpha   90.00000000
_cell_angle_beta   90.00000000
_cell_angle_gamma   120.00000000
_symmetry_Int_Tables_number   1
_chemical_formula_structural   MnSb3(PO4)6
_chemical_formula_sum   'Mn3 Sb9 P18 O72'
_cell_volume   1427.12237540
_cell_formula_units_Z   3
loop_
 _symmetry_equiv_pos_site_id
 _symmetry_equiv_pos_as_xyz
  1  'x, y, z'
loop_
 _atom_site_type_symbol
 _atom_site_label
 _atom_site_symmetry_multiplicity
 _atom_site_fract_x
 _atom_site_fract_y
 _atom_site_fract_z
 _atom_site_occupancy
  Mn  Mn0  1  0.00000000  0.00000000  0.14324100  1
  Mn  Mn1  1  0.66666667  0.33333333  0.47657433  1
  Mn  Mn2  1  0.33333333  0.66666667  0.80990767  1
  Sb  Sb3  1  0.66666667  0.33333333  0.19005833  1
  Sb  Sb4  1  0.33333333  0.66666667  0.31017167  1
  Sb  Sb5  1  0.33333333  0.66666667  0.02314867  1
  Sb  Sb6  1  0.33333333  0.66666667  0.52339167  1
  Sb  Sb7  1  0.00000000  0.00000000  0.64350500  1
  Sb  Sb8  1  0.00000000  0.00000000  0.35648200  1
  Sb  Sb9  1  0.00000000  0.00000000  0.85672500  1
  Sb  Sb10  1  0.66666667  0.33333333  0.97683833  1
  Sb  Sb11  1  0.66666667  0.33333333  0.68981533  1
  P  P12  1  0.00029000  0.28567900  0.24852100  1
  P  P13  1  0.71432100  0.71461100  0.24852100  1
  P  P14  1  0.28538900  0.99971000  0.24852100  1
  P  P15  1  0.37419900  0.32962300  0.08349200  1
  P  P16  1  0.95542400  0.62580100  0.08349200  1
  P  P17  1  0.67037700  0.04457600  0.08349200  1
  P  P18  1  0.66695667  0.61901233  0.58185433  1
  P  P19  1  0.38098767  0.04794433  0.58185433  1
  P  P20  1  0.95205567  0.33304333  0.58185433  1
  P  P21  1  0.04086567  0.66295633  0.41682533  1
  P  P22  1  0.62209067  0.95913433  0.41682533  1
  P  P23  1  0.33704367  0.37790933  0.41682533  1
  P  P24  1  0.33362333  0.95234567  0.91518767  1
  P  P25  1  0.04765433  0.38127767  0.91518767  1
  P  P26  1  0.61872233  0.66637667  0.91518767  1
  P  P27  1  0.70753233  0.99628967  0.75015867  1
  P  P28  1  0.28875733  0.29246767  0.75015867  1
  P  P29  1  0.00371033  0.71124267  0.75015867  1
  O  O30  1  0.69691633  0.15875367  0.02580667  1
  O  O31  1  0.46183733  0.30308367  0.02580667  1
  O  O32  1  0.83036433  0.30517967  0.24560867  1
  O  O33  1  0.84124633  0.53816267  0.02580667  1
  O  O34  1  0.16855833  0.47407767  0.25540067  1
  O  O35  1  0.03138633  0.20548867  0.19293967  1
  O  O36  1  0.69482033  0.52518467  0.24560867  1
  O  O37  1  0.52592233  0.69448067  0.25540067  1
  O  O38  1  0.30551933  0.83144167  0.25540067  1
  O  O39  1  0.49549633  0.36886167  0.14047367  1
  O  O40  1  0.19476633  0.16540067  0.08830467  1
  O  O41  1  0.87336533  0.50450367  0.14047367  1
  O  O42  1  0.79451133  0.82589767  0.19293967  1
  O  O43  1  0.47481533  0.16963567  0.24560867  1
  O  O44  1  0.17410233  0.96861367  0.19293967  1
  O  O45  1  0.36579367  0.50539733  0.07819333  1
  O  O46  1  0.13960367  0.63420633  0.07819333  1
  O  O47  1  0.97063433  0.80523367  0.08830467  1
  O  O48  1  0.63113833  0.12663467  0.14047367  1
  O  O49  1  0.49460267  0.86039633  0.07819333  1
  O  O50  1  0.82462667  0.79187033  0.30794233  1
  O  O51  1  0.83459933  0.02936567  0.08830467  1
  O  O52  1  0.20812967  0.03275633  0.30794233  1
  O  O53  1  0.96724367  0.17537333  0.30794233  1
  O  O54  1  0.36358300  0.49208700  0.35914000  1
  O  O55  1  0.12850400  0.63641700  0.35914000  1
  O  O56  1  0.49703100  0.63851300  0.57894200  1
  O  O57  1  0.50791300  0.87149600  0.35914000  1
  O  O58  1  0.83522500  0.80741100  0.58873400  1
  O  O59  1  0.69805300  0.53882200  0.52627300  1
  O  O60  1  0.36148700  0.85851800  0.57894200  1
  O  O61  1  0.19258900  0.02781400  0.58873400  1
  O  O62  1  0.97218600  0.16477500  0.58873400  1
  O  O63  1  0.16216300  0.70219500  0.47380700  1
  O  O64  1  0.86143300  0.49873400  0.42163800  1
  O  O65  1  0.54003200  0.83783700  0.47380700  1
  O  O66  1  0.46117800  0.15923100  0.52627300  1
  O  O67  1  0.14148200  0.50296900  0.57894200  1
  O  O68  1  0.84076900  0.30194700  0.52627300  1
  O  O69  1  0.03246033  0.83873067  0.41152667  1
  O  O70  1  0.80627033  0.96753967  0.41152667  1
  O  O71  1  0.63730100  0.13856700  0.42163800  1
  O  O72  1  0.29780500  0.45996800  0.47380700  1
  O  O73  1  0.16126933  0.19372967  0.41152667  1
  O  O74  1  0.49129333  0.12520367  0.64127567  1
  O  O75  1  0.50126600  0.36269900  0.42163800  1
  O  O76  1  0.87479633  0.36608967  0.64127567  1
  O  O77  1  0.63391033  0.50870667  0.64127567  1
  O  O78  1  0.03024967  0.82542033  0.69247333  1
  O  O79  1  0.79517067  0.96975033  0.69247333  1
  O  O80  1  0.16369767  0.97184633  0.91227533  1
  O  O81  1  0.17457967  0.20482933  0.69247333  1
  O  O82  1  0.50189167  0.14074433  0.92206733  1
  O  O83  1  0.36471967  0.87215533  0.85960633  1
  O  O84  1  0.02815367  0.19185133  0.91227533  1
  O  O85  1  0.85925567  0.36114733  0.92206733  1
  O  O86  1  0.63885267  0.49810833  0.92206733  1
  O  O87  1  0.82882967  0.03552833  0.80714033  1
  O  O88  1  0.52809967  0.83206733  0.75497133  1
  O  O89  1  0.20669867  0.17117033  0.80714033  1
  O  O90  1  0.12784467  0.49256433  0.85960633  1
  O  O91  1  0.80814867  0.83630233  0.91227533  1
  O  O92  1  0.50743567  0.63528033  0.85960633  1
  O  O93  1  0.69912700  0.17206400  0.74486000  1
  O  O94  1  0.47293700  0.30087300  0.74486000  1
  O  O95  1  0.30396767  0.47190033  0.75497133  1
  O  O96  1  0.96447167  0.79330133  0.80714033  1
  O  O97  1  0.82793600  0.52706300  0.74486000  1
  O  O98  1  0.15796000  0.45853700  0.97460900  1
  O  O99  1  0.16793267  0.69603233  0.75497133  1
  O  O100  1  0.54146300  0.69942300  0.97460900  1
  O  O101  1  0.30057700  0.84204000  0.97460900  1
