# generated using pymatgen
data_Ho3ReO7
_symmetry_space_group_name_H-M   'P 1'
_cell_length_a   7.34677000
_cell_length_b   10.53717000
_cell_length_c   7.39048900
_cell_angle_alpha   90.00000000
_cell_angle_beta   90.00000000
_cell_angle_gamma   90.00000000
_symmetry_Int_Tables_number   1
_chemical_formula_structural   Ho3ReO7
_chemical_formula_sum   'Ho12 Re4 O28'
_cell_volume   572.12853074
_cell_formula_units_Z   4
loop_
 _symmetry_equiv_pos_site_id
 _symmetry_equiv_pos_as_xyz
  1  'x, y, z'
loop_
 _atom_site_type_symbol
 _atom_site_label
 _atom_site_symmetry_multiplicity
 _atom_site_fract_x
 _atom_site_fract_y
 _atom_site_fract_z
 _atom_site_occupancy
  Ho  Ho0  1  0.29199200  0.26961800  0.25000000  1
  Ho  Ho1  1  0.70800800  0.26961800  0.75000000  1
  Ho  Ho2  1  0.50000000  0.00000000  0.00000000  1
  Ho  Ho3  1  0.50000000  0.00000000  0.50000000  1
  Ho  Ho4  1  0.29199200  0.73038200  0.25000000  1
  Ho  Ho5  1  0.70800800  0.73038200  0.75000000  1
  Ho  Ho6  1  0.79199200  0.76961800  0.25000000  1
  Ho  Ho7  1  0.20800800  0.76961800  0.75000000  1
  Ho  Ho8  1  0.00000000  0.50000000  0.00000000  1
  Ho  Ho9  1  0.00000000  0.50000000  0.50000000  1
  Ho  Ho10  1  0.79199200  0.23038200  0.25000000  1
  Ho  Ho11  1  0.20800800  0.23038200  0.75000000  1
  Re  Re12  1  0.00000000  0.00000000  0.00000000  1
  Re  Re13  1  0.00000000  0.00000000  0.50000000  1
  Re  Re14  1  0.50000000  0.50000000  0.00000000  1
  Re  Re15  1  0.50000000  0.50000000  0.50000000  1
  O  O16  1  0.80486650  0.12855250  0.53574300  1
  O  O17  1  0.19513350  0.12855250  0.46425700  1
  O  O18  1  0.19513350  0.12855250  0.03574300  1
  O  O19  1  0.80486650  0.12855250  0.96425700  1
  O  O20  1  0.52479800  0.13293800  0.25000000  1
  O  O21  1  0.47520200  0.13293800  0.75000000  1
  O  O22  1  0.93039500  0.00000000  0.25000000  1
  O  O23  1  0.06960500  0.00000000  0.75000000  1
  O  O24  1  0.47520200  0.86706200  0.75000000  1
  O  O25  1  0.52479800  0.86706200  0.25000000  1
  O  O26  1  0.19513350  0.87144750  0.03574300  1
  O  O27  1  0.19513350  0.87144750  0.46425700  1
  O  O28  1  0.80486650  0.87144750  0.53574300  1
  O  O29  1  0.80486650  0.87144750  0.96425700  1
  O  O30  1  0.30486650  0.62855250  0.53574300  1
  O  O31  1  0.69513350  0.62855250  0.46425700  1
  O  O32  1  0.69513350  0.62855250  0.03574300  1
  O  O33  1  0.30486650  0.62855250  0.96425700  1
  O  O34  1  0.02479800  0.63293800  0.25000000  1
  O  O35  1  0.97520200  0.63293800  0.75000000  1
  O  O36  1  0.43039500  0.50000000  0.25000000  1
  O  O37  1  0.56960500  0.50000000  0.75000000  1
  O  O38  1  0.97520200  0.36706200  0.75000000  1
  O  O39  1  0.02479800  0.36706200  0.25000000  1
  O  O40  1  0.69513350  0.37144750  0.03574300  1
  O  O41  1  0.69513350  0.37144750  0.46425700  1
  O  O42  1  0.30486650  0.37144750  0.53574300  1
  O  O43  1  0.30486650  0.37144750  0.96425700  1
