# generated using pymatgen
data_MnNi3(PO4)4
_symmetry_space_group_name_H-M   'P 1'
_cell_length_a   4.78972300
_cell_length_b   5.81482700
_cell_length_c   9.91137759
_cell_angle_alpha   90.00000000
_cell_angle_beta   90.18125178
_cell_angle_gamma   90.00000000
_symmetry_Int_Tables_number   1
_chemical_formula_structural   MnNi3(PO4)4
_chemical_formula_sum   'Mn1 Ni3 P4 O16'
_cell_volume   276.04446595
_cell_formula_units_Z   1
loop_
 _symmetry_equiv_pos_site_id
 _symmetry_equiv_pos_as_xyz
  1  'x, y, z'
loop_
 _atom_site_type_symbol
 _atom_site_label
 _atom_site_symmetry_multiplicity
 _atom_site_fract_x
 _atom_site_fract_y
 _atom_site_fract_z
 _atom_site_occupancy
  Mn  Mn0  1  0.96137900  0.50000000  0.27420800  1
  Ni  Ni1  1  0.03745900  0.00000000  0.72682200  1
  Ni  Ni2  1  0.45831700  0.00000000  0.22894200  1
  Ni  Ni3  1  0.54005900  0.50000000  0.77061400  1
  P  P4  1  0.09203000  0.50000000  0.59221200  1
  P  P5  1  0.40329500  0.50000000  0.09444600  1
  P  P6  1  0.59379500  0.00000000  0.90548100  1
  P  P7  1  0.91627100  0.00000000  0.40802100  1
  O  O8  1  0.17069200  0.50000000  0.43986500  1
  O  O9  1  0.23810200  0.70625200  0.66571900  1
  O  O10  1  0.23810200  0.29374800  0.66571900  1
  O  O11  1  0.23082200  0.00000000  0.39266700  1
  O  O12  1  0.27579500  0.00000000  0.88795700  1
  O  O13  1  0.25073100  0.70304000  0.17094900  1
  O  O14  1  0.25073100  0.29696000  0.17094900  1
  O  O15  1  0.33841300  0.50000000  0.94509800  1
  O  O16  1  0.66110400  0.00000000  0.05640400  1
  O  O17  1  0.73992200  0.20526900  0.83080700  1
  O  O18  1  0.73992200  0.79473100  0.83080700  1
  O  O19  1  0.72121900  0.50000000  0.11869200  1
  O  O20  1  0.77519200  0.50000000  0.60671800  1
  O  O21  1  0.77032900  0.20834000  0.33079100  1
  O  O22  1  0.77032900  0.79166000  0.33079100  1
  O  O23  1  0.82599100  0.00000000  0.55531600  1
