# generated using pymatgen
data_LiMnNbO4
_symmetry_space_group_name_H-M   'P 1'
_cell_length_a   6.28418000
_cell_length_b   6.28418000
_cell_length_c   8.63705800
_cell_angle_alpha   90.00000000
_cell_angle_beta   90.00000000
_cell_angle_gamma   90.00000000
_symmetry_Int_Tables_number   1
_chemical_formula_structural   LiMnNbO4
_chemical_formula_sum   'Li4 Mn4 Nb4 O16'
_cell_volume   341.08535162
_cell_formula_units_Z   4
loop_
 _symmetry_equiv_pos_site_id
 _symmetry_equiv_pos_as_xyz
  1  'x, y, z'
loop_
 _atom_site_type_symbol
 _atom_site_label
 _atom_site_symmetry_multiplicity
 _atom_site_fract_x
 _atom_site_fract_y
 _atom_site_fract_z
 _atom_site_occupancy
  Li  Li0  1  0.50000000  0.72255650  0.00000000  1
  Li  Li1  1  0.50000000  0.27744350  0.50000000  1
  Li  Li2  1  0.72255650  0.50000000  0.25000000  1
  Li  Li3  1  0.27744350  0.50000000  0.75000000  1
  Mn  Mn4  1  0.24412300  0.75587700  0.37500000  1
  Mn  Mn5  1  0.24412300  0.24412300  0.12500000  1
  Mn  Mn6  1  0.75587700  0.75587700  0.62500000  1
  Mn  Mn7  1  0.75587700  0.24412300  0.87500000  1
  Nb  Nb8  1  0.71911250  0.00000000  0.25000000  1
  Nb  Nb9  1  0.00000000  0.71911250  0.00000000  1
  Nb  Nb10  1  0.00000000  0.28088750  0.50000000  1
  Nb  Nb11  1  0.28088750  0.00000000  0.75000000  1
  O  O12  1  0.52694650  0.76555650  0.25329300  1
  O  O13  1  0.52694650  0.23444350  0.24670700  1
  O  O14  1  0.76555650  0.52694650  0.99670700  1
  O  O15  1  0.76555650  0.47305350  0.50329300  1
  O  O16  1  0.23444350  0.52694650  0.00329300  1
  O  O17  1  0.23444350  0.47305350  0.49670700  1
  O  O18  1  0.47305350  0.76555650  0.74670700  1
  O  O19  1  0.47305350  0.23444350  0.75329300  1
  O  O20  1  0.76875250  0.98207850  0.01953400  1
  O  O21  1  0.76875250  0.01792150  0.48046600  1
  O  O22  1  0.98207850  0.76875250  0.23046600  1
  O  O23  1  0.98207850  0.23124750  0.26953400  1
  O  O24  1  0.01792150  0.76875250  0.76953400  1
  O  O25  1  0.01792150  0.23124750  0.73046600  1
  O  O26  1  0.23124750  0.01792150  0.51953400  1
  O  O27  1  0.23124750  0.98207850  0.98046600  1
