# generated using pymatgen
data_FeOF
_symmetry_space_group_name_H-M   'P 1'
_cell_length_a   9.59339100
_cell_length_b   3.09183500
_cell_length_c   14.26940938
_cell_angle_alpha   90.00000000
_cell_angle_beta   90.62845728
_cell_angle_gamma   90.00000000
_symmetry_Int_Tables_number   1
_chemical_formula_structural   FeOF
_chemical_formula_sum   'Fe12 O12 F12'
_cell_volume   423.22208898
_cell_formula_units_Z   12
loop_
 _symmetry_equiv_pos_site_id
 _symmetry_equiv_pos_as_xyz
  1  'x, y, z'
loop_
 _atom_site_type_symbol
 _atom_site_label
 _atom_site_symmetry_multiplicity
 _atom_site_fract_x
 _atom_site_fract_y
 _atom_site_fract_z
 _atom_site_occupancy
  Fe  Fe0  1  0.00155800  0.00000000  0.98617900  1
  Fe  Fe1  1  0.49900300  0.00000000  0.99314600  1
  Fe  Fe2  1  0.74675300  0.50000000  0.84973100  1
  Fe  Fe3  1  0.21939300  0.50000000  0.82749100  1
  Fe  Fe4  1  0.00561100  0.00000000  0.65931000  1
  Fe  Fe5  1  0.50013600  0.00000000  0.65709800  1
  Fe  Fe6  1  0.24993000  0.50000000  0.51754200  1
  Fe  Fe7  1  0.74866900  0.50000000  0.52152800  1
  Fe  Fe8  1  0.99606600  0.00000000  0.32899300  1
  Fe  Fe9  1  0.50196200  0.00000000  0.32077400  1
  Fe  Fe10  1  0.75398700  0.50000000  0.18116200  1
  Fe  Fe11  1  0.28377100  0.50000000  0.15878600  1
  O  O12  1  0.59362600  0.50000000  0.93459200  1
  O  O13  1  0.09826700  0.50000000  0.93733600  1
  O  O14  1  0.84431000  0.00000000  0.90032200  1
  O  O15  1  0.14423300  0.00000000  0.76404500  1
  O  O16  1  0.59291200  0.50000000  0.60489300  1
  O  O17  1  0.09189900  0.50000000  0.59749100  1
  O  O18  1  0.84780800  0.00000000  0.56578500  1
  O  O19  1  0.34621900  0.00000000  0.56494500  1
  O  O20  1  0.60126700  0.50000000  0.26903400  1
  O  O21  1  0.85534300  0.00000000  0.23618700  1
  O  O22  1  0.34706900  0.00000000  0.23149900  1
  O  O23  1  0.40829500  0.50000000  0.05830100  1
  F  F24  1  0.34128900  0.00000000  0.89034400  1
  F  F25  1  0.64754900  0.00000000  0.76911000  1
  F  F26  1  0.89569900  0.50000000  0.73124800  1
  F  F27  1  0.40229300  0.50000000  0.73266500  1
  F  F28  1  0.65478200  0.00000000  0.43581200  1
  F  F29  1  0.14916200  0.00000000  0.42899000  1
  F  F30  1  0.90881600  0.50000000  0.39878900  1
  F  F31  1  0.40491300  0.50000000  0.39722600  1
  F  F32  1  0.09754800  0.50000000  0.27131900  1
  F  F33  1  0.66411000  0.00000000  0.10528000  1
  F  F34  1  0.15158100  0.00000000  0.10423200  1
  F  F35  1  0.90417400  0.50000000  0.06881500  1
