# generated using pymatgen
data_Li4Cr3GaO8
_symmetry_space_group_name_H-M   'P 1'
_cell_length_a   10.25837704
_cell_length_b   5.90949853
_cell_length_c   5.16070289
_cell_angle_alpha   90.00000000
_cell_angle_beta   109.29175858
_cell_angle_gamma   90.00000000
_symmetry_Int_Tables_number   1
_chemical_formula_structural   Li4Cr3GaO8
_chemical_formula_sum   'Li8 Cr6 Ga2 O16'
_cell_volume   295.28434653
_cell_formula_units_Z   2
loop_
 _symmetry_equiv_pos_site_id
 _symmetry_equiv_pos_as_xyz
  1  'x, y, z'
loop_
 _atom_site_type_symbol
 _atom_site_label
 _atom_site_symmetry_multiplicity
 _atom_site_fract_x
 _atom_site_fract_y
 _atom_site_fract_z
 _atom_site_occupancy
  Li  Li0  1  0.74995650  0.00000000  0.99989300  1
  Li  Li1  1  0.25004350  0.00000000  0.00010700  1
  Li  Li2  1  0.50000000  0.74945200  0.00000000  1
  Li  Li3  1  0.50000000  0.25054800  0.00000000  1
  Li  Li4  1  0.24995650  0.50000000  0.99989300  1
  Li  Li5  1  0.75004350  0.50000000  0.00010700  1
  Li  Li6  1  0.00000000  0.24945200  0.00000000  1
  Li  Li7  1  0.00000000  0.75054800  0.00000000  1
  Cr  Cr8  1  0.50000000  0.50000000  0.50000000  1
  Cr  Cr9  1  0.25000000  0.75000000  0.50000000  1
  Cr  Cr10  1  0.75000000  0.75000000  0.50000000  1
  Cr  Cr11  1  0.00000000  0.00000000  0.50000000  1
  Cr  Cr12  1  0.75000000  0.25000000  0.50000000  1
  Cr  Cr13  1  0.25000000  0.25000000  0.50000000  1
  Ga  Ga14  1  0.50000000  0.00000000  0.50000000  1
  Ga  Ga15  1  0.00000000  0.50000000  0.50000000  1
  O  O16  1  0.62826650  0.00000000  0.27389300  1
  O  O17  1  0.37173350  0.00000000  0.72610700  1
  O  O18  1  0.62874900  0.50000000  0.27330000  1
  O  O19  1  0.37125100  0.50000000  0.72670000  1
  O  O20  1  0.62097100  0.24940750  0.72458050  1
  O  O21  1  0.62097100  0.75059250  0.72458050  1
  O  O22  1  0.37902900  0.75059250  0.27541950  1
  O  O23  1  0.37902900  0.24940750  0.27541950  1
  O  O24  1  0.12826650  0.50000000  0.27389300  1
  O  O25  1  0.87173350  0.50000000  0.72610700  1
  O  O26  1  0.12874900  0.00000000  0.27330000  1
  O  O27  1  0.87125100  0.00000000  0.72670000  1
  O  O28  1  0.12097100  0.74940750  0.72458050  1
  O  O29  1  0.12097100  0.25059250  0.72458050  1
  O  O30  1  0.87902900  0.25059250  0.27541950  1
  O  O31  1  0.87902900  0.74940750  0.27541950  1
