# generated using pymatgen
data_Fe2O3F
_symmetry_space_group_name_H-M   'P 1'
_cell_length_a   6.39420400
_cell_length_b   6.87739600
_cell_length_c   9.00497600
_cell_angle_alpha   90.00000000
_cell_angle_beta   90.00000000
_cell_angle_gamma   90.00000000
_symmetry_Int_Tables_number   1
_chemical_formula_structural   Fe2O3F
_chemical_formula_sum   'Fe12 O18 F6'
_cell_volume   395.99807907
_cell_formula_units_Z   6
loop_
 _symmetry_equiv_pos_site_id
 _symmetry_equiv_pos_as_xyz
  1  'x, y, z'
loop_
 _atom_site_type_symbol
 _atom_site_label
 _atom_site_symmetry_multiplicity
 _atom_site_fract_x
 _atom_site_fract_y
 _atom_site_fract_z
 _atom_site_occupancy
  Fe  Fe0  1  0.50000000  0.49696100  0.33262800  1
  Fe  Fe1  1  0.50000000  0.49696100  0.66737200  1
  Fe  Fe2  1  0.50000000  0.48774900  0.00000000  1
  Fe  Fe3  1  0.50000000  0.02740800  0.16682100  1
  Fe  Fe4  1  0.50000000  0.96353200  0.50000000  1
  Fe  Fe5  1  0.50000000  0.02740800  0.83317900  1
  Fe  Fe6  1  0.00000000  0.99696100  0.33262800  1
  Fe  Fe7  1  0.00000000  0.99696100  0.66737200  1
  Fe  Fe8  1  0.00000000  0.98774900  0.00000000  1
  Fe  Fe9  1  0.00000000  0.52740800  0.16682100  1
  Fe  Fe10  1  0.00000000  0.46353200  0.50000000  1
  Fe  Fe11  1  0.00000000  0.52740800  0.83317900  1
  O  O12  1  0.50000000  0.31676000  0.17107700  1
  O  O13  1  0.50000000  0.31676000  0.82892300  1
  O  O14  1  0.30772250  0.01104150  0.00000000  1
  O  O15  1  0.30705500  0.99483500  0.33287000  1
  O  O16  1  0.30705500  0.99483500  0.66713000  1
  O  O17  1  0.69227750  0.01104150  0.00000000  1
  O  O18  1  0.69294500  0.99483500  0.33287000  1
  O  O19  1  0.69294500  0.99483500  0.66713000  1
  O  O20  1  0.50000000  0.67413000  0.50000000  1
  O  O21  1  0.00000000  0.81676000  0.17107700  1
  O  O22  1  0.00000000  0.81676000  0.82892300  1
  O  O23  1  0.80772250  0.51104150  0.00000000  1
  O  O24  1  0.80705500  0.49483500  0.33287000  1
  O  O25  1  0.80705500  0.49483500  0.66713000  1
  O  O26  1  0.19227750  0.51104150  0.00000000  1
  O  O27  1  0.19294500  0.49483500  0.33287000  1
  O  O28  1  0.19294500  0.49483500  0.66713000  1
  O  O29  1  0.00000000  0.17413000  0.50000000  1
  F  F30  1  0.50000000  0.29451000  0.50000000  1
  F  F31  1  0.50000000  0.69820000  0.83553000  1
  F  F32  1  0.50000000  0.69820000  0.16447000  1
  F  F33  1  0.00000000  0.79451000  0.50000000  1
  F  F34  1  0.00000000  0.19820000  0.83553000  1
  F  F35  1  0.00000000  0.19820000  0.16447000  1
