# generated using pymatgen
data_Li4Mn3Cu2Sn3O16
_symmetry_space_group_name_H-M   'P 1'
_cell_length_a   10.52670733
_cell_length_b   6.10424729
_cell_length_c   9.81937428
_cell_angle_alpha   90.00000000
_cell_angle_beta   92.87543470
_cell_angle_gamma   90.00000000
_symmetry_Int_Tables_number   1
_chemical_formula_structural   Li4Mn3Cu2Sn3O16
_chemical_formula_sum   'Li8 Mn6 Cu4 Sn6 O32'
_cell_volume   630.17524878
_cell_formula_units_Z   2
loop_
 _symmetry_equiv_pos_site_id
 _symmetry_equiv_pos_as_xyz
  1  'x, y, z'
loop_
 _atom_site_type_symbol
 _atom_site_label
 _atom_site_symmetry_multiplicity
 _atom_site_fract_x
 _atom_site_fract_y
 _atom_site_fract_z
 _atom_site_occupancy
  Li  Li0  1  0.82961050  0.50000000  0.88446700  1
  Li  Li1  1  0.50942950  0.50000000  0.99446300  1
  Li  Li2  1  0.50430150  0.50000000  0.50134300  1
  Li  Li3  1  0.16720650  0.50000000  0.39312900  1
  Li  Li4  1  0.32961050  0.00000000  0.88446700  1
  Li  Li5  1  0.00942950  0.00000000  0.99446300  1
  Li  Li6  1  0.00430150  0.00000000  0.50134300  1
  Li  Li7  1  0.66720650  0.00000000  0.39312900  1
  Mn  Mn8  1  0.66708300  0.50000000  0.21670000  1
  Mn  Mn9  1  0.08384650  0.74753450  0.71533300  1
  Mn  Mn10  1  0.08384650  0.25246550  0.71533300  1
  Mn  Mn11  1  0.16708300  0.00000000  0.21670000  1
  Mn  Mn12  1  0.58384650  0.24753450  0.71533300  1
  Mn  Mn13  1  0.58384650  0.75246550  0.71533300  1
  Cu  Cu14  1  0.83410000  0.50000000  0.49316800  1
  Cu  Cu15  1  0.16389850  0.50000000  0.98534300  1
  Cu  Cu16  1  0.33410000  0.00000000  0.49316800  1
  Cu  Cu17  1  0.66389850  0.00000000  0.98534300  1
  Sn  Sn18  1  0.91508250  0.74562850  0.21438600  1
  Sn  Sn19  1  0.91508250  0.25437150  0.21438600  1
  Sn  Sn20  1  0.32909300  0.50000000  0.71326800  1
  Sn  Sn21  1  0.41508250  0.24562850  0.21438600  1
  Sn  Sn22  1  0.41508250  0.75437150  0.21438600  1
  Sn  Sn23  1  0.82909300  0.00000000  0.71326800  1
  O  O24  1  0.92277750  0.75790050  0.60159400  1
  O  O25  1  0.99150150  0.50000000  0.33414100  1
  O  O26  1  0.81689700  0.50000000  0.10052300  1
  O  O27  1  0.51193750  0.50000000  0.31872200  1
  O  O28  1  0.51160350  0.50000000  0.81146100  1
  O  O29  1  0.92277750  0.24209950  0.60159400  1
  O  O30  1  0.75717950  0.71656450  0.33860400  1
  O  O31  1  0.75717950  0.28343550  0.33860400  1
  O  O32  1  0.33657500  0.50000000  0.09274500  1
  O  O33  1  0.65442650  0.50000000  0.61482300  1
  O  O34  1  0.23790450  0.73137150  0.82969500  1
  O  O35  1  0.23790450  0.26862850  0.82969500  1
  O  O36  1  0.15052650  0.50000000  0.60673600  1
  O  O37  1  0.08245550  0.77062550  0.10623500  1
  O  O38  1  0.02410100  0.50000000  0.83521100  1
  O  O39  1  0.08245550  0.22937450  0.10623500  1
  O  O40  1  0.42277750  0.25790050  0.60159400  1
  O  O41  1  0.49150150  0.00000000  0.33414100  1
  O  O42  1  0.31689700  0.00000000  0.10052300  1
  O  O43  1  0.01193750  0.00000000  0.31872200  1
  O  O44  1  0.01160350  0.00000000  0.81146100  1
  O  O45  1  0.42277750  0.74209950  0.60159400  1
  O  O46  1  0.25717950  0.21656450  0.33860400  1
  O  O47  1  0.25717950  0.78343550  0.33860400  1
  O  O48  1  0.83657500  0.00000000  0.09274500  1
  O  O49  1  0.15442650  0.00000000  0.61482300  1
  O  O50  1  0.73790450  0.23137150  0.82969500  1
  O  O51  1  0.73790450  0.76862850  0.82969500  1
  O  O52  1  0.65052650  0.00000000  0.60673600  1
  O  O53  1  0.58245550  0.27062550  0.10623500  1
  O  O54  1  0.52410100  0.00000000  0.83521100  1
  O  O55  1  0.58245550  0.72937450  0.10623500  1
