# generated using pymatgen
data_CrOF4
_symmetry_space_group_name_H-M   'P 1'
_cell_length_a   19.11532200
_cell_length_b   5.76482200
_cell_length_c   15.11727769
_cell_angle_alpha   90.00000000
_cell_angle_beta   113.54033300
_cell_angle_gamma   90.00000000
_symmetry_Int_Tables_number   1
_chemical_formula_structural   CrOF4
_chemical_formula_sum   'Cr16 O16 F64'
_cell_volume   1527.23489704
_cell_formula_units_Z   16
loop_
 _symmetry_equiv_pos_site_id
 _symmetry_equiv_pos_as_xyz
  1  'x, y, z'
loop_
 _atom_site_type_symbol
 _atom_site_label
 _atom_site_symmetry_multiplicity
 _atom_site_fract_x
 _atom_site_fract_y
 _atom_site_fract_z
 _atom_site_occupancy
  Cr  Cr0  1  0.61037650  0.92182850  0.17738100  1
  Cr  Cr1  1  0.86443800  0.08238800  0.60744500  1
  Cr  Cr2  1  0.88962350  0.42182850  0.32261900  1
  Cr  Cr3  1  0.86443800  0.91761200  0.10744500  1
  Cr  Cr4  1  0.13556200  0.08238800  0.89255500  1
  Cr  Cr5  1  0.11037650  0.57817150  0.67738100  1
  Cr  Cr6  1  0.13556200  0.91761200  0.39255500  1
  Cr  Cr7  1  0.38962350  0.07817150  0.82261900  1
  Cr  Cr8  1  0.11037650  0.42182850  0.17738100  1
  Cr  Cr9  1  0.36443800  0.58238800  0.60744500  1
  Cr  Cr10  1  0.38962350  0.92182850  0.32261900  1
  Cr  Cr11  1  0.36443800  0.41761200  0.10744500  1
  Cr  Cr12  1  0.63556200  0.58238800  0.89255500  1
  Cr  Cr13  1  0.61037650  0.07817150  0.67738100  1
  Cr  Cr14  1  0.63556200  0.41761200  0.39255500  1
  Cr  Cr15  1  0.88962350  0.57817150  0.82261900  1
  O  O16  1  0.62962000  0.11446600  0.11765300  1
  O  O17  1  0.82825400  0.89643700  0.52668500  1
  O  O18  1  0.87038000  0.61446600  0.38234700  1
  O  O19  1  0.82825400  0.10356300  0.02668500  1
  O  O20  1  0.17174600  0.89643700  0.97331500  1
  O  O21  1  0.12962000  0.38553400  0.61765300  1
  O  O22  1  0.17174600  0.10356300  0.47331500  1
  O  O23  1  0.37038000  0.88553400  0.88234700  1
  O  O24  1  0.12962000  0.61446600  0.11765300  1
  O  O25  1  0.32825400  0.39643700  0.52668500  1
  O  O26  1  0.37038000  0.11446600  0.38234700  1
  O  O27  1  0.32825400  0.60356300  0.02668500  1
  O  O28  1  0.67174600  0.39643700  0.97331500  1
  O  O29  1  0.62962000  0.88553400  0.61765300  1
  O  O30  1  0.67174600  0.60356300  0.47331500  1
  O  O31  1  0.87038000  0.38553400  0.88234700  1
  F  F32  1  0.62938050  0.66211850  0.13048500  1
  F  F33  1  0.70546100  0.38059900  0.34554900  1
  F  F34  1  0.69719250  0.88073750  0.27718500  1
  F  F35  1  0.83382900  0.34757600  0.54664800  1
  F  F36  1  0.91912250  0.41846850  0.74271900  1
  F  F37  1  0.91542300  0.91590900  0.71260500  1
  F  F38  1  0.98702350  0.63385650  0.88904800  1
  F  F39  1  0.80280750  0.38073750  0.22281500  1
  F  F40  1  0.79453900  0.88059900  0.15445100  1
  F  F41  1  0.87061950  0.16211850  0.36951500  1
  F  F42  1  0.04638350  0.13866250  0.89536900  1
  F  F43  1  0.95361650  0.13866250  0.60463100  1
  F  F44  1  0.01297650  0.63385650  0.61095200  1
  F  F45  1  0.83382900  0.65242400  0.04664800  1
  F  F46  1  0.08457700  0.91590900  0.78739500  1
  F  F47  1  0.08087750  0.41846850  0.75728100  1
  F  F48  1  0.91912250  0.58153150  0.24271900  1
  F  F49  1  0.91542300  0.08409100  0.21260500  1
  F  F50  1  0.16617100  0.34757600  0.95335200  1
  F  F51  1  0.98702350  0.36614350  0.38904800  1
  F  F52  1  0.04638350  0.86133750  0.39536900  1
  F  F53  1  0.95361650  0.86133750  0.10463100  1
  F  F54  1  0.12938050  0.83788150  0.63048500  1
  F  F55  1  0.20546100  0.11940100  0.84554900  1
  F  F56  1  0.19719250  0.61926250  0.77718500  1
  F  F57  1  0.01297650  0.36614350  0.11095200  1
  F  F58  1  0.08457700  0.08409100  0.28739500  1
  F  F59  1  0.08087750  0.58153150  0.25728100  1
  F  F60  1  0.16617100  0.65242400  0.45335200  1
  F  F61  1  0.30280750  0.11926250  0.72281500  1
  F  F62  1  0.29453900  0.61940100  0.65445100  1
  F  F63  1  0.37061950  0.33788150  0.86951500  1
  F  F64  1  0.12938050  0.16211850  0.13048500  1
  F  F65  1  0.20546100  0.88059900  0.34554900  1
  F  F66  1  0.19719250  0.38073750  0.27718500  1
  F  F67  1  0.33382900  0.84757600  0.54664800  1
  F  F68  1  0.41912250  0.91846850  0.74271900  1
  F  F69  1  0.41542300  0.41590900  0.71260500  1
  F  F70  1  0.48702350  0.13385650  0.88904800  1
  F  F71  1  0.30280750  0.88073750  0.22281500  1
  F  F72  1  0.29453900  0.38059900  0.15445100  1
  F  F73  1  0.37061950  0.66211850  0.36951500  1
  F  F74  1  0.54638350  0.63866250  0.89536900  1
  F  F75  1  0.45361650  0.63866250  0.60463100  1
  F  F76  1  0.51297650  0.13385650  0.61095200  1
  F  F77  1  0.33382900  0.15242400  0.04664800  1
  F  F78  1  0.58457700  0.41590900  0.78739500  1
  F  F79  1  0.58087750  0.91846850  0.75728100  1
  F  F80  1  0.41912250  0.08153150  0.24271900  1
  F  F81  1  0.41542300  0.58409100  0.21260500  1
  F  F82  1  0.66617100  0.84757600  0.95335200  1
  F  F83  1  0.48702350  0.86614350  0.38904800  1
  F  F84  1  0.54638350  0.36133750  0.39536900  1
  F  F85  1  0.45361650  0.36133750  0.10463100  1
  F  F86  1  0.62938050  0.33788150  0.63048500  1
  F  F87  1  0.70546100  0.61940100  0.84554900  1
  F  F88  1  0.69719250  0.11926250  0.77718500  1
  F  F89  1  0.51297650  0.86614350  0.11095200  1
  F  F90  1  0.58457700  0.58409100  0.28739500  1
  F  F91  1  0.58087750  0.08153150  0.25728100  1
  F  F92  1  0.66617100  0.15242400  0.45335200  1
  F  F93  1  0.80280750  0.61926250  0.72281500  1
  F  F94  1  0.79453900  0.11940100  0.65445100  1
  F  F95  1  0.87061950  0.83788150  0.86951500  1
