# generated using pymatgen
data_VOF
_symmetry_space_group_name_H-M   'P 1'
_cell_length_a   4.71697200
_cell_length_b   4.73074500
_cell_length_c   9.39317700
_cell_angle_alpha   90.00000000
_cell_angle_beta   90.00000000
_cell_angle_gamma   90.00000000
_symmetry_Int_Tables_number   1
_chemical_formula_structural   VOF
_chemical_formula_sum   'V6 O6 F6'
_cell_volume   209.60678820
_cell_formula_units_Z   6
loop_
 _symmetry_equiv_pos_site_id
 _symmetry_equiv_pos_as_xyz
  1  'x, y, z'
loop_
 _atom_site_type_symbol
 _atom_site_label
 _atom_site_symmetry_multiplicity
 _atom_site_fract_x
 _atom_site_fract_y
 _atom_site_fract_z
 _atom_site_occupancy
  V  V0  1  0.97860100  0.72075400  0.66744850  1
  V  V1  1  0.97860100  0.72075400  0.33255150  1
  V  V2  1  0.04612600  0.77216900  0.00000000  1
  V  V3  1  0.54612600  0.22783100  0.50000000  1
  V  V4  1  0.47860100  0.27924600  0.83255150  1
  V  V5  1  0.47860100  0.27924600  0.16744850  1
  O  O6  1  0.19337500  0.56812000  0.16832150  1
  O  O7  1  0.19337500  0.56812000  0.83167850  1
  O  O8  1  0.31555600  0.07561400  0.00000000  1
  O  O9  1  0.69337500  0.43188000  0.66832150  1
  O  O10  1  0.69337500  0.43188000  0.33167850  1
  O  O11  1  0.81555600  0.92438600  0.50000000  1
  F  F12  1  0.20047700  0.52106100  0.50000000  1
  F  F13  1  0.29694500  0.04377500  0.66542250  1
  F  F14  1  0.29694500  0.04377500  0.33457750  1
  F  F15  1  0.70047700  0.47893900  0.00000000  1
  F  F16  1  0.79694500  0.95622500  0.83457750  1
  F  F17  1  0.79694500  0.95622500  0.16542250  1
