# generated using pymatgen
data_LiMn2(SO4)3
_symmetry_space_group_name_H-M   'P 1'
_cell_length_a   8.75768628
_cell_length_b   8.75768628
_cell_length_c   21.73476659
_cell_angle_alpha   90.00000000
_cell_angle_beta   90.00000000
_cell_angle_gamma   120.00000000
_symmetry_Int_Tables_number   1
_chemical_formula_structural   LiMn2(SO4)3
_chemical_formula_sum   'Li6 Mn12 S18 O72'
_cell_volume   1443.65819424
_cell_formula_units_Z   6
loop_
 _symmetry_equiv_pos_site_id
 _symmetry_equiv_pos_as_xyz
  1  'x, y, z'
loop_
 _atom_site_type_symbol
 _atom_site_label
 _atom_site_symmetry_multiplicity
 _atom_site_fract_x
 _atom_site_fract_y
 _atom_site_fract_z
 _atom_site_occupancy
  Li  Li0  1  0.00000000  0.00000000  0.00000000  1
  Li  Li1  1  0.33333333  0.66666667  0.16666667  1
  Li  Li2  1  0.66666667  0.33333333  0.33333333  1
  Li  Li3  1  0.00000000  0.00000000  0.50000000  1
  Li  Li4  1  0.33333333  0.66666667  0.66666667  1
  Li  Li5  1  0.66666667  0.33333333  0.83333333  1
  Mn  Mn6  1  0.33333333  0.66666667  0.31150767  1
  Mn  Mn7  1  0.66666667  0.33333333  0.18849233  1
  Mn  Mn8  1  0.33333333  0.66666667  0.02182567  1
  Mn  Mn9  1  0.00000000  0.00000000  0.14484100  1
  Mn  Mn10  1  0.00000000  0.00000000  0.64484100  1
  Mn  Mn11  1  0.33333333  0.66666667  0.52182567  1
  Mn  Mn12  1  0.00000000  0.00000000  0.35515900  1
  Mn  Mn13  1  0.66666667  0.33333333  0.47817433  1
  Mn  Mn14  1  0.66666667  0.33333333  0.97817433  1
  Mn  Mn15  1  0.00000000  0.00000000  0.85515900  1
  Mn  Mn16  1  0.66666667  0.33333333  0.68849233  1
  Mn  Mn17  1  0.33333333  0.66666667  0.81150767  1
  S  S18  1  0.29645800  0.00000000  0.25000000  1
  S  S19  1  0.66666667  0.03687533  0.08333333  1
  S  S20  1  0.96312467  0.62979133  0.08333333  1
  S  S21  1  0.70354200  0.70354200  0.25000000  1
  S  S22  1  0.00000000  0.29645800  0.25000000  1
  S  S23  1  0.37020867  0.33333333  0.08333333  1
  S  S24  1  0.96312467  0.33333333  0.58333333  1
  S  S25  1  0.33333333  0.37020867  0.41666667  1
  S  S26  1  0.62979133  0.96312467  0.41666667  1
  S  S27  1  0.37020867  0.03687533  0.58333333  1
  S  S28  1  0.66666667  0.62979133  0.58333333  1
  S  S29  1  0.03687533  0.66666667  0.41666667  1
  S  S30  1  0.62979133  0.66666667  0.91666667  1
  S  S31  1  0.00000000  0.70354200  0.75000000  1
  S  S32  1  0.29645800  0.29645800  0.75000000  1
  S  S33  1  0.03687533  0.37020867  0.91666667  1
  S  S34  1  0.33333333  0.96312467  0.91666667  1
  S  S35  1  0.70354200  0.00000000  0.75000000  1
  O  O36  1  0.47466267  0.16094133  0.25433833  1
  O  O37  1  0.98038800  0.80799600  0.07899500  1
  O  O38  1  0.00151500  0.20396200  0.30648500  1
  O  O39  1  0.99848500  0.20244700  0.19351500  1
  O  O40  1  0.31372133  0.83905867  0.24566167  1
  O  O41  1  0.50572533  0.85867067  0.08767167  1
  O  O42  1  0.82760800  0.01961200  0.07899500  1
  O  O43  1  0.46270467  0.33181833  0.13981833  1
  O  O44  1  0.87062867  0.53578033  0.02684833  1
  O  O45  1  0.46421967  0.33484833  0.02684833  1
  O  O46  1  0.86911367  0.53729533  0.13981833  1
  O  O47  1  0.14132933  0.64705467  0.08767167  1
  O  O48  1  0.52533733  0.68627867  0.24566167  1
  O  O49  1  0.20244700  0.99848500  0.30648500  1
  O  O50  1  0.79755300  0.79603800  0.19351500  1
  O  O51  1  0.20396200  0.00151500  0.19351500  1
  O  O52  1  0.79603800  0.79755300  0.30648500  1
  O  O53  1  0.83905867  0.31372133  0.25433833  1
  O  O54  1  0.16094133  0.47466267  0.24566167  1
  O  O55  1  0.35294533  0.49427467  0.08767167  1
  O  O56  1  0.66515167  0.12937133  0.02684833  1
  O  O57  1  0.66818167  0.13088633  0.13981833  1
  O  O58  1  0.68627867  0.52533733  0.25433833  1
  O  O59  1  0.19200400  0.17239200  0.07899500  1
  O  O60  1  0.14132933  0.49427467  0.58767167  1
  O  O61  1  0.64705467  0.14132933  0.41232833  1
  O  O62  1  0.66818167  0.53729533  0.63981833  1
  O  O63  1  0.66515167  0.53578033  0.52684833  1
  O  O64  1  0.98038800  0.17239200  0.57899500  1
  O  O65  1  0.17239200  0.19200400  0.42100500  1
  O  O66  1  0.49427467  0.35294533  0.41232833  1
  O  O67  1  0.12937133  0.66515167  0.47315167  1
  O  O68  1  0.53729533  0.86911367  0.36018167  1
  O  O69  1  0.13088633  0.66818167  0.36018167  1
  O  O70  1  0.53578033  0.87062867  0.47315167  1
  O  O71  1  0.80799600  0.98038800  0.42100500  1
  O  O72  1  0.19200400  0.01961200  0.57899500  1
  O  O73  1  0.86911367  0.33181833  0.63981833  1
  O  O74  1  0.46421967  0.12937133  0.52684833  1
  O  O75  1  0.87062867  0.33484833  0.52684833  1
  O  O76  1  0.46270467  0.13088633  0.63981833  1
  O  O77  1  0.50572533  0.64705467  0.58767167  1
  O  O78  1  0.82760800  0.80799600  0.57899500  1
  O  O79  1  0.01961200  0.82760800  0.42100500  1
  O  O80  1  0.33181833  0.46270467  0.36018167  1
  O  O81  1  0.33484833  0.46421967  0.47315167  1
  O  O82  1  0.35294533  0.85867067  0.58767167  1
  O  O83  1  0.85867067  0.50572533  0.41232833  1
  O  O84  1  0.80799600  0.82760800  0.92100500  1
  O  O85  1  0.31372133  0.47466267  0.74566167  1
  O  O86  1  0.33484833  0.87062867  0.97315167  1
  O  O87  1  0.33181833  0.86911367  0.86018167  1
  O  O88  1  0.64705467  0.50572533  0.91232833  1
  O  O89  1  0.83905867  0.52533733  0.75433833  1
  O  O90  1  0.16094133  0.68627867  0.74566167  1
  O  O91  1  0.79603800  0.99848500  0.80648500  1
  O  O92  1  0.20396200  0.20244700  0.69351500  1
  O  O93  1  0.79755300  0.00151500  0.69351500  1
  O  O94  1  0.20244700  0.20396200  0.80648500  1
  O  O95  1  0.47466267  0.31372133  0.75433833  1
  O  O96  1  0.85867067  0.35294533  0.91232833  1
  O  O97  1  0.53578033  0.66515167  0.97315167  1
  O  O98  1  0.13088633  0.46270467  0.86018167  1
  O  O99  1  0.53729533  0.66818167  0.86018167  1
  O  O100  1  0.12937133  0.46421967  0.97315167  1
  O  O101  1  0.17239200  0.98038800  0.92100500  1
  O  O102  1  0.49427467  0.14132933  0.91232833  1
  O  O103  1  0.68627867  0.16094133  0.75433833  1
  O  O104  1  0.99848500  0.79603800  0.69351500  1
  O  O105  1  0.00151500  0.79755300  0.80648500  1
  O  O106  1  0.01961200  0.19200400  0.92100500  1
  O  O107  1  0.52533733  0.83905867  0.74566167  1
