# generated using pymatgen
data_V4SnO12
_symmetry_space_group_name_H-M   'P 1'
_cell_length_a   10.37229200
_cell_length_b   9.17748400
_cell_length_c   5.98518651
_cell_angle_alpha   90.00000000
_cell_angle_beta   110.90509844
_cell_angle_gamma   90.00000000
_symmetry_Int_Tables_number   1
_chemical_formula_structural   V4SnO12
_chemical_formula_sum   'V8 Sn2 O24'
_cell_volume   532.23476972
_cell_formula_units_Z   2
loop_
 _symmetry_equiv_pos_site_id
 _symmetry_equiv_pos_as_xyz
  1  'x, y, z'
loop_
 _atom_site_type_symbol
 _atom_site_label
 _atom_site_symmetry_multiplicity
 _atom_site_fract_x
 _atom_site_fract_y
 _atom_site_fract_z
 _atom_site_occupancy
  V  V0  1  0.20412700  0.40894200  0.98890600  1
  V  V1  1  0.19844600  0.58928300  0.47587400  1
  V  V2  1  0.79587300  0.40894200  0.01109400  1
  V  V3  1  0.80155400  0.58928300  0.52412600  1
  V  V4  1  0.70412700  0.90894200  0.98890600  1
  V  V5  1  0.69844600  0.08928300  0.47587400  1
  V  V6  1  0.29587300  0.90894200  0.01109400  1
  V  V7  1  0.30155400  0.08928300  0.52412600  1
  Sn  Sn8  1  0.00000000  0.91786600  0.50000000  1
  Sn  Sn9  1  0.50000000  0.41786600  0.50000000  1
  O  O10  1  0.38116650  0.40778150  0.14424300  1
  O  O11  1  0.15132200  0.24140000  0.94558000  1
  O  O12  1  0.37386200  0.58254300  0.55511200  1
  O  O13  1  0.13466550  0.49396950  0.19912400  1
  O  O14  1  0.84867800  0.24140000  0.05442000  1
  O  O15  1  0.15030200  0.50042700  0.69565000  1
  O  O16  1  0.86533450  0.49396950  0.80087600  1
  O  O17  1  0.13740700  0.76576900  0.44219700  1
  O  O18  1  0.84969800  0.50042700  0.30435000  1
  O  O19  1  0.61883350  0.40778150  0.85575700  1
  O  O20  1  0.86259300  0.76576900  0.55780300  1
  O  O21  1  0.62613800  0.58254300  0.44488800  1
  O  O22  1  0.88116650  0.90778150  0.14424300  1
  O  O23  1  0.65132200  0.74140000  0.94558000  1
  O  O24  1  0.87386200  0.08254300  0.55511200  1
  O  O25  1  0.63466550  0.99396950  0.19912400  1
  O  O26  1  0.34867800  0.74140000  0.05442000  1
  O  O27  1  0.65030200  0.00042700  0.69565000  1
  O  O28  1  0.36533450  0.99396950  0.80087600  1
  O  O29  1  0.63740700  0.26576900  0.44219700  1
  O  O30  1  0.34969800  0.00042700  0.30435000  1
  O  O31  1  0.11883350  0.90778150  0.85575700  1
  O  O32  1  0.36259300  0.26576900  0.55780300  1
  O  O33  1  0.12613800  0.08254300  0.44488800  1
