# generated using pymatgen
data_TiMn3(PO4)6
_symmetry_space_group_name_H-M   'P 1'
_cell_length_a   8.52521224
_cell_length_b   8.52521224
_cell_length_c   21.73003520
_cell_angle_alpha   90.00000000
_cell_angle_beta   90.00000000
_cell_angle_gamma   120.00000000
_symmetry_Int_Tables_number   1
_chemical_formula_structural   TiMn3(PO4)6
_chemical_formula_sum   'Ti3 Mn9 P18 O72'
_cell_volume   1367.73342633
_cell_formula_units_Z   3
loop_
 _symmetry_equiv_pos_site_id
 _symmetry_equiv_pos_as_xyz
  1  'x, y, z'
loop_
 _atom_site_type_symbol
 _atom_site_label
 _atom_site_symmetry_multiplicity
 _atom_site_fract_x
 _atom_site_fract_y
 _atom_site_fract_z
 _atom_site_occupancy
  Ti  Ti0  1  0.66666667  0.33333333  0.19341233  1
  Ti  Ti1  1  0.33333333  0.66666667  0.52674567  1
  Ti  Ti2  1  0.00000000  0.00000000  0.86007900  1
  Mn  Mn3  1  0.00000000  0.00000000  0.14491600  1
  Mn  Mn4  1  0.33333333  0.66666667  0.02246667  1
  Mn  Mn5  1  0.33333333  0.66666667  0.31162867  1
  Mn  Mn6  1  0.66666667  0.33333333  0.47824933  1
  Mn  Mn7  1  0.00000000  0.00000000  0.35580000  1
  Mn  Mn8  1  0.00000000  0.00000000  0.64496200  1
  Mn  Mn9  1  0.33333333  0.66666667  0.81158267  1
  Mn  Mn10  1  0.66666667  0.33333333  0.68913333  1
  Mn  Mn11  1  0.66666667  0.33333333  0.97829533  1
  P  P12  1  0.38035967  0.04747733  0.08289533  1
  P  P13  1  0.66711767  0.61964033  0.08289533  1
  P  P14  1  0.95252267  0.33288233  0.08289533  1
  P  P15  1  0.71559200  0.99421000  0.25103000  1
  P  P16  1  0.00579000  0.72138200  0.25103000  1
  P  P17  1  0.27861800  0.28440800  0.25103000  1
  P  P18  1  0.04702633  0.38081067  0.41622867  1
  P  P19  1  0.33378433  0.95297367  0.41622867  1
  P  P20  1  0.61918933  0.66621567  0.41622867  1
  P  P21  1  0.38225867  0.32754333  0.58436333  1
  P  P22  1  0.67245667  0.05471533  0.58436333  1
  P  P23  1  0.94528467  0.61774133  0.58436333  1
  P  P24  1  0.71369300  0.71414400  0.74956200  1
  P  P25  1  0.00045100  0.28630700  0.74956200  1
  P  P26  1  0.28585600  0.99954900  0.74956200  1
  P  P27  1  0.04892533  0.66087667  0.91769667  1
  P  P28  1  0.33912333  0.38804867  0.91769667  1
  P  P29  1  0.61195133  0.95107467  0.91769667  1
  O  O30  1  0.20002700  0.16828900  0.30938800  1
  O  O31  1  0.83171100  0.03173800  0.30938800  1
  O  O32  1  0.18908700  0.02614900  0.08789700  1
  O  O33  1  0.96826200  0.79997300  0.30938800  1
  O  O34  1  0.35952567  0.85676333  0.07758233  1
  O  O35  1  0.49612200  0.13407400  0.14030000  1
  O  O36  1  0.83706200  0.81091300  0.08789700  1
  O  O37  1  0.49723767  0.64047433  0.07758233  1
  O  O38  1  0.14323667  0.50276233  0.07758233  1
  O  O39  1  0.79652100  0.96157900  0.19193300  1
  O  O40  1  0.69564867  0.16337833  0.24357833  1
  O  O41  1  0.03842100  0.83494200  0.19193300  1
  O  O42  1  0.63795200  0.50387800  0.14030000  1
  O  O43  1  0.97385100  0.16293800  0.08789700  1
  O  O44  1  0.86592600  0.36204800  0.14030000  1
  O  O45  1  0.52645167  0.82437833  0.25602133  1
  O  O46  1  0.17562167  0.70207333  0.25602133  1
  O  O47  1  0.83662167  0.53227033  0.24357833  1
  O  O48  1  0.16505800  0.20347900  0.19193300  1
  O  O49  1  0.29792667  0.47354833  0.25602133  1
  O  O50  1  0.70133067  0.53870733  0.02412233  1
  O  O51  1  0.46772967  0.30435133  0.24357833  1
  O  O52  1  0.83737667  0.29866933  0.02412233  1
  O  O53  1  0.46129267  0.16262333  0.02412233  1
  O  O54  1  0.86669367  0.50162233  0.64272133  1
  O  O55  1  0.49837767  0.36507133  0.64272133  1
  O  O56  1  0.85575367  0.35948233  0.42123033  1
  O  O57  1  0.63492867  0.13330633  0.64272133  1
  O  O58  1  0.02619233  0.19009667  0.41091567  1
  O  O59  1  0.16278867  0.46740733  0.47363333  1
  O  O60  1  0.50372867  0.14424633  0.42123033  1
  O  O61  1  0.16390433  0.97380767  0.41091567  1
  O  O62  1  0.80990333  0.83609567  0.41091567  1
  O  O63  1  0.46318767  0.29491233  0.52526633  1
  O  O64  1  0.36231533  0.49671167  0.57691167  1
  O  O65  1  0.70508767  0.16827533  0.52526633  1
  O  O66  1  0.30461867  0.83721133  0.47363333  1
  O  O67  1  0.64051767  0.49627133  0.42123033  1
  O  O68  1  0.53259267  0.69538133  0.47363333  1
  O  O69  1  0.19311833  0.15771167  0.58935467  1
  O  O70  1  0.84228833  0.03540667  0.58935467  1
  O  O71  1  0.50328833  0.86560367  0.57691167  1
  O  O72  1  0.83172467  0.53681233  0.52526633  1
  O  O73  1  0.96459333  0.80688167  0.58935467  1
  O  O74  1  0.36799733  0.87204067  0.35745567  1
  O  O75  1  0.13439633  0.63768467  0.57691167  1
  O  O76  1  0.50404333  0.63200267  0.35745567  1
  O  O77  1  0.12795933  0.49595667  0.35745567  1
  O  O78  1  0.53336033  0.83495567  0.97605467  1
  O  O79  1  0.16504433  0.69840467  0.97605467  1
  O  O80  1  0.52242033  0.69281567  0.75456367  1
  O  O81  1  0.30159533  0.46663967  0.97605467  1
  O  O82  1  0.69285900  0.52343000  0.74424900  1
  O  O83  1  0.82945533  0.80074067  0.80696667  1
  O  O84  1  0.17039533  0.47757967  0.75456367  1
  O  O85  1  0.83057100  0.30714100  0.74424900  1
  O  O86  1  0.47657000  0.16942900  0.74424900  1
  O  O87  1  0.12985433  0.62824567  0.85859967  1
  O  O88  1  0.02898200  0.83004500  0.91024500  1
  O  O89  1  0.37175433  0.50160867  0.85859967  1
  O  O90  1  0.97128533  0.17054467  0.80696667  1
  O  O91  1  0.30718433  0.82960467  0.75456367  1
  O  O92  1  0.19925933  0.02871467  0.80696667  1
  O  O93  1  0.85978500  0.49104500  0.92268800  1
  O  O94  1  0.50895500  0.36874000  0.92268800  1
  O  O95  1  0.16995500  0.19893700  0.91024500  1
  O  O96  1  0.49839133  0.87014567  0.85859967  1
  O  O97  1  0.63126000  0.14021500  0.92268800  1
  O  O98  1  0.03466400  0.20537400  0.69078900  1
  O  O99  1  0.80106300  0.97101800  0.91024500  1
  O  O100  1  0.17071000  0.96533600  0.69078900  1
  O  O101  1  0.79462600  0.82929000  0.69078900  1
