# generated using pymatgen
data_LiMnP3HO10
_symmetry_space_group_name_H-M   'P 1'
_cell_length_a   9.15807600
_cell_length_b   8.51784800
_cell_length_c   6.50410558
_cell_angle_alpha   90.00000000
_cell_angle_beta   113.98269160
_cell_angle_gamma   90.00000000
_symmetry_Int_Tables_number   1
_chemical_formula_structural   LiMnP3HO10
_chemical_formula_sum   'Li2 Mn2 P6 H2 O20'
_cell_volume   463.56459851
_cell_formula_units_Z   2
loop_
 _symmetry_equiv_pos_site_id
 _symmetry_equiv_pos_as_xyz
  1  'x, y, z'
loop_
 _atom_site_type_symbol
 _atom_site_label
 _atom_site_symmetry_multiplicity
 _atom_site_fract_x
 _atom_site_fract_y
 _atom_site_fract_z
 _atom_site_occupancy
  Li  Li0  1  0.00000000  0.00119900  0.50000000  1
  Li  Li1  1  0.50000000  0.50119900  0.50000000  1
  Mn  Mn2  1  0.00000000  0.66462900  0.00000000  1
  Mn  Mn3  1  0.50000000  0.16462900  0.00000000  1
  P  P4  1  0.17727100  0.37768100  0.89483400  1
  P  P5  1  0.00000000  0.57172100  0.50000000  1
  P  P6  1  0.82272900  0.37768100  0.10516600  1
  P  P7  1  0.67727100  0.87768100  0.89483400  1
  P  P8  1  0.50000000  0.07172100  0.50000000  1
  P  P9  1  0.32272900  0.87768100  0.10516600  1
  H  H10  1  0.00000000  0.23997700  0.00000000  1
  H  H11  1  0.50000000  0.73997700  0.00000000  1
  O  O12  1  0.16456750  0.50749150  0.05037100  1
  O  O13  1  0.14877150  0.83144450  0.01752500  1
  O  O14  1  0.06547450  0.66368350  0.35964700  1
  O  O15  1  0.14083750  0.45278050  0.64933200  1
  O  O16  1  0.94551650  0.24462050  0.14344400  1
  O  O17  1  0.05448350  0.24462050  0.85655600  1
  O  O18  1  0.85916250  0.45278050  0.35066800  1
  O  O19  1  0.93452550  0.66368350  0.64035300  1
  O  O20  1  0.85122850  0.83144450  0.98247500  1
  O  O21  1  0.83543250  0.50749150  0.94962900  1
  O  O22  1  0.66456750  0.00749150  0.05037100  1
  O  O23  1  0.64877150  0.33144450  0.01752500  1
  O  O24  1  0.56547450  0.16368350  0.35964700  1
  O  O25  1  0.64083750  0.95278050  0.64933200  1
  O  O26  1  0.44551650  0.74462050  0.14344400  1
  O  O27  1  0.55448350  0.74462050  0.85655600  1
  O  O28  1  0.35916250  0.95278050  0.35066800  1
  O  O29  1  0.43452550  0.16368350  0.64035300  1
  O  O30  1  0.35122850  0.33144450  0.98247500  1
  O  O31  1  0.33543250  0.00749150  0.94962900  1
