# generated using pymatgen
data_Li7Mn(OF)3
_symmetry_space_group_name_H-M   'P 1'
_cell_length_a   5.41676947
_cell_length_b   5.59008137
_cell_length_c   5.88096361
_cell_angle_alpha   63.93196485
_cell_angle_beta   67.90349220
_cell_angle_gamma   63.29459581
_symmetry_Int_Tables_number   1
_chemical_formula_structural   Li7Mn(OF)3
_chemical_formula_sum   'Li7 Mn1 O3 F3'
_cell_volume   139.31053452
_cell_formula_units_Z   1
loop_
 _symmetry_equiv_pos_site_id
 _symmetry_equiv_pos_as_xyz
  1  'x, y, z'
loop_
 _atom_site_type_symbol
 _atom_site_label
 _atom_site_symmetry_multiplicity
 _atom_site_fract_x
 _atom_site_fract_y
 _atom_site_fract_z
 _atom_site_occupancy
  Li  Li0  1  0.54229925  0.85980600  0.37049275  1
  Li  Li1  1  0.10616500  0.77835575  0.64662575  1
  Li  Li2  1  0.61135550  0.69677500  0.01221550  1
  Li  Li3  1  0.41151250  0.24927425  0.98996875  1
  Li  Li4  1  0.88441025  0.22504950  0.38960425  1
  Li  Li5  1  0.22153875  0.54056225  0.33689650  1
  Li  Li6  1  0.49016900  0.11453750  0.61696650  1
  Mn  Mn7  1  0.95449500  0.06396675  0.00100975  1
  O  O8  1  0.23143950  0.92087525  0.24270375  1
  O  O9  1  0.76837325  0.03857100  0.77171275  1
  O  O10  1  0.57854500  0.25656475  0.24093775  1
  F  F11  1  0.41374750  0.77308350  0.73827900  1
  F  F12  1  0.89107000  0.59319350  0.25368850  1
  F  F13  1  0.15960775  0.39691250  0.72766575  1
