# generated using pymatgen
data_Li2Fe(PO4)2
_symmetry_space_group_name_H-M   'P 1'
_cell_length_a   4.92781289
_cell_length_b   4.92781289
_cell_length_c   7.32633152
_cell_angle_alpha   90.00000000
_cell_angle_beta   90.00000000
_cell_angle_gamma   120.00000000
_symmetry_Int_Tables_number   1
_chemical_formula_structural   Li2Fe(PO4)2
_chemical_formula_sum   'Li2 Fe1 P2 O8'
_cell_volume   154.07267294
_cell_formula_units_Z   1
loop_
 _symmetry_equiv_pos_site_id
 _symmetry_equiv_pos_as_xyz
  1  'x, y, z'
loop_
 _atom_site_type_symbol
 _atom_site_label
 _atom_site_symmetry_multiplicity
 _atom_site_fract_x
 _atom_site_fract_y
 _atom_site_fract_z
 _atom_site_occupancy
  Li  Li0  1  0.33333333  0.66666667  0.69740100  1
  Li  Li1  1  0.66666667  0.33333333  0.30259900  1
  Fe  Fe2  1  0.00000000  0.00000000  0.00000000  1
  P  P3  1  0.33333333  0.66666667  0.22818200  1
  P  P4  1  0.66666667  0.33333333  0.77181800  1
  O  O5  1  0.04572000  0.69019900  0.16310700  1
  O  O6  1  0.33333333  0.66666667  0.43786600  1
  O  O7  1  0.30980100  0.35552100  0.16310700  1
  O  O8  1  0.64447900  0.95428000  0.16310700  1
  O  O9  1  0.35552100  0.04572000  0.83689300  1
  O  O10  1  0.69019900  0.64447900  0.83689300  1
  O  O11  1  0.66666667  0.33333333  0.56213400  1
  O  O12  1  0.95428000  0.30980100  0.83689300  1
