# generated using pymatgen
data_Li4Cr3Ni2Sb3O16
_symmetry_space_group_name_H-M   'P 1'
_cell_length_a   10.52190800
_cell_length_b   6.10587400
_cell_length_c   9.79254719
_cell_angle_alpha   90.00000000
_cell_angle_beta   90.71204478
_cell_angle_gamma   90.00000000
_symmetry_Int_Tables_number   1
_chemical_formula_structural   Li4Cr3Ni2Sb3O16
_chemical_formula_sum   'Li8 Cr6 Ni4 Sb6 O32'
_cell_volume   629.07796512
_cell_formula_units_Z   2
loop_
 _symmetry_equiv_pos_site_id
 _symmetry_equiv_pos_as_xyz
  1  'x, y, z'
loop_
 _atom_site_type_symbol
 _atom_site_label
 _atom_site_symmetry_multiplicity
 _atom_site_fract_x
 _atom_site_fract_y
 _atom_site_fract_z
 _atom_site_occupancy
  Li  Li0  1  0.32944200  0.00000000  0.90164400  1
  Li  Li1  1  0.98919000  0.00000000  0.00659100  1
  Li  Li2  1  0.98682700  0.00000000  0.49046100  1
  Li  Li3  1  0.66458300  0.00000000  0.37049000  1
  Li  Li4  1  0.82944200  0.50000000  0.90164400  1
  Li  Li5  1  0.48919000  0.50000000  0.00659100  1
  Li  Li6  1  0.48682700  0.50000000  0.49046100  1
  Li  Li7  1  0.16458300  0.50000000  0.37049000  1
  Cr  Cr8  1  0.41660200  0.75354200  0.21502400  1
  Cr  Cr9  1  0.41660200  0.24645800  0.21502400  1
  Cr  Cr10  1  0.83178500  0.00000000  0.71655000  1
  Cr  Cr11  1  0.91660200  0.25354200  0.21502400  1
  Cr  Cr12  1  0.91660200  0.74645800  0.21502400  1
  Cr  Cr13  1  0.33178500  0.50000000  0.71655000  1
  Ni  Ni14  1  0.34469100  0.00000000  0.47317500  1
  Ni  Ni15  1  0.67231900  0.00000000  0.01087000  1
  Ni  Ni16  1  0.84469100  0.50000000  0.47317500  1
  Ni  Ni17  1  0.17231900  0.50000000  0.01087000  1
  Sb  Sb18  1  0.17071000  0.00000000  0.21467900  1
  Sb  Sb19  1  0.58491900  0.75302800  0.71578500  1
  Sb  Sb20  1  0.58491900  0.24697200  0.71578500  1
  Sb  Sb21  1  0.67071000  0.50000000  0.21467900  1
  Sb  Sb22  1  0.08491900  0.25302800  0.71578500  1
  Sb  Sb23  1  0.08491900  0.74697200  0.71578500  1
  O  O24  1  0.42468300  0.73673300  0.60622700  1
  O  O25  1  0.48400200  0.00000000  0.33229000  1
  O  O26  1  0.33223300  0.00000000  0.10468000  1
  O  O27  1  0.00278900  0.00000000  0.31172000  1
  O  O28  1  0.00067700  0.00000000  0.82033400  1
  O  O29  1  0.42468300  0.26326700  0.60622700  1
  O  O30  1  0.25854950  0.77801350  0.33655500  1
  O  O31  1  0.25854950  0.22198650  0.33655500  1
  O  O32  1  0.84006600  0.00000000  0.10582200  1
  O  O33  1  0.15535200  0.00000000  0.60318100  1
  O  O34  1  0.74027950  0.77319250  0.83008800  1
  O  O35  1  0.74027950  0.22680750  0.83008800  1
  O  O36  1  0.66636400  0.00000000  0.60285400  1
  O  O37  1  0.58190300  0.73455400  0.10127100  1
  O  O38  1  0.51422300  0.00000000  0.83260500  1
  O  O39  1  0.58190300  0.26544600  0.10127100  1
  O  O40  1  0.92468300  0.23673300  0.60622700  1
  O  O41  1  0.98400200  0.50000000  0.33229000  1
  O  O42  1  0.83223300  0.50000000  0.10468000  1
  O  O43  1  0.50278900  0.50000000  0.31172000  1
  O  O44  1  0.50067700  0.50000000  0.82033400  1
  O  O45  1  0.92468300  0.76326700  0.60622700  1
  O  O46  1  0.75854950  0.27801350  0.33655500  1
  O  O47  1  0.75854950  0.72198650  0.33655500  1
  O  O48  1  0.34006600  0.50000000  0.10582200  1
  O  O49  1  0.65535200  0.50000000  0.60318100  1
  O  O50  1  0.24027950  0.27319250  0.83008800  1
  O  O51  1  0.24027950  0.72680750  0.83008800  1
  O  O52  1  0.16636400  0.50000000  0.60285400  1
  O  O53  1  0.08190300  0.23455400  0.10127100  1
  O  O54  1  0.01422300  0.50000000  0.83260500  1
  O  O55  1  0.08190300  0.76544600  0.10127100  1
