# generated using pymatgen
data_Ho2CuO4
_symmetry_space_group_name_H-M   'P 1'
_cell_length_a   5.48364400
_cell_length_b   11.83156800
_cell_length_c   5.47871500
_cell_angle_alpha   90.00000000
_cell_angle_beta   90.00000000
_cell_angle_gamma   90.00000000
_symmetry_Int_Tables_number   1
_chemical_formula_structural   Ho2CuO4
_chemical_formula_sum   'Ho8 Cu4 O16'
_cell_volume   355.45961473
_cell_formula_units_Z   4
loop_
 _symmetry_equiv_pos_site_id
 _symmetry_equiv_pos_as_xyz
  1  'x, y, z'
loop_
 _atom_site_type_symbol
 _atom_site_label
 _atom_site_symmetry_multiplicity
 _atom_site_fract_x
 _atom_site_fract_y
 _atom_site_fract_z
 _atom_site_occupancy
  Ho  Ho0  1  0.00000000  0.34504900  0.00000000  1
  Ho  Ho1  1  0.50000000  0.15495100  0.00000000  1
  Ho  Ho2  1  0.00000000  0.15495100  0.50000000  1
  Ho  Ho3  1  0.50000000  0.34504900  0.50000000  1
  Ho  Ho4  1  0.50000000  0.84504900  0.00000000  1
  Ho  Ho5  1  0.00000000  0.65495100  0.00000000  1
  Ho  Ho6  1  0.50000000  0.65495100  0.50000000  1
  Ho  Ho7  1  0.00000000  0.84504900  0.50000000  1
  Cu  Cu8  1  0.00000000  0.00000000  0.00000000  1
  Cu  Cu9  1  0.50000000  0.00000000  0.50000000  1
  Cu  Cu10  1  0.50000000  0.50000000  0.00000000  1
  Cu  Cu11  1  0.00000000  0.50000000  0.50000000  1
  O  O12  1  0.30502700  0.00000000  0.19542600  1
  O  O13  1  0.23926800  0.25000000  0.25000000  1
  O  O14  1  0.73926800  0.25000000  0.25000000  1
  O  O15  1  0.80502700  0.00000000  0.30457400  1
  O  O16  1  0.19497300  0.00000000  0.69542600  1
  O  O17  1  0.76073200  0.25000000  0.75000000  1
  O  O18  1  0.26073200  0.25000000  0.75000000  1
  O  O19  1  0.69497300  0.00000000  0.80457400  1
  O  O20  1  0.80502700  0.50000000  0.19542600  1
  O  O21  1  0.73926800  0.75000000  0.25000000  1
  O  O22  1  0.23926800  0.75000000  0.25000000  1
  O  O23  1  0.30502700  0.50000000  0.30457400  1
  O  O24  1  0.69497300  0.50000000  0.69542600  1
  O  O25  1  0.26073200  0.75000000  0.75000000  1
  O  O26  1  0.76073200  0.75000000  0.75000000  1
  O  O27  1  0.19497300  0.50000000  0.80457400  1
