# generated using pymatgen
data_Li7Ti5O12
_symmetry_space_group_name_H-M   'P 1'
_cell_length_a   5.07985400
_cell_length_b   8.80097600
_cell_length_c   9.98184141
_cell_angle_alpha   90.00000000
_cell_angle_beta   99.71316509
_cell_angle_gamma   90.00000000
_symmetry_Int_Tables_number   1
_chemical_formula_structural   Li7Ti5O12
_chemical_formula_sum   'Li14 Ti10 O24'
_cell_volume   439.86757437
_cell_formula_units_Z   2
loop_
 _symmetry_equiv_pos_site_id
 _symmetry_equiv_pos_as_xyz
  1  'x, y, z'
loop_
 _atom_site_type_symbol
 _atom_site_label
 _atom_site_symmetry_multiplicity
 _atom_site_fract_x
 _atom_site_fract_y
 _atom_site_fract_z
 _atom_site_occupancy
  Li  Li0  1  0.75423100  0.00000000  0.74311300  1
  Li  Li1  1  0.25564850  0.66607850  0.25567000  1
  Li  Li2  1  0.24576900  0.00000000  0.25688700  1
  Li  Li3  1  0.74435150  0.66607850  0.74433000  1
  Li  Li4  1  0.24435150  0.83392150  0.74433000  1
  Li  Li5  1  0.75564850  0.83392150  0.25567000  1
  Li  Li6  1  0.00000000  0.00000000  0.50000000  1
  Li  Li7  1  0.25423100  0.50000000  0.74311300  1
  Li  Li8  1  0.75564850  0.16607850  0.25567000  1
  Li  Li9  1  0.74576900  0.50000000  0.25688700  1
  Li  Li10  1  0.24435150  0.16607850  0.74433000  1
  Li  Li11  1  0.74435150  0.33392150  0.74433000  1
  Li  Li12  1  0.25564850  0.33392150  0.25567000  1
  Li  Li13  1  0.50000000  0.50000000  0.50000000  1
  Ti  Ti14  1  0.50000000  0.83327300  0.50000000  1
  Ti  Ti15  1  0.50000000  0.00000000  0.00000000  1
  Ti  Ti16  1  0.50000000  0.67112900  0.00000000  1
  Ti  Ti17  1  0.00000000  0.66672700  0.50000000  1
  Ti  Ti18  1  0.00000000  0.82887100  0.00000000  1
  Ti  Ti19  1  0.00000000  0.33327300  0.50000000  1
  Ti  Ti20  1  0.00000000  0.50000000  0.00000000  1
  Ti  Ti21  1  0.00000000  0.17112900  0.00000000  1
  Ti  Ti22  1  0.50000000  0.16672700  0.50000000  1
  Ti  Ti23  1  0.50000000  0.32887100  0.00000000  1
  O  O24  1  0.60806300  0.00000000  0.38701700  1
  O  O25  1  0.39193700  0.00000000  0.61298300  1
  O  O26  1  0.36029500  0.67743400  0.61307300  1
  O  O27  1  0.12683000  0.67126000  0.88126100  1
  O  O28  1  0.37317000  0.82874000  0.11873900  1
  O  O29  1  0.87317000  0.67126000  0.11873900  1
  O  O30  1  0.13970500  0.82256600  0.38692700  1
  O  O31  1  0.63970500  0.67743400  0.38692700  1
  O  O32  1  0.86029500  0.82256600  0.61307300  1
  O  O33  1  0.62683000  0.82874000  0.88126100  1
  O  O34  1  0.12651600  0.00000000  0.87856100  1
  O  O35  1  0.87348400  0.00000000  0.12143900  1
  O  O36  1  0.10806300  0.50000000  0.38701700  1
  O  O37  1  0.89193700  0.50000000  0.61298300  1
  O  O38  1  0.86029500  0.17743400  0.61307300  1
  O  O39  1  0.62683000  0.17126000  0.88126100  1
  O  O40  1  0.87317000  0.32874000  0.11873900  1
  O  O41  1  0.37317000  0.17126000  0.11873900  1
  O  O42  1  0.63970500  0.32256600  0.38692700  1
  O  O43  1  0.13970500  0.17743400  0.38692700  1
  O  O44  1  0.36029500  0.32256600  0.61307300  1
  O  O45  1  0.12683000  0.32874000  0.88126100  1
  O  O46  1  0.62651600  0.50000000  0.87856100  1
  O  O47  1  0.37348400  0.50000000  0.12143900  1
