# generated using pymatgen
data_V3Fe2Sb(PO4)6
_symmetry_space_group_name_H-M   'P 1'
_cell_length_a   8.71677779
_cell_length_b   8.71677779
_cell_length_c   21.06955057
_cell_angle_alpha   90.00000000
_cell_angle_beta   90.00000000
_cell_angle_gamma   120.00000000
_symmetry_Int_Tables_number   1
_chemical_formula_structural   V3Fe2Sb(PO4)6
_chemical_formula_sum   'V9 Fe6 Sb3 P18 O72'
_cell_volume   1386.42970155
_cell_formula_units_Z   3
loop_
 _symmetry_equiv_pos_site_id
 _symmetry_equiv_pos_as_xyz
  1  'x, y, z'
loop_
 _atom_site_type_symbol
 _atom_site_label
 _atom_site_symmetry_multiplicity
 _atom_site_fract_x
 _atom_site_fract_y
 _atom_site_fract_z
 _atom_site_occupancy
  V  V0  1  0.33333333  0.66666667  0.02370167  1
  V  V1  1  0.33333333  0.66666667  0.80958467  1
  V  V2  1  0.33333333  0.66666667  0.30788467  1
  V  V3  1  0.00000000  0.00000000  0.35703500  1
  V  V4  1  0.00000000  0.00000000  0.14291800  1
  V  V5  1  0.00000000  0.00000000  0.64121800  1
  V  V6  1  0.66666667  0.33333333  0.69036833  1
  V  V7  1  0.66666667  0.33333333  0.47625133  1
  V  V8  1  0.66666667  0.33333333  0.97455133  1
  Fe  Fe9  1  0.33333333  0.66666667  0.67166367  1
  Fe  Fe10  1  0.33333333  0.66666667  0.16616467  1
  Fe  Fe11  1  0.00000000  0.00000000  0.00499700  1
  Fe  Fe12  1  0.00000000  0.00000000  0.49949800  1
  Fe  Fe13  1  0.66666667  0.33333333  0.33833033  1
  Fe  Fe14  1  0.66666667  0.33333333  0.83283133  1
  Sb  Sb15  1  0.33333333  0.66666667  0.52400367  1
  Sb  Sb16  1  0.00000000  0.00000000  0.85733700  1
  Sb  Sb17  1  0.66666667  0.33333333  0.19067033  1
  P  P18  1  0.96198967  0.33507833  0.08189133  1
  P  P19  1  0.37308867  0.03801033  0.08189133  1
  P  P20  1  0.66492167  0.62691133  0.08189133  1
  P  P21  1  0.00270200  0.70992400  0.24931500  1
  P  P22  1  0.29007600  0.29277800  0.24931500  1
  P  P23  1  0.70722200  0.99729800  0.24931500  1
  P  P24  1  0.62865633  0.66841167  0.41522467  1
  P  P25  1  0.03975533  0.37134367  0.41522467  1
  P  P26  1  0.33158833  0.96024467  0.41522467  1
  P  P27  1  0.66936867  0.04325733  0.58264833  1
  P  P28  1  0.95674267  0.62611133  0.58264833  1
  P  P29  1  0.37388867  0.33063133  0.58264833  1
  P  P30  1  0.29532300  0.00174500  0.74855800  1
  P  P31  1  0.70642200  0.70467700  0.74855800  1
  P  P32  1  0.99825500  0.29357800  0.74855800  1
  P  P33  1  0.33603533  0.37659067  0.91598167  1
  P  P34  1  0.62340933  0.95944467  0.91598167  1
  P  P35  1  0.04055533  0.66396467  0.91598167  1
  O  O36  1  0.14249300  0.47169000  0.35734900  1
  O  O37  1  0.32919700  0.85750700  0.35734900  1
  O  O38  1  0.52831000  0.67080300  0.35734900  1
  O  O39  1  0.98169367  0.16766833  0.07697033  1
  O  O40  1  0.86447367  0.33325633  0.14548633  1
  O  O41  1  0.14803633  0.50053967  0.09058867  1
  O  O42  1  0.18597467  0.01830633  0.07697033  1
  O  O43  1  0.35250333  0.85196367  0.09058867  1
  O  O44  1  0.99466833  0.79989567  0.18892267  1
  O  O45  1  0.49946033  0.64749667  0.09058867  1
  O  O46  1  0.82823267  0.51403233  0.25605433  1
  O  O47  1  0.20010433  0.19477267  0.18892267  1
  O  O48  1  0.46878267  0.13552633  0.14548633  1
  O  O49  1  0.83233167  0.81402533  0.07697033  1
  O  O50  1  0.16327367  0.67989633  0.24252633  1
  O  O51  1  0.66674367  0.53121733  0.14548633  1
  O  O52  1  0.32010367  0.48337733  0.24252633  1
  O  O53  1  0.48596767  0.31420033  0.25605433  1
  O  O54  1  0.51662267  0.83672633  0.24252633  1
  O  O55  1  0.80522733  0.00533167  0.18892267  1
  O  O56  1  0.68579967  0.17176733  0.25605433  1
  O  O57  1  0.13562367  0.66847033  0.97656333  1
  O  O58  1  0.33152967  0.46715333  0.97656333  1
  O  O59  1  0.53284667  0.86437633  0.97656333  1
  O  O60  1  0.80915967  0.80502333  0.69068233  1
  O  O61  1  0.99586367  0.19084033  0.69068233  1
  O  O62  1  0.19497667  0.00413633  0.69068233  1
  O  O63  1  0.64836033  0.50100167  0.41030367  1
  O  O64  1  0.53114033  0.66658967  0.47881967  1
  O  O65  1  0.81470300  0.83387300  0.42392200  1
  O  O66  1  0.85264133  0.35163967  0.41030367  1
  O  O67  1  0.01917000  0.18529700  0.42392200  1
  O  O68  1  0.66133500  0.13322900  0.52225600  1
  O  O69  1  0.16612700  0.98083000  0.42392200  1
  O  O70  1  0.49489933  0.84736567  0.58938767  1
  O  O71  1  0.86677100  0.52810600  0.52225600  1
  O  O72  1  0.13544933  0.46885967  0.47881967  1
  O  O73  1  0.49899833  0.14735867  0.41030367  1
  O  O74  1  0.82994033  0.01322967  0.57585967  1
  O  O75  1  0.33341033  0.86455067  0.47881967  1
  O  O76  1  0.98677033  0.81671067  0.57585967  1
  O  O77  1  0.15263433  0.64753367  0.58938767  1
  O  O78  1  0.18328933  0.17005967  0.57585967  1
  O  O79  1  0.47189400  0.33866500  0.52225600  1
  O  O80  1  0.35246633  0.50510067  0.58938767  1
  O  O81  1  0.80229033  0.00180367  0.30989667  1
  O  O82  1  0.99819633  0.80048667  0.30989667  1
  O  O83  1  0.19951333  0.19770967  0.30989667  1
  O  O84  1  0.47582633  0.13835667  0.02401567  1
  O  O85  1  0.66253033  0.52417367  0.02401567  1
  O  O86  1  0.86164333  0.33746967  0.02401567  1
  O  O87  1  0.31502700  0.83433500  0.74363700  1
  O  O88  1  0.19780700  0.99992300  0.81215300  1
  O  O89  1  0.48136967  0.16720633  0.75725533  1
  O  O90  1  0.51930800  0.68497300  0.74363700  1
  O  O91  1  0.68583667  0.51863033  0.75725533  1
  O  O92  1  0.32800167  0.46656233  0.85558933  1
  O  O93  1  0.83279367  0.31416333  0.75725533  1
  O  O94  1  0.16156600  0.18069900  0.92272100  1
  O  O95  1  0.53343767  0.86143933  0.85558933  1
  O  O96  1  0.80211600  0.80219300  0.81215300  1
  O  O97  1  0.16566500  0.48069200  0.74363700  1
  O  O98  1  0.49660700  0.34656300  0.90919300  1
  O  O99  1  0.00007700  0.19788400  0.81215300  1
  O  O100  1  0.65343700  0.15004400  0.90919300  1
  O  O101  1  0.81930100  0.98086700  0.92272100  1
  O  O102  1  0.84995600  0.50339300  0.90919300  1
  O  O103  1  0.13856067  0.67199833  0.85558933  1
  O  O104  1  0.01913300  0.83843400  0.92272100  1
  O  O105  1  0.46895700  0.33513700  0.64323000  1
  O  O106  1  0.66486300  0.13382000  0.64323000  1
  O  O107  1  0.86618000  0.53104300  0.64323000  1
