# generated using pymatgen
data_Mn3Cr3(CoO8)2
_symmetry_space_group_name_H-M   'P 1'
_cell_length_a   10.07360793
_cell_length_b   5.81567794
_cell_length_c   8.69840095
_cell_angle_alpha   90.00000000
_cell_angle_beta   90.66129852
_cell_angle_gamma   90.00000000
_symmetry_Int_Tables_number   1
_chemical_formula_structural   Mn3Cr3(CoO8)2
_chemical_formula_sum   'Mn6 Cr6 Co4 O32'
_cell_volume   509.56065474
_cell_formula_units_Z   2
loop_
 _symmetry_equiv_pos_site_id
 _symmetry_equiv_pos_as_xyz
  1  'x, y, z'
loop_
 _atom_site_type_symbol
 _atom_site_label
 _atom_site_symmetry_multiplicity
 _atom_site_fract_x
 _atom_site_fract_y
 _atom_site_fract_z
 _atom_site_occupancy
  Mn  Mn0  1  0.82939300  0.00000000  0.21133400  1
  Mn  Mn1  1  0.91403500  0.25215100  0.71255800  1
  Mn  Mn2  1  0.91403500  0.74784900  0.71255800  1
  Mn  Mn3  1  0.32939300  0.50000000  0.21133400  1
  Mn  Mn4  1  0.41403500  0.75215100  0.71255800  1
  Mn  Mn5  1  0.41403500  0.24784900  0.71255800  1
  Cr  Cr6  1  0.58127800  0.74841000  0.20047900  1
  Cr  Cr7  1  0.58127800  0.25159000  0.20047900  1
  Cr  Cr8  1  0.66212200  0.50000000  0.70111400  1
  Cr  Cr9  1  0.08127800  0.24841000  0.20047900  1
  Cr  Cr10  1  0.08127800  0.75159000  0.20047900  1
  Cr  Cr11  1  0.16212200  0.00000000  0.70111400  1
  Co  Co12  1  0.66904600  0.00000000  0.48310900  1
  Co  Co13  1  0.83379350  0.50000000  0.98246800  1
  Co  Co14  1  0.16904600  0.50000000  0.48310900  1
  Co  Co15  1  0.33379350  0.00000000  0.98246800  1
  O  O16  1  0.58650350  0.75424650  0.60615200  1
  O  O17  1  0.52980800  0.00000000  0.33979400  1
  O  O18  1  0.66994400  0.00000000  0.09289200  1
  O  O19  1  0.99738050  0.00000000  0.31406500  1
  O  O20  1  0.99604850  0.00000000  0.81870600  1
  O  O21  1  0.58650350  0.24575350  0.60615200  1
  O  O22  1  0.73813050  0.78560550  0.34230400  1
  O  O23  1  0.73813050  0.21439450  0.34230400  1
  O  O24  1  0.67421050  0.50000000  0.10651800  1
  O  O25  1  0.82978050  0.00000000  0.60217100  1
  O  O26  1  0.76157900  0.28774800  0.84408300  1
  O  O27  1  0.76157900  0.71225200  0.84408300  1
  O  O28  1  0.83588900  0.50000000  0.59972100  1
  O  O29  1  0.91601350  0.25928450  0.10346500  1
  O  O30  1  0.97736800  0.50000000  0.84578800  1
  O  O31  1  0.91601350  0.74071550  0.10346500  1
  O  O32  1  0.08650350  0.25424650  0.60615200  1
  O  O33  1  0.02980800  0.50000000  0.33979400  1
  O  O34  1  0.16994400  0.50000000  0.09289200  1
  O  O35  1  0.49738050  0.50000000  0.31406500  1
  O  O36  1  0.49604850  0.50000000  0.81870600  1
  O  O37  1  0.08650350  0.74575350  0.60615200  1
  O  O38  1  0.23813050  0.28560550  0.34230400  1
  O  O39  1  0.23813050  0.71439450  0.34230400  1
  O  O40  1  0.17421050  0.00000000  0.10651800  1
  O  O41  1  0.32978050  0.50000000  0.60217100  1
  O  O42  1  0.26157900  0.78774800  0.84408300  1
  O  O43  1  0.26157900  0.21225200  0.84408300  1
  O  O44  1  0.33588900  0.00000000  0.59972100  1
  O  O45  1  0.41601350  0.75928450  0.10346500  1
  O  O46  1  0.47736800  0.00000000  0.84578800  1
  O  O47  1  0.41601350  0.24071550  0.10346500  1
