# generated using pymatgen
data_Ti3CoCu2(PO4)6
_symmetry_space_group_name_H-M   'P 1'
_cell_length_a   8.57194822
_cell_length_b   8.57194822
_cell_length_c   20.87863160
_cell_angle_alpha   90.00000000
_cell_angle_beta   90.00000000
_cell_angle_gamma   120.00000000
_symmetry_Int_Tables_number   1
_chemical_formula_structural   Ti3CoCu2(PO4)6
_chemical_formula_sum   'Ti9 Co3 Cu6 P18 O72'
_cell_volume   1328.59232846
_cell_formula_units_Z   3
loop_
 _symmetry_equiv_pos_site_id
 _symmetry_equiv_pos_as_xyz
  1  'x, y, z'
loop_
 _atom_site_type_symbol
 _atom_site_label
 _atom_site_symmetry_multiplicity
 _atom_site_fract_x
 _atom_site_fract_y
 _atom_site_fract_z
 _atom_site_occupancy
  Ti  Ti0  1  0.33333333  0.66666667  0.80776667  1
  Ti  Ti1  1  0.33333333  0.66666667  0.02402967  1
  Ti  Ti2  1  0.33333333  0.66666667  0.30977767  1
  Ti  Ti3  1  0.00000000  0.00000000  0.14110000  1
  Ti  Ti4  1  0.00000000  0.00000000  0.35736300  1
  Ti  Ti5  1  0.00000000  0.00000000  0.64311100  1
  Ti  Ti6  1  0.66666667  0.33333333  0.47443333  1
  Ti  Ti7  1  0.66666667  0.33333333  0.69069633  1
  Ti  Ti8  1  0.66666667  0.33333333  0.97644433  1
  Co  Co9  1  0.33333333  0.66666667  0.52578867  1
  Co  Co10  1  0.00000000  0.00000000  0.85912200  1
  Co  Co11  1  0.66666667  0.33333333  0.19245533  1
  Cu  Cu12  1  0.33333333  0.66666667  0.66458667  1
  Cu  Cu13  1  0.33333333  0.66666667  0.16620867  1
  Cu  Cu14  1  0.00000000  0.00000000  0.99792000  1
  Cu  Cu15  1  0.00000000  0.00000000  0.49954200  1
  Cu  Cu16  1  0.66666667  0.33333333  0.33125333  1
  Cu  Cu17  1  0.66666667  0.33333333  0.83287533  1
  P  P18  1  0.70752467  0.00301733  0.24865933  1
  P  P19  1  0.99698267  0.70450733  0.24865933  1
  P  P20  1  0.29549267  0.29247533  0.24865933  1
  P  P21  1  0.37951167  0.04615933  0.08562533  1
  P  P22  1  0.66664767  0.62048833  0.08562533  1
  P  P23  1  0.95384067  0.33335233  0.08562533  1
  P  P24  1  0.37419133  0.33635067  0.58199267  1
  P  P25  1  0.66364933  0.03784067  0.58199267  1
  P  P26  1  0.96215933  0.62580867  0.58199267  1
  P  P27  1  0.04617833  0.37949267  0.41895867  1
  P  P28  1  0.33331433  0.95382167  0.41895867  1
  P  P29  1  0.62050733  0.66668567  0.41895867  1
  P  P30  1  0.04085800  0.66968400  0.91532600  1
  P  P31  1  0.33031600  0.37117400  0.91532600  1
  P  P32  1  0.62882600  0.95914200  0.91532600  1
  P  P33  1  0.71284500  0.71282600  0.75229200  1
  P  P34  1  0.99998100  0.28715500  0.75229200  1
  P  P35  1  0.28717400  0.00001900  0.75229200  1
  O  O36  1  0.52308967  0.85729733  0.97583433  1
  O  O37  1  0.14270267  0.66579233  0.97583433  1
  O  O38  1  0.18785233  0.02351367  0.07857867  1
  O  O39  1  0.33420767  0.47691033  0.97583433  1
  O  O40  1  0.47595167  0.13917333  0.14661933  1
  O  O41  1  0.35230433  0.85211167  0.08672967  1
  O  O42  1  0.83566133  0.81214767  0.07857867  1
  O  O43  1  0.49980733  0.64769567  0.08672967  1
  O  O44  1  0.14509800  0.66765400  0.85570200  1
  O  O45  1  0.14788833  0.50019267  0.08672967  1
  O  O46  1  0.69019900  0.17399900  0.25406200  1
  O  O47  1  0.33234600  0.47744400  0.85570200  1
  O  O48  1  0.66322167  0.52404833  0.14661933  1
  O  O49  1  0.97648633  0.16433867  0.07857867  1
  O  O50  1  0.51935767  0.83142233  0.24482233  1
  O  O51  1  0.86082667  0.33677833  0.14661933  1
  O  O52  1  0.16857767  0.68793533  0.24482233  1
  O  O53  1  0.82600100  0.51620000  0.25406200  1
  O  O54  1  0.31206467  0.48064233  0.24482233  1
  O  O55  1  0.52255600  0.85490200  0.85570200  1
  O  O56  1  0.33243467  0.85289133  0.35731633  1
  O  O57  1  0.48380000  0.30980100  0.25406200  1
  O  O58  1  0.52045667  0.66756533  0.35731633  1
  O  O59  1  0.14710867  0.47954333  0.35731633  1
  O  O60  1  0.18975633  0.19063067  0.30916767  1
  O  O61  1  0.80936933  0.99912567  0.30916767  1
  O  O62  1  0.85451900  0.35684700  0.41191200  1
  O  O63  1  0.00087433  0.81024367  0.30916767  1
  O  O64  1  0.14261833  0.47250667  0.47995267  1
  O  O65  1  0.01897100  0.18544500  0.42006300  1
  O  O66  1  0.50232800  0.14548100  0.41191200  1
  O  O67  1  0.16647400  0.98102900  0.42006300  1
  O  O68  1  0.81176467  0.00098733  0.18903533  1
  O  O69  1  0.81455500  0.83352600  0.42006300  1
  O  O70  1  0.35686567  0.50733233  0.58739533  1
  O  O71  1  0.99901267  0.81077733  0.18903533  1
  O  O72  1  0.32988833  0.85738167  0.47995267  1
  O  O73  1  0.64315300  0.49767200  0.41191200  1
  O  O74  1  0.18602433  0.16475567  0.57815567  1
  O  O75  1  0.52749333  0.67011167  0.47995267  1
  O  O76  1  0.83524433  0.02126867  0.57815567  1
  O  O77  1  0.49266767  0.84953333  0.58739533  1
  O  O78  1  0.97873133  0.81397567  0.57815567  1
  O  O79  1  0.18922267  0.18823533  0.18903533  1
  O  O80  1  0.99910133  0.18622467  0.69064967  1
  O  O81  1  0.15046667  0.64313433  0.58739533  1
  O  O82  1  0.18712333  0.00089867  0.69064967  1
  O  O83  1  0.81377533  0.81287667  0.69064967  1
  O  O84  1  0.85642300  0.52396400  0.64250100  1
  O  O85  1  0.47603600  0.33245900  0.64250100  1
  O  O86  1  0.52118567  0.69018033  0.74524533  1
  O  O87  1  0.66754100  0.14357700  0.64250100  1
  O  O88  1  0.80928500  0.80584000  0.81328600  1
  O  O89  1  0.68563767  0.51877833  0.75339633  1
  O  O90  1  0.16899467  0.47881433  0.74524533  1
  O  O91  1  0.83314067  0.31436233  0.75339633  1
  O  O92  1  0.47843133  0.33432067  0.52236867  1
  O  O93  1  0.48122167  0.16685933  0.75339633  1
  O  O94  1  0.02353233  0.84066567  0.92072867  1
  O  O95  1  0.66567933  0.14411067  0.52236867  1
  O  O96  1  0.99655500  0.19071500  0.81328600  1
  O  O97  1  0.30981967  0.83100533  0.74524533  1
  O  O98  1  0.85269100  0.49808900  0.91148900  1
  O  O99  1  0.19416000  0.00344500  0.81328600  1
  O  O100  1  0.50191100  0.35460200  0.91148900  1
  O  O101  1  0.15933433  0.18286667  0.92072867  1
  O  O102  1  0.64539800  0.14730900  0.91148900  1
  O  O103  1  0.85588933  0.52156867  0.52236867  1
  O  O104  1  0.66576800  0.51955800  0.02398300  1
  O  O105  1  0.81713333  0.97646767  0.92072867  1
  O  O106  1  0.85379000  0.33423200  0.02398300  1
  O  O107  1  0.48044200  0.14621000  0.02398300  1
