# generated using pymatgen
data_BiB2O5
_symmetry_space_group_name_H-M   'P 1'
_cell_length_a   11.53063200
_cell_length_b   6.83936200
_cell_length_c   10.24383599
_cell_angle_alpha   90.00000000
_cell_angle_beta   102.86411947
_cell_angle_gamma   90.00000000
_symmetry_Int_Tables_number   1
_chemical_formula_structural   BiB2O5
_chemical_formula_sum   'Bi8 B16 O40'
_cell_volume   787.57468925
_cell_formula_units_Z   8
loop_
 _symmetry_equiv_pos_site_id
 _symmetry_equiv_pos_as_xyz
  1  'x, y, z'
loop_
 _atom_site_type_symbol
 _atom_site_label
 _atom_site_symmetry_multiplicity
 _atom_site_fract_x
 _atom_site_fract_y
 _atom_site_fract_z
 _atom_site_occupancy
  Bi  Bi0  1  0.31622700  0.30039400  0.69183800  1
  Bi  Bi1  1  0.31622700  0.69960600  0.19183800  1
  Bi  Bi2  1  0.68377300  0.30039400  0.80816200  1
  Bi  Bi3  1  0.68377300  0.69960600  0.30816200  1
  Bi  Bi4  1  0.81622700  0.80039400  0.69183800  1
  Bi  Bi5  1  0.81622700  0.19960600  0.19183800  1
  Bi  Bi6  1  0.18377300  0.80039400  0.80816200  1
  Bi  Bi7  1  0.18377300  0.19960600  0.30816200  1
  B  B8  1  0.36477950  0.80591150  0.64088700  1
  B  B9  1  0.47623700  0.75774300  0.00109000  1
  B  B10  1  0.36477950  0.19408850  0.14088700  1
  B  B11  1  0.47623700  0.24225700  0.50109000  1
  B  B12  1  0.52376300  0.75774300  0.49891000  1
  B  B13  1  0.63522050  0.80591150  0.85911300  1
  B  B14  1  0.52376300  0.24225700  0.99891000  1
  B  B15  1  0.63522050  0.19408850  0.35911300  1
  B  B16  1  0.86477950  0.30591150  0.64088700  1
  B  B17  1  0.97623700  0.25774300  0.00109000  1
  B  B18  1  0.86477950  0.69408850  0.14088700  1
  B  B19  1  0.97623700  0.74225700  0.50109000  1
  B  B20  1  0.02376300  0.25774300  0.49891000  1
  B  B21  1  0.13522050  0.30591150  0.85911300  1
  B  B22  1  0.02376300  0.74225700  0.99891000  1
  B  B23  1  0.13522050  0.69408850  0.35911300  1
  O  O24  1  0.19239750  0.13577850  0.84091600  1
  O  O25  1  0.19239750  0.86422150  0.34091600  1
  O  O26  1  0.35341850  0.75286250  0.97278100  1
  O  O27  1  0.31248450  0.96389650  0.68965400  1
  O  O28  1  0.35341850  0.24713750  0.47278100  1
  O  O29  1  0.31248450  0.03610350  0.18965400  1
  O  O30  1  0.47762700  0.30771300  0.87127300  1
  O  O31  1  0.46372150  0.82966050  0.58979000  1
  O  O32  1  0.53627850  0.82966050  0.91021000  1
  O  O33  1  0.47762700  0.69228700  0.37127300  1
  O  O34  1  0.52237300  0.30771300  0.62872700  1
  O  O35  1  0.46372150  0.17033950  0.08979000  1
  O  O36  1  0.53627850  0.17033950  0.41021000  1
  O  O37  1  0.52237300  0.69228700  0.12872700  1
  O  O38  1  0.68751550  0.96389650  0.81034600  1
  O  O39  1  0.64658150  0.75286250  0.52721900  1
  O  O40  1  0.68751550  0.03610350  0.31034600  1
  O  O41  1  0.64658150  0.24713750  0.02721900  1
  O  O42  1  0.80760250  0.13577850  0.65908400  1
  O  O43  1  0.80760250  0.86422150  0.15908400  1
  O  O44  1  0.69239750  0.63577850  0.84091600  1
  O  O45  1  0.69239750  0.36422150  0.34091600  1
  O  O46  1  0.85341850  0.25286250  0.97278100  1
  O  O47  1  0.81248450  0.46389650  0.68965400  1
  O  O48  1  0.85341850  0.74713750  0.47278100  1
  O  O49  1  0.81248450  0.53610350  0.18965400  1
  O  O50  1  0.97762700  0.80771300  0.87127300  1
  O  O51  1  0.96372150  0.32966050  0.58979000  1
  O  O52  1  0.03627850  0.32966050  0.91021000  1
  O  O53  1  0.97762700  0.19228700  0.37127300  1
  O  O54  1  0.02237300  0.80771300  0.62872700  1
  O  O55  1  0.96372150  0.67033950  0.08979000  1
  O  O56  1  0.03627850  0.67033950  0.41021000  1
  O  O57  1  0.02237300  0.19228700  0.12872700  1
  O  O58  1  0.18751550  0.46389650  0.81034600  1
  O  O59  1  0.14658150  0.25286250  0.52721900  1
  O  O60  1  0.18751550  0.53610350  0.31034600  1
  O  O61  1  0.14658150  0.74713750  0.02721900  1
  O  O62  1  0.30760250  0.63577850  0.65908400  1
  O  O63  1  0.30760250  0.36422150  0.15908400  1
