# generated using pymatgen
data_VGaO3
_symmetry_space_group_name_H-M   'P 1'
_cell_length_a   5.13583100
_cell_length_b   5.13927600
_cell_length_c   7.87559300
_cell_angle_alpha   90.00000000
_cell_angle_beta   90.00000000
_cell_angle_gamma   90.00000000
_symmetry_Int_Tables_number   1
_chemical_formula_structural   VGaO3
_chemical_formula_sum   'V4 Ga4 O12'
_cell_volume   207.87196928
_cell_formula_units_Z   4
loop_
 _symmetry_equiv_pos_site_id
 _symmetry_equiv_pos_as_xyz
  1  'x, y, z'
loop_
 _atom_site_type_symbol
 _atom_site_label
 _atom_site_symmetry_multiplicity
 _atom_site_fract_x
 _atom_site_fract_y
 _atom_site_fract_z
 _atom_site_occupancy
  V  V0  1  0.00000000  0.00000000  0.50000000  1
  V  V1  1  0.00000000  0.00000000  0.00000000  1
  V  V2  1  0.50000000  0.50000000  0.50000000  1
  V  V3  1  0.50000000  0.50000000  0.00000000  1
  Ga  Ga4  1  0.01188700  0.51555150  0.75000000  1
  Ga  Ga5  1  0.48811300  0.01555150  0.25000000  1
  Ga  Ga6  1  0.51188700  0.98444850  0.75000000  1
  Ga  Ga7  1  0.98811300  0.48444850  0.25000000  1
  O  O8  1  0.12288500  0.12826250  0.25000000  1
  O  O9  1  0.16946500  0.65735150  0.07478150  1
  O  O10  1  0.16946500  0.65735150  0.42521850  1
  O  O11  1  0.33053500  0.15735150  0.57478150  1
  O  O12  1  0.33053500  0.15735150  0.92521850  1
  O  O13  1  0.37711500  0.62826250  0.75000000  1
  O  O14  1  0.62288500  0.37173750  0.25000000  1
  O  O15  1  0.66946500  0.84264850  0.07478150  1
  O  O16  1  0.66946500  0.84264850  0.42521850  1
  O  O17  1  0.83053500  0.34264850  0.57478150  1
  O  O18  1  0.83053500  0.34264850  0.92521850  1
  O  O19  1  0.87711500  0.87173750  0.75000000  1
