# generated using pymatgen
data_V4(OF3)3
_symmetry_space_group_name_H-M   'P 1'
_cell_length_a   5.27861524
_cell_length_b   5.37811231
_cell_length_c   9.04521248
_cell_angle_alpha   105.58352137
_cell_angle_beta   90.07251409
_cell_angle_gamma   118.79185559
_symmetry_Int_Tables_number   1
_chemical_formula_structural   V4(OF3)3
_chemical_formula_sum   'V4 O3 F9'
_cell_volume   214.15501542
_cell_formula_units_Z   1
loop_
 _symmetry_equiv_pos_site_id
 _symmetry_equiv_pos_as_xyz
  1  'x, y, z'
loop_
 _atom_site_type_symbol
 _atom_site_label
 _atom_site_symmetry_multiplicity
 _atom_site_fract_x
 _atom_site_fract_y
 _atom_site_fract_z
 _atom_site_occupancy
  V  V0  1  0.25032173  0.75100537  0.74978022  1
  V  V1  1  0.50133141  0.46858987  0.50581267  1
  V  V2  1  0.73546730  0.26467320  0.25529352  1
  V  V3  1  0.99942275  0.03302445  0.99275865  1
  O  O4  1  0.03961464  0.35881853  0.87989316  1
  O  O5  1  0.45998709  0.14177071  0.62073398  1
  O  O6  1  0.59322075  0.40796661  0.33053779  1
  F  F7  1  0.08169670  0.33112092  0.41836923  1
  F  F8  1  0.07235516  0.91332775  0.83101074  1
  F  F9  1  0.57512217  0.82567657  0.92419236  1
  F  F10  1  0.42728309  0.58881324  0.66827553  1
  F  F11  1  0.42187990  0.16356822  0.07842144  1
  F  F12  1  0.53863228  0.86402697  0.37515904  1
  F  F13  1  0.96163693  0.62961272  0.11924570  1
  F  F14  1  0.91651305  0.08173993  0.17409849  1
  F  F15  1  0.92551503  0.67626393  0.57641849  1
