# generated using pymatgen
data_LiV2(CO3)4
_symmetry_space_group_name_H-M   'P 1'
_cell_length_a   9.01784400
_cell_length_b   11.99544600
_cell_length_c   8.72982234
_cell_angle_alpha   90.00000000
_cell_angle_beta   119.16033795
_cell_angle_gamma   90.00000000
_symmetry_Int_Tables_number   1
_chemical_formula_structural   LiV2(CO3)4
_chemical_formula_sum   'Li4 V8 C16 O48'
_cell_volume   824.64661941
_cell_formula_units_Z   4
loop_
 _symmetry_equiv_pos_site_id
 _symmetry_equiv_pos_as_xyz
  1  'x, y, z'
loop_
 _atom_site_type_symbol
 _atom_site_label
 _atom_site_symmetry_multiplicity
 _atom_site_fract_x
 _atom_site_fract_y
 _atom_site_fract_z
 _atom_site_occupancy
  Li  Li0  1  0.37582250  0.37363450  0.99936800  1
  Li  Li1  1  0.37582250  0.62636550  0.49936800  1
  Li  Li2  1  0.87582250  0.87363450  0.99936800  1
  Li  Li3  1  0.87582250  0.12636550  0.49936800  1
  V  V4  1  0.12704800  0.12258700  0.99964200  1
  V  V5  1  0.62267150  0.87246450  0.50023400  1
  V  V6  1  0.12704800  0.87741300  0.49964200  1
  V  V7  1  0.62267150  0.12753550  0.00023400  1
  V  V8  1  0.62704800  0.62258700  0.99964200  1
  V  V9  1  0.12267150  0.37246450  0.50023400  1
  V  V10  1  0.62704800  0.37741300  0.49964200  1
  V  V11  1  0.12267150  0.62753550  0.00023400  1
  C  C12  1  0.49255750  0.05641050  0.24573000  1
  C  C13  1  0.75793150  0.19374950  0.75689900  1
  C  C14  1  0.25647500  0.80391500  0.25900000  1
  C  C15  1  0.75793150  0.80625050  0.25689900  1
  C  C16  1  0.49341100  0.44668500  0.73862200  1
  C  C17  1  0.49255750  0.94358950  0.74573000  1
  C  C18  1  0.49341100  0.55331500  0.23862200  1
  C  C19  1  0.25647500  0.19608500  0.75900000  1
  C  C20  1  0.99255750  0.55641050  0.24573000  1
  C  C21  1  0.25793150  0.69374950  0.75689900  1
  C  C22  1  0.75647500  0.30391500  0.25900000  1
  C  C23  1  0.25793150  0.30625050  0.25689900  1
  C  C24  1  0.99341100  0.94668500  0.73862200  1
  C  C25  1  0.99255750  0.44358950  0.74573000  1
  C  C26  1  0.99341100  0.05331500  0.23862200  1
  C  C27  1  0.75647500  0.69608500  0.75900000  1
  O  O28  1  0.73732250  0.76945750  0.10644700  1
  O  O29  1  0.34130550  0.05723150  0.10626700  1
  O  O30  1  0.50519950  0.01538250  0.38672500  1
  O  O31  1  0.73732250  0.23054250  0.60644700  1
  O  O32  1  0.41351400  0.69238100  0.88758600  1
  O  O33  1  0.63114800  0.34981900  0.26904200  1
  O  O34  1  0.63471000  0.83857400  0.27556900  1
  O  O35  1  0.61997700  0.09443700  0.23494300  1
  O  O36  1  0.11445100  0.09554200  0.22202200  1
  O  O37  1  0.84436800  0.96373700  0.60515300  1
  O  O38  1  0.34130550  0.94276850  0.60626700  1
  O  O39  1  0.52027900  0.47673000  0.89534200  1
  O  O40  1  0.23639850  0.77099050  0.11022200  1
  O  O41  1  0.40040900  0.78726900  0.40118600  1
  O  O42  1  0.41351400  0.30761900  0.38758600  1
  O  O43  1  0.63114800  0.65018100  0.76904200  1
  O  O44  1  0.63471000  0.16142600  0.77556900  1
  O  O45  1  0.11445100  0.90445800  0.72202200  1
  O  O46  1  0.61997700  0.90556300  0.73494300  1
  O  O47  1  0.84436800  0.03626300  0.10515300  1
  O  O48  1  0.52027900  0.52327000  0.39534200  1
  O  O49  1  0.23639850  0.22900950  0.61022200  1
  O  O50  1  0.40040900  0.21273100  0.90118600  1
  O  O51  1  0.50519950  0.98461750  0.88672500  1
  O  O52  1  0.23732250  0.26945750  0.10644700  1
  O  O53  1  0.84130550  0.55723150  0.10626700  1
  O  O54  1  0.00519950  0.51538250  0.38672500  1
  O  O55  1  0.23732250  0.73054250  0.60644700  1
  O  O56  1  0.91351400  0.19238100  0.88758600  1
  O  O57  1  0.13114800  0.84981900  0.26904200  1
  O  O58  1  0.13471000  0.33857400  0.27556900  1
  O  O59  1  0.11997700  0.59443700  0.23494300  1
  O  O60  1  0.61445100  0.59554200  0.22202200  1
  O  O61  1  0.34436800  0.46373700  0.60515300  1
  O  O62  1  0.84130550  0.44276850  0.60626700  1
  O  O63  1  0.02027900  0.97673000  0.89534200  1
  O  O64  1  0.73639850  0.27099050  0.11022200  1
  O  O65  1  0.90040900  0.28726900  0.40118600  1
  O  O66  1  0.91351400  0.80761900  0.38758600  1
  O  O67  1  0.13114800  0.15018100  0.76904200  1
  O  O68  1  0.13471000  0.66142600  0.77556900  1
  O  O69  1  0.61445100  0.40445800  0.72202200  1
  O  O70  1  0.11997700  0.40556300  0.73494300  1
  O  O71  1  0.34436800  0.53626300  0.10515300  1
  O  O72  1  0.02027900  0.02327000  0.39534200  1
  O  O73  1  0.73639850  0.72900950  0.61022200  1
  O  O74  1  0.90040900  0.71273100  0.90118600  1
  O  O75  1  0.00519950  0.48461750  0.88672500  1
