# generated using pymatgen
data_FeOF
_symmetry_space_group_name_H-M   'P 1'
_cell_length_a   4.92189500
_cell_length_b   3.11267100
_cell_length_c   14.51425479
_cell_angle_alpha   90.00000000
_cell_angle_beta   90.04652980
_cell_angle_gamma   90.00000000
_symmetry_Int_Tables_number   1
_chemical_formula_structural   FeOF
_chemical_formula_sum   'Fe6 O6 F6'
_cell_volume   222.36179098
_cell_formula_units_Z   6
loop_
 _symmetry_equiv_pos_site_id
 _symmetry_equiv_pos_as_xyz
  1  'x, y, z'
loop_
 _atom_site_type_symbol
 _atom_site_label
 _atom_site_symmetry_multiplicity
 _atom_site_fract_x
 _atom_site_fract_y
 _atom_site_fract_z
 _atom_site_occupancy
  Fe  Fe0  1  0.02683700  0.00000000  0.99381800  1
  Fe  Fe1  1  0.02019700  0.00000000  0.66346800  1
  Fe  Fe2  1  0.03194100  0.00000000  0.33192300  1
  Fe  Fe3  1  0.51702800  0.50000000  0.85140700  1
  Fe  Fe4  1  0.44756800  0.50000000  0.50124800  1
  Fe  Fe5  1  0.44756100  0.50000000  0.16385500  1
  O  O6  1  0.18381800  0.50000000  0.39363900  1
  O  O7  1  0.18456100  0.50000000  0.06189000  1
  O  O8  1  0.33873200  0.00000000  0.89949800  1
  O  O9  1  0.28638100  0.00000000  0.22489600  1
  O  O10  1  0.30585100  0.00000000  0.56460100  1
  O  O11  1  0.82948700  0.50000000  0.93714900  1
  F  F12  1  0.21452200  0.50000000  0.73890300  1
  F  F13  1  0.71572500  0.00000000  0.76724300  1
  F  F14  1  0.68799100  0.00000000  0.43489600  1
  F  F15  1  0.68102200  0.00000000  0.10358900  1
  F  F16  1  0.79470100  0.50000000  0.60072400  1
  F  F17  1  0.78607500  0.50000000  0.26725500  1
