# generated using pymatgen
data_La3Ce4O12
_symmetry_space_group_name_H-M   'P 1'
_cell_length_a   28.59927800
_cell_length_b   3.85410600
_cell_length_c   5.63139822
_cell_angle_alpha   90.00000000
_cell_angle_beta   100.90379494
_cell_angle_gamma   90.00000000
_symmetry_Int_Tables_number   1
_chemical_formula_structural   La3Ce4O12
_chemical_formula_sum   'La6 Ce8 O24'
_cell_volume   609.51254796
_cell_formula_units_Z   2
loop_
 _symmetry_equiv_pos_site_id
 _symmetry_equiv_pos_as_xyz
  1  'x, y, z'
loop_
 _atom_site_type_symbol
 _atom_site_label
 _atom_site_symmetry_multiplicity
 _atom_site_fract_x
 _atom_site_fract_y
 _atom_site_fract_z
 _atom_site_occupancy
  La  La0  1  0.00000000  0.00000000  0.00000000  1
  La  La1  1  0.42705100  0.00000000  0.47391300  1
  La  La2  1  0.07294900  0.50000000  0.52608700  1
  La  La3  1  0.50000000  0.50000000  0.00000000  1
  La  La4  1  0.92705100  0.50000000  0.47391300  1
  La  La5  1  0.57294900  0.00000000  0.52608700  1
  Ce  Ce6  1  0.15169600  0.00000000  0.16430200  1
  Ce  Ce7  1  0.28588800  0.00000000  0.28551600  1
  Ce  Ce8  1  0.34830400  0.50000000  0.83569800  1
  Ce  Ce9  1  0.21411200  0.50000000  0.71448400  1
  Ce  Ce10  1  0.65169600  0.50000000  0.16430200  1
  Ce  Ce11  1  0.78588800  0.50000000  0.28551600  1
  Ce  Ce12  1  0.84830400  0.00000000  0.83569800  1
  Ce  Ce13  1  0.71411200  0.00000000  0.71448400  1
  O  O14  1  0.13591700  0.50000000  0.89251600  1
  O  O15  1  0.01320700  0.50000000  0.76180700  1
  O  O16  1  0.35020400  0.00000000  0.60323500  1
  O  O17  1  0.21648000  0.00000000  0.47150000  1
  O  O18  1  0.14979600  0.50000000  0.39676500  1
  O  O19  1  0.07468700  0.00000000  0.29216000  1
  O  O20  1  0.42531300  0.50000000  0.70784000  1
  O  O21  1  0.48679300  0.00000000  0.23819300  1
  O  O22  1  0.28352000  0.50000000  0.52850000  1
  O  O23  1  0.21399300  0.00000000  0.96906900  1
  O  O24  1  0.28600700  0.50000000  0.03093100  1
  O  O25  1  0.36408300  0.00000000  0.10748400  1
  O  O26  1  0.63591700  0.00000000  0.89251600  1
  O  O27  1  0.51320700  0.00000000  0.76180700  1
  O  O28  1  0.85020400  0.50000000  0.60323500  1
  O  O29  1  0.71648000  0.50000000  0.47150000  1
  O  O30  1  0.64979600  0.00000000  0.39676500  1
  O  O31  1  0.57468700  0.50000000  0.29216000  1
  O  O32  1  0.92531300  0.00000000  0.70784000  1
  O  O33  1  0.98679300  0.50000000  0.23819300  1
  O  O34  1  0.78352000  0.00000000  0.52850000  1
  O  O35  1  0.71399300  0.50000000  0.96906900  1
  O  O36  1  0.78600700  0.00000000  0.03093100  1
  O  O37  1  0.86408300  0.50000000  0.10748400  1
