# generated using pymatgen
data_Mn3(OF2)2
_symmetry_space_group_name_H-M   'P 1'
_cell_length_a   3.16074100
_cell_length_b   4.87516948
_cell_length_c   14.49169919
_cell_angle_alpha   90.00000000
_cell_angle_beta   90.00000000
_cell_angle_gamma   90.00000000
_symmetry_Int_Tables_number   1
_chemical_formula_structural   Mn3(OF2)2
_chemical_formula_sum   'Mn6 O4 F8'
_cell_volume   223.30473832
_cell_formula_units_Z   2
loop_
 _symmetry_equiv_pos_site_id
 _symmetry_equiv_pos_as_xyz
  1  'x, y, z'
loop_
 _atom_site_type_symbol
 _atom_site_label
 _atom_site_symmetry_multiplicity
 _atom_site_fract_x
 _atom_site_fract_y
 _atom_site_fract_z
 _atom_site_occupancy
  Mn  Mn0  1  0.00000000  0.92863700  0.84237650  1
  Mn  Mn1  1  0.00000000  0.07136300  0.15762350  1
  Mn  Mn2  1  0.00000000  0.00000000  0.50000000  1
  Mn  Mn3  1  0.50000000  0.50000000  0.00000000  1
  Mn  Mn4  1  0.50000000  0.57136300  0.34237650  1
  Mn  Mn5  1  0.50000000  0.42863700  0.65762350  1
  O  O6  1  0.50000000  0.23673600  0.09746750  1
  O  O7  1  0.00000000  0.26326400  0.59746750  1
  O  O8  1  0.00000000  0.73673600  0.40253250  1
  O  O9  1  0.50000000  0.76326400  0.90253250  1
  F  F10  1  0.50000000  0.20498500  0.43633250  1
  F  F11  1  0.50000000  0.12689500  0.77265350  1
  F  F12  1  0.00000000  0.29501500  0.93633250  1
  F  F13  1  0.00000000  0.37310500  0.27265350  1
  F  F14  1  0.00000000  0.70498500  0.06366750  1
  F  F15  1  0.00000000  0.62689500  0.72734650  1
  F  F16  1  0.50000000  0.87310500  0.22734650  1
  F  F17  1  0.50000000  0.79501500  0.56366750  1
