# generated using pymatgen
data_NaLi3Ti2Cr2(PO4)6
_symmetry_space_group_name_H-M   'P 1'
_cell_length_a   8.47626981
_cell_length_b   8.47626981
_cell_length_c   22.24447877
_cell_angle_alpha   90.00000000
_cell_angle_beta   90.00000000
_cell_angle_gamma   120.00000000
_symmetry_Int_Tables_number   1
_chemical_formula_structural   NaLi3Ti2Cr2(PO4)6
_chemical_formula_sum   'Na3 Li9 Ti6 Cr6 P18 O72'
_cell_volume   1384.08387834
_cell_formula_units_Z   3
loop_
 _symmetry_equiv_pos_site_id
 _symmetry_equiv_pos_as_xyz
  1  'x, y, z'
loop_
 _atom_site_type_symbol
 _atom_site_label
 _atom_site_symmetry_multiplicity
 _atom_site_fract_x
 _atom_site_fract_y
 _atom_site_fract_z
 _atom_site_occupancy
  Na  Na0  1  0.00000000  0.00000000  0.00577700  1
  Na  Na1  1  0.66666667  0.33333333  0.33911033  1
  Na  Na2  1  0.33333333  0.66666667  0.67244367  1
  Li  Li3  1  0.62804633  0.00300667  0.27805167  1
  Li  Li4  1  0.99699333  0.62503967  0.27805167  1
  Li  Li5  1  0.37496033  0.37195367  0.27805167  1
  Li  Li6  1  0.29471300  0.33634000  0.61138500  1
  Li  Li7  1  0.66366000  0.95837300  0.61138500  1
  Li  Li8  1  0.04162700  0.70528700  0.61138500  1
  Li  Li9  1  0.96137967  0.66967333  0.94471833  1
  Li  Li10  1  0.33032667  0.29170633  0.94471833  1
  Li  Li11  1  0.70829367  0.03862033  0.94471833  1
  Ti  Ti12  1  0.33333333  0.66666667  0.02510067  1
  Ti  Ti13  1  0.00000000  0.00000000  0.14422500  1
  Ti  Ti14  1  0.00000000  0.00000000  0.35843400  1
  Ti  Ti15  1  0.66666667  0.33333333  0.47755833  1
  Ti  Ti16  1  0.66666667  0.33333333  0.69176733  1
  Ti  Ti17  1  0.33333333  0.66666667  0.81089167  1
  Cr  Cr18  1  0.66666667  0.33333333  0.18772433  1
  Cr  Cr19  1  0.33333333  0.66666667  0.31634067  1
  Cr  Cr20  1  0.33333333  0.66666667  0.52105767  1
  Cr  Cr21  1  0.00000000  0.00000000  0.64967400  1
  Cr  Cr22  1  0.00000000  0.00000000  0.85439100  1
  Cr  Cr23  1  0.66666667  0.33333333  0.98300733  1
  P  P24  1  0.28723200  0.00505600  0.25116400  1
  P  P25  1  0.67167533  0.04905167  0.08270267  1
  P  P26  1  0.95094833  0.62262367  0.08270267  1
  P  P27  1  0.71782400  0.71276800  0.25116400  1
  P  P28  1  0.99494400  0.28217600  0.25116400  1
  P  P29  1  0.37737633  0.32832467  0.08270267  1
  P  P30  1  0.95389867  0.33838933  0.58449733  1
  P  P31  1  0.33834200  0.38238500  0.41603600  1
  P  P32  1  0.61761500  0.95595700  0.41603600  1
  P  P33  1  0.38449067  0.04610133  0.58449733  1
  P  P34  1  0.66161067  0.61550933  0.58449733  1
  P  P35  1  0.04404300  0.66165800  0.41603600  1
  P  P36  1  0.62056533  0.67172267  0.91783067  1
  P  P37  1  0.00500867  0.71571833  0.74936933  1
  P  P38  1  0.28428167  0.28929033  0.74936933  1
  P  P39  1  0.05115733  0.37943467  0.91783067  1
  P  P40  1  0.32827733  0.94884267  0.91783067  1
  P  P41  1  0.71070967  0.99499133  0.74936933  1
  O  O42  1  0.82351867  0.56253333  0.02684533  1
  O  O43  1  0.43746667  0.26098533  0.02684533  1
  O  O44  1  0.19212533  0.00140567  0.19169467  1
  O  O45  1  0.49799067  0.13349233  0.24788333  1
  O  O46  1  0.73901467  0.17648133  0.02684533  1
  O  O47  1  0.01963700  0.82918900  0.08844500  1
  O  O48  1  0.66020133  0.13628467  0.14055567  1
  O  O49  1  0.24713800  0.80986000  0.26442200  1
  O  O50  1  0.48022133  0.88215367  0.06867967  1
  O  O51  1  0.86371533  0.52391667  0.14055567  1
  O  O52  1  0.80955200  0.98036300  0.08844500  1
  O  O53  1  0.11784633  0.59806767  0.06867967  1
  O  O54  1  0.56272200  0.75286200  0.26442200  1
  O  O55  1  0.86650767  0.36449833  0.24788333  1
  O  O56  1  0.80928033  0.80787467  0.19169467  1
  O  O57  1  0.19014000  0.43727800  0.26442200  1
  O  O58  1  0.40193233  0.51977867  0.06867967  1
  O  O59  1  0.99859433  0.19071967  0.19169467  1
  O  O60  1  0.63550167  0.50200933  0.24788333  1
  O  O61  1  0.90959933  0.13216567  0.30061767  1
  O  O62  1  0.17081100  0.19044800  0.08844500  1
  O  O63  1  0.47608333  0.33979867  0.14055567  1
  O  O64  1  0.22256633  0.09040067  0.30061767  1
  O  O65  1  0.86783433  0.77743367  0.30061767  1
  O  O66  1  0.49018533  0.89586667  0.36017867  1
  O  O67  1  0.10413333  0.59431867  0.36017867  1
  O  O68  1  0.85879200  0.33473900  0.52502800  1
  O  O69  1  0.16465733  0.46682567  0.58121667  1
  O  O70  1  0.40568133  0.50981467  0.36017867  1
  O  O71  1  0.68630367  0.16252233  0.42177833  1
  O  O72  1  0.32686800  0.46961800  0.47388900  1
  O  O73  1  0.91380467  0.14319333  0.59775533  1
  O  O74  1  0.14688800  0.21548700  0.40201300  1
  O  O75  1  0.53038200  0.85725000  0.47388900  1
  O  O76  1  0.47621867  0.31369633  0.42177833  1
  O  O77  1  0.78451300  0.93140100  0.40201300  1
  O  O78  1  0.22938867  0.08619533  0.59775533  1
  O  O79  1  0.53317433  0.69783167  0.58121667  1
  O  O80  1  0.47594700  0.14120800  0.52502800  1
  O  O81  1  0.85680667  0.77061133  0.59775533  1
  O  O82  1  0.06859900  0.85311200  0.40201300  1
  O  O83  1  0.66526100  0.52405300  0.52502800  1
  O  O84  1  0.30216833  0.83534267  0.58121667  1
  O  O85  1  0.57626600  0.46549900  0.63395100  1
  O  O86  1  0.83747767  0.52378133  0.42177833  1
  O  O87  1  0.14275000  0.67313200  0.47388900  1
  O  O88  1  0.88923300  0.42373400  0.63395100  1
  O  O89  1  0.53450100  0.11076700  0.63395100  1
  O  O90  1  0.15685200  0.22920000  0.69351200  1
  O  O91  1  0.77080000  0.92765200  0.69351200  1
  O  O92  1  0.52545867  0.66807233  0.85836133  1
  O  O93  1  0.83132400  0.80015900  0.91455000  1
  O  O94  1  0.07234800  0.84314800  0.69351200  1
  O  O95  1  0.35297033  0.49585567  0.75511167  1
  O  O96  1  0.99353467  0.80295133  0.80722233  1
  O  O97  1  0.58047133  0.47652667  0.93108867  1
  O  O98  1  0.81355467  0.54882033  0.73534633  1
  O  O99  1  0.19704867  0.19058333  0.80722233  1
  O  O100  1  0.14288533  0.64702967  0.75511167  1
  O  O101  1  0.45117967  0.26473433  0.73534633  1
  O  O102  1  0.89605533  0.41952867  0.93108867  1
  O  O103  1  0.19984100  0.03116500  0.91455000  1
  O  O104  1  0.14261367  0.47454133  0.85836133  1
  O  O105  1  0.52347333  0.10394467  0.93108867  1
  O  O106  1  0.73526567  0.18644533  0.73534633  1
  O  O107  1  0.33192767  0.85738633  0.85836133  1
  O  O108  1  0.96883500  0.16867600  0.91455000  1
  O  O109  1  0.24293267  0.79883233  0.96728433  1
  O  O110  1  0.50414433  0.85711467  0.75511167  1
  O  O111  1  0.80941667  0.00646533  0.80722233  1
  O  O112  1  0.55589967  0.75706733  0.96728433  1
  O  O113  1  0.20116767  0.44410033  0.96728433  1
