# generated using pymatgen
data_Ti3CuNi2(PO4)6
_symmetry_space_group_name_H-M   'P 1'
_cell_length_a   8.62434502
_cell_length_b   8.62434502
_cell_length_c   20.54117460
_cell_angle_alpha   90.00000000
_cell_angle_beta   90.00000000
_cell_angle_gamma   120.00000000
_symmetry_Int_Tables_number   1
_chemical_formula_structural   Ti3CuNi2(PO4)6
_chemical_formula_sum   'Ti9 Cu3 Ni6 P18 O72'
_cell_volume   1323.14716457
_cell_formula_units_Z   3
loop_
 _symmetry_equiv_pos_site_id
 _symmetry_equiv_pos_as_xyz
  1  'x, y, z'
loop_
 _atom_site_type_symbol
 _atom_site_label
 _atom_site_symmetry_multiplicity
 _atom_site_fract_x
 _atom_site_fract_y
 _atom_site_fract_z
 _atom_site_occupancy
  Ti  Ti0  1  0.33333333  0.66666667  0.80892967  1
  Ti  Ti1  1  0.33333333  0.66666667  0.02166867  1
  Ti  Ti2  1  0.33333333  0.66666667  0.31160567  1
  Ti  Ti3  1  0.00000000  0.00000000  0.14226300  1
  Ti  Ti4  1  0.00000000  0.00000000  0.35500200  1
  Ti  Ti5  1  0.00000000  0.00000000  0.64493900  1
  Ti  Ti6  1  0.66666667  0.33333333  0.47559633  1
  Ti  Ti7  1  0.66666667  0.33333333  0.68833533  1
  Ti  Ti8  1  0.66666667  0.33333333  0.97827233  1
  Cu  Cu9  1  0.33333333  0.66666667  0.52211067  1
  Cu  Cu10  1  0.00000000  0.00000000  0.85544400  1
  Cu  Cu11  1  0.66666667  0.33333333  0.18877733  1
  Ni  Ni12  1  0.33333333  0.66666667  0.66383067  1
  Ni  Ni13  1  0.33333333  0.66666667  0.16530967  1
  Ni  Ni14  1  0.00000000  0.00000000  0.99716400  1
  Ni  Ni15  1  0.00000000  0.00000000  0.49864300  1
  Ni  Ni16  1  0.66666667  0.33333333  0.33049733  1
  Ni  Ni17  1  0.66666667  0.33333333  0.83197633  1
  P  P18  1  0.00073167  0.29662433  0.24967933  1
  P  P19  1  0.29589267  0.99926833  0.24967933  1
  P  P20  1  0.70337567  0.70410733  0.24967933  1
  P  P21  1  0.96262867  0.62975133  0.08512533  1
  P  P22  1  0.37024867  0.33287733  0.08512533  1
  P  P23  1  0.66712267  0.03737133  0.08512533  1
  P  P24  1  0.66739833  0.62995767  0.58301267  1
  P  P25  1  0.96255933  0.33260167  0.58301267  1
  P  P26  1  0.37004233  0.03744067  0.58301267  1
  P  P27  1  0.62929533  0.96308467  0.41845867  1
  P  P28  1  0.03691533  0.66621067  0.41845867  1
  P  P29  1  0.33378933  0.37070467  0.41845867  1
  P  P30  1  0.33406500  0.96329100  0.91634600  1
  P  P31  1  0.62922600  0.66593500  0.91634600  1
  P  P32  1  0.03670900  0.37077400  0.91634600  1
  P  P33  1  0.29596200  0.29641800  0.75179200  1
  P  P34  1  0.70358200  0.99954400  0.75179200  1
  P  P35  1  0.00045600  0.70403800  0.75179200  1
  O  O36  1  0.13509500  0.48966300  0.97597000  1
  O  O37  1  0.35456800  0.86490500  0.97597000  1
  O  O38  1  0.98470600  0.81978100  0.07386200  1
  O  O39  1  0.51033700  0.64543200  0.97597000  1
  O  O40  1  0.87034067  0.54175633  0.14729733  1
  O  O41  1  0.15669967  0.65757833  0.08855833  1
  O  O42  1  0.18021900  0.16492500  0.07386200  1
  O  O43  1  0.34242167  0.49912133  0.08855833  1
  O  O44  1  0.32674600  0.85308900  0.85543100  1
  O  O45  1  0.50087867  0.84330033  0.08855833  1
  O  O46  1  0.83560500  0.31419600  0.26135900  1
  O  O47  1  0.52634300  0.67325400  0.85543100  1
  O  O48  1  0.45824367  0.32858433  0.14729733  1
  O  O49  1  0.83507500  0.01529400  0.07386200  1
  O  O50  1  0.17171267  0.48437733  0.24101433  1
  O  O51  1  0.67141567  0.12965933  0.14729733  1
  O  O52  1  0.31266467  0.82828733  0.24101433  1
  O  O53  1  0.47859100  0.16439500  0.26135900  1
  O  O54  1  0.51562267  0.68733533  0.24101433  1
  O  O55  1  0.14691100  0.47365700  0.85543100  1
  O  O56  1  0.14802733  0.67321067  0.35721867  1
  O  O57  1  0.68580400  0.52140900  0.26135900  1
  O  O58  1  0.32678933  0.47481667  0.35721867  1
  O  O59  1  0.52518333  0.85197267  0.35721867  1
  O  O60  1  0.80176167  0.82299633  0.30930333  1
  O  O61  1  0.02123467  0.19823833  0.30930333  1
  O  O62  1  0.65137267  0.15311433  0.40719533  1
  O  O63  1  0.17700367  0.97876533  0.30930333  1
  O  O64  1  0.53700733  0.87508967  0.48063067  1
  O  O65  1  0.82336633  0.99091167  0.42189167  1
  O  O66  1  0.84688567  0.49825833  0.40719533  1
  O  O67  1  0.00908833  0.83245467  0.42189167  1
  O  O68  1  0.99341267  0.18642233  0.18876433  1
  O  O69  1  0.16754533  0.17663367  0.42189167  1
  O  O70  1  0.50227167  0.64752933  0.59469233  1
  O  O71  1  0.19300967  0.00658733  0.18876433  1
  O  O72  1  0.12491033  0.66191767  0.48063067  1
  O  O73  1  0.50174167  0.34862733  0.40719533  1
  O  O74  1  0.83837933  0.81771067  0.57434767  1
  O  O75  1  0.33808233  0.46299267  0.48063067  1
  O  O76  1  0.97933133  0.16162067  0.57434767  1
  O  O77  1  0.14525767  0.49772833  0.59469233  1
  O  O78  1  0.18228933  0.02066867  0.57434767  1
  O  O79  1  0.81357767  0.80699033  0.18876433  1
  O  O80  1  0.81469400  0.00654400  0.69055200  1
  O  O81  1  0.35247067  0.85474233  0.59469233  1
  O  O82  1  0.99345600  0.80815000  0.69055200  1
  O  O83  1  0.19185000  0.18530600  0.69055200  1
  O  O84  1  0.46842833  0.15632967  0.64263667  1
  O  O85  1  0.68790133  0.53157167  0.64263667  1
  O  O86  1  0.31803933  0.48644767  0.74052867  1
  O  O87  1  0.84367033  0.31209867  0.64263667  1
  O  O88  1  0.20367400  0.20842300  0.81396400  1
  O  O89  1  0.49003300  0.32424500  0.75522500  1
  O  O90  1  0.51355233  0.83159167  0.74052867  1
  O  O91  1  0.67575500  0.16578800  0.75522500  1
  O  O92  1  0.66007933  0.51975567  0.52209767  1
  O  O93  1  0.83421200  0.50996700  0.75522500  1
  O  O94  1  0.16893833  0.98086267  0.92802567  1
  O  O95  1  0.85967633  0.33992067  0.52209767  1
  O  O96  1  0.79157700  0.99525100  0.81396400  1
  O  O97  1  0.16840833  0.68196067  0.74052867  1
  O  O98  1  0.50504600  0.15104400  0.90768100  1
  O  O99  1  0.00474900  0.79632600  0.81396400  1
  O  O100  1  0.64599800  0.49495400  0.90768100  1
  O  O101  1  0.81192433  0.83106167  0.92802567  1
  O  O102  1  0.84895600  0.35400200  0.90768100  1
  O  O103  1  0.48024433  0.14032367  0.52209767  1
  O  O104  1  0.48136067  0.33987733  0.02388533  1
  O  O105  1  0.01913733  0.18807567  0.92802567  1
  O  O106  1  0.66012267  0.14148333  0.02388533  1
  O  O107  1  0.85851667  0.51863933  0.02388533  1
