# generated using pymatgen
data_Li3Ni4O4F3
_symmetry_space_group_name_H-M   'P 1'
_cell_length_a   2.95588800
_cell_length_b   2.95588800
_cell_length_c   29.21767400
_cell_angle_alpha   90.00000000
_cell_angle_beta   90.00000000
_cell_angle_gamma   90.00000000
_symmetry_Int_Tables_number   1
_chemical_formula_structural   Li3Ni4O4F3
_chemical_formula_sum   'Li6 Ni8 O8 F6'
_cell_volume   255.28281954
_cell_formula_units_Z   2
loop_
 _symmetry_equiv_pos_site_id
 _symmetry_equiv_pos_as_xyz
  1  'x, y, z'
loop_
 _atom_site_type_symbol
 _atom_site_label
 _atom_site_symmetry_multiplicity
 _atom_site_fract_x
 _atom_site_fract_y
 _atom_site_fract_z
 _atom_site_occupancy
  Li  Li0  1  0.00000000  0.00000000  0.07024100  1
  Li  Li1  1  0.50000000  0.50000000  0.42975900  1
  Li  Li2  1  0.50000000  0.50000000  0.00000000  1
  Li  Li3  1  0.50000000  0.50000000  0.57024100  1
  Li  Li4  1  0.00000000  0.00000000  0.92975900  1
  Li  Li5  1  0.00000000  0.00000000  0.50000000  1
  Ni  Ni6  1  0.50000000  0.50000000  0.14234100  1
  Ni  Ni7  1  0.00000000  0.00000000  0.21359200  1
  Ni  Ni8  1  0.50000000  0.50000000  0.28640800  1
  Ni  Ni9  1  0.00000000  0.00000000  0.35765900  1
  Ni  Ni10  1  0.00000000  0.00000000  0.64234100  1
  Ni  Ni11  1  0.50000000  0.50000000  0.71359200  1
  Ni  Ni12  1  0.00000000  0.00000000  0.78640800  1
  Ni  Ni13  1  0.50000000  0.50000000  0.85765900  1
  O  O14  1  0.00000000  0.00000000  0.14116900  1
  O  O15  1  0.50000000  0.50000000  0.21389500  1
  O  O16  1  0.00000000  0.00000000  0.28610500  1
  O  O17  1  0.50000000  0.50000000  0.35883100  1
  O  O18  1  0.50000000  0.50000000  0.64116900  1
  O  O19  1  0.00000000  0.00000000  0.71389500  1
  O  O20  1  0.50000000  0.50000000  0.78610500  1
  O  O21  1  0.00000000  0.00000000  0.85883100  1
  F  F22  1  0.50000000  0.50000000  0.06834400  1
  F  F23  1  0.00000000  0.00000000  0.43165600  1
  F  F24  1  0.00000000  0.00000000  0.00000000  1
  F  F25  1  0.00000000  0.00000000  0.56834400  1
  F  F26  1  0.50000000  0.50000000  0.93165600  1
  F  F27  1  0.50000000  0.50000000  0.50000000  1
