# generated using pymatgen
data_LiMn2O3
_symmetry_space_group_name_H-M   'P 1'
_cell_length_a   5.47838342
_cell_length_b   8.96023800
_cell_length_c   10.13880132
_cell_angle_alpha   90.00000000
_cell_angle_beta   97.65211083
_cell_angle_gamma   90.00000000
_symmetry_Int_Tables_number   1
_chemical_formula_structural   LiMn2O3
_chemical_formula_sum   'Li8 Mn16 O24'
_cell_volume   493.25761556
_cell_formula_units_Z   8
loop_
 _symmetry_equiv_pos_site_id
 _symmetry_equiv_pos_as_xyz
  1  'x, y, z'
loop_
 _atom_site_type_symbol
 _atom_site_label
 _atom_site_symmetry_multiplicity
 _atom_site_fract_x
 _atom_site_fract_y
 _atom_site_fract_z
 _atom_site_occupancy
  Li  Li0  1  0.50000000  0.07023600  0.75000000  1
  Li  Li1  1  0.50000000  0.92976400  0.25000000  1
  Li  Li2  1  0.50000000  0.75084450  0.75000000  1
  Li  Li3  1  0.50000000  0.24915550  0.25000000  1
  Li  Li4  1  0.00000000  0.57023600  0.75000000  1
  Li  Li5  1  0.00000000  0.42976400  0.25000000  1
  Li  Li6  1  0.00000000  0.25084450  0.75000000  1
  Li  Li7  1  0.00000000  0.74915550  0.25000000  1
  Mn  Mn8  1  0.75000000  0.25000000  0.00000000  1
  Mn  Mn9  1  0.75000000  0.75000000  0.50000000  1
  Mn  Mn10  1  0.25224150  0.08143250  0.99869100  1
  Mn  Mn11  1  0.25224150  0.91856750  0.49869100  1
  Mn  Mn12  1  0.50000000  0.41600100  0.75000000  1
  Mn  Mn13  1  0.50000000  0.58399900  0.25000000  1
  Mn  Mn14  1  0.74775850  0.08143250  0.50130900  1
  Mn  Mn15  1  0.74775850  0.91856750  0.00130900  1
  Mn  Mn16  1  0.25000000  0.75000000  0.00000000  1
  Mn  Mn17  1  0.25000000  0.25000000  0.50000000  1
  Mn  Mn18  1  0.75224150  0.58143250  0.99869100  1
  Mn  Mn19  1  0.75224150  0.41856750  0.49869100  1
  Mn  Mn20  1  0.00000000  0.91600100  0.75000000  1
  Mn  Mn21  1  0.00000000  0.08399900  0.25000000  1
  Mn  Mn22  1  0.24775850  0.58143250  0.50130900  1
  Mn  Mn23  1  0.24775850  0.41856750  0.00130900  1
  O  O24  1  0.85990900  0.06741200  0.88133100  1
  O  O25  1  0.85990900  0.93258800  0.38133100  1
  O  O26  1  0.14009100  0.06741200  0.61866900  1
  O  O27  1  0.14009100  0.93258800  0.11866900  1
  O  O28  1  0.65089150  0.25454750  0.61416800  1
  O  O29  1  0.65089150  0.74545250  0.11416800  1
  O  O30  1  0.34910850  0.25454750  0.88583200  1
  O  O31  1  0.34910850  0.74545250  0.38583200  1
  O  O32  1  0.64043600  0.93062900  0.61990000  1
  O  O33  1  0.64043600  0.06937100  0.11990000  1
  O  O34  1  0.35956400  0.93062900  0.88010000  1
  O  O35  1  0.35956400  0.06937100  0.38010000  1
  O  O36  1  0.35990900  0.56741200  0.88133100  1
  O  O37  1  0.35990900  0.43258800  0.38133100  1
  O  O38  1  0.64009100  0.56741200  0.61866900  1
  O  O39  1  0.64009100  0.43258800  0.11866900  1
  O  O40  1  0.15089150  0.75454750  0.61416800  1
  O  O41  1  0.15089150  0.24545250  0.11416800  1
  O  O42  1  0.84910850  0.75454750  0.88583200  1
  O  O43  1  0.84910850  0.24545250  0.38583200  1
  O  O44  1  0.14043600  0.43062900  0.61990000  1
  O  O45  1  0.14043600  0.56937100  0.11990000  1
  O  O46  1  0.85956400  0.43062900  0.88010000  1
  O  O47  1  0.85956400  0.56937100  0.38010000  1
