# generated using pymatgen
data_Mn(CoO3)2
_symmetry_space_group_name_H-M   'P 1'
_cell_length_a   4.95043200
_cell_length_b   8.59052400
_cell_length_c   9.62844100
_cell_angle_alpha   90.00000000
_cell_angle_beta   90.00000000
_cell_angle_gamma   90.00000000
_symmetry_Int_Tables_number   1
_chemical_formula_structural   Mn(CoO3)2
_chemical_formula_sum   'Mn4 Co8 O24'
_cell_volume   409.46683196
_cell_formula_units_Z   4
loop_
 _symmetry_equiv_pos_site_id
 _symmetry_equiv_pos_as_xyz
  1  'x, y, z'
loop_
 _atom_site_type_symbol
 _atom_site_label
 _atom_site_symmetry_multiplicity
 _atom_site_fract_x
 _atom_site_fract_y
 _atom_site_fract_z
 _atom_site_occupancy
  Mn  Mn0  1  0.50000000  0.00000000  0.50000000  1
  Mn  Mn1  1  0.00000000  0.00000000  0.00000000  1
  Mn  Mn2  1  0.00000000  0.50000000  0.50000000  1
  Mn  Mn3  1  0.50000000  0.50000000  0.00000000  1
  Co  Co4  1  0.00000000  0.16668700  0.50000000  1
  Co  Co5  1  0.50000000  0.16668700  0.00000000  1
  Co  Co6  1  0.00000000  0.33331300  0.00000000  1
  Co  Co7  1  0.50000000  0.33331300  0.50000000  1
  Co  Co8  1  0.50000000  0.66668700  0.50000000  1
  Co  Co9  1  0.00000000  0.66668700  0.00000000  1
  Co  Co10  1  0.50000000  0.83331300  0.00000000  1
  Co  Co11  1  0.00000000  0.83331300  0.50000000  1
  O  O12  1  0.33886600  0.00000000  0.09882700  1
  O  O13  1  0.16113400  0.00000000  0.59882700  1
  O  O14  1  0.83886600  0.00000000  0.40117300  1
  O  O15  1  0.33077900  0.16924800  0.40120400  1
  O  O16  1  0.66113400  0.00000000  0.90117300  1
  O  O17  1  0.16922100  0.16924800  0.90120400  1
  O  O18  1  0.83077900  0.16924800  0.09879600  1
  O  O19  1  0.66922100  0.16924800  0.59879600  1
  O  O20  1  0.16922100  0.33075200  0.59879600  1
  O  O21  1  0.83077900  0.33075200  0.40120400  1
  O  O22  1  0.66922100  0.33075200  0.90120400  1
  O  O23  1  0.33077900  0.33075200  0.09879600  1
  O  O24  1  0.83886600  0.50000000  0.09882700  1
  O  O25  1  0.66113400  0.50000000  0.59882700  1
  O  O26  1  0.33886600  0.50000000  0.40117300  1
  O  O27  1  0.83077900  0.66924800  0.40120400  1
  O  O28  1  0.16113400  0.50000000  0.90117300  1
  O  O29  1  0.66922100  0.66924800  0.90120400  1
  O  O30  1  0.33077900  0.66924800  0.09879600  1
  O  O31  1  0.16922100  0.66924800  0.59879600  1
  O  O32  1  0.66922100  0.83075200  0.59879600  1
  O  O33  1  0.33077900  0.83075200  0.40120400  1
  O  O34  1  0.16922100  0.83075200  0.90120400  1
  O  O35  1  0.83077900  0.83075200  0.09879600  1
