# generated using pymatgen
data_Co(SO4)2
_symmetry_space_group_name_H-M   'P 1'
_cell_length_a   8.47964395
_cell_length_b   8.47964395
_cell_length_c   22.53870246
_cell_angle_alpha   90.00000000
_cell_angle_beta   90.00000000
_cell_angle_gamma   120.00000000
_symmetry_Int_Tables_number   1
_chemical_formula_structural   Co(SO4)2
_chemical_formula_sum   'Co9 S18 O72'
_cell_volume   1403.50762474
_cell_formula_units_Z   9
loop_
 _symmetry_equiv_pos_site_id
 _symmetry_equiv_pos_as_xyz
  1  'x, y, z'
loop_
 _atom_site_type_symbol
 _atom_site_label
 _atom_site_symmetry_multiplicity
 _atom_site_fract_x
 _atom_site_fract_y
 _atom_site_fract_z
 _atom_site_occupancy
  Co  Co0  1  0.33333333  0.66666667  0.31106567  1
  Co  Co1  1  0.33333333  0.66666667  0.02340467  1
  Co  Co2  1  0.00000000  0.00000000  0.14977300  1
  Co  Co3  1  0.00000000  0.00000000  0.64439900  1
  Co  Co4  1  0.00000000  0.00000000  0.35673800  1
  Co  Co5  1  0.66666667  0.33333333  0.48310633  1
  Co  Co6  1  0.66666667  0.33333333  0.97773233  1
  Co  Co7  1  0.66666667  0.33333333  0.69007133  1
  Co  Co8  1  0.33333333  0.66666667  0.81643967  1
  S  S9  1  0.28379533  0.99360667  0.25023667  1
  S  S10  1  0.00639333  0.29018867  0.25023667  1
  S  S11  1  0.70981133  0.71620467  0.25023667  1
  S  S12  1  0.95565800  0.62195500  0.08312800  1
  S  S13  1  0.66629700  0.04434200  0.08312800  1
  S  S14  1  0.37804500  0.33370300  0.08312800  1
  S  S15  1  0.95046200  0.32694000  0.58357000  1
  S  S16  1  0.67306000  0.62352200  0.58357000  1
  S  S17  1  0.37647800  0.04953800  0.58357000  1
  S  S18  1  0.62232467  0.95528833  0.41646133  1
  S  S19  1  0.33296367  0.37767533  0.41646133  1
  S  S20  1  0.04471167  0.66703633  0.41646133  1
  S  S21  1  0.61712867  0.66027333  0.91690333  1
  S  S22  1  0.33972667  0.95685533  0.91690333  1
  S  S23  1  0.04314467  0.38287133  0.91690333  1
  S  S24  1  0.28899133  0.28862167  0.74979467  1
  S  S25  1  0.99963033  0.71100867  0.74979467  1
  S  S26  1  0.71137833  0.00036967  0.74979467  1
  O  O27  1  0.46210167  0.32423233  0.02613733  1
  O  O28  1  0.86213067  0.53789833  0.02613733  1
  O  O29  1  0.42705667  0.18125333  0.23821433  1
  O  O30  1  0.67576767  0.13786933  0.02613733  1
  O  O31  1  0.14870267  0.92553133  0.20029433  1
  O  O32  1  0.35408000  0.86469000  0.25609200  1
  O  O33  1  0.13531000  0.48939000  0.25609200  1
  O  O34  1  0.81874667  0.24580333  0.23821433  1
  O  O35  1  0.51061000  0.64592000  0.25609200  1
  O  O36  1  0.92423167  0.77547033  0.09673233  1
  O  O37  1  0.90187733  0.49005867  0.13214767  1
  O  O38  1  0.58818133  0.09812267  0.13214767  1
  O  O39  1  0.07446867  0.22317133  0.20029433  1
  O  O40  1  0.77682867  0.85129733  0.20029433  1
  O  O41  1  0.75419667  0.57294333  0.23821433  1
  O  O42  1  0.15839300  0.69888700  0.07577200  1
  O  O43  1  0.85123867  0.07576833  0.09673233  1
  O  O44  1  0.54049400  0.84160700  0.07577200  1
  O  O45  1  0.30111300  0.45950600  0.07577200  1
  O  O46  1  0.50994133  0.41181867  0.13214767  1
  O  O47  1  0.00875667  0.19918233  0.30682233  1
  O  O48  1  0.22452967  0.14876133  0.09673233  1
  O  O49  1  0.80081767  0.80957433  0.30682233  1
  O  O50  1  0.19042567  0.99124333  0.30682233  1
  O  O51  1  0.12876833  0.65756567  0.35947067  1
  O  O52  1  0.52879733  0.87123167  0.35947067  1
  O  O53  1  0.09372333  0.51458667  0.57154767  1
  O  O54  1  0.34243433  0.47120267  0.35947067  1
  O  O55  1  0.81536933  0.25886467  0.53362767  1
  O  O56  1  0.02074667  0.19802333  0.58942533  1
  O  O57  1  0.80197667  0.82272333  0.58942533  1
  O  O58  1  0.48541333  0.57913667  0.57154767  1
  O  O59  1  0.17727667  0.97925333  0.58942533  1
  O  O60  1  0.59089833  0.10880367  0.43006567  1
  O  O61  1  0.56854400  0.82339200  0.46548100  1
  O  O62  1  0.25484800  0.43145600  0.46548100  1
  O  O63  1  0.74113533  0.55650467  0.53362767  1
  O  O64  1  0.44349533  0.18463067  0.53362767  1
  O  O65  1  0.42086333  0.90627667  0.57154767  1
  O  O66  1  0.82505967  0.03222033  0.40910533  1
  O  O67  1  0.51790533  0.40910167  0.43006567  1
  O  O68  1  0.20716067  0.17494033  0.40910533  1
  O  O69  1  0.96777967  0.79283933  0.40910533  1
  O  O70  1  0.17660800  0.74515200  0.46548100  1
  O  O71  1  0.67542333  0.53251567  0.64015567  1
  O  O72  1  0.89119633  0.48209467  0.43006567  1
  O  O73  1  0.46748433  0.14290767  0.64015567  1
  O  O74  1  0.85709233  0.32457667  0.64015567  1
  O  O75  1  0.79543500  0.99089900  0.69280400  1
  O  O76  1  0.19546400  0.20456500  0.69280400  1
  O  O77  1  0.76039000  0.84792000  0.90488100  1
  O  O78  1  0.00910100  0.80453600  0.69280400  1
  O  O79  1  0.48203600  0.59219800  0.86696100  1
  O  O80  1  0.68741333  0.53135667  0.92275867  1
  O  O81  1  0.46864333  0.15605667  0.92275867  1
  O  O82  1  0.15208000  0.91247000  0.90488100  1
  O  O83  1  0.84394333  0.31258667  0.92275867  1
  O  O84  1  0.25756500  0.44213700  0.76339900  1
  O  O85  1  0.23521067  0.15672533  0.79881433  1
  O  O86  1  0.92151467  0.76478933  0.79881433  1
  O  O87  1  0.40780200  0.88983800  0.86696100  1
  O  O88  1  0.11016200  0.51796400  0.86696100  1
  O  O89  1  0.08753000  0.23961000  0.90488100  1
  O  O90  1  0.49172633  0.36555367  0.74243867  1
  O  O91  1  0.18457200  0.74243500  0.76339900  1
  O  O92  1  0.87382733  0.50827367  0.74243867  1
  O  O93  1  0.63444633  0.12617267  0.74243867  1
  O  O94  1  0.84327467  0.07848533  0.79881433  1
  O  O95  1  0.34209000  0.86584900  0.97348900  1
  O  O96  1  0.55786300  0.81542800  0.76339900  1
  O  O97  1  0.13415100  0.47624100  0.97348900  1
  O  O98  1  0.52375900  0.65791000  0.97348900  1
