# generated using pymatgen
data_Li4Fe5Sb3O16
_symmetry_space_group_name_H-M   'P 1'
_cell_length_a   10.68807800
_cell_length_b   6.11970600
_cell_length_c   9.81265274
_cell_angle_alpha   90.00000000
_cell_angle_beta   90.76197878
_cell_angle_gamma   90.00000000
_symmetry_Int_Tables_number   1
_chemical_formula_structural   Li4Fe5Sb3O16
_chemical_formula_sum   'Li8 Fe10 Sb6 O32'
_cell_volume   641.76820368
_cell_formula_units_Z   2
loop_
 _symmetry_equiv_pos_site_id
 _symmetry_equiv_pos_as_xyz
  1  'x, y, z'
loop_
 _atom_site_type_symbol
 _atom_site_label
 _atom_site_symmetry_multiplicity
 _atom_site_fract_x
 _atom_site_fract_y
 _atom_site_fract_z
 _atom_site_occupancy
  Li  Li0  1  0.66203200  0.00000000  0.88212200  1
  Li  Li1  1  0.99029700  0.00000000  0.99116700  1
  Li  Li2  1  0.99181700  0.00000000  0.50244900  1
  Li  Li3  1  0.82536600  0.50000000  0.39649000  1
  Li  Li4  1  0.16203200  0.50000000  0.88212200  1
  Li  Li5  1  0.49029700  0.50000000  0.99116700  1
  Li  Li6  1  0.49181700  0.50000000  0.50244900  1
  Li  Li7  1  0.32536600  0.00000000  0.39649000  1
  Fe  Fe8  1  0.67682900  0.00000000  0.50123900  1
  Fe  Fe9  1  0.83279500  0.00000000  0.21701200  1
  Fe  Fe10  1  0.84588600  0.50000000  0.98741300  1
  Fe  Fe11  1  0.91509500  0.74111200  0.71648200  1
  Fe  Fe12  1  0.91509500  0.25888800  0.71648200  1
  Fe  Fe13  1  0.17682900  0.50000000  0.50123900  1
  Fe  Fe14  1  0.33279500  0.50000000  0.21701200  1
  Fe  Fe15  1  0.34588600  0.00000000  0.98741300  1
  Fe  Fe16  1  0.41509500  0.24111200  0.71648200  1
  Fe  Fe17  1  0.41509500  0.75888800  0.71648200  1
  Sb  Sb18  1  0.58466250  0.24619850  0.21650800  1
  Sb  Sb19  1  0.58466250  0.75380150  0.21650800  1
  Sb  Sb20  1  0.67149200  0.50000000  0.71343000  1
  Sb  Sb21  1  0.08466250  0.74619850  0.21650800  1
  Sb  Sb22  1  0.08466250  0.25380150  0.21650800  1
  Sb  Sb23  1  0.17149200  0.00000000  0.71343000  1
  O  O24  1  0.58507350  0.26081350  0.59761300  1
  O  O25  1  0.51371500  0.00000000  0.33716700  1
  O  O26  1  0.65913000  0.00000000  0.10241800  1
  O  O27  1  0.50842600  0.50000000  0.32075200  1
  O  O28  1  0.50362200  0.50000000  0.80722100  1
  O  O29  1  0.58507350  0.73918650  0.59761300  1
  O  O30  1  0.73054950  0.22671050  0.34165500  1
  O  O31  1  0.73054950  0.77328950  0.34165500  1
  O  O32  1  0.65910800  0.50000000  0.10561000  1
  O  O33  1  0.83624900  0.00000000  0.59722500  1
  O  O34  1  0.75551150  0.72444150  0.83249000  1
  O  O35  1  0.75551150  0.27555850  0.83249000  1
  O  O36  1  0.83015000  0.50000000  0.60146900  1
  O  O37  1  0.93123500  0.75925000  0.10374700  1
  O  O38  1  0.98358100  0.50000000  0.82865800  1
  O  O39  1  0.93123500  0.24075000  0.10374700  1
  O  O40  1  0.08507350  0.76081350  0.59761300  1
  O  O41  1  0.01371500  0.50000000  0.33716700  1
  O  O42  1  0.15913000  0.50000000  0.10241800  1
  O  O43  1  0.00842600  0.00000000  0.32075200  1
  O  O44  1  0.00362200  0.00000000  0.80722100  1
  O  O45  1  0.08507350  0.23918650  0.59761300  1
  O  O46  1  0.23054950  0.72671050  0.34165500  1
  O  O47  1  0.23054950  0.27328950  0.34165500  1
  O  O48  1  0.15910800  0.00000000  0.10561000  1
  O  O49  1  0.33624900  0.50000000  0.59722500  1
  O  O50  1  0.25551150  0.22444150  0.83249000  1
  O  O51  1  0.25551150  0.77555850  0.83249000  1
  O  O52  1  0.33015000  0.00000000  0.60146900  1
  O  O53  1  0.43123500  0.25925000  0.10374700  1
  O  O54  1  0.48358100  0.00000000  0.82865800  1
  O  O55  1  0.43123500  0.74075000  0.10374700  1
