# generated using pymatgen
data_VFe3Sb2(PO4)6
_symmetry_space_group_name_H-M   'P 1'
_cell_length_a   8.68802146
_cell_length_b   8.68802146
_cell_length_c   21.99811806
_cell_angle_alpha   90.00000000
_cell_angle_beta   90.00000000
_cell_angle_gamma   120.00000000
_symmetry_Int_Tables_number   1
_chemical_formula_structural   VFe3Sb2(PO4)6
_chemical_formula_sum   'V3 Fe9 Sb6 P18 O72'
_cell_volume   1437.99683527
_cell_formula_units_Z   3
loop_
 _symmetry_equiv_pos_site_id
 _symmetry_equiv_pos_as_xyz
  1  'x, y, z'
loop_
 _atom_site_type_symbol
 _atom_site_label
 _atom_site_symmetry_multiplicity
 _atom_site_fract_x
 _atom_site_fract_y
 _atom_site_fract_z
 _atom_site_occupancy
  V  V0  1  0.00000000  0.00000000  0.14462800  1
  V  V1  1  0.66666667  0.33333333  0.47796133  1
  V  V2  1  0.33333333  0.66666667  0.81129467  1
  Fe  Fe3  1  0.33333333  0.66666667  0.31648767  1
  Fe  Fe4  1  0.66666667  0.33333333  0.18108733  1
  Fe  Fe5  1  0.33333333  0.66666667  0.01807267  1
  Fe  Fe6  1  0.00000000  0.00000000  0.64982100  1
  Fe  Fe7  1  0.33333333  0.66666667  0.51442067  1
  Fe  Fe8  1  0.00000000  0.00000000  0.35140600  1
  Fe  Fe9  1  0.66666667  0.33333333  0.98315433  1
  Fe  Fe10  1  0.00000000  0.00000000  0.84775400  1
  Fe  Fe11  1  0.66666667  0.33333333  0.68473933  1
  Sb  Sb12  1  0.66666667  0.33333333  0.32408333  1
  Sb  Sb13  1  0.33333333  0.66666667  0.16567167  1
  Sb  Sb14  1  0.33333333  0.66666667  0.65741667  1
  Sb  Sb15  1  0.00000000  0.00000000  0.49900500  1
  Sb  Sb16  1  0.00000000  0.00000000  0.99075000  1
  Sb  Sb17  1  0.66666667  0.33333333  0.83233833  1
  P  P18  1  0.71052733  0.71095667  0.25052567  1
  P  P19  1  0.28904333  0.99957067  0.25052567  1
  P  P20  1  0.00042933  0.28947267  0.25052567  1
  P  P21  1  0.66520600  0.03966400  0.08349600  1
  P  P22  1  0.37445800  0.33479400  0.08349600  1
  P  P23  1  0.96033600  0.62554200  0.08349600  1
  P  P24  1  0.37719400  0.04429000  0.58385900  1
  P  P25  1  0.95571000  0.33290400  0.58385900  1
  P  P26  1  0.66709600  0.62280600  0.58385900  1
  P  P27  1  0.33187267  0.37299733  0.41682933  1
  P  P28  1  0.04112467  0.66812733  0.41682933  1
  P  P29  1  0.62700267  0.95887533  0.41682933  1
  P  P30  1  0.04386067  0.37762333  0.91719233  1
  P  P31  1  0.62237667  0.66623733  0.91719233  1
  P  P32  1  0.33376267  0.95613933  0.91719233  1
  P  P33  1  0.99853933  0.70633067  0.75016267  1
  P  P34  1  0.70779133  0.00146067  0.75016267  1
  P  P35  1  0.29366933  0.29220867  0.75016267  1
  O  O36  1  0.20057367  0.00643433  0.30966133  1
  O  O37  1  0.99356567  0.19413933  0.30966133  1
  O  O38  1  0.80586067  0.79942633  0.30966133  1
  O  O39  1  0.68750500  0.51670200  0.25198700  1
  O  O40  1  0.80509233  0.80456867  0.19262167  1
  O  O41  1  0.51915067  0.68699433  0.24882533  1
  O  O42  1  0.48329800  0.17080300  0.25198700  1
  O  O43  1  0.31300567  0.83215633  0.24882533  1
  O  O44  1  0.65443300  0.13152400  0.14162500  1
  O  O45  1  0.16784367  0.48084933  0.24882533  1
  O  O46  1  0.83054967  0.01578733  0.08257733  1
  O  O47  1  0.47709100  0.34556700  0.14162500  1
  O  O48  1  0.19543133  0.00052367  0.19262167  1
  O  O49  1  0.82919700  0.31249500  0.25198700  1
  O  O50  1  0.49496833  0.84889067  0.08559667  1
  O  O51  1  0.99947633  0.19490767  0.19262167  1
  O  O52  1  0.35392233  0.50503167  0.08559667  1
  O  O53  1  0.18523767  0.16945033  0.08257733  1
  O  O54  1  0.15110933  0.64607767  0.08559667  1
  O  O55  1  0.86847600  0.52290900  0.14162500  1
  O  O56  1  0.98421267  0.81476233  0.08257733  1
  O  O57  1  0.86005333  0.53299267  0.02529267  1
  O  O58  1  0.67293933  0.13994667  0.02529267  1
  O  O59  1  0.46700733  0.32706067  0.02529267  1
  O  O60  1  0.86724033  0.33976767  0.64299467  1
  O  O61  1  0.66023233  0.52747267  0.64299467  1
  O  O62  1  0.47252733  0.13275967  0.64299467  1
  O  O63  1  0.35417167  0.85003533  0.58532033  1
  O  O64  1  0.47175900  0.13790200  0.52595500  1
  O  O65  1  0.18581733  0.02032767  0.58215867  1
  O  O66  1  0.14996467  0.50413633  0.58532033  1
  O  O67  1  0.97967233  0.16548967  0.58215867  1
  O  O68  1  0.32109967  0.46485733  0.47495833  1
  O  O69  1  0.83451033  0.81418267  0.58215867  1
  O  O70  1  0.49721633  0.34912067  0.41591067  1
  O  O71  1  0.14375767  0.67890033  0.47495833  1
  O  O72  1  0.86209800  0.33385700  0.52595500  1
  O  O73  1  0.49586367  0.64582833  0.58532033  1
  O  O74  1  0.16163500  0.18222400  0.41893000  1
  O  O75  1  0.66614300  0.52824100  0.52595500  1
  O  O76  1  0.02058900  0.83836500  0.41893000  1
  O  O77  1  0.85190433  0.50278367  0.41591067  1
  O  O78  1  0.81777600  0.97941100  0.41893000  1
  O  O79  1  0.53514267  0.85624233  0.47495833  1
  O  O80  1  0.65087933  0.14809567  0.41591067  1
  O  O81  1  0.52672000  0.86632600  0.35862600  1
  O  O82  1  0.33960600  0.47328000  0.35862600  1
  O  O83  1  0.13367400  0.66039400  0.35862600  1
  O  O84  1  0.53390700  0.67310100  0.97632800  1
  O  O85  1  0.32689900  0.86080600  0.97632800  1
  O  O86  1  0.13919400  0.46609300  0.97632800  1
  O  O87  1  0.02083833  0.18336867  0.91865367  1
  O  O88  1  0.13842567  0.47123533  0.85928833  1
  O  O89  1  0.85248400  0.35366100  0.91549200  1
  O  O90  1  0.81663133  0.83746967  0.91865367  1
  O  O91  1  0.64633900  0.49882300  0.91549200  1
  O  O92  1  0.98776633  0.79819067  0.80829167  1
  O  O93  1  0.50117700  0.14751600  0.91549200  1
  O  O94  1  0.16388300  0.68245400  0.74924400  1
  O  O95  1  0.81042433  0.01223367  0.80829167  1
  O  O96  1  0.52876467  0.66719033  0.85928833  1
  O  O97  1  0.16253033  0.97916167  0.91865367  1
  O  O98  1  0.82830167  0.51555733  0.75226333  1
  O  O99  1  0.33280967  0.86157433  0.85928833  1
  O  O100  1  0.68725567  0.17169833  0.75226333  1
  O  O101  1  0.51857100  0.83611700  0.74924400  1
  O  O102  1  0.48444267  0.31274433  0.75226333  1
  O  O103  1  0.20180933  0.18957567  0.80829167  1
  O  O104  1  0.31754600  0.48142900  0.74924400  1
  O  O105  1  0.19338667  0.19965933  0.69195933  1
  O  O106  1  0.00627267  0.80661333  0.69195933  1
  O  O107  1  0.80034067  0.99372733  0.69195933  1
