# generated using pymatgen
data_Li4Ti3Nb5O16
_symmetry_space_group_name_H-M   'P 1'
_cell_length_a   10.62124600
_cell_length_b   6.02692000
_cell_length_c   9.81208715
_cell_angle_alpha   90.00000000
_cell_angle_beta   90.83065870
_cell_angle_gamma   90.00000000
_symmetry_Int_Tables_number   1
_chemical_formula_structural   Li4Ti3Nb5O16
_chemical_formula_sum   'Li8 Ti6 Nb10 O32'
_cell_volume   628.03905158
_cell_formula_units_Z   2
loop_
 _symmetry_equiv_pos_site_id
 _symmetry_equiv_pos_as_xyz
  1  'x, y, z'
loop_
 _atom_site_type_symbol
 _atom_site_label
 _atom_site_symmetry_multiplicity
 _atom_site_fract_x
 _atom_site_fract_y
 _atom_site_fract_z
 _atom_site_occupancy
  Li  Li0  1  0.67200400  0.00000000  0.09085100  1
  Li  Li1  1  0.51192900  0.50000000  0.00865700  1
  Li  Li2  1  0.50002800  0.50000000  0.50229900  1
  Li  Li3  1  0.83465500  0.50000000  0.60908600  1
  Li  Li4  1  0.17200400  0.50000000  0.09085100  1
  Li  Li5  1  0.01192900  0.00000000  0.00865700  1
  Li  Li6  1  0.00002800  0.00000000  0.50229900  1
  Li  Li7  1  0.33465500  0.00000000  0.60908600  1
  Ti  Ti8  1  0.58870550  0.75063650  0.78532400  1
  Ti  Ti9  1  0.58870550  0.24936350  0.78532400  1
  Ti  Ti10  1  0.67218100  0.50000000  0.28038400  1
  Ti  Ti11  1  0.08870550  0.25063650  0.78532400  1
  Ti  Ti12  1  0.08870550  0.74936350  0.78532400  1
  Ti  Ti13  1  0.17218100  0.00000000  0.28038400  1
  Nb  Nb14  1  0.66636500  0.00000000  0.50334800  1
  Nb  Nb15  1  0.82986800  0.00000000  0.79082100  1
  Nb  Nb16  1  0.84136600  0.50000000  0.04018800  1
  Nb  Nb17  1  0.90832100  0.28183000  0.27434700  1
  Nb  Nb18  1  0.90832100  0.71817000  0.27434700  1
  Nb  Nb19  1  0.16636500  0.50000000  0.50334800  1
  Nb  Nb20  1  0.32986800  0.50000000  0.79082100  1
  Nb  Nb21  1  0.34136600  0.00000000  0.04018800  1
  Nb  Nb22  1  0.40832100  0.78183000  0.27434700  1
  Nb  Nb23  1  0.40832100  0.21817000  0.27434700  1
  O  O24  1  0.58363250  0.74823750  0.40611300  1
  O  O25  1  0.52362200  0.00000000  0.66181000  1
  O  O26  1  0.66078800  0.00000000  0.89580300  1
  O  O27  1  0.50138000  0.50000000  0.68815500  1
  O  O28  1  0.50028100  0.50000000  0.19275500  1
  O  O29  1  0.58363250  0.25176250  0.40611300  1
  O  O30  1  0.73716600  0.77569200  0.65728300  1
  O  O31  1  0.73716600  0.22430800  0.65728300  1
  O  O32  1  0.66347700  0.50000000  0.89515600  1
  O  O33  1  0.82814700  0.00000000  0.40875600  1
  O  O34  1  0.74104300  0.26668700  0.15630900  1
  O  O35  1  0.74104300  0.73331300  0.15630900  1
  O  O36  1  0.82114800  0.50000000  0.40994300  1
  O  O37  1  0.91969600  0.24358500  0.90260100  1
  O  O38  1  0.51042400  0.00000000  0.14983900  1
  O  O39  1  0.91969600  0.75641500  0.90260100  1
  O  O40  1  0.08363250  0.24823750  0.40611300  1
  O  O41  1  0.02362200  0.50000000  0.66181000  1
  O  O42  1  0.16078800  0.50000000  0.89580300  1
  O  O43  1  0.00138000  0.00000000  0.68815500  1
  O  O44  1  0.00028100  0.00000000  0.19275500  1
  O  O45  1  0.08363250  0.75176250  0.40611300  1
  O  O46  1  0.23716600  0.27569200  0.65728300  1
  O  O47  1  0.23716600  0.72430800  0.65728300  1
  O  O48  1  0.16347700  0.00000000  0.89515600  1
  O  O49  1  0.32814700  0.50000000  0.40875600  1
  O  O50  1  0.24104300  0.76668700  0.15630900  1
  O  O51  1  0.24104300  0.23331300  0.15630900  1
  O  O52  1  0.32114800  0.00000000  0.40994300  1
  O  O53  1  0.41969600  0.74358500  0.90260100  1
  O  O54  1  0.01042400  0.50000000  0.14983900  1
  O  O55  1  0.41969600  0.25641500  0.90260100  1
