# generated using pymatgen
data_Li2Fe3WO8
_symmetry_space_group_name_H-M   'P 1'
_cell_length_a   6.06153537
_cell_length_b   6.06153537
_cell_length_c   15.09537294
_cell_angle_alpha   90.00000000
_cell_angle_beta   90.00000000
_cell_angle_gamma   120.00000000
_symmetry_Int_Tables_number   1
_chemical_formula_structural   Li2Fe3WO8
_chemical_formula_sum   'Li6 Fe9 W3 O24'
_cell_volume   480.33005878
_cell_formula_units_Z   3
loop_
 _symmetry_equiv_pos_site_id
 _symmetry_equiv_pos_as_xyz
  1  'x, y, z'
loop_
 _atom_site_type_symbol
 _atom_site_label
 _atom_site_symmetry_multiplicity
 _atom_site_fract_x
 _atom_site_fract_y
 _atom_site_fract_z
 _atom_site_occupancy
  Li  Li0  1  0.00000000  0.00000000  0.13253600  1
  Li  Li1  1  0.66666667  0.33333333  0.20079733  1
  Li  Li2  1  0.66666667  0.33333333  0.46586933  1
  Li  Li3  1  0.33333333  0.66666667  0.53413067  1
  Li  Li4  1  0.33333333  0.66666667  0.79920267  1
  Li  Li5  1  0.00000000  0.00000000  0.86746400  1
  Fe  Fe6  1  0.50000000  0.50000000  0.00000000  1
  Fe  Fe7  1  0.50000000  0.00000000  0.00000000  1
  Fe  Fe8  1  0.00000000  0.50000000  0.00000000  1
  Fe  Fe9  1  0.16666667  0.83333333  0.33333333  1
  Fe  Fe10  1  0.16666667  0.33333333  0.33333333  1
  Fe  Fe11  1  0.66666667  0.83333333  0.33333333  1
  Fe  Fe12  1  0.83333333  0.16666667  0.66666667  1
  Fe  Fe13  1  0.83333333  0.66666667  0.66666667  1
  Fe  Fe14  1  0.33333333  0.16666667  0.66666667  1
  W  W15  1  0.33333333  0.66666667  0.16666667  1
  W  W16  1  1.00000000  1.00000000  0.50000000  1
  W  W17  1  0.66666667  0.33333333  0.83333333  1
  O  O18  1  0.00000000  0.00000000  0.26762500  1
  O  O19  1  0.63340400  0.81670200  0.08719500  1
  O  O20  1  0.18329800  0.36659600  0.08719500  1
  O  O21  1  0.18329800  0.81670200  0.08719500  1
  O  O22  1  0.48336867  0.51663133  0.24613833  1
  O  O23  1  0.48336867  0.96673733  0.24613833  1
  O  O24  1  0.03326267  0.51663133  0.24613833  1
  O  O25  1  0.66666667  0.33333333  0.06570833  1
  O  O26  1  0.66666667  0.33333333  0.60095833  1
  O  O27  1  0.30007067  0.15003533  0.42052833  1
  O  O28  1  0.84996467  0.69992933  0.42052833  1
  O  O29  1  0.84996467  0.15003533  0.42052833  1
  O  O30  1  0.15003533  0.84996467  0.57947167  1
  O  O31  1  0.15003533  0.30007067  0.57947167  1
  O  O32  1  0.69992933  0.84996467  0.57947167  1
  O  O33  1  0.33333333  0.66666667  0.39904167  1
  O  O34  1  0.33333333  0.66666667  0.93429167  1
  O  O35  1  0.96673733  0.48336867  0.75386167  1
  O  O36  1  0.51663133  0.03326267  0.75386167  1
  O  O37  1  0.51663133  0.48336867  0.75386167  1
  O  O38  1  0.81670200  0.18329800  0.91280500  1
  O  O39  1  0.81670200  0.63340400  0.91280500  1
  O  O40  1  0.36659600  0.18329800  0.91280500  1
  O  O41  1  0.00000000  0.00000000  0.73237500  1
