# generated using pymatgen
data_Li3Ni5O8
_symmetry_space_group_name_H-M   'P 1'
_cell_length_a   5.84059931
_cell_length_b   5.84059931
_cell_length_c   14.36970209
_cell_angle_alpha   90.00000000
_cell_angle_beta   90.00000000
_cell_angle_gamma   120.00000000
_symmetry_Int_Tables_number   1
_chemical_formula_structural   Li3Ni5O8
_chemical_formula_sum   'Li9 Ni15 O24'
_cell_volume   424.51517764
_cell_formula_units_Z   3
loop_
 _symmetry_equiv_pos_site_id
 _symmetry_equiv_pos_as_xyz
  1  'x, y, z'
loop_
 _atom_site_type_symbol
 _atom_site_label
 _atom_site_symmetry_multiplicity
 _atom_site_fract_x
 _atom_site_fract_y
 _atom_site_fract_z
 _atom_site_occupancy
  Li  Li0  1  0.33333333  0.16666667  0.16666667  1
  Li  Li1  1  0.83333333  0.66666667  0.16666667  1
  Li  Li2  1  0.83333333  0.16666667  0.16666667  1
  Li  Li3  1  0.00000000  0.50000000  0.50000000  1
  Li  Li4  1  0.50000000  0.00000000  0.50000000  1
  Li  Li5  1  0.50000000  0.50000000  0.50000000  1
  Li  Li6  1  0.66666667  0.83333333  0.83333333  1
  Li  Li7  1  0.16666667  0.33333333  0.83333333  1
  Li  Li8  1  0.16666667  0.83333333  0.83333333  1
  Ni  Ni9  1  0.33333333  0.66666667  0.16666667  1
  Ni  Ni10  1  0.00000000  0.00000000  0.00000000  1
  Ni  Ni11  1  0.50000000  0.50000000  0.00000000  1
  Ni  Ni12  1  0.00000000  0.50000000  0.00000000  1
  Ni  Ni13  1  0.50000000  0.00000000  0.00000000  1
  Ni  Ni14  1  1.00000000  1.00000000  0.50000000  1
  Ni  Ni15  1  0.66666667  0.33333333  0.33333333  1
  Ni  Ni16  1  0.16666667  0.83333333  0.33333333  1
  Ni  Ni17  1  0.66666667  0.83333333  0.33333333  1
  Ni  Ni18  1  0.16666667  0.33333333  0.33333333  1
  Ni  Ni19  1  0.66666667  0.33333333  0.83333333  1
  Ni  Ni20  1  0.33333333  0.66666667  0.66666667  1
  Ni  Ni21  1  0.83333333  0.16666667  0.66666667  1
  Ni  Ni22  1  0.33333333  0.16666667  0.66666667  1
  Ni  Ni23  1  0.83333333  0.66666667  0.66666667  1
  O  O24  1  0.00000000  0.00000000  0.26178667  1
  O  O25  1  0.49753000  0.50247000  0.25252300  1
  O  O26  1  0.00494000  0.50247000  0.25252300  1
  O  O27  1  0.49753000  0.99506000  0.25252300  1
  O  O28  1  0.16913667  0.33827333  0.08081033  1
  O  O29  1  0.66172667  0.83086333  0.08081033  1
  O  O30  1  0.16913667  0.83086333  0.08081033  1
  O  O31  1  0.66666667  0.33333333  0.07154667  1
  O  O32  1  0.66666667  0.33333333  0.59512000  1
  O  O33  1  0.16419667  0.83580333  0.58585633  1
  O  O34  1  0.67160667  0.83580333  0.58585633  1
  O  O35  1  0.16419667  0.32839333  0.58585633  1
  O  O36  1  0.83580333  0.67160667  0.41414367  1
  O  O37  1  0.32839333  0.16419667  0.41414367  1
  O  O38  1  0.83580333  0.16419667  0.41414367  1
  O  O39  1  0.33333333  0.66666667  0.40488000  1
  O  O40  1  0.33333333  0.66666667  0.92845333  1
  O  O41  1  0.83086333  0.16913667  0.91918967  1
  O  O42  1  0.33827333  0.16913667  0.91918967  1
  O  O43  1  0.83086333  0.66172667  0.91918967  1
  O  O44  1  0.50247000  0.00494000  0.74747700  1
  O  O45  1  0.99506000  0.49753000  0.74747700  1
  O  O46  1  0.50247000  0.49753000  0.74747700  1
  O  O47  1  0.00000000  0.00000000  0.73821333  1
