# generated using pymatgen
data_Li9Cr4C8(SO16)2
_symmetry_space_group_name_H-M   'P 1'
_cell_length_a   13.07928800
_cell_length_b   13.78931200
_cell_length_c   9.28047835
_cell_angle_alpha   90.00000000
_cell_angle_beta   134.60916390
_cell_angle_gamma   90.00000000
_symmetry_Int_Tables_number   1
_chemical_formula_structural   Li9Cr4C8(SO16)2
_chemical_formula_sum   'Li18 Cr8 C16 S4 O64'
_cell_volume   1191.58337284
_cell_formula_units_Z   2
loop_
 _symmetry_equiv_pos_site_id
 _symmetry_equiv_pos_as_xyz
  1  'x, y, z'
loop_
 _atom_site_type_symbol
 _atom_site_label
 _atom_site_symmetry_multiplicity
 _atom_site_fract_x
 _atom_site_fract_y
 _atom_site_fract_z
 _atom_site_occupancy
  Li  Li0  1  0.80633850  0.37938950  0.59242200  1
  Li  Li1  1  0.19366150  0.37938950  0.40757800  1
  Li  Li2  1  0.19792750  0.37854250  0.98874200  1
  Li  Li3  1  0.71159000  0.12163400  0.50496800  1
  Li  Li4  1  0.80207250  0.37854250  0.01125800  1
  Li  Li5  1  0.28841000  0.12163400  0.49503200  1
  Li  Li6  1  0.28929950  0.12245750  0.08132000  1
  Li  Li7  1  0.71070050  0.12245750  0.91868000  1
  Li  Li8  1  0.50000000  0.33658900  0.50000000  1
  Li  Li9  1  0.30633850  0.87938950  0.59242200  1
  Li  Li10  1  0.69366150  0.87938950  0.40757800  1
  Li  Li11  1  0.69792750  0.87854250  0.98874200  1
  Li  Li12  1  0.21159000  0.62163400  0.50496800  1
  Li  Li13  1  0.30207250  0.87854250  0.01125800  1
  Li  Li14  1  0.78841000  0.62163400  0.49503200  1
  Li  Li15  1  0.78929950  0.62245750  0.08132000  1
  Li  Li16  1  0.21070050  0.62245750  0.91868000  1
  Li  Li17  1  0.00000000  0.83658900  0.50000000  1
  Cr  Cr18  1  0.50047750  0.49925750  0.75253600  1
  Cr  Cr19  1  0.24927650  0.24878150  0.74880500  1
  Cr  Cr20  1  0.49952250  0.49925750  0.24746400  1
  Cr  Cr21  1  0.75072350  0.24878150  0.25119500  1
  Cr  Cr22  1  0.00047750  0.99925750  0.75253600  1
  Cr  Cr23  1  0.74927650  0.74878150  0.74880500  1
  Cr  Cr24  1  0.99952250  0.99925750  0.24746400  1
  Cr  Cr25  1  0.25072350  0.74878150  0.25119500  1
  C  C26  1  0.99698550  0.21310350  0.68890400  1
  C  C27  1  0.69713450  0.46415150  0.19379400  1
  C  C28  1  0.00301450  0.21310350  0.31109600  1
  C  C29  1  0.19519550  0.03366550  0.69382000  1
  C  C30  1  0.49813000  0.28416000  0.19186500  1
  C  C31  1  0.30286550  0.46415150  0.80620600  1
  C  C32  1  0.80480450  0.03366550  0.30618000  1
  C  C33  1  0.50187000  0.28416000  0.80813500  1
  C  C34  1  0.49698550  0.71310350  0.68890400  1
  C  C35  1  0.19713450  0.96415150  0.19379400  1
  C  C36  1  0.50301450  0.71310350  0.31109600  1
  C  C37  1  0.69519550  0.53366550  0.69382000  1
  C  C38  1  0.99813000  0.78416000  0.19186500  1
  C  C39  1  0.80286550  0.96415150  0.80620600  1
  C  C40  1  0.30480450  0.53366550  0.30618000  1
  C  C41  1  0.00187000  0.78416000  0.80813500  1
  S  S42  1  0.50000000  0.13213000  0.50000000  1
  S  S43  1  0.00000000  0.37526600  0.00000000  1
  S  S44  1  0.00000000  0.63213000  0.50000000  1
  S  S45  1  0.50000000  0.87526600  0.00000000  1
  O  O46  1  0.63159800  0.19515800  0.62808400  1
  O  O47  1  0.50240900  0.07318000  0.63663300  1
  O  O48  1  0.36840200  0.19515800  0.37191600  1
  O  O49  1  0.30010150  0.47566050  0.66476700  1
  O  O50  1  0.49759100  0.07318000  0.36336700  1
  O  O51  1  0.69989850  0.47566050  0.33523300  1
  O  O52  1  0.36296900  0.27622500  0.67881600  1
  O  O53  1  0.13952300  0.02977100  0.05610400  1
  O  O54  1  0.91721150  0.27836950  0.54884800  1
  O  O55  1  0.08278850  0.27836950  0.45115200  1
  O  O56  1  0.86047700  0.02977100  0.94389600  1
  O  O57  1  0.94095150  0.14168550  0.70104100  1
  O  O58  1  0.75172250  0.38755550  0.18792100  1
  O  O59  1  0.25281850  0.10842250  0.69010900  1
  O  O60  1  0.44436900  0.35309400  0.21803000  1
  O  O61  1  0.63703100  0.27622500  0.32118400  1
  O  O62  1  0.86351350  0.22221750  0.17926300  1
  O  O63  1  0.05904850  0.14168550  0.29895900  1
  O  O64  1  0.24827750  0.38755550  0.81207900  1
  O  O65  1  0.55563100  0.35309400  0.78197000  1
  O  O66  1  0.74718150  0.10842250  0.30989100  1
  O  O67  1  0.63294250  0.46796350  0.55265800  1
  O  O68  1  0.41757850  0.22279150  0.04680800  1
  O  O69  1  0.58242150  0.22279150  0.95319200  1
  O  O70  1  0.36705750  0.46796350  0.44734200  1
  O  O71  1  0.13648650  0.22221750  0.82073700  1
  O  O72  1  0.80185950  0.02249050  0.16521200  1
  O  O73  1  0.00145650  0.43436150  0.13707500  1
  O  O74  1  0.19814050  0.02249050  0.83478800  1
  O  O75  1  0.99854350  0.43436150  0.86292500  1
  O  O76  1  0.13498500  0.31693600  0.13260300  1
  O  O77  1  0.86501500  0.31693600  0.86739700  1
  O  O78  1  0.13159800  0.69515800  0.62808400  1
  O  O79  1  0.00240900  0.57318000  0.63663300  1
  O  O80  1  0.86840200  0.69515800  0.37191600  1
  O  O81  1  0.80010150  0.97566050  0.66476700  1
  O  O82  1  0.99759100  0.57318000  0.36336700  1
  O  O83  1  0.19989850  0.97566050  0.33523300  1
  O  O84  1  0.86296900  0.77622500  0.67881600  1
  O  O85  1  0.63952300  0.52977100  0.05610400  1
  O  O86  1  0.41721150  0.77836950  0.54884800  1
  O  O87  1  0.58278850  0.77836950  0.45115200  1
  O  O88  1  0.36047700  0.52977100  0.94389600  1
  O  O89  1  0.44095150  0.64168550  0.70104100  1
  O  O90  1  0.25172250  0.88755550  0.18792100  1
  O  O91  1  0.75281850  0.60842250  0.69010900  1
  O  O92  1  0.94436900  0.85309400  0.21803000  1
  O  O93  1  0.13703100  0.77622500  0.32118400  1
  O  O94  1  0.36351350  0.72221750  0.17926300  1
  O  O95  1  0.55904850  0.64168550  0.29895900  1
  O  O96  1  0.74827750  0.88755550  0.81207900  1
  O  O97  1  0.05563100  0.85309400  0.78197000  1
  O  O98  1  0.24718150  0.60842250  0.30989100  1
  O  O99  1  0.13294250  0.96796350  0.55265800  1
  O  O100  1  0.91757850  0.72279150  0.04680800  1
  O  O101  1  0.08242150  0.72279150  0.95319200  1
  O  O102  1  0.86705750  0.96796350  0.44734200  1
  O  O103  1  0.63648650  0.72221750  0.82073700  1
  O  O104  1  0.30185950  0.52249050  0.16521200  1
  O  O105  1  0.50145650  0.93436150  0.13707500  1
  O  O106  1  0.69814050  0.52249050  0.83478800  1
  O  O107  1  0.49854350  0.93436150  0.86292500  1
  O  O108  1  0.63498500  0.81693600  0.13260300  1
  O  O109  1  0.36501500  0.81693600  0.86739700  1
