# generated using pymatgen
data_LiFeF5
_symmetry_space_group_name_H-M   'P 1'
_cell_length_a   8.47893200
_cell_length_b   6.07136600
_cell_length_c   7.71948960
_cell_angle_alpha   90.00000000
_cell_angle_beta   117.74649063
_cell_angle_gamma   90.00000000
_symmetry_Int_Tables_number   1
_chemical_formula_structural   LiFeF5
_chemical_formula_sum   'Li4 Fe4 F20'
_cell_volume   351.69593692
_cell_formula_units_Z   4
loop_
 _symmetry_equiv_pos_site_id
 _symmetry_equiv_pos_as_xyz
  1  'x, y, z'
loop_
 _atom_site_type_symbol
 _atom_site_label
 _atom_site_symmetry_multiplicity
 _atom_site_fract_x
 _atom_site_fract_y
 _atom_site_fract_z
 _atom_site_occupancy
  Li  Li0  1  0.50000000  0.99790400  0.75000000  1
  Li  Li1  1  0.00000000  0.50209600  0.25000000  1
  Li  Li2  1  0.00000000  0.49790400  0.75000000  1
  Li  Li3  1  0.50000000  0.00209600  0.25000000  1
  Fe  Fe4  1  0.00000000  0.00000000  0.00000000  1
  Fe  Fe5  1  0.00000000  0.00000000  0.50000000  1
  Fe  Fe6  1  0.50000000  0.50000000  0.00000000  1
  Fe  Fe7  1  0.50000000  0.50000000  0.50000000  1
  F  F8  1  0.76135200  0.97410700  0.87335900  1
  F  F9  1  0.98035350  0.71045450  0.54308200  1
  F  F10  1  0.26135200  0.52589300  0.37335900  1
  F  F11  1  0.50000000  0.59579400  0.75000000  1
  F  F12  1  0.51964650  0.21045450  0.95691800  1
  F  F13  1  0.98035350  0.28954550  0.04308200  1
  F  F14  1  0.00000000  0.90420600  0.25000000  1
  F  F15  1  0.23864800  0.97410700  0.62664100  1
  F  F16  1  0.51964650  0.78954550  0.45691800  1
  F  F17  1  0.73864800  0.52589300  0.12664100  1
  F  F18  1  0.26135200  0.47410700  0.87335900  1
  F  F19  1  0.48035350  0.21045450  0.54308200  1
  F  F20  1  0.76135200  0.02589300  0.37335900  1
  F  F21  1  0.00000000  0.09579400  0.75000000  1
  F  F22  1  0.01964650  0.71045450  0.95691800  1
  F  F23  1  0.48035350  0.78954550  0.04308200  1
  F  F24  1  0.50000000  0.40420600  0.25000000  1
  F  F25  1  0.73864800  0.47410700  0.62664100  1
  F  F26  1  0.01964650  0.28954550  0.45691800  1
  F  F27  1  0.23864800  0.02589300  0.12664100  1
