# generated using pymatgen
data_Li2Cr3WO8
_symmetry_space_group_name_H-M   'P 1'
_cell_length_a   8.54218752
_cell_length_b   8.54218752
_cell_length_c   8.54218752
_cell_angle_alpha   90.00000000
_cell_angle_beta   90.00000000
_cell_angle_gamma   90.00000000
_symmetry_Int_Tables_number   1
_chemical_formula_structural   Li2Cr3WO8
_chemical_formula_sum   'Li8 Cr12 W4 O32'
_cell_volume   623.31460373
_cell_formula_units_Z   4
loop_
 _symmetry_equiv_pos_site_id
 _symmetry_equiv_pos_as_xyz
  1  'x, y, z'
loop_
 _atom_site_type_symbol
 _atom_site_label
 _atom_site_symmetry_multiplicity
 _atom_site_fract_x
 _atom_site_fract_y
 _atom_site_fract_z
 _atom_site_occupancy
  Li  Li0  1  0.49418467  0.49418467  0.49418467  1
  Li  Li1  1  0.75581533  0.75581533  0.75581533  1
  Li  Li2  1  0.74418467  0.24418467  0.25581533  1
  Li  Li3  1  0.00581533  0.50581533  0.99418467  1
  Li  Li4  1  0.99418467  0.00581533  0.50581533  1
  Li  Li5  1  0.25581533  0.74418467  0.24418467  1
  Li  Li6  1  0.24418467  0.25581533  0.74418467  1
  Li  Li7  1  0.50581533  0.99418467  0.00581533  1
  Cr  Cr8  1  0.62397700  0.62602300  0.12500000  1
  Cr  Cr9  1  0.62500000  0.87602300  0.37397700  1
  Cr  Cr10  1  0.62602300  0.12500000  0.62397700  1
  Cr  Cr11  1  0.87397700  0.87500000  0.12397700  1
  Cr  Cr12  1  0.87500000  0.12397700  0.87397700  1
  Cr  Cr13  1  0.87602300  0.37397700  0.62500000  1
  Cr  Cr14  1  0.12397700  0.87397700  0.87500000  1
  Cr  Cr15  1  0.12500000  0.62397700  0.62602300  1
  Cr  Cr16  1  0.12602300  0.37500000  0.37602300  1
  Cr  Cr17  1  0.37397700  0.62500000  0.87602300  1
  Cr  Cr18  1  0.37500000  0.37602300  0.12602300  1
  Cr  Cr19  1  0.37602300  0.12602300  0.37500000  1
  W  W20  1  0.62500000  0.37500000  0.87500000  1
  W  W21  1  0.87500000  0.62500000  0.37500000  1
  W  W22  1  0.12500000  0.12500000  0.12500000  1
  W  W23  1  0.37500000  0.87500000  0.62500000  1
  O  O24  1  0.61423900  0.61014100  0.88580900  1
  O  O25  1  0.61419100  0.38576100  0.11014100  1
  O  O26  1  0.60910900  0.10910900  0.39089100  1
  O  O27  1  0.63985900  0.63576100  0.36419100  1
  O  O28  1  0.61014100  0.88580900  0.61423900  1
  O  O29  1  0.64089100  0.85910900  0.14089100  1
  O  O30  1  0.63580900  0.13985900  0.86423900  1
  O  O31  1  0.63576100  0.36419100  0.63985900  1
  O  O32  1  0.86423900  0.63580900  0.13985900  1
  O  O33  1  0.86419100  0.86014100  0.36423900  1
  O  O34  1  0.85910900  0.14089100  0.64089100  1
  O  O35  1  0.88985900  0.11419100  0.11423900  1
  O  O36  1  0.86014100  0.36423900  0.86419100  1
  O  O37  1  0.89089100  0.89089100  0.89089100  1
  O  O38  1  0.88580900  0.61423900  0.61014100  1
  O  O39  1  0.88576100  0.38985900  0.38580900  1
  O  O40  1  0.11423900  0.88985900  0.11419100  1
  O  O41  1  0.11419100  0.11423900  0.88985900  1
  O  O42  1  0.10910900  0.39089100  0.60910900  1
  O  O43  1  0.13985900  0.86423900  0.63580900  1
  O  O44  1  0.11014100  0.61419100  0.38576100  1
  O  O45  1  0.14089100  0.64089100  0.85910900  1
  O  O46  1  0.13580900  0.36014100  0.13576100  1
  O  O47  1  0.13576100  0.13580900  0.36014100  1
  O  O48  1  0.36423900  0.86419100  0.86014100  1
  O  O49  1  0.36419100  0.63985900  0.63576100  1
  O  O50  1  0.35910900  0.35910900  0.35910900  1
  O  O51  1  0.38985900  0.38580900  0.88576100  1
  O  O52  1  0.36014100  0.13576100  0.13580900  1
  O  O53  1  0.39089100  0.60910900  0.10910900  1
  O  O54  1  0.38580900  0.88576100  0.38985900  1
  O  O55  1  0.38576100  0.11014100  0.61419100  1
