# generated using pymatgen
data_Li2VSiCO7
_symmetry_space_group_name_H-M   'P 1'
_cell_length_a   5.11135967
_cell_length_b   6.32884600
_cell_length_c   8.53819716
_cell_angle_alpha   90.00000000
_cell_angle_beta   93.38519531
_cell_angle_gamma   90.00000000
_symmetry_Int_Tables_number   1
_chemical_formula_structural   Li2VSiCO7
_chemical_formula_sum   'Li4 V2 Si2 C2 O14'
_cell_volume   275.72026993
_cell_formula_units_Z   2
loop_
 _symmetry_equiv_pos_site_id
 _symmetry_equiv_pos_as_xyz
  1  'x, y, z'
loop_
 _atom_site_type_symbol
 _atom_site_label
 _atom_site_symmetry_multiplicity
 _atom_site_fract_x
 _atom_site_fract_y
 _atom_site_fract_z
 _atom_site_occupancy
  Li  Li0  1  0.26076800  0.48962450  0.22270275  1
  Li  Li1  1  0.26076800  0.01037550  0.22270275  1
  Li  Li2  1  0.73923200  0.51037550  0.77729725  1
  Li  Li3  1  0.73923200  0.98962450  0.77729725  1
  V  V4  1  0.69576800  0.25000000  0.34238725  1
  V  V5  1  0.30423200  0.75000000  0.65761275  1
  Si  Si6  1  0.79542100  0.75000000  0.42587325  1
  Si  Si7  1  0.20457900  0.25000000  0.57412675  1
  C  C8  1  0.76820900  0.25000000  0.05405625  1
  C  C9  1  0.23179100  0.75000000  0.94594375  1
  O  O10  1  0.20282100  0.75000000  0.09173675  1
  O  O11  1  0.79717900  0.25000000  0.90826325  1
  O  O12  1  0.53664000  0.25000000  0.11452125  1
  O  O13  1  0.46336000  0.75000000  0.88547875  1
  O  O14  1  0.96661400  0.25000000  0.16078925  1
  O  O15  1  0.03338600  0.75000000  0.83921075  1
  O  O16  1  0.33369600  0.25000000  0.40244875  1
  O  O17  1  0.66630400  0.75000000  0.59755125  1
  O  O18  1  0.11644900  0.75000000  0.45142925  1
  O  O19  1  0.88355100  0.25000000  0.54857075  1
  O  O20  1  0.69455200  0.95757100  0.32461375  1
  O  O21  1  0.69455200  0.54242900  0.32461375  1
  O  O22  1  0.30544800  0.45757100  0.67538625  1
  O  O23  1  0.30544800  0.04242900  0.67538625  1
