# generated using pymatgen
data_Li5Cr2Cu5O12
_symmetry_space_group_name_H-M   'P 1'
_cell_length_a   5.48610958
_cell_length_b   8.49675817
_cell_length_c   9.65997972
_cell_angle_alpha   90.00000000
_cell_angle_beta   92.25610134
_cell_angle_gamma   90.00000000
_symmetry_Int_Tables_number   1
_chemical_formula_structural   Li5Cr2Cu5O12
_chemical_formula_sum   'Li10 Cr4 Cu10 O24'
_cell_volume   449.94266581
_cell_formula_units_Z   2
loop_
 _symmetry_equiv_pos_site_id
 _symmetry_equiv_pos_as_xyz
  1  'x, y, z'
loop_
 _atom_site_type_symbol
 _atom_site_label
 _atom_site_symmetry_multiplicity
 _atom_site_fract_x
 _atom_site_fract_y
 _atom_site_fract_z
 _atom_site_occupancy
  Li  Li0  1  0.75683350  0.08322750  0.74630500  1
  Li  Li1  1  0.76122100  0.91523200  0.25649200  1
  Li  Li2  1  0.24316650  0.08322750  0.25369500  1
  Li  Li3  1  0.23877900  0.91523200  0.74350800  1
  Li  Li4  1  0.50000000  0.58440400  0.50000000  1
  Li  Li5  1  0.25683350  0.58322750  0.74630500  1
  Li  Li6  1  0.26122100  0.41523200  0.25649200  1
  Li  Li7  1  0.74316650  0.58322750  0.25369500  1
  Li  Li8  1  0.73877900  0.41523200  0.74350800  1
  Li  Li9  1  0.00000000  0.08440400  0.50000000  1
  Cr  Cr10  1  0.50000000  0.25288600  0.50000000  1
  Cr  Cr11  1  0.50000000  0.75254900  0.00000000  1
  Cr  Cr12  1  0.00000000  0.75288600  0.50000000  1
  Cr  Cr13  1  0.00000000  0.25254900  0.00000000  1
  Cu  Cu14  1  0.50000000  0.42134800  0.00000000  1
  Cu  Cu15  1  0.25365000  0.74689800  0.25104300  1
  Cu  Cu16  1  0.74635000  0.74689800  0.74895700  1
  Cu  Cu17  1  0.50000000  0.08336300  0.00000000  1
  Cu  Cu18  1  0.50000000  0.91501600  0.50000000  1
  Cu  Cu19  1  0.00000000  0.92134800  0.00000000  1
  Cu  Cu20  1  0.75365000  0.24689800  0.25104300  1
  Cu  Cu21  1  0.24635000  0.24689800  0.74895700  1
  Cu  Cu22  1  0.00000000  0.58336300  0.00000000  1
  Cu  Cu23  1  0.00000000  0.41501600  0.50000000  1
  O  O24  1  0.11021550  0.90072650  0.36567200  1
  O  O25  1  0.88978450  0.90072650  0.63432800  1
  O  O26  1  0.66719250  0.25123850  0.90326400  1
  O  O27  1  0.33280750  0.25123850  0.09673600  1
  O  O28  1  0.60973500  0.08524800  0.37661800  1
  O  O29  1  0.39026500  0.08524800  0.62338200  1
  O  O30  1  0.61062500  0.91630300  0.87137600  1
  O  O31  1  0.38937500  0.91630300  0.12862400  1
  O  O32  1  0.67614400  0.75490100  0.40331300  1
  O  O33  1  0.32385600  0.75490100  0.59668700  1
  O  O34  1  0.10230700  0.09144300  0.86606600  1
  O  O35  1  0.89769300  0.09144300  0.13393400  1
  O  O36  1  0.61021550  0.40072650  0.36567200  1
  O  O37  1  0.38978450  0.40072650  0.63432800  1
  O  O38  1  0.16719250  0.75123850  0.90326400  1
  O  O39  1  0.83280750  0.75123850  0.09673600  1
  O  O40  1  0.10973500  0.58524800  0.37661800  1
  O  O41  1  0.89026500  0.58524800  0.62338200  1
  O  O42  1  0.11062500  0.41630300  0.87137600  1
  O  O43  1  0.88937500  0.41630300  0.12862400  1
  O  O44  1  0.17614400  0.25490100  0.40331300  1
  O  O45  1  0.82385600  0.25490100  0.59668700  1
  O  O46  1  0.60230700  0.59144300  0.86606600  1
  O  O47  1  0.39769300  0.59144300  0.13393400  1
