# generated using pymatgen
data_Li2Mn5(Si2O7)2
_symmetry_space_group_name_H-M   'P 1'
_cell_length_a   5.55836413
_cell_length_b   7.64901546
_cell_length_c   8.03607409
_cell_angle_alpha   113.40977845
_cell_angle_beta   93.88128180
_cell_angle_gamma   103.79129435
_symmetry_Int_Tables_number   1
_chemical_formula_structural   Li2Mn5(Si2O7)2
_chemical_formula_sum   'Li2 Mn5 Si4 O14'
_cell_volume   299.40134101
_cell_formula_units_Z   1
loop_
 _symmetry_equiv_pos_site_id
 _symmetry_equiv_pos_as_xyz
  1  'x, y, z'
loop_
 _atom_site_type_symbol
 _atom_site_label
 _atom_site_symmetry_multiplicity
 _atom_site_fract_x
 _atom_site_fract_y
 _atom_site_fract_z
 _atom_site_occupancy
  Li  Li0  1  0.22687250  0.10325650  0.46068500  1
  Li  Li1  1  0.77312750  0.89674350  0.53931500  1
  Mn  Mn2  1  0.00000000  0.00000000  0.00000000  1
  Mn  Mn3  1  0.09557300  0.37498300  0.82751600  1
  Mn  Mn4  1  0.90442700  0.62501700  0.17248400  1
  Mn  Mn5  1  0.62912250  0.57810250  0.70228800  1
  Mn  Mn6  1  0.37087750  0.42189750  0.29771200  1
  Si  Si7  1  0.50634700  0.21586400  0.85963500  1
  Si  Si8  1  0.49365300  0.78413600  0.14036500  1
  Si  Si9  1  0.79716250  0.21040200  0.39079350  1
  Si  Si10  1  0.20283750  0.78959800  0.60920650  1
  O  O11  1  0.88465050  0.17585000  0.57080450  1
  O  O12  1  0.11534950  0.82415000  0.42919550  1
  O  O13  1  0.79519000  0.32286650  0.97329050  1
  O  O14  1  0.20481000  0.67713350  0.02670950  1
  O  O15  1  0.53273700  0.02531500  0.26363600  1
  O  O16  1  0.46726300  0.97468500  0.73636400  1
  O  O17  1  0.42715550  0.31225100  0.72087550  1
  O  O18  1  0.57284450  0.68774900  0.27912450  1
  O  O19  1  0.03203150  0.18910100  0.27461750  1
  O  O20  1  0.96796850  0.81089900  0.72538250  1
  O  O21  1  0.70330850  0.40768500  0.43286750  1
  O  O22  1  0.29669150  0.59231500  0.56713250  1
  O  O23  1  0.29827200  0.24123900  0.99970500  1
  O  O24  1  0.70172800  0.75876100  0.00029500  1
