# generated using pymatgen
data_Li8NiO5F
_symmetry_space_group_name_H-M   'P 1'
_cell_length_a   5.32699890
_cell_length_b   5.33206397
_cell_length_c   5.79804487
_cell_angle_alpha   90.85439307
_cell_angle_beta   115.95132121
_cell_angle_gamma   113.89246617
_symmetry_Int_Tables_number   1
_chemical_formula_structural   Li8NiO5F
_chemical_formula_sum   'Li8 Ni1 O5 F1'
_cell_volume   131.64147435
_cell_formula_units_Z   1
loop_
 _symmetry_equiv_pos_site_id
 _symmetry_equiv_pos_as_xyz
  1  'x, y, z'
loop_
 _atom_site_type_symbol
 _atom_site_label
 _atom_site_symmetry_multiplicity
 _atom_site_fract_x
 _atom_site_fract_y
 _atom_site_fract_z
 _atom_site_occupancy
  Li  Li0  1  0.24329700  0.46899000  0.35875200  1
  Li  Li1  1  0.12995750  0.23111000  0.66180150  1
  Li  Li2  1  0.41241050  0.89277500  0.65064750  1
  Li  Li3  1  0.72163350  0.36776800  0.01399450  1
  Li  Li4  1  0.31702150  0.67506000  0.97570250  1
  Li  Li5  1  0.57392400  0.09278100  0.34333300  1
  Li  Li6  1  0.89677900  0.79410650  0.36391400  1
  Li  Li7  1  0.76057800  0.52301200  0.65646500  1
  Ni  Ni8  1  0.94963400  0.96155400  0.97413500  1
  O  O9  1  0.49800350  0.58456500  0.76180750  1
  O  O10  1  0.86800850  0.10647600  0.23168550  1
  O  O11  1  0.16094500  0.77372500  0.22805800  1
  O  O12  1  0.81703700  0.20471800  0.75348500  1
  O  O13  1  0.11169200  0.88561550  0.75467700  1
  F  F14  1  0.53908200  0.43774850  0.27154100  1
