# generated using pymatgen
data_Li3MnV4O12
_symmetry_space_group_name_H-M   'P 1'
_cell_length_a   10.41600400
_cell_length_b   9.23694400
_cell_length_c   5.84011994
_cell_angle_alpha   90.00000000
_cell_angle_beta   111.39598346
_cell_angle_gamma   90.00000000
_symmetry_Int_Tables_number   1
_chemical_formula_structural   Li3MnV4O12
_chemical_formula_sum   'Li6 Mn2 V8 O24'
_cell_volume   523.16521716
_cell_formula_units_Z   2
loop_
 _symmetry_equiv_pos_site_id
 _symmetry_equiv_pos_as_xyz
  1  'x, y, z'
loop_
 _atom_site_type_symbol
 _atom_site_label
 _atom_site_symmetry_multiplicity
 _atom_site_fract_x
 _atom_site_fract_y
 _atom_site_fract_z
 _atom_site_occupancy
  Li  Li0  1  0.00000000  0.09976300  0.50000000  1
  Li  Li1  1  0.00000000  0.24507200  0.00000000  1
  Li  Li2  1  0.00000000  0.76238400  0.50000000  1
  Li  Li3  1  0.50000000  0.59976300  0.50000000  1
  Li  Li4  1  0.50000000  0.74507200  0.00000000  1
  Li  Li5  1  0.50000000  0.26238400  0.50000000  1
  Mn  Mn6  1  0.00000000  0.91458900  0.00000000  1
  Mn  Mn7  1  0.50000000  0.41458900  0.00000000  1
  V  V8  1  0.20286150  0.40421750  0.47852400  1
  V  V9  1  0.20632500  0.59642000  0.97809800  1
  V  V10  1  0.79713850  0.40421750  0.52147600  1
  V  V11  1  0.79367500  0.59642000  0.02190200  1
  V  V12  1  0.70286150  0.90421750  0.47852400  1
  V  V13  1  0.70632500  0.09642000  0.97809800  1
  V  V14  1  0.29713850  0.90421750  0.52147600  1
  V  V15  1  0.29367500  0.09642000  0.02190200  1
  O  O16  1  0.38088800  0.39675900  0.60385100  1
  O  O17  1  0.13398050  0.23704750  0.41913800  1
  O  O18  1  0.38530850  0.59458050  0.08678700  1
  O  O19  1  0.14035550  0.49732250  0.68709700  1
  O  O20  1  0.86601950  0.23704750  0.58086200  1
  O  O21  1  0.14484500  0.49797300  0.19090800  1
  O  O22  1  0.85964450  0.49732250  0.31290300  1
  O  O23  1  0.13212900  0.76477600  0.91214500  1
  O  O24  1  0.85515500  0.49797300  0.80909200  1
  O  O25  1  0.61911200  0.39675900  0.39614900  1
  O  O26  1  0.86787100  0.76477600  0.08785500  1
  O  O27  1  0.61469150  0.59458050  0.91321300  1
  O  O28  1  0.88088800  0.89675900  0.60385100  1
  O  O29  1  0.63398050  0.73704750  0.41913800  1
  O  O30  1  0.88530850  0.09458050  0.08678700  1
  O  O31  1  0.64035550  0.99732250  0.68709700  1
  O  O32  1  0.36601950  0.73704750  0.58086200  1
  O  O33  1  0.64484500  0.99797300  0.19090800  1
  O  O34  1  0.35964450  0.99732250  0.31290300  1
  O  O35  1  0.63212900  0.26477600  0.91214500  1
  O  O36  1  0.35515500  0.99797300  0.80909200  1
  O  O37  1  0.11911200  0.89675900  0.39614900  1
  O  O38  1  0.36787100  0.26477600  0.08785500  1
  O  O39  1  0.11469150  0.09458050  0.91321300  1
