# generated using pymatgen
data_LiVBO3
_symmetry_space_group_name_H-M   'P 1'
_cell_length_a   8.20720549
_cell_length_b   8.20720549
_cell_length_c   3.18217900
_cell_angle_alpha   90.00000000
_cell_angle_beta   90.00000000
_cell_angle_gamma   120.00000000
_symmetry_Int_Tables_number   1
_chemical_formula_structural   LiVBO3
_chemical_formula_sum   'Li3 V3 B3 O9'
_cell_volume   185.62901159
_cell_formula_units_Z   3
loop_
 _symmetry_equiv_pos_site_id
 _symmetry_equiv_pos_as_xyz
  1  'x, y, z'
loop_
 _atom_site_type_symbol
 _atom_site_label
 _atom_site_symmetry_multiplicity
 _atom_site_fract_x
 _atom_site_fract_y
 _atom_site_fract_z
 _atom_site_occupancy
  Li  Li0  1  0.69708933  0.06932767  0.50000000  1
  Li  Li1  1  0.37223833  0.30291067  0.50000000  1
  Li  Li2  1  0.93067233  0.62776167  0.50000000  1
  V  V3  1  0.29534133  0.94021367  0.00000000  1
  V  V4  1  0.64487233  0.70465867  0.00000000  1
  V  V5  1  0.05978633  0.35512767  0.00000000  1
  B  B6  1  0.00000000  0.00000000  0.50000000  1
  B  B7  1  0.66666667  0.33333333  0.00000000  1
  B  B8  1  0.33333333  0.66666667  0.50000000  1
  O  O9  1  0.76418183  0.23476567  0.00000000  1
  O  O10  1  0.47058383  0.23581817  0.00000000  1
  O  O11  1  0.76523433  0.52941617  0.00000000  1
  O  O12  1  0.08722883  0.19425567  0.50000000  1
  O  O13  1  0.80574433  0.89297317  0.50000000  1
  O  O14  1  0.10702683  0.91277117  0.50000000  1
  O  O15  1  0.43003883  0.86257617  0.50000000  1
  O  O16  1  0.13742383  0.56746267  0.50000000  1
  O  O17  1  0.43253733  0.56996117  0.50000000  1
