# generated using pymatgen
data_V3Sb(PO4)4
_symmetry_space_group_name_H-M   'P 1'
_cell_length_a   5.03280292
_cell_length_b   6.04056700
_cell_length_c   10.31696823
_cell_angle_alpha   90.00000000
_cell_angle_beta   90.08771584
_cell_angle_gamma   90.00000000
_symmetry_Int_Tables_number   1
_chemical_formula_structural   V3Sb(PO4)4
_chemical_formula_sum   'V3 Sb1 P4 O16'
_cell_volume   313.64561064
_cell_formula_units_Z   1
loop_
 _symmetry_equiv_pos_site_id
 _symmetry_equiv_pos_as_xyz
  1  'x, y, z'
loop_
 _atom_site_type_symbol
 _atom_site_label
 _atom_site_symmetry_multiplicity
 _atom_site_fract_x
 _atom_site_fract_y
 _atom_site_fract_z
 _atom_site_occupancy
  V  V0  1  0.47190600  0.50000000  0.77180500  1
  V  V1  1  0.53252400  0.00000000  0.22092100  1
  V  V2  1  0.97656300  0.00000000  0.73417200  1
  Sb  Sb3  1  0.02618100  0.50000000  0.27650400  1
  P  P4  1  0.11041800  0.00000000  0.40277700  1
  P  P5  1  0.41459000  0.00000000  0.89985000  1
  P  P6  1  0.57003000  0.50000000  0.08664300  1
  P  P7  1  0.90519400  0.50000000  0.61264200  1
  O  O8  1  0.12009100  0.00000000  0.54993700  1
  O  O9  1  0.27638900  0.19591000  0.33832500  1
  O  O10  1  0.27638900  0.80409000  0.33832500  1
  O  O11  1  0.20544700  0.50000000  0.63344800  1
  O  O12  1  0.26865300  0.50000000  0.10569400  1
  O  O13  1  0.26697300  0.19803700  0.82819800  1
  O  O14  1  0.26697300  0.80196300  0.82819800  1
  O  O15  1  0.36044800  0.00000000  0.04587600  1
  O  O16  1  0.63847800  0.50000000  0.94317000  1
  O  O17  1  0.70617300  0.70240700  0.15779900  1
  O  O18  1  0.70617300  0.29759300  0.15779900  1
  O  O19  1  0.71305400  0.00000000  0.87434400  1
  O  O20  1  0.82522400  0.00000000  0.35192100  1
  O  O21  1  0.76620700  0.70047500  0.68555300  1
  O  O22  1  0.76620700  0.29952500  0.68555300  1
  O  O23  1  0.82971500  0.50000000  0.47055200  1
