# generated using pymatgen
data_Li4Ti3Mn3V2O16
_symmetry_space_group_name_H-M   'P 1'
_cell_length_a   10.24956000
_cell_length_b   5.97955800
_cell_length_c   9.64198997
_cell_angle_alpha   90.00000000
_cell_angle_beta   91.28212071
_cell_angle_gamma   90.00000000
_symmetry_Int_Tables_number   1
_chemical_formula_structural   Li4Ti3Mn3V2O16
_chemical_formula_sum   'Li8 Ti6 Mn6 V4 O32'
_cell_volume   590.78877704
_cell_formula_units_Z   2
loop_
 _symmetry_equiv_pos_site_id
 _symmetry_equiv_pos_as_xyz
  1  'x, y, z'
loop_
 _atom_site_type_symbol
 _atom_site_label
 _atom_site_symmetry_multiplicity
 _atom_site_fract_x
 _atom_site_fract_y
 _atom_site_fract_z
 _atom_site_occupancy
  Li  Li0  1  0.66868100  0.00000000  0.89488300  1
  Li  Li1  1  0.99791000  0.00000000  0.99237300  1
  Li  Li2  1  0.99740600  0.00000000  0.49608600  1
  Li  Li3  1  0.33174900  0.00000000  0.39643900  1
  Li  Li4  1  0.16868100  0.50000000  0.89488300  1
  Li  Li5  1  0.49791000  0.50000000  0.99237300  1
  Li  Li6  1  0.49740600  0.50000000  0.49608600  1
  Li  Li7  1  0.83174900  0.50000000  0.39643900  1
  Ti  Ti8  1  0.58489350  0.24918850  0.21549600  1
  Ti  Ti9  1  0.58489350  0.75081150  0.21549600  1
  Ti  Ti10  1  0.17229900  0.00000000  0.71812800  1
  Ti  Ti11  1  0.08489350  0.74918850  0.21549600  1
  Ti  Ti12  1  0.08489350  0.25081150  0.21549600  1
  Ti  Ti13  1  0.67229900  0.50000000  0.71812800  1
  Mn  Mn14  1  0.83051400  0.00000000  0.21110400  1
  Mn  Mn15  1  0.42005300  0.23946800  0.71311100  1
  Mn  Mn16  1  0.42005300  0.76053200  0.71311100  1
  Mn  Mn17  1  0.33051400  0.50000000  0.21110400  1
  Mn  Mn18  1  0.92005300  0.73946800  0.71311100  1
  Mn  Mn19  1  0.92005300  0.26053200  0.71311100  1
  V  V20  1  0.67033900  0.00000000  0.49068500  1
  V  V21  1  0.34121400  0.00000000  0.98463600  1
  V  V22  1  0.17033900  0.50000000  0.49068500  1
  V  V23  1  0.84121400  0.50000000  0.98463600  1
  O  O24  1  0.58413250  0.25507750  0.59735500  1
  O  O25  1  0.51874000  0.00000000  0.33703500  1
  O  O26  1  0.66641100  0.00000000  0.10789000  1
  O  O27  1  0.99596500  0.00000000  0.30916400  1
  O  O28  1  0.99823000  0.00000000  0.80327700  1
  O  O29  1  0.58413250  0.74492250  0.59735500  1
  O  O30  1  0.73107950  0.22531850  0.34479000  1
  O  O31  1  0.73107950  0.77468150  0.34479000  1
  O  O32  1  0.16165800  0.00000000  0.10957900  1
  O  O33  1  0.82193700  0.00000000  0.58265000  1
  O  O34  1  0.25895350  0.21565250  0.83839800  1
  O  O35  1  0.25895350  0.78434750  0.83839800  1
  O  O36  1  0.33373500  0.00000000  0.60842200  1
  O  O37  1  0.42405350  0.24676650  0.09815800  1
  O  O38  1  0.48779500  0.00000000  0.85090500  1
  O  O39  1  0.42405350  0.75323350  0.09815800  1
  O  O40  1  0.08413250  0.75507750  0.59735500  1
  O  O41  1  0.01874000  0.50000000  0.33703500  1
  O  O42  1  0.16641100  0.50000000  0.10789000  1
  O  O43  1  0.49596500  0.50000000  0.30916400  1
  O  O44  1  0.49823000  0.50000000  0.80327700  1
  O  O45  1  0.08413250  0.24492250  0.59735500  1
  O  O46  1  0.23107950  0.72531850  0.34479000  1
  O  O47  1  0.23107950  0.27468150  0.34479000  1
  O  O48  1  0.66165800  0.50000000  0.10957900  1
  O  O49  1  0.32193700  0.50000000  0.58265000  1
  O  O50  1  0.75895350  0.71565250  0.83839800  1
  O  O51  1  0.75895350  0.28434750  0.83839800  1
  O  O52  1  0.83373500  0.50000000  0.60842200  1
  O  O53  1  0.92405350  0.74676650  0.09815800  1
  O  O54  1  0.98779500  0.50000000  0.85090500  1
  O  O55  1  0.92405350  0.25323350  0.09815800  1
