# generated using pymatgen
data_Li3TiMn4O8
_symmetry_space_group_name_H-M   'P 1'
_cell_length_a   10.56321148
_cell_length_b   6.16480067
_cell_length_c   6.12299612
_cell_angle_alpha   90.00000000
_cell_angle_beta   124.73600213
_cell_angle_gamma   90.00000000
_symmetry_Int_Tables_number   1
_chemical_formula_structural   Li3TiMn4O8
_chemical_formula_sum   'Li6 Ti2 Mn8 O16'
_cell_volume   327.67086349
_cell_formula_units_Z   2
loop_
 _symmetry_equiv_pos_site_id
 _symmetry_equiv_pos_as_xyz
  1  'x, y, z'
loop_
 _atom_site_type_symbol
 _atom_site_label
 _atom_site_symmetry_multiplicity
 _atom_site_fract_x
 _atom_site_fract_y
 _atom_site_fract_z
 _atom_site_occupancy
  Li  Li0  1  0.75000000  0.25000000  0.50000000  1
  Li  Li1  1  0.50000000  0.50000000  0.00000000  1
  Li  Li2  1  0.75000000  0.75000000  0.50000000  1
  Li  Li3  1  0.25000000  0.75000000  0.50000000  1
  Li  Li4  1  0.00000000  0.00000000  0.00000000  1
  Li  Li5  1  0.25000000  0.25000000  0.50000000  1
  Ti  Ti6  1  0.00000000  0.50000000  0.50000000  1
  Ti  Ti7  1  0.50000000  0.00000000  0.50000000  1
  Mn  Mn8  1  0.00000000  0.50000000  0.00000000  1
  Mn  Mn9  1  0.00000000  0.00000000  0.50000000  1
  Mn  Mn10  1  0.75000000  0.25000000  0.00000000  1
  Mn  Mn11  1  0.25000000  0.25000000  0.00000000  1
  Mn  Mn12  1  0.50000000  0.00000000  0.00000000  1
  Mn  Mn13  1  0.50000000  0.50000000  0.50000000  1
  Mn  Mn14  1  0.25000000  0.75000000  0.00000000  1
  Mn  Mn15  1  0.75000000  0.75000000  0.00000000  1
  O  O16  1  0.77178350  0.50000000  0.26700900  1
  O  O17  1  0.99521850  0.26567450  0.73031000  1
  O  O18  1  0.99521850  0.73432550  0.73031000  1
  O  O19  1  0.25093650  0.50000000  0.23736600  1
  O  O20  1  0.74906350  0.50000000  0.76263400  1
  O  O21  1  0.00478150  0.26567450  0.26969000  1
  O  O22  1  0.00478150  0.73432550  0.26969000  1
  O  O23  1  0.22821650  0.50000000  0.73299100  1
  O  O24  1  0.27178350  0.00000000  0.26700900  1
  O  O25  1  0.49521850  0.76567450  0.73031000  1
  O  O26  1  0.49521850  0.23432550  0.73031000  1
  O  O27  1  0.75093650  0.00000000  0.23736600  1
  O  O28  1  0.24906350  0.00000000  0.76263400  1
  O  O29  1  0.50478150  0.76567450  0.26969000  1
  O  O30  1  0.50478150  0.23432550  0.26969000  1
  O  O31  1  0.72821650  0.00000000  0.73299100  1
