# generated using pymatgen
data_LiFeP2HO8
_symmetry_space_group_name_H-M   'P 1'
_cell_length_a   4.94773826
_cell_length_b   8.06809500
_cell_length_c   7.54395609
_cell_angle_alpha   90.00000000
_cell_angle_beta   104.69514971
_cell_angle_gamma   90.00000000
_symmetry_Int_Tables_number   1
_chemical_formula_structural   LiFeP2HO8
_chemical_formula_sum   'Li2 Fe2 P4 H2 O16'
_cell_volume   291.29513060
_cell_formula_units_Z   2
loop_
 _symmetry_equiv_pos_site_id
 _symmetry_equiv_pos_as_xyz
  1  'x, y, z'
loop_
 _atom_site_type_symbol
 _atom_site_label
 _atom_site_symmetry_multiplicity
 _atom_site_fract_x
 _atom_site_fract_y
 _atom_site_fract_z
 _atom_site_occupancy
  Li  Li0  1  0.15037200  0.62977300  0.59794400  1
  Li  Li1  1  0.84962800  0.12977300  0.40205600  1
  Fe  Fe2  1  0.74715500  0.50388100  0.24457700  1
  Fe  Fe3  1  0.25284500  0.00388100  0.75542300  1
  P  P4  1  0.12001900  0.65221500  0.98793600  1
  P  P5  1  0.87998100  0.15221500  0.01206400  1
  P  P6  1  0.62292100  0.84442500  0.49230800  1
  P  P7  1  0.37707900  0.34442500  0.50769200  1
  H  H8  1  0.70138900  0.48167200  0.73069400  1
  H  H9  1  0.29861100  0.98167200  0.26930600  1
  O  O10  1  0.12821900  0.45225000  0.40677800  1
  O  O11  1  0.20998600  0.82390000  0.93372400  1
  O  O12  1  0.08982800  0.16984500  0.89330500  1
  O  O13  1  0.99419000  0.56229800  0.80432500  1
  O  O14  1  0.87178100  0.95225000  0.59322200  1
  O  O15  1  0.72930600  0.67599900  0.44102100  1
  O  O16  1  0.00581000  0.06229800  0.19567500  1
  O  O17  1  0.91017200  0.66984500  0.10669500  1
  O  O18  1  0.59807400  0.32410800  0.39788800  1
  O  O19  1  0.50200200  0.94506300  0.30956800  1
  O  O20  1  0.79001400  0.32390000  0.06627600  1
  O  O21  1  0.62843400  0.04931600  0.90792300  1
  O  O22  1  0.49799800  0.44506300  0.69043200  1
  O  O23  1  0.40192600  0.82410800  0.60211200  1
  O  O24  1  0.27069400  0.17599900  0.55897900  1
  O  O25  1  0.37156600  0.54931600  0.09207700  1
