# generated using pymatgen
data_Li2Cr2FeO6
_symmetry_space_group_name_H-M   'P 1'
_cell_length_a   5.07452290
_cell_length_b   8.79711288
_cell_length_c   10.13828400
_cell_angle_alpha   90.00000000
_cell_angle_beta   90.00000000
_cell_angle_gamma   90.00000000
_symmetry_Int_Tables_number   1
_chemical_formula_structural   Li2Cr2FeO6
_chemical_formula_sum   'Li8 Cr8 Fe4 O24'
_cell_volume   452.58466407
_cell_formula_units_Z   4
loop_
 _symmetry_equiv_pos_site_id
 _symmetry_equiv_pos_as_xyz
  1  'x, y, z'
loop_
 _atom_site_type_symbol
 _atom_site_label
 _atom_site_symmetry_multiplicity
 _atom_site_fract_x
 _atom_site_fract_y
 _atom_site_fract_z
 _atom_site_occupancy
  Li  Li0  1  0.90188400  0.75000000  0.25000000  1
  Li  Li1  1  0.09811600  0.75000000  0.75000000  1
  Li  Li2  1  0.40188400  0.75000000  0.25000000  1
  Li  Li3  1  0.59811600  0.75000000  0.75000000  1
  Li  Li4  1  0.40188400  0.25000000  0.25000000  1
  Li  Li5  1  0.59811600  0.25000000  0.75000000  1
  Li  Li6  1  0.90188400  0.25000000  0.25000000  1
  Li  Li7  1  0.09811600  0.25000000  0.75000000  1
  Cr  Cr8  1  0.00000000  0.66368800  0.00000000  1
  Cr  Cr9  1  0.00000000  0.83631200  0.50000000  1
  Cr  Cr10  1  0.50000000  0.66368800  0.50000000  1
  Cr  Cr11  1  0.50000000  0.83631200  0.00000000  1
  Cr  Cr12  1  0.50000000  0.16368800  0.00000000  1
  Cr  Cr13  1  0.50000000  0.33631200  0.50000000  1
  Cr  Cr14  1  0.00000000  0.16368800  0.50000000  1
  Cr  Cr15  1  0.00000000  0.33631200  0.00000000  1
  Fe  Fe16  1  0.50000000  0.00000000  0.50000000  1
  Fe  Fe17  1  0.00000000  0.00000000  0.00000000  1
  Fe  Fe18  1  0.00000000  0.50000000  0.50000000  1
  Fe  Fe19  1  0.50000000  0.50000000  0.00000000  1
  O  O20  1  0.84085000  0.66593400  0.60528400  1
  O  O21  1  0.65915000  0.83406600  0.39471600  1
  O  O22  1  0.84085000  0.83406600  0.89471600  1
  O  O23  1  0.15915000  0.83406600  0.10528400  1
  O  O24  1  0.68807800  0.00000000  0.09936000  1
  O  O25  1  0.81192200  0.00000000  0.59936000  1
  O  O26  1  0.18807800  0.00000000  0.40064000  1
  O  O27  1  0.15915000  0.66593400  0.39471600  1
  O  O28  1  0.31192200  0.00000000  0.90064000  1
  O  O29  1  0.34085000  0.66593400  0.89471600  1
  O  O30  1  0.65915000  0.66593400  0.10528400  1
  O  O31  1  0.34085000  0.83406600  0.60528400  1
  O  O32  1  0.34085000  0.16593400  0.60528400  1
  O  O33  1  0.15915000  0.33406600  0.39471600  1
  O  O34  1  0.34085000  0.33406600  0.89471600  1
  O  O35  1  0.65915000  0.33406600  0.10528400  1
  O  O36  1  0.18807800  0.50000000  0.09936000  1
  O  O37  1  0.31192200  0.50000000  0.59936000  1
  O  O38  1  0.68807800  0.50000000  0.40064000  1
  O  O39  1  0.65915000  0.16593400  0.39471600  1
  O  O40  1  0.81192200  0.50000000  0.90064000  1
  O  O41  1  0.84085000  0.16593400  0.89471600  1
  O  O42  1  0.15915000  0.16593400  0.10528400  1
  O  O43  1  0.84085000  0.33406600  0.60528400  1
