# generated using pymatgen
data_La6Cu6O17
_symmetry_space_group_name_H-M   'P 1'
_cell_length_a   6.74160600
_cell_length_b   11.74902200
_cell_length_c   10.52509243
_cell_angle_alpha   90.00000000
_cell_angle_beta   96.18434393
_cell_angle_gamma   90.00000000
_symmetry_Int_Tables_number   1
_chemical_formula_structural   La6Cu6O17
_chemical_formula_sum   'La12 Cu12 O34'
_cell_volume   828.81235476
_cell_formula_units_Z   2
loop_
 _symmetry_equiv_pos_site_id
 _symmetry_equiv_pos_as_xyz
  1  'x, y, z'
loop_
 _atom_site_type_symbol
 _atom_site_label
 _atom_site_symmetry_multiplicity
 _atom_site_fract_x
 _atom_site_fract_y
 _atom_site_fract_z
 _atom_site_occupancy
  La  La0  1  0.47450600  0.00000000  0.75778500  1
  La  La1  1  0.52816700  0.66647500  0.26008600  1
  La  La2  1  0.47183300  0.66647500  0.73991400  1
  La  La3  1  0.52549400  0.00000000  0.24221500  1
  La  La4  1  0.02816700  0.83352500  0.26008600  1
  La  La5  1  0.97183300  0.83352500  0.73991400  1
  La  La6  1  0.97450600  0.50000000  0.75778500  1
  La  La7  1  0.02816700  0.16647500  0.26008600  1
  La  La8  1  0.97183300  0.16647500  0.73991400  1
  La  La9  1  0.02549400  0.50000000  0.24221500  1
  La  La10  1  0.52816700  0.33352500  0.26008600  1
  La  La11  1  0.47183300  0.33352500  0.73991400  1
  Cu  Cu12  1  0.00000000  0.66312100  0.50000000  1
  Cu  Cu13  1  0.50000000  0.83687900  0.50000000  1
  Cu  Cu14  1  0.00000000  0.00000000  0.00000000  1
  Cu  Cu15  1  0.00000000  0.00000000  0.50000000  1
  Cu  Cu16  1  0.75000000  0.75000000  0.00000000  1
  Cu  Cu17  1  0.25000000  0.75000000  0.00000000  1
  Cu  Cu18  1  0.50000000  0.16312100  0.50000000  1
  Cu  Cu19  1  0.00000000  0.33687900  0.50000000  1
  Cu  Cu20  1  0.50000000  0.50000000  0.00000000  1
  Cu  Cu21  1  0.50000000  0.50000000  0.50000000  1
  Cu  Cu22  1  0.25000000  0.25000000  0.00000000  1
  Cu  Cu23  1  0.75000000  0.25000000  0.00000000  1
  O  O24  1  0.81547450  0.66930350  0.85724200  1
  O  O25  1  0.17441900  0.00000000  0.14894400  1
  O  O26  1  0.18452550  0.66930350  0.14275800  1
  O  O27  1  0.50000000  0.66550700  0.00000000  1
  O  O28  1  0.50000000  0.66889400  0.50000000  1
  O  O29  1  0.50000000  0.00000000  0.50000000  1
  O  O30  1  0.82558100  0.00000000  0.85105600  1
  O  O31  1  0.86711100  0.00000000  0.33660000  1
  O  O32  1  0.31547450  0.83069650  0.85724200  1
  O  O33  1  0.13288900  0.00000000  0.66340000  1
  O  O34  1  0.68452550  0.83069650  0.14275800  1
  O  O35  1  0.61759050  0.83781650  0.66671900  1
  O  O36  1  0.00000000  0.83110600  0.50000000  1
  O  O37  1  0.00000000  0.83449300  0.00000000  1
  O  O38  1  0.88240950  0.66218350  0.33328100  1
  O  O39  1  0.38240950  0.83781650  0.33328100  1
  O  O40  1  0.11759050  0.66218350  0.66671900  1
  O  O41  1  0.31547450  0.16930350  0.85724200  1
  O  O42  1  0.67441900  0.50000000  0.14894400  1
  O  O43  1  0.68452550  0.16930350  0.14275800  1
  O  O44  1  0.00000000  0.16550700  0.00000000  1
  O  O45  1  0.00000000  0.16889400  0.50000000  1
  O  O46  1  0.00000000  0.50000000  0.50000000  1
  O  O47  1  0.32558100  0.50000000  0.85105600  1
  O  O48  1  0.36711100  0.50000000  0.33660000  1
  O  O49  1  0.81547450  0.33069650  0.85724200  1
  O  O50  1  0.63288900  0.50000000  0.66340000  1
  O  O51  1  0.18452550  0.33069650  0.14275800  1
  O  O52  1  0.11759050  0.33781650  0.66671900  1
  O  O53  1  0.50000000  0.33110600  0.50000000  1
  O  O54  1  0.50000000  0.33449300  0.00000000  1
  O  O55  1  0.38240950  0.16218350  0.33328100  1
  O  O56  1  0.88240950  0.33781650  0.33328100  1
  O  O57  1  0.61759050  0.16218350  0.66671900  1
