# generated using pymatgen
data_LiMn10O20
_symmetry_space_group_name_H-M   'P 1'
_cell_length_a   13.10048400
_cell_length_b   13.10048400
_cell_length_c   8.27762800
_cell_angle_alpha   90.00000000
_cell_angle_beta   90.00000000
_cell_angle_gamma   90.00000000
_symmetry_Int_Tables_number   1
_chemical_formula_structural   LiMn10O20
_chemical_formula_sum   'Li4 Mn40 O80'
_cell_volume   1420.62870996
_cell_formula_units_Z   4
loop_
 _symmetry_equiv_pos_site_id
 _symmetry_equiv_pos_as_xyz
  1  'x, y, z'
loop_
 _atom_site_type_symbol
 _atom_site_label
 _atom_site_symmetry_multiplicity
 _atom_site_fract_x
 _atom_site_fract_y
 _atom_site_fract_z
 _atom_site_occupancy
  Li  Li0  1  0.50000000  0.00000000  0.25000000  1
  Li  Li1  1  0.00000000  0.00000000  0.00000000  1
  Li  Li2  1  0.00000000  0.50000000  0.75000000  1
  Li  Li3  1  0.50000000  0.50000000  0.50000000  1
  Mn  Mn4  1  0.44964150  0.90023850  0.62629950  1
  Mn  Mn5  1  0.34990900  0.20143500  0.12550600  1
  Mn  Mn6  1  0.40023850  0.05035850  0.87370050  1
  Mn  Mn7  1  0.25000000  0.00000000  0.12500000  1
  Mn  Mn8  1  0.29856500  0.84990900  0.37449400  1
  Mn  Mn9  1  0.65009100  0.79856500  0.12550600  1
  Mn  Mn10  1  0.59976150  0.94964150  0.87370050  1
  Mn  Mn11  1  0.20143500  0.15009100  0.87550600  1
  Mn  Mn12  1  0.70143500  0.15009100  0.37449400  1
  Mn  Mn13  1  0.09976150  0.94964150  0.37629950  1
  Mn  Mn14  1  0.50000000  0.75000000  0.37500000  1
  Mn  Mn15  1  0.55035850  0.59976150  0.12370050  1
  Mn  Mn16  1  0.65009100  0.29856500  0.62449400  1
  Mn  Mn17  1  0.55035850  0.09976150  0.62629950  1
  Mn  Mn18  1  0.34990900  0.70143500  0.62449400  1
  Mn  Mn19  1  0.44964150  0.40023850  0.12370050  1
  Mn  Mn20  1  0.90023850  0.05035850  0.37629950  1
  Mn  Mn21  1  0.50000000  0.25000000  0.37500000  1
  Mn  Mn22  1  0.75000000  0.00000000  0.12500000  1
  Mn  Mn23  1  0.79856500  0.84990900  0.87550600  1
  Mn  Mn24  1  0.94964150  0.40023850  0.12629950  1
  Mn  Mn25  1  0.84990900  0.70143500  0.62550600  1
  Mn  Mn26  1  0.90023850  0.55035850  0.37370050  1
  Mn  Mn27  1  0.75000000  0.50000000  0.62500000  1
  Mn  Mn28  1  0.79856500  0.34990900  0.87449400  1
  Mn  Mn29  1  0.15009100  0.29856500  0.62550600  1
  Mn  Mn30  1  0.09976150  0.44964150  0.37370050  1
  Mn  Mn31  1  0.70143500  0.65009100  0.37550600  1
  Mn  Mn32  1  0.20143500  0.65009100  0.87449400  1
  Mn  Mn33  1  0.59976150  0.44964150  0.87629950  1
  Mn  Mn34  1  0.00000000  0.25000000  0.87500000  1
  Mn  Mn35  1  0.05035850  0.09976150  0.62370050  1
  Mn  Mn36  1  0.15009100  0.79856500  0.12449400  1
  Mn  Mn37  1  0.05035850  0.59976150  0.12629950  1
  Mn  Mn38  1  0.84990900  0.20143500  0.12449400  1
  Mn  Mn39  1  0.94964150  0.90023850  0.62370050  1
  Mn  Mn40  1  0.40023850  0.55035850  0.87629950  1
  Mn  Mn41  1  0.00000000  0.75000000  0.87500000  1
  Mn  Mn42  1  0.25000000  0.50000000  0.62500000  1
  Mn  Mn43  1  0.29856500  0.34990900  0.37550600  1
  O  O44  1  0.58769150  0.95599950  0.63988550  1
  O  O45  1  0.45599950  0.91230850  0.86011450  1
  O  O46  1  0.41230850  0.04400050  0.63988550  1
  O  O47  1  0.44376500  0.89073700  0.38853700  1
  O  O48  1  0.34428100  0.18810300  0.89040300  1
  O  O49  1  0.39073700  0.05623500  0.11146300  1
  O  O50  1  0.31189700  0.84428100  0.60959700  1
  O  O51  1  0.21271650  0.14406350  0.10929650  1
  O  O52  1  0.25664950  0.01274050  0.89007550  1
  O  O53  1  0.35593650  0.71271650  0.39070350  1
  O  O54  1  0.65571900  0.81189700  0.89040300  1
  O  O55  1  0.28728350  0.85593650  0.14070350  1
  O  O56  1  0.18810300  0.15571900  0.64040300  1
  O  O57  1  0.24335050  0.98725950  0.35992450  1
  O  O58  1  0.64406350  0.78728350  0.35929650  1
  O  O59  1  0.65571900  0.31189700  0.85959700  1
  O  O60  1  0.55623500  0.60926300  0.36146300  1
  O  O61  1  0.71271650  0.14406350  0.14070350  1
  O  O62  1  0.51274050  0.74335050  0.14007550  1
  O  O63  1  0.10926300  0.94376500  0.13853700  1
  O  O64  1  0.68810300  0.15571900  0.60959700  1
  O  O65  1  0.48725950  0.75664950  0.60992450  1
  O  O66  1  0.54400050  0.58769150  0.88988550  1
  O  O67  1  0.08769150  0.95599950  0.61011450  1
  O  O68  1  0.64406350  0.28728350  0.39070350  1
  O  O69  1  0.45599950  0.41230850  0.88988550  1
  O  O70  1  0.91230850  0.04400050  0.61011450  1
  O  O71  1  0.55623500  0.10926300  0.38853700  1
  O  O72  1  0.51274050  0.24335050  0.60992450  1
  O  O73  1  0.89073700  0.05623500  0.13853700  1
  O  O74  1  0.44376500  0.39073700  0.36146300  1
  O  O75  1  0.34428100  0.68810300  0.85959700  1
  O  O76  1  0.48725950  0.25664950  0.14007550  1
  O  O77  1  0.54400050  0.08769150  0.86011450  1
  O  O78  1  0.75664950  0.01274050  0.35992450  1
  O  O79  1  0.81189700  0.84428100  0.64040300  1
  O  O80  1  0.35593650  0.21271650  0.35929650  1
  O  O81  1  0.78728350  0.85593650  0.10929650  1
  O  O82  1  0.74335050  0.98725950  0.89007550  1
  O  O83  1  0.60926300  0.94376500  0.11146300  1
  O  O84  1  0.08769150  0.45599950  0.13988550  1
  O  O85  1  0.95599950  0.41230850  0.36011450  1
  O  O86  1  0.91230850  0.54400050  0.13988550  1
  O  O87  1  0.94376500  0.39073700  0.88853700  1
  O  O88  1  0.84428100  0.68810300  0.39040300  1
  O  O89  1  0.89073700  0.55623500  0.61146300  1
  O  O90  1  0.81189700  0.34428100  0.10959700  1
  O  O91  1  0.71271650  0.64406350  0.60929650  1
  O  O92  1  0.75664950  0.51274050  0.39007550  1
  O  O93  1  0.85593650  0.21271650  0.89070350  1
  O  O94  1  0.15571900  0.31189700  0.39040300  1
  O  O95  1  0.78728350  0.35593650  0.64070350  1
  O  O96  1  0.68810300  0.65571900  0.14040300  1
  O  O97  1  0.74335050  0.48725950  0.85992450  1
  O  O98  1  0.14406350  0.28728350  0.85929650  1
  O  O99  1  0.15571900  0.81189700  0.35959700  1
  O  O100  1  0.05623500  0.10926300  0.86146300  1
  O  O101  1  0.21271650  0.64406350  0.64070350  1
  O  O102  1  0.01274050  0.24335050  0.64007550  1
  O  O103  1  0.60926300  0.44376500  0.63853700  1
  O  O104  1  0.18810300  0.65571900  0.10959700  1
  O  O105  1  0.98725950  0.25664950  0.10992450  1
  O  O106  1  0.04400050  0.08769150  0.38988550  1
  O  O107  1  0.58769150  0.45599950  0.11011450  1
  O  O108  1  0.14406350  0.78728350  0.89070350  1
  O  O109  1  0.95599950  0.91230850  0.38988550  1
  O  O110  1  0.41230850  0.54400050  0.11011450  1
  O  O111  1  0.05623500  0.60926300  0.88853700  1
  O  O112  1  0.01274050  0.74335050  0.10992450  1
  O  O113  1  0.39073700  0.55623500  0.63853700  1
  O  O114  1  0.94376500  0.89073700  0.86146300  1
  O  O115  1  0.84428100  0.18810300  0.35959700  1
  O  O116  1  0.98725950  0.75664950  0.64007550  1
  O  O117  1  0.04400050  0.58769150  0.36011450  1
  O  O118  1  0.25664950  0.51274050  0.85992450  1
  O  O119  1  0.31189700  0.34428100  0.14040300  1
  O  O120  1  0.85593650  0.71271650  0.85929650  1
  O  O121  1  0.28728350  0.35593650  0.60929650  1
  O  O122  1  0.24335050  0.48725950  0.39007550  1
  O  O123  1  0.10926300  0.44376500  0.61146300  1
