# generated using pymatgen
data_Ca2CrO8
_symmetry_space_group_name_H-M   'P 1'
_cell_length_a   8.50672200
_cell_length_b   7.65273200
_cell_length_c   4.85847321
_cell_angle_alpha   90.00000000
_cell_angle_beta   101.32369126
_cell_angle_gamma   90.00000000
_symmetry_Int_Tables_number   1
_chemical_formula_structural   Ca2CrO8
_chemical_formula_sum   'Ca4 Cr2 O16'
_cell_volume   310.12802733
_cell_formula_units_Z   2
loop_
 _symmetry_equiv_pos_site_id
 _symmetry_equiv_pos_as_xyz
  1  'x, y, z'
loop_
 _atom_site_type_symbol
 _atom_site_label
 _atom_site_symmetry_multiplicity
 _atom_site_fract_x
 _atom_site_fract_y
 _atom_site_fract_z
 _atom_site_occupancy
  Ca  Ca0  1  0.80762800  0.75326600  0.91904900  1
  Ca  Ca1  1  0.80762800  0.24673400  0.91904900  1
  Ca  Ca2  1  0.30762800  0.25326600  0.91904900  1
  Ca  Ca3  1  0.30762800  0.74673400  0.91904900  1
  Cr  Cr4  1  0.66241100  0.50000000  0.31236200  1
  Cr  Cr5  1  0.16241100  0.00000000  0.31236200  1
  O  O6  1  0.07226500  0.17944000  0.17147600  1
  O  O7  1  0.07226500  0.82056000  0.17147600  1
  O  O8  1  0.68752400  0.50000000  0.66284400  1
  O  O9  1  0.84165500  0.50000000  0.22293200  1
  O  O10  1  0.30085400  0.50000000  0.28745200  1
  O  O11  1  0.04825750  0.41228350  0.78029000  1
  O  O12  1  0.04825750  0.58771650  0.78029000  1
  O  O13  1  0.33185500  0.50000000  0.56827800  1
  O  O14  1  0.57226500  0.67944000  0.17147600  1
  O  O15  1  0.57226500  0.32056000  0.17147600  1
  O  O16  1  0.18752400  0.00000000  0.66284400  1
  O  O17  1  0.34165500  0.00000000  0.22293200  1
  O  O18  1  0.80085400  0.00000000  0.28745200  1
  O  O19  1  0.54825750  0.91228350  0.78029000  1
  O  O20  1  0.54825750  0.08771650  0.78029000  1
  O  O21  1  0.83185500  0.00000000  0.56827800  1
