# generated using pymatgen
data_Li4Ti3V3(WO8)2
_symmetry_space_group_name_H-M   'P 1'
_cell_length_a   10.42406000
_cell_length_b   5.99534800
_cell_length_c   9.87631019
_cell_angle_alpha   90.00000000
_cell_angle_beta   91.54063141
_cell_angle_gamma   90.00000000
_symmetry_Int_Tables_number   1
_chemical_formula_structural   Li4Ti3V3(WO8)2
_chemical_formula_sum   'Li8 Ti6 V6 W4 O32'
_cell_volume   617.00544866
_cell_formula_units_Z   2
loop_
 _symmetry_equiv_pos_site_id
 _symmetry_equiv_pos_as_xyz
  1  'x, y, z'
loop_
 _atom_site_type_symbol
 _atom_site_label
 _atom_site_symmetry_multiplicity
 _atom_site_fract_x
 _atom_site_fract_y
 _atom_site_fract_z
 _atom_site_occupancy
  Li  Li0  1  0.66520600  0.00000000  0.89892100  1
  Li  Li1  1  0.99616300  0.00000000  0.98845700  1
  Li  Li2  1  0.50269300  0.50000000  0.49425200  1
  Li  Li3  1  0.83245100  0.50000000  0.40126000  1
  Li  Li4  1  0.16520600  0.50000000  0.89892100  1
  Li  Li5  1  0.49616300  0.50000000  0.98845700  1
  Li  Li6  1  0.00269300  0.00000000  0.49425200  1
  Li  Li7  1  0.33245100  0.00000000  0.40126000  1
  Ti  Ti8  1  0.58767650  0.25123050  0.21433200  1
  Ti  Ti9  1  0.58767650  0.74876950  0.21433200  1
  Ti  Ti10  1  0.67358400  0.50000000  0.72011800  1
  Ti  Ti11  1  0.08767650  0.75123050  0.21433200  1
  Ti  Ti12  1  0.08767650  0.24876950  0.21433200  1
  Ti  Ti13  1  0.17358400  0.00000000  0.72011800  1
  V  V14  1  0.82607200  0.00000000  0.21205500  1
  V  V15  1  0.91859450  0.73317150  0.71119400  1
  V  V16  1  0.91859450  0.26682850  0.71119400  1
  V  V17  1  0.32607200  0.50000000  0.21205500  1
  V  V18  1  0.41859450  0.23317150  0.71119400  1
  V  V19  1  0.41859450  0.76682850  0.71119400  1
  W  W20  1  0.66979200  0.00000000  0.48920000  1
  W  W21  1  0.83933300  0.50000000  0.98752800  1
  W  W22  1  0.16979200  0.50000000  0.48920000  1
  W  W23  1  0.33933300  0.00000000  0.98752800  1
  O  O24  1  0.58644250  0.24967150  0.59503200  1
  O  O25  1  0.52239900  0.00000000  0.34271200  1
  O  O26  1  0.65062300  0.00000000  0.10579000  1
  O  O27  1  0.50528800  0.50000000  0.30833800  1
  O  O28  1  0.50715300  0.50000000  0.80228900  1
  O  O29  1  0.58644250  0.75032850  0.59503200  1
  O  O30  1  0.73425500  0.22693700  0.34445100  1
  O  O31  1  0.73425500  0.77306300  0.34445100  1
  O  O32  1  0.66299400  0.50000000  0.10847600  1
  O  O33  1  0.82996000  0.00000000  0.58904800  1
  O  O34  1  0.75618550  0.71808750  0.84247600  1
  O  O35  1  0.75618550  0.28191250  0.84247600  1
  O  O36  1  0.81935600  0.50000000  0.60099900  1
  O  O37  1  0.92222000  0.75235800  0.09945100  1
  O  O38  1  0.98573000  0.50000000  0.84450400  1
  O  O39  1  0.92222000  0.24764200  0.09945100  1
  O  O40  1  0.08644250  0.74967150  0.59503200  1
  O  O41  1  0.02239900  0.50000000  0.34271200  1
  O  O42  1  0.15062300  0.50000000  0.10579000  1
  O  O43  1  0.00528800  0.00000000  0.30833800  1
  O  O44  1  0.00715300  0.00000000  0.80228900  1
  O  O45  1  0.08644250  0.25032850  0.59503200  1
  O  O46  1  0.23425500  0.72693700  0.34445100  1
  O  O47  1  0.23425500  0.27306300  0.34445100  1
  O  O48  1  0.16299400  0.00000000  0.10847600  1
  O  O49  1  0.32996000  0.50000000  0.58904800  1
  O  O50  1  0.25618550  0.21808750  0.84247600  1
  O  O51  1  0.25618550  0.78191250  0.84247600  1
  O  O52  1  0.31935600  0.00000000  0.60099900  1
  O  O53  1  0.42222000  0.25235800  0.09945100  1
  O  O54  1  0.48573000  0.00000000  0.84450400  1
  O  O55  1  0.42222000  0.74764200  0.09945100  1
