# generated using pymatgen
data_Li4Ti3V3(TeO8)2
_symmetry_space_group_name_H-M   'P 1'
_cell_length_a   10.64955591
_cell_length_b   5.93117752
_cell_length_c   10.30128356
_cell_angle_alpha   90.00000000
_cell_angle_beta   90.04373256
_cell_angle_gamma   90.00000000
_symmetry_Int_Tables_number   1
_chemical_formula_structural   Li4Ti3V3(TeO8)2
_chemical_formula_sum   'Li8 Ti6 V6 Te4 O32'
_cell_volume   650.67427413
_cell_formula_units_Z   2
loop_
 _symmetry_equiv_pos_site_id
 _symmetry_equiv_pos_as_xyz
  1  'x, y, z'
loop_
 _atom_site_type_symbol
 _atom_site_label
 _atom_site_symmetry_multiplicity
 _atom_site_fract_x
 _atom_site_fract_y
 _atom_site_fract_z
 _atom_site_occupancy
  Li  Li0  1  0.83733300  0.50000000  0.09392000  1
  Li  Li1  1  0.99600325  0.00000000  0.01471050  1
  Li  Li2  1  0.99838750  0.00000000  0.50440950  1
  Li  Li3  1  0.66330725  0.00000000  0.60413600  1
  Li  Li4  1  0.33733300  0.00000000  0.09392000  1
  Li  Li5  1  0.49600325  0.50000000  0.01471050  1
  Li  Li6  1  0.49838750  0.50000000  0.50440950  1
  Li  Li7  1  0.16330725  0.50000000  0.60413600  1
  Ti  Ti8  1  0.82365025  0.00000000  0.26697500  1
  Ti  Ti9  1  0.90782900  0.25150900  0.77981150  1
  Ti  Ti10  1  0.90782900  0.74849100  0.77981150  1
  Ti  Ti11  1  0.32365025  0.50000000  0.26697500  1
  Ti  Ti12  1  0.40782900  0.75150900  0.77981150  1
  Ti  Ti13  1  0.40782900  0.24849100  0.77981150  1
  V  V14  1  0.66923775  0.50000000  0.79208200  1
  V  V15  1  0.58643950  0.76506450  0.28380300  1
  V  V16  1  0.58643950  0.23493550  0.28380300  1
  V  V17  1  0.16923775  0.00000000  0.79208200  1
  V  V18  1  0.08643950  0.26506450  0.28380300  1
  V  V19  1  0.08643950  0.73493550  0.28380300  1
  Te  Te20  1  0.82988500  0.50000000  0.48756900  1
  Te  Te21  1  0.65540500  0.00000000  0.00377750  1
  Te  Te22  1  0.32988500  0.00000000  0.48756900  1
  Te  Te23  1  0.15540500  0.50000000  0.00377750  1
  O  O24  1  0.98477750  0.50000000  0.67968600  1
  O  O25  1  0.84122300  0.50000000  0.89112700  1
  O  O26  1  0.99855300  0.00000000  0.68875400  1
  O  O27  1  0.99340575  0.00000000  0.19728550  1
  O  O28  1  0.85758025  0.00000000  0.89145650  1
  O  O29  1  0.66120550  0.50000000  0.39989000  1
  O  O30  1  0.68321950  0.00000000  0.39226600  1
  O  O31  1  0.52112675  0.00000000  0.14305200  1
  O  O32  1  0.91633575  0.25206425  0.39796450  1
  O  O33  1  0.91633575  0.74793575  0.39796450  1
  O  O34  1  0.75685150  0.25817050  0.68726850  1
  O  O35  1  0.75685150  0.74182950  0.68726850  1
  O  O36  1  0.75125925  0.77059775  0.16692000  1
  O  O37  1  0.75125925  0.22940225  0.16692000  1
  O  O38  1  0.57535950  0.74004450  0.90464000  1
  O  O39  1  0.57535950  0.25995550  0.90464000  1
  O  O40  1  0.48477750  0.00000000  0.67968600  1
  O  O41  1  0.34122300  0.00000000  0.89112700  1
  O  O42  1  0.49855300  0.50000000  0.68875400  1
  O  O43  1  0.49340575  0.50000000  0.19728550  1
  O  O44  1  0.35758025  0.50000000  0.89145650  1
  O  O45  1  0.16120550  0.00000000  0.39989000  1
  O  O46  1  0.18321950  0.50000000  0.39226600  1
  O  O47  1  0.02112675  0.50000000  0.14305200  1
  O  O48  1  0.41633575  0.75206425  0.39796450  1
  O  O49  1  0.41633575  0.24793575  0.39796450  1
  O  O50  1  0.25685150  0.75817050  0.68726850  1
  O  O51  1  0.25685150  0.24182950  0.68726850  1
  O  O52  1  0.25125925  0.27059775  0.16692000  1
  O  O53  1  0.25125925  0.72940225  0.16692000  1
  O  O54  1  0.07535950  0.24004450  0.90464000  1
  O  O55  1  0.07535950  0.75995550  0.90464000  1
