# generated using pymatgen
data_MnOF
_symmetry_space_group_name_H-M   'P 1'
_cell_length_a   5.10936796
_cell_length_b   4.74571400
_cell_length_c   5.84978169
_cell_angle_alpha   90.00000000
_cell_angle_beta   93.12557489
_cell_angle_gamma   90.00000000
_symmetry_Int_Tables_number   1
_chemical_formula_structural   MnOF
_chemical_formula_sum   'Mn4 O4 F4'
_cell_volume   141.63215966
_cell_formula_units_Z   4
loop_
 _symmetry_equiv_pos_site_id
 _symmetry_equiv_pos_as_xyz
  1  'x, y, z'
loop_
 _atom_site_type_symbol
 _atom_site_label
 _atom_site_symmetry_multiplicity
 _atom_site_fract_x
 _atom_site_fract_y
 _atom_site_fract_z
 _atom_site_occupancy
  Mn  Mn0  1  0.77272600  0.52279000  0.83969050  1
  Mn  Mn1  1  0.77272600  0.97721000  0.33969050  1
  Mn  Mn2  1  0.22727400  0.02279000  0.66030950  1
  Mn  Mn3  1  0.22727400  0.47721000  0.16030950  1
  O  O4  1  0.92495900  0.78792900  0.60277650  1
  O  O5  1  0.92495900  0.71207100  0.10277650  1
  O  O6  1  0.07504100  0.28792900  0.89722350  1
  O  O7  1  0.07504100  0.21207100  0.39722350  1
  F  F8  1  0.56593900  0.24676600  0.63155350  1
  F  F9  1  0.56593900  0.25323400  0.13155350  1
  F  F10  1  0.43406100  0.74676600  0.86844650  1
  F  F11  1  0.43406100  0.75323400  0.36844650  1
