# generated using pymatgen
data_Li3V2OF7
_symmetry_space_group_name_H-M   'P 1'
_cell_length_a   10.07403611
_cell_length_b   6.17845816
_cell_length_c   5.93323852
_cell_angle_alpha   90.00000000
_cell_angle_beta   123.64318225
_cell_angle_gamma   90.00000000
_symmetry_Int_Tables_number   1
_chemical_formula_structural   Li3V2OF7
_chemical_formula_sum   'Li6 V4 O2 F14'
_cell_volume   307.44094963
_cell_formula_units_Z   2
loop_
 _symmetry_equiv_pos_site_id
 _symmetry_equiv_pos_as_xyz
  1  'x, y, z'
loop_
 _atom_site_type_symbol
 _atom_site_label
 _atom_site_symmetry_multiplicity
 _atom_site_fract_x
 _atom_site_fract_y
 _atom_site_fract_z
 _atom_site_occupancy
  Li  Li0  1  0.37900425  0.50000000  0.62698750  1
  Li  Li1  1  0.00725550  0.50000000  0.50462250  1
  Li  Li2  1  0.61249225  0.50000000  0.36966000  1
  Li  Li3  1  0.87900425  0.00000000  0.62698750  1
  Li  Li4  1  0.50725550  0.00000000  0.50462250  1
  Li  Li5  1  0.11249225  0.00000000  0.36966000  1
  V  V6  1  0.25043725  0.25974875  0.98651150  1
  V  V7  1  0.25043725  0.74025125  0.98651150  1
  V  V8  1  0.75043725  0.75974875  0.98651150  1
  V  V9  1  0.75043725  0.24025125  0.98651150  1
  O  O10  1  0.25242100  0.50000000  0.78638150  1
  O  O11  1  0.75242100  0.00000000  0.78638150  1
  F  F12  1  0.25020075  0.50000000  0.22911400  1
  F  F13  1  0.74582925  0.50000000  0.21596000  1
  F  F14  1  0.74891750  0.50000000  0.76258850  1
  F  F15  1  0.01839225  0.24727875  0.75866850  1
  F  F16  1  0.01839225  0.75272125  0.75866850  1
  F  F17  1  0.98090150  0.25469350  0.25594100  1
  F  F18  1  0.98090150  0.74530650  0.25594100  1
  F  F19  1  0.75020075  0.00000000  0.22911400  1
  F  F20  1  0.24582925  0.00000000  0.21596000  1
  F  F21  1  0.24891750  0.00000000  0.76258850  1
  F  F22  1  0.51839225  0.74727875  0.75866850  1
  F  F23  1  0.51839225  0.25272125  0.75866850  1
  F  F24  1  0.48090150  0.75469350  0.25594100  1
  F  F25  1  0.48090150  0.24530650  0.25594100  1
