# generated using pymatgen
data_Li2VCrP2(O4F)2
_symmetry_space_group_name_H-M   'P 1'
_cell_length_a   5.22544752
_cell_length_b   5.37201066
_cell_length_c   7.34716090
_cell_angle_alpha   106.92573313
_cell_angle_beta   108.47581901
_cell_angle_gamma   98.11318684
_symmetry_Int_Tables_number   1
_chemical_formula_structural   Li2VCrP2(O4F)2
_chemical_formula_sum   'Li2 V1 Cr1 P2 O8 F2'
_cell_volume   180.84317571
_cell_formula_units_Z   1
loop_
 _symmetry_equiv_pos_site_id
 _symmetry_equiv_pos_as_xyz
  1  'x, y, z'
loop_
 _atom_site_type_symbol
 _atom_site_label
 _atom_site_symmetry_multiplicity
 _atom_site_fract_x
 _atom_site_fract_y
 _atom_site_fract_z
 _atom_site_occupancy
  Li  Li0  1  0.72847600  0.38319850  0.81078900  1
  Li  Li1  1  0.27152400  0.61680150  0.18921100  1
  V  V2  1  0.00000000  0.00000000  0.00000000  1
  Cr  Cr3  1  0.00000000  0.00000000  0.50000000  1
  P  P4  1  0.32086700  0.64002750  0.76032650  1
  P  P5  1  0.67913300  0.35997250  0.23967350  1
  O  O6  1  0.63101800  0.75242750  0.91342950  1
  O  O7  1  0.36898200  0.24757250  0.08657050  1
  O  O8  1  0.25059000  0.78642250  0.60795050  1
  O  O9  1  0.74941000  0.21357750  0.39204950  1
  O  O10  1  0.30755100  0.33955300  0.65636350  1
  O  O11  1  0.69244900  0.66044700  0.34363650  1
  O  O12  1  0.87142700  0.33476900  0.11154100  1
  O  O13  1  0.12857300  0.66523100  0.88845900  1
  F  F14  1  0.12774700  0.92900850  0.26767000  1
  F  F15  1  0.87225300  0.07099150  0.73233000  1
