# generated using pymatgen
data_Cr3Co5O16
_symmetry_space_group_name_H-M   'P 1'
_cell_length_a   9.90935000
_cell_length_b   5.76086200
_cell_length_c   8.61089600
_cell_angle_alpha   90.00000000
_cell_angle_beta   90.00110454
_cell_angle_gamma   90.00000000
_symmetry_Int_Tables_number   1
_chemical_formula_structural   Cr3Co5O16
_chemical_formula_sum   'Cr6 Co10 O32'
_cell_volume   491.56503498
_cell_formula_units_Z   2
loop_
 _symmetry_equiv_pos_site_id
 _symmetry_equiv_pos_as_xyz
  1  'x, y, z'
loop_
 _atom_site_type_symbol
 _atom_site_label
 _atom_site_symmetry_multiplicity
 _atom_site_fract_x
 _atom_site_fract_y
 _atom_site_fract_z
 _atom_site_occupancy
  Cr  Cr0  1  0.57963400  0.74808600  0.79767000  1
  Cr  Cr1  1  0.57963400  0.25191400  0.79767000  1
  Cr  Cr2  1  0.16150200  0.00000000  0.29922900  1
  Cr  Cr3  1  0.07963400  0.24808600  0.79767000  1
  Cr  Cr4  1  0.07963400  0.75191400  0.79767000  1
  Cr  Cr5  1  0.66150200  0.50000000  0.29922900  1
  Co  Co6  1  0.67073500  0.00000000  0.51292500  1
  Co  Co7  1  0.82693300  0.00000000  0.78666600  1
  Co  Co8  1  0.33523100  0.00000000  0.01836500  1
  Co  Co9  1  0.41436050  0.75420650  0.29195800  1
  Co  Co10  1  0.41436050  0.24579350  0.29195800  1
  Co  Co11  1  0.17073500  0.50000000  0.51292500  1
  Co  Co12  1  0.32693300  0.50000000  0.78666600  1
  Co  Co13  1  0.83523100  0.50000000  0.01836500  1
  Co  Co14  1  0.91436050  0.25420650  0.29195800  1
  Co  Co15  1  0.91436050  0.74579350  0.29195800  1
  O  O16  1  0.58519950  0.75255250  0.39471300  1
  O  O17  1  0.52853200  0.00000000  0.65628900  1
  O  O18  1  0.67234100  0.00000000  0.90548400  1
  O  O19  1  0.99120100  0.00000000  0.68260900  1
  O  O20  1  0.99134800  0.00000000  0.18377400  1
  O  O21  1  0.58519950  0.24744750  0.39471300  1
  O  O22  1  0.74112750  0.78549250  0.65536000  1
  O  O23  1  0.74112750  0.21450750  0.65536000  1
  O  O24  1  0.17510900  0.00000000  0.89125300  1
  O  O25  1  0.83171000  0.00000000  0.39675500  1
  O  O26  1  0.26315550  0.78488450  0.15853800  1
  O  O27  1  0.26315550  0.21511550  0.15853800  1
  O  O28  1  0.33954300  0.00000000  0.40203000  1
  O  O29  1  0.41590250  0.75616050  0.89771300  1
  O  O30  1  0.47888300  0.00000000  0.16123300  1
  O  O31  1  0.41590250  0.24383950  0.89771300  1
  O  O32  1  0.08519950  0.25255250  0.39471300  1
  O  O33  1  0.02853200  0.50000000  0.65628900  1
  O  O34  1  0.17234100  0.50000000  0.90548400  1
  O  O35  1  0.49120100  0.50000000  0.68260900  1
  O  O36  1  0.49134800  0.50000000  0.18377400  1
  O  O37  1  0.08519950  0.74744750  0.39471300  1
  O  O38  1  0.24112750  0.28549250  0.65536000  1
  O  O39  1  0.24112750  0.71450750  0.65536000  1
  O  O40  1  0.67510900  0.50000000  0.89125300  1
  O  O41  1  0.33171000  0.50000000  0.39675500  1
  O  O42  1  0.76315550  0.28488450  0.15853800  1
  O  O43  1  0.76315550  0.71511550  0.15853800  1
  O  O44  1  0.83954300  0.50000000  0.40203000  1
  O  O45  1  0.91590250  0.25616050  0.89771300  1
  O  O46  1  0.97888300  0.50000000  0.16123300  1
  O  O47  1  0.91590250  0.74383950  0.89771300  1
