# generated using pymatgen
data_FeP2WO8
_symmetry_space_group_name_H-M   'P 1'
_cell_length_a   5.01556500
_cell_length_b   6.03758320
_cell_length_c   10.19600946
_cell_angle_alpha   90.00000000
_cell_angle_beta   93.11973800
_cell_angle_gamma   90.00000000
_symmetry_Int_Tables_number   1
_chemical_formula_structural   FeP2WO8
_chemical_formula_sum   'Fe2 P4 W2 O16'
_cell_volume   308.29686655
_cell_formula_units_Z   2
loop_
 _symmetry_equiv_pos_site_id
 _symmetry_equiv_pos_as_xyz
  1  'x, y, z'
loop_
 _atom_site_type_symbol
 _atom_site_label
 _atom_site_symmetry_multiplicity
 _atom_site_fract_x
 _atom_site_fract_y
 _atom_site_fract_z
 _atom_site_occupancy
  Fe  Fe0  1  0.55545600  0.75000000  0.72383650  1
  Fe  Fe1  1  0.44454400  0.25000000  0.27616350  1
  P  P2  1  0.90353500  0.25000000  0.08941950  1
  P  P3  1  0.09646500  0.75000000  0.91058050  1
  P  P4  1  0.38629000  0.75000000  0.40393750  1
  P  P5  1  0.61371000  0.25000000  0.59606250  1
  W  W6  1  0.94104600  0.75000000  0.21944950  1
  W  W7  1  0.05895400  0.25000000  0.78055050  1
  O  O8  1  0.18588700  0.75000000  0.05645950  1
  O  O9  1  0.81411300  0.25000000  0.94354050  1
  O  O10  1  0.20465300  0.25000000  0.11098250  1
  O  O11  1  0.79534700  0.75000000  0.88901750  1
  O  O12  1  0.67942400  0.75000000  0.37087750  1
  O  O13  1  0.32057600  0.25000000  0.62912250  1
  O  O14  1  0.64474000  0.25000000  0.44990350  1
  O  O15  1  0.35526000  0.75000000  0.55009650  1
  O  O16  1  0.77084900  0.04639500  0.16162450  1
  O  O17  1  0.77084900  0.45360500  0.16162450  1
  O  O18  1  0.22915100  0.54639500  0.83837550  1
  O  O19  1  0.22915100  0.95360500  0.83837550  1
  O  O20  1  0.22620000  0.94603200  0.33074250  1
  O  O21  1  0.22620000  0.55396800  0.33074250  1
  O  O22  1  0.77380000  0.05396800  0.66925750  1
  O  O23  1  0.77380000  0.44603200  0.66925750  1
