# generated using pymatgen
data_Li4SbS4
_symmetry_space_group_name_H-M   'P 1'
_cell_length_a   9.04260600
_cell_length_b   10.39859600
_cell_length_c   8.00181700
_cell_angle_alpha   90.00000000
_cell_angle_beta   90.00000000
_cell_angle_gamma   90.00000000
_symmetry_Int_Tables_number   1
_chemical_formula_structural   Li4SbS4
_chemical_formula_sum   'Li16 Sb4 S16'
_cell_volume   752.41410590
_cell_formula_units_Z   4
loop_
 _symmetry_equiv_pos_site_id
 _symmetry_equiv_pos_as_xyz
  1  'x, y, z'
loop_
 _atom_site_type_symbol
 _atom_site_label
 _atom_site_symmetry_multiplicity
 _atom_site_fract_x
 _atom_site_fract_y
 _atom_site_fract_z
 _atom_site_occupancy
  Li  Li0  1  0.50000000  0.34256000  0.50000000  1
  Li  Li1  1  0.50000000  0.34256000  0.00000000  1
  Li  Li2  1  0.26640600  0.15120200  0.75000000  1
  Li  Li3  1  0.73359400  0.15120200  0.25000000  1
  Li  Li4  1  0.73359400  0.84879800  0.25000000  1
  Li  Li5  1  0.26640600  0.84879800  0.75000000  1
  Li  Li6  1  0.50000000  0.65744000  0.00000000  1
  Li  Li7  1  0.50000000  0.65744000  0.50000000  1
  Li  Li8  1  0.00000000  0.84256000  0.50000000  1
  Li  Li9  1  0.00000000  0.84256000  0.00000000  1
  Li  Li10  1  0.76640600  0.65120200  0.75000000  1
  Li  Li11  1  0.23359400  0.65120200  0.25000000  1
  Li  Li12  1  0.23359400  0.34879800  0.25000000  1
  Li  Li13  1  0.76640600  0.34879800  0.75000000  1
  Li  Li14  1  0.00000000  0.15744000  0.00000000  1
  Li  Li15  1  0.00000000  0.15744000  0.50000000  1
  Sb  Sb16  1  0.64640900  0.00000000  0.75000000  1
  Sb  Sb17  1  0.35359100  0.00000000  0.25000000  1
  Sb  Sb18  1  0.14640900  0.50000000  0.75000000  1
  Sb  Sb19  1  0.85359100  0.50000000  0.25000000  1
  S  S20  1  0.47095450  0.22128650  0.25000000  1
  S  S21  1  0.52904550  0.22128650  0.75000000  1
  S  S22  1  0.79640900  0.00000000  0.00915000  1
  S  S23  1  0.20359100  0.00000000  0.50915000  1
  S  S24  1  0.79640900  0.00000000  0.49085000  1
  S  S25  1  0.20359100  0.00000000  0.99085000  1
  S  S26  1  0.52904550  0.77871350  0.75000000  1
  S  S27  1  0.47095450  0.77871350  0.25000000  1
  S  S28  1  0.97095450  0.72128650  0.25000000  1
  S  S29  1  0.02904550  0.72128650  0.75000000  1
  S  S30  1  0.29640900  0.50000000  0.00915000  1
  S  S31  1  0.70359100  0.50000000  0.50915000  1
  S  S32  1  0.29640900  0.50000000  0.49085000  1
  S  S33  1  0.70359100  0.50000000  0.99085000  1
  S  S34  1  0.02904550  0.27871350  0.75000000  1
  S  S35  1  0.97095450  0.27871350  0.25000000  1
