# generated using pymatgen
data_Li2MnF4
_symmetry_space_group_name_H-M   'P 1'
_cell_length_a   12.80611800
_cell_length_b   3.85372600
_cell_length_c   8.28658643
_cell_angle_alpha   90.00000000
_cell_angle_beta   113.32519943
_cell_angle_gamma   90.00000000
_symmetry_Int_Tables_number   1
_chemical_formula_structural   Li2MnF4
_chemical_formula_sum   'Li8 Mn4 F16'
_cell_volume   375.53074012
_cell_formula_units_Z   4
loop_
 _symmetry_equiv_pos_site_id
 _symmetry_equiv_pos_as_xyz
  1  'x, y, z'
loop_
 _atom_site_type_symbol
 _atom_site_label
 _atom_site_symmetry_multiplicity
 _atom_site_fract_x
 _atom_site_fract_y
 _atom_site_fract_z
 _atom_site_occupancy
  Li  Li0  1  0.43541500  0.50000000  0.59080100  1
  Li  Li1  1  0.39148600  0.00000000  0.22648500  1
  Li  Li2  1  0.10851400  0.50000000  0.77351500  1
  Li  Li3  1  0.06458500  0.00000000  0.40919900  1
  Li  Li4  1  0.93541500  0.00000000  0.59080100  1
  Li  Li5  1  0.89148600  0.50000000  0.22648500  1
  Li  Li6  1  0.60851400  0.00000000  0.77351500  1
  Li  Li7  1  0.56458500  0.50000000  0.40919900  1
  Mn  Mn8  1  0.19351200  0.50000000  0.26207700  1
  Mn  Mn9  1  0.30648800  0.00000000  0.73792300  1
  Mn  Mn10  1  0.69351200  0.00000000  0.26207700  1
  Mn  Mn11  1  0.80648800  0.50000000  0.73792300  1
  F  F12  1  0.20712600  0.00000000  0.36205400  1
  F  F13  1  0.44894000  0.00000000  0.66049400  1
  F  F14  1  0.14751100  0.50000000  0.00669000  1
  F  F15  1  0.38157900  0.50000000  0.33460000  1
  F  F16  1  0.11842100  0.00000000  0.66540000  1
  F  F17  1  0.35248900  0.00000000  0.99331000  1
  F  F18  1  0.05106000  0.50000000  0.33950600  1
  F  F19  1  0.29287400  0.50000000  0.63794600  1
  F  F20  1  0.70712600  0.50000000  0.36205400  1
  F  F21  1  0.94894000  0.50000000  0.66049400  1
  F  F22  1  0.64751100  0.00000000  0.00669000  1
  F  F23  1  0.88157900  0.00000000  0.33460000  1
  F  F24  1  0.61842100  0.50000000  0.66540000  1
  F  F25  1  0.85248900  0.50000000  0.99331000  1
  F  F26  1  0.55106000  0.00000000  0.33950600  1
  F  F27  1  0.79287400  0.00000000  0.63794600  1
