# generated using pymatgen
data_MnPH2CO6
_symmetry_space_group_name_H-M   'P 1'
_cell_length_a   6.12234872
_cell_length_b   15.29656800
_cell_length_c   5.53516724
_cell_angle_alpha   90.00000000
_cell_angle_beta   111.42055524
_cell_angle_gamma   90.00000000
_symmetry_Int_Tables_number   1
_chemical_formula_structural   MnPH2CO6
_chemical_formula_sum   'Mn4 P4 H8 C4 O24'
_cell_volume   482.56679719
_cell_formula_units_Z   4
loop_
 _symmetry_equiv_pos_site_id
 _symmetry_equiv_pos_as_xyz
  1  'x, y, z'
loop_
 _atom_site_type_symbol
 _atom_site_label
 _atom_site_symmetry_multiplicity
 _atom_site_fract_x
 _atom_site_fract_y
 _atom_site_fract_z
 _atom_site_occupancy
  Mn  Mn0  1  0.50000000  0.30792650  0.50000000  1
  Mn  Mn1  1  0.00000000  0.19207350  0.50000000  1
  Mn  Mn2  1  0.00000000  0.80792650  0.50000000  1
  Mn  Mn3  1  0.50000000  0.69207350  0.50000000  1
  P  P4  1  0.50000000  0.17057525  0.00000000  1
  P  P5  1  0.00000000  0.32942475  0.00000000  1
  P  P6  1  0.00000000  0.67057525  0.00000000  1
  P  P7  1  0.50000000  0.82942475  0.00000000  1
  H  H8  1  0.72558125  0.09480825  0.82528550  1
  H  H9  1  0.27441875  0.09480825  0.17471450  1
  H  H10  1  0.22558125  0.40519175  0.82528550  1
  H  H11  1  0.77441875  0.40519175  0.17471450  1
  H  H12  1  0.22558125  0.59480825  0.82528550  1
  H  H13  1  0.77441875  0.59480825  0.17471450  1
  H  H14  1  0.72558125  0.90519175  0.82528550  1
  H  H15  1  0.27441875  0.90519175  0.17471450  1
  C  C16  1  0.90306025  0.00000000  0.55908350  1
  C  C17  1  0.09693975  0.00000000  0.44091650  1
  C  C18  1  0.40306025  0.50000000  0.55908350  1
  C  C19  1  0.59693975  0.50000000  0.44091650  1
  O  O20  1  0.83124250  0.07395650  0.60184000  1
  O  O21  1  0.33124250  0.42604350  0.60184000  1
  O  O22  1  0.16875750  0.07395650  0.39816000  1
  O  O23  1  0.66875750  0.42604350  0.39816000  1
  O  O24  1  0.60966275  0.22317075  0.25150450  1
  O  O25  1  0.39033725  0.22317075  0.74849550  1
  O  O26  1  0.10966275  0.27682925  0.25150450  1
  O  O27  1  0.89033725  0.27682925  0.74849550  1
  O  O28  1  0.70582050  0.11006250  0.99332500  1
  O  O29  1  0.29417950  0.11006250  0.00667500  1
  O  O30  1  0.20582050  0.38993750  0.99332500  1
  O  O31  1  0.79417950  0.38993750  0.00667500  1
  O  O32  1  0.33124250  0.57395650  0.60184000  1
  O  O33  1  0.83124250  0.92604350  0.60184000  1
  O  O34  1  0.66875750  0.57395650  0.39816000  1
  O  O35  1  0.16875750  0.92604350  0.39816000  1
  O  O36  1  0.10966275  0.72317075  0.25150450  1
  O  O37  1  0.89033725  0.72317075  0.74849550  1
  O  O38  1  0.60966275  0.77682925  0.25150450  1
  O  O39  1  0.39033725  0.77682925  0.74849550  1
  O  O40  1  0.20582050  0.61006250  0.99332500  1
  O  O41  1  0.79417950  0.61006250  0.00667500  1
  O  O42  1  0.70582050  0.88993750  0.99332500  1
  O  O43  1  0.29417950  0.88993750  0.00667500  1
