# generated using pymatgen
data_Bi4(BO4)3
_symmetry_space_group_name_H-M   'P 1'
_cell_length_a   9.79799600
_cell_length_b   9.79799600
_cell_length_c   9.79799600
_cell_angle_alpha   90.00000000
_cell_angle_beta   90.00000000
_cell_angle_gamma   90.00000000
_symmetry_Int_Tables_number   1
_chemical_formula_structural   Bi4(BO4)3
_chemical_formula_sum   'Bi16 B12 O48'
_cell_volume   940.61472558
_cell_formula_units_Z   4
loop_
 _symmetry_equiv_pos_site_id
 _symmetry_equiv_pos_as_xyz
  1  'x, y, z'
loop_
 _atom_site_type_symbol
 _atom_site_label
 _atom_site_symmetry_multiplicity
 _atom_site_fract_x
 _atom_site_fract_y
 _atom_site_fract_z
 _atom_site_occupancy
  Bi  Bi0  1  0.82430750  0.17569250  0.67569250  1
  Bi  Bi1  1  0.92569250  0.42569250  0.07430750  1
  Bi  Bi2  1  0.07430750  0.07430750  0.07430750  1
  Bi  Bi3  1  0.07430750  0.92569250  0.42569250  1
  Bi  Bi4  1  0.17569250  0.67569250  0.82430750  1
  Bi  Bi5  1  0.32430750  0.32430750  0.32430750  1
  Bi  Bi6  1  0.42569250  0.07430750  0.92569250  1
  Bi  Bi7  1  0.67569250  0.82430750  0.17569250  1
  Bi  Bi8  1  0.32430750  0.67569250  0.17569250  1
  Bi  Bi9  1  0.42569250  0.92569250  0.57430750  1
  Bi  Bi10  1  0.57430750  0.57430750  0.57430750  1
  Bi  Bi11  1  0.57430750  0.42569250  0.92569250  1
  Bi  Bi12  1  0.67569250  0.17569250  0.32430750  1
  Bi  Bi13  1  0.82430750  0.82430750  0.82430750  1
  Bi  Bi14  1  0.92569250  0.57430750  0.42569250  1
  Bi  Bi15  1  0.17569250  0.32430750  0.67569250  1
  B  B16  1  0.00000000  0.25000000  0.37500000  1
  B  B17  1  0.00000000  0.75000000  0.12500000  1
  B  B18  1  0.12500000  0.00000000  0.75000000  1
  B  B19  1  0.25000000  0.37500000  0.00000000  1
  B  B20  1  0.37500000  0.00000000  0.25000000  1
  B  B21  1  0.75000000  0.12500000  0.00000000  1
  B  B22  1  0.50000000  0.75000000  0.87500000  1
  B  B23  1  0.50000000  0.25000000  0.62500000  1
  B  B24  1  0.62500000  0.50000000  0.25000000  1
  B  B25  1  0.75000000  0.87500000  0.50000000  1
  B  B26  1  0.87500000  0.50000000  0.75000000  1
  B  B27  1  0.25000000  0.62500000  0.50000000  1
  O  O28  1  0.70633300  0.55157000  0.36646700  1
  O  O29  1  0.88353300  0.19843000  0.45633300  1
  O  O30  1  0.94843000  0.63353300  0.20633300  1
  O  O31  1  0.94843000  0.36646700  0.29366700  1
  O  O32  1  0.04366700  0.11646700  0.69843000  1
  O  O33  1  0.05157000  0.13353300  0.29366700  1
  O  O34  1  0.11646700  0.69843000  0.04366700  1
  O  O35  1  0.11646700  0.30157000  0.45633300  1
  O  O36  1  0.13353300  0.29366700  0.05157000  1
  O  O37  1  0.19843000  0.45633300  0.88353300  1
  O  O38  1  0.20633300  0.94843000  0.63353300  1
  O  O39  1  0.29366700  0.05157000  0.13353300  1
  O  O40  1  0.29366700  0.94843000  0.36646700  1
  O  O41  1  0.30157000  0.45633300  0.11646700  1
  O  O42  1  0.30157000  0.54366700  0.38353300  1
  O  O43  1  0.36646700  0.70633300  0.55157000  1
  O  O44  1  0.36646700  0.29366700  0.94843000  1
  O  O45  1  0.38353300  0.30157000  0.54366700  1
  O  O46  1  0.45633300  0.11646700  0.30157000  1
  O  O47  1  0.45633300  0.88353300  0.19843000  1
  O  O48  1  0.54366700  0.38353300  0.30157000  1
  O  O49  1  0.55157000  0.36646700  0.70633300  1
  O  O50  1  0.63353300  0.20633300  0.94843000  1
  O  O51  1  0.69843000  0.04366700  0.11646700  1
  O  O52  1  0.20633300  0.05157000  0.86646700  1
  O  O53  1  0.38353300  0.69843000  0.95633300  1
  O  O54  1  0.44843000  0.13353300  0.70633300  1
  O  O55  1  0.44843000  0.86646700  0.79366700  1
  O  O56  1  0.54366700  0.61646700  0.19843000  1
  O  O57  1  0.55157000  0.63353300  0.79366700  1
  O  O58  1  0.61646700  0.19843000  0.54366700  1
  O  O59  1  0.61646700  0.80157000  0.95633300  1
  O  O60  1  0.63353300  0.79366700  0.55157000  1
  O  O61  1  0.69843000  0.95633300  0.38353300  1
  O  O62  1  0.70633300  0.44843000  0.13353300  1
  O  O63  1  0.79366700  0.55157000  0.63353300  1
  O  O64  1  0.79366700  0.44843000  0.86646700  1
  O  O65  1  0.80157000  0.95633300  0.61646700  1
  O  O66  1  0.80157000  0.04366700  0.88353300  1
  O  O67  1  0.86646700  0.20633300  0.05157000  1
  O  O68  1  0.86646700  0.79366700  0.44843000  1
  O  O69  1  0.88353300  0.80157000  0.04366700  1
  O  O70  1  0.95633300  0.61646700  0.80157000  1
  O  O71  1  0.95633300  0.38353300  0.69843000  1
  O  O72  1  0.04366700  0.88353300  0.80157000  1
  O  O73  1  0.05157000  0.86646700  0.20633300  1
  O  O74  1  0.13353300  0.70633300  0.44843000  1
  O  O75  1  0.19843000  0.54366700  0.61646700  1
