# generated using pymatgen
data_Ni17(AsO4)12
_symmetry_space_group_name_H-M   'P 1'
_cell_length_a   9.74442600
_cell_length_b   18.53836200
_cell_length_c   9.74996474
_cell_angle_alpha   90.00000000
_cell_angle_beta   90.46618880
_cell_angle_gamma   90.00000000
_symmetry_Int_Tables_number   1
_chemical_formula_structural   Ni17(AsO4)12
_chemical_formula_sum   'Ni34 As24 O96'
_cell_volume   1761.23087138
_cell_formula_units_Z   2
loop_
 _symmetry_equiv_pos_site_id
 _symmetry_equiv_pos_as_xyz
  1  'x, y, z'
loop_
 _atom_site_type_symbol
 _atom_site_label
 _atom_site_symmetry_multiplicity
 _atom_site_fract_x
 _atom_site_fract_y
 _atom_site_fract_z
 _atom_site_occupancy
  Ni  Ni0  1  0.74903350  0.02293450  0.75093900  1
  Ni  Ni1  1  0.49759800  0.12575700  0.75287500  1
  Ni  Ni2  1  0.25264900  0.37509800  0.99737100  1
  Ni  Ni3  1  0.50000000  0.27339000  0.50000000  1
  Ni  Ni4  1  0.00000000  0.27282900  0.00000000  1
  Ni  Ni5  1  0.50000000  0.22777200  0.00000000  1
  Ni  Ni6  1  0.74696550  0.47587850  0.75132900  1
  Ni  Ni7  1  0.25303450  0.47587850  0.24867100  1
  Ni  Ni8  1  0.24941650  0.37456250  0.50175000  1
  Ni  Ni9  1  0.74735100  0.37509800  0.00262900  1
  Ni  Ni10  1  0.50240200  0.12575700  0.24712500  1
  Ni  Ni11  1  0.50000000  0.01183900  0.50000000  1
  Ni  Ni12  1  0.25096650  0.02293450  0.24906100  1
  Ni  Ni13  1  0.99916900  0.12483500  0.24610700  1
  Ni  Ni14  1  0.75058350  0.37456250  0.49825000  1
  Ni  Ni15  1  0.00000000  0.22691700  0.50000000  1
  Ni  Ni16  1  0.00083100  0.12483500  0.75389300  1
  Ni  Ni17  1  0.24903350  0.52293450  0.75093900  1
  Ni  Ni18  1  0.99759800  0.62575700  0.75287500  1
  Ni  Ni19  1  0.75264900  0.87509800  0.99737100  1
  Ni  Ni20  1  0.00000000  0.77339000  0.50000000  1
  Ni  Ni21  1  0.50000000  0.77282900  0.00000000  1
  Ni  Ni22  1  0.00000000  0.72777200  0.00000000  1
  Ni  Ni23  1  0.24696550  0.97587850  0.75132900  1
  Ni  Ni24  1  0.75303450  0.97587850  0.24867100  1
  Ni  Ni25  1  0.74941650  0.87456250  0.50175000  1
  Ni  Ni26  1  0.24735100  0.87509800  0.00262900  1
  Ni  Ni27  1  0.00240200  0.62575700  0.24712500  1
  Ni  Ni28  1  0.00000000  0.51183900  0.50000000  1
  Ni  Ni29  1  0.75096650  0.52293450  0.24906100  1
  Ni  Ni30  1  0.49916900  0.62483500  0.24610700  1
  Ni  Ni31  1  0.25058350  0.87456250  0.49825000  1
  Ni  Ni32  1  0.50000000  0.72691700  0.50000000  1
  Ni  Ni33  1  0.50083100  0.62483500  0.75389300  1
  As  As34  1  0.45102450  0.37462050  0.79720200  1
  As  As35  1  0.54897550  0.37462050  0.20279800  1
  As  As36  1  0.79656550  0.12533950  0.04768200  1
  As  As37  1  0.00000000  0.49859400  0.00000000  1
  As  As38  1  0.74963150  0.25038150  0.75111200  1
  As  As39  1  0.25036850  0.25038150  0.24888800  1
  As  As40  1  0.70353750  0.12684150  0.45119500  1
  As  As41  1  0.20343450  0.12533950  0.95231800  1
  As  As42  1  0.95546550  0.37378150  0.29936100  1
  As  As43  1  0.04453450  0.37378150  0.70063900  1
  As  As44  1  0.29646250  0.12684150  0.54880500  1
  As  As45  1  0.00000000  0.00145200  0.50000000  1
  As  As46  1  0.95102450  0.87462050  0.79720200  1
  As  As47  1  0.04897550  0.87462050  0.20279800  1
  As  As48  1  0.29656550  0.62533950  0.04768200  1
  As  As49  1  0.50000000  0.99859400  0.00000000  1
  As  As50  1  0.24963150  0.75038150  0.75111200  1
  As  As51  1  0.75036850  0.75038150  0.24888800  1
  As  As52  1  0.20353750  0.62684150  0.45119500  1
  As  As53  1  0.70343450  0.62533950  0.95231800  1
  As  As54  1  0.45546550  0.87378150  0.29936100  1
  As  As55  1  0.54453450  0.87378150  0.70063900  1
  As  As56  1  0.79646250  0.62684150  0.54880500  1
  As  As57  1  0.50000000  0.50145200  0.50000000  1
  O  O58  1  0.61046500  0.30783800  0.09354700  1
  O  O59  1  0.33947300  0.44124100  0.85511300  1
  O  O60  1  0.38953500  0.30783800  0.90645300  1
  O  O61  1  0.83466100  0.10269100  0.88138000  1
  O  O62  1  0.61561000  0.20620300  0.82776400  1
  O  O63  1  0.58606850  0.35369650  0.37038500  1
  O  O64  1  0.08557600  0.35557800  0.86759500  1
  O  O65  1  0.38205900  0.39673700  0.16407500  1
  O  O66  1  0.57505050  0.04278150  0.86437800  1
  O  O67  1  0.85606900  0.05883800  0.15963500  1
  O  O68  1  0.67364600  0.29345300  0.61415200  1
  O  O69  1  0.13739950  0.45501250  0.07633100  1
  O  O70  1  0.17127700  0.29568900  0.11546800  1
  O  O71  1  0.62947550  0.14681850  0.08504400  1
  O  O72  1  0.37052450  0.14681850  0.91495600  1
  O  O73  1  0.32635400  0.29345300  0.38584800  1
  O  O74  1  0.36414650  0.45695150  0.42456900  1
  O  O75  1  0.82872300  0.29568900  0.88453200  1
  O  O76  1  0.86260050  0.45501250  0.92366900  1
  O  O77  1  0.14393100  0.05883800  0.84036500  1
  O  O78  1  0.63625500  0.05290400  0.35450200  1
  O  O79  1  0.42494950  0.04278150  0.13562200  1
  O  O80  1  0.92230050  0.04488250  0.63641600  1
  O  O81  1  0.41393150  0.35369650  0.62961500  1
  O  O82  1  0.61794100  0.39673700  0.83592500  1
  O  O83  1  0.12187350  0.39775450  0.33818200  1
  O  O84  1  0.91442400  0.35557800  0.13240500  1
  O  O85  1  0.38439000  0.20620300  0.17223600  1
  O  O86  1  0.59588150  0.19277650  0.38937000  1
  O  O87  1  0.09394550  0.19251950  0.89050700  1
  O  O88  1  0.64995450  0.09574250  0.61134800  1
  O  O89  1  0.16533900  0.10269100  0.11862000  1
  O  O90  1  0.13562150  0.44793250  0.62821800  1
  O  O91  1  0.10946050  0.30712250  0.59601300  1
  O  O92  1  0.66052700  0.44124100  0.14488700  1
  O  O93  1  0.86437850  0.44793250  0.37178200  1
  O  O94  1  0.89053950  0.30712250  0.40398700  1
  O  O95  1  0.35004550  0.09574250  0.38865200  1
  O  O96  1  0.90605450  0.19251950  0.10949300  1
  O  O97  1  0.40411850  0.19277650  0.61063000  1
  O  O98  1  0.11863700  0.20356800  0.32726500  1
  O  O99  1  0.87812650  0.39775450  0.66181800  1
  O  O100  1  0.07769950  0.04488250  0.36358400  1
  O  O101  1  0.36374500  0.05290400  0.64549800  1
  O  O102  1  0.63585350  0.45695150  0.57543100  1
  O  O103  1  0.12957750  0.14484450  0.58500900  1
  O  O104  1  0.87042250  0.14484450  0.41499100  1
  O  O105  1  0.88136300  0.20356800  0.67273500  1
  O  O106  1  0.11046500  0.80783800  0.09354700  1
  O  O107  1  0.83947300  0.94124100  0.85511300  1
  O  O108  1  0.88953500  0.80783800  0.90645300  1
  O  O109  1  0.33466100  0.60269100  0.88138000  1
  O  O110  1  0.11561000  0.70620300  0.82776400  1
  O  O111  1  0.08606850  0.85369650  0.37038500  1
  O  O112  1  0.58557600  0.85557800  0.86759500  1
  O  O113  1  0.88205900  0.89673700  0.16407500  1
  O  O114  1  0.07505050  0.54278150  0.86437800  1
  O  O115  1  0.35606900  0.55883800  0.15963500  1
  O  O116  1  0.17364600  0.79345300  0.61415200  1
  O  O117  1  0.63739950  0.95501250  0.07633100  1
  O  O118  1  0.67127700  0.79568900  0.11546800  1
  O  O119  1  0.12947550  0.64681850  0.08504400  1
  O  O120  1  0.87052450  0.64681850  0.91495600  1
  O  O121  1  0.82635400  0.79345300  0.38584800  1
  O  O122  1  0.86414650  0.95695150  0.42456900  1
  O  O123  1  0.32872300  0.79568900  0.88453200  1
  O  O124  1  0.36260050  0.95501250  0.92366900  1
  O  O125  1  0.64393100  0.55883800  0.84036500  1
  O  O126  1  0.13625500  0.55290400  0.35450200  1
  O  O127  1  0.92494950  0.54278150  0.13562200  1
  O  O128  1  0.42230050  0.54488250  0.63641600  1
  O  O129  1  0.91393150  0.85369650  0.62961500  1
  O  O130  1  0.11794100  0.89673700  0.83592500  1
  O  O131  1  0.62187350  0.89775450  0.33818200  1
  O  O132  1  0.41442400  0.85557800  0.13240500  1
  O  O133  1  0.88439000  0.70620300  0.17223600  1
  O  O134  1  0.09588150  0.69277650  0.38937000  1
  O  O135  1  0.59394550  0.69251950  0.89050700  1
  O  O136  1  0.14995450  0.59574250  0.61134800  1
  O  O137  1  0.66533900  0.60269100  0.11862000  1
  O  O138  1  0.63562150  0.94793250  0.62821800  1
  O  O139  1  0.60946050  0.80712250  0.59601300  1
  O  O140  1  0.16052700  0.94124100  0.14488700  1
  O  O141  1  0.36437850  0.94793250  0.37178200  1
  O  O142  1  0.39053950  0.80712250  0.40398700  1
  O  O143  1  0.85004550  0.59574250  0.38865200  1
  O  O144  1  0.40605450  0.69251950  0.10949300  1
  O  O145  1  0.90411850  0.69277650  0.61063000  1
  O  O146  1  0.61863700  0.70356800  0.32726500  1
  O  O147  1  0.37812650  0.89775450  0.66181800  1
  O  O148  1  0.57769950  0.54488250  0.36358400  1
  O  O149  1  0.86374500  0.55290400  0.64549800  1
  O  O150  1  0.13585350  0.95695150  0.57543100  1
  O  O151  1  0.62957750  0.64484450  0.58500900  1
  O  O152  1  0.37042250  0.64484450  0.41499100  1
  O  O153  1  0.38136300  0.70356800  0.67273500  1
