# generated using pymatgen
data_LiMn2(PO4)2
_symmetry_space_group_name_H-M   'P 1'
_cell_length_a   4.59887311
_cell_length_b   5.25219047
_cell_length_c   7.49075781
_cell_angle_alpha   86.92991009
_cell_angle_beta   77.10766277
_cell_angle_gamma   76.58861361
_symmetry_Int_Tables_number   1
_chemical_formula_structural   LiMn2(PO4)2
_chemical_formula_sum   'Li1 Mn2 P2 O8'
_cell_volume   171.56180757
_cell_formula_units_Z   1
loop_
 _symmetry_equiv_pos_site_id
 _symmetry_equiv_pos_as_xyz
  1  'x, y, z'
loop_
 _atom_site_type_symbol
 _atom_site_label
 _atom_site_symmetry_multiplicity
 _atom_site_fract_x
 _atom_site_fract_y
 _atom_site_fract_z
 _atom_site_occupancy
  Li  Li0  1  0.31881250  0.68540450  0.98191550  1
  Mn  Mn1  1  0.02914300  0.73910300  0.63071450  1
  Mn  Mn2  1  0.97692100  0.22701400  0.40102850  1
  P  P3  1  0.35435000  0.17900000  0.73050500  1
  P  P4  1  0.64265100  0.82827900  0.26549600  1
  O  O5  1  0.17873000  0.34375600  0.58108050  1
  O  O6  1  0.30299000  0.90302900  0.38475450  1
  O  O7  1  0.23044150  0.93253350  0.78901500  1
  O  O8  1  0.31304450  0.37177850  0.88014600  1
  O  O9  1  0.64998900  0.72774900  0.07994650  1
  O  O10  1  0.78340100  0.07620400  0.24341800  1
  O  O11  1  0.69562850  0.08485750  0.62625850  1
  O  O12  1  0.81864000  0.61497600  0.38469300  1
