# generated using pymatgen
data_Mn2InO5
_symmetry_space_group_name_H-M   'P 1'
_cell_length_a   3.91002000
_cell_length_b   10.02160600
_cell_length_c   10.27286900
_cell_angle_alpha   90.00000000
_cell_angle_beta   90.00000000
_cell_angle_gamma   90.00000000
_symmetry_Int_Tables_number   1
_chemical_formula_structural   Mn2InO5
_chemical_formula_sum   'Mn8 In4 O20'
_cell_volume   402.53908334
_cell_formula_units_Z   4
loop_
 _symmetry_equiv_pos_site_id
 _symmetry_equiv_pos_as_xyz
  1  'x, y, z'
loop_
 _atom_site_type_symbol
 _atom_site_label
 _atom_site_symmetry_multiplicity
 _atom_site_fract_x
 _atom_site_fract_y
 _atom_site_fract_z
 _atom_site_occupancy
  Mn  Mn0  1  0.00000000  0.13791900  0.05757900  1
  Mn  Mn1  1  0.00000000  0.13791900  0.44242100  1
  Mn  Mn2  1  0.50000000  0.36208100  0.55757900  1
  Mn  Mn3  1  0.50000000  0.36208100  0.94242100  1
  Mn  Mn4  1  0.50000000  0.63791900  0.05757900  1
  Mn  Mn5  1  0.50000000  0.63791900  0.44242100  1
  Mn  Mn6  1  0.00000000  0.86208100  0.55757900  1
  Mn  Mn7  1  0.00000000  0.86208100  0.94242100  1
  In  In8  1  0.00000000  0.19574700  0.75000000  1
  In  In9  1  0.50000000  0.30425300  0.25000000  1
  In  In10  1  0.50000000  0.69574700  0.75000000  1
  In  In11  1  0.00000000  0.80425300  0.25000000  1
  O  O12  1  0.00000000  0.04711000  0.60808100  1
  O  O13  1  0.00000000  0.04711000  0.89191900  1
  O  O14  1  0.00000000  0.31055000  0.94644600  1
  O  O15  1  0.00000000  0.31055000  0.55355400  1
  O  O16  1  0.00000000  0.21117600  0.25000000  1
  O  O17  1  0.50000000  0.28882400  0.75000000  1
  O  O18  1  0.50000000  0.45289000  0.10808100  1
  O  O19  1  0.50000000  0.18945000  0.05355400  1
  O  O20  1  0.50000000  0.45289000  0.39191900  1
  O  O21  1  0.50000000  0.18945000  0.44644600  1
  O  O22  1  0.50000000  0.54711000  0.60808100  1
  O  O23  1  0.50000000  0.54711000  0.89191900  1
  O  O24  1  0.50000000  0.81055000  0.94644600  1
  O  O25  1  0.50000000  0.81055000  0.55355400  1
  O  O26  1  0.50000000  0.71117600  0.25000000  1
  O  O27  1  0.00000000  0.78882400  0.75000000  1
  O  O28  1  0.00000000  0.95289000  0.10808100  1
  O  O29  1  0.00000000  0.68945000  0.05355400  1
  O  O30  1  0.00000000  0.95289000  0.39191900  1
  O  O31  1  0.00000000  0.68945000  0.44644600  1
