# generated using pymatgen
data_NaNiBO3
_symmetry_space_group_name_H-M   'P 1'
_cell_length_a   5.02700561
_cell_length_b   8.81908074
_cell_length_c   5.60011482
_cell_angle_alpha   90.00000000
_cell_angle_beta   101.13980032
_cell_angle_gamma   90.00000000
_symmetry_Int_Tables_number   1
_chemical_formula_structural   NaNiBO3
_chemical_formula_sum   'Na4 Ni4 B4 O12'
_cell_volume   243.59528398
_cell_formula_units_Z   4
loop_
 _symmetry_equiv_pos_site_id
 _symmetry_equiv_pos_as_xyz
  1  'x, y, z'
loop_
 _atom_site_type_symbol
 _atom_site_label
 _atom_site_symmetry_multiplicity
 _atom_site_fract_x
 _atom_site_fract_y
 _atom_site_fract_z
 _atom_site_occupancy
  Na  Na0  1  0.50000000  0.83574900  0.75000000  1
  Na  Na1  1  0.00000000  0.66425100  0.25000000  1
  Na  Na2  1  0.00000000  0.33574900  0.75000000  1
  Na  Na3  1  0.50000000  0.16425100  0.25000000  1
  Ni  Ni4  1  0.50000000  0.50000000  0.00000000  1
  Ni  Ni5  1  0.50000000  0.50000000  0.50000000  1
  Ni  Ni6  1  0.00000000  0.00000000  0.00000000  1
  Ni  Ni7  1  0.00000000  0.00000000  0.50000000  1
  B  B8  1  0.00000000  0.67003350  0.75000000  1
  B  B9  1  0.50000000  0.82996650  0.25000000  1
  B  B10  1  0.50000000  0.17003350  0.75000000  1
  B  B11  1  0.00000000  0.32996650  0.25000000  1
  O  O12  1  0.00000000  0.82741050  0.75000000  1
  O  O13  1  0.50000000  0.67258950  0.25000000  1
  O  O14  1  0.77524700  0.59361300  0.80032600  1
  O  O15  1  0.22475300  0.59361300  0.69967400  1
  O  O16  1  0.27524700  0.90638700  0.30032600  1
  O  O17  1  0.72475300  0.90638700  0.19967400  1
  O  O18  1  0.50000000  0.32741050  0.75000000  1
  O  O19  1  0.00000000  0.17258950  0.25000000  1
  O  O20  1  0.27524700  0.09361300  0.80032600  1
  O  O21  1  0.72475300  0.09361300  0.69967400  1
  O  O22  1  0.77524700  0.40638700  0.30032600  1
  O  O23  1  0.22475300  0.40638700  0.19967400  1
