# generated using pymatgen
data_Ti3VCu2(PO4)6
_symmetry_space_group_name_H-M   'P 1'
_cell_length_a   8.60351147
_cell_length_b   8.60351147
_cell_length_c   21.08934769
_cell_angle_alpha   90.00000000
_cell_angle_beta   90.00000000
_cell_angle_gamma   120.00000000
_symmetry_Int_Tables_number   1
_chemical_formula_structural   Ti3VCu2(PO4)6
_chemical_formula_sum   'Ti9 V3 Cu6 P18 O72'
_cell_volume   1351.90216098
_cell_formula_units_Z   3
loop_
 _symmetry_equiv_pos_site_id
 _symmetry_equiv_pos_as_xyz
  1  'x, y, z'
loop_
 _atom_site_type_symbol
 _atom_site_label
 _atom_site_symmetry_multiplicity
 _atom_site_fract_x
 _atom_site_fract_y
 _atom_site_fract_z
 _atom_site_occupancy
  Ti  Ti0  1  0.33333333  0.66666667  0.02472767  1
  Ti  Ti1  1  0.00000000  0.00000000  0.14189600  1
  Ti  Ti2  1  0.33333333  0.66666667  0.30858267  1
  Ti  Ti3  1  0.00000000  0.00000000  0.35806100  1
  Ti  Ti4  1  0.66666667  0.33333333  0.47522933  1
  Ti  Ti5  1  0.00000000  0.00000000  0.64191600  1
  Ti  Ti6  1  0.66666667  0.33333333  0.69139433  1
  Ti  Ti7  1  0.33333333  0.66666667  0.80856267  1
  Ti  Ti8  1  0.66666667  0.33333333  0.97524933  1
  V  V9  1  0.66666667  0.33333333  0.19093933  1
  V  V10  1  0.33333333  0.66666667  0.52427267  1
  V  V11  1  0.00000000  0.00000000  0.85760600  1
  Cu  Cu12  1  0.00000000  0.00000000  0.00078000  1
  Cu  Cu13  1  0.33333333  0.66666667  0.16662867  1
  Cu  Cu14  1  0.66666667  0.33333333  0.33411333  1
  Cu  Cu15  1  0.00000000  0.00000000  0.49996200  1
  Cu  Cu16  1  0.33333333  0.66666667  0.66744667  1
  Cu  Cu17  1  0.66666667  0.33333333  0.83329533  1
  P  P18  1  0.37822733  0.04480967  0.08367567  1
  P  P19  1  0.66658233  0.62177267  0.08367567  1
  P  P20  1  0.95519033  0.33341767  0.08367567  1
  P  P21  1  0.71050867  0.00166033  0.24972433  1
  P  P22  1  0.99833967  0.70884833  0.24972433  1
  P  P23  1  0.29115167  0.28949133  0.24972433  1
  P  P24  1  0.04489400  0.37814300  0.41700900  1
  P  P25  1  0.33324900  0.95510600  0.41700900  1
  P  P26  1  0.62185700  0.66675100  0.41700900  1
  P  P27  1  0.37717533  0.33499367  0.58305767  1
  P  P28  1  0.66500633  0.04218167  0.58305767  1
  P  P29  1  0.95781833  0.62282467  0.58305767  1
  P  P30  1  0.71156067  0.71147633  0.75034233  1
  P  P31  1  0.99991567  0.28843933  0.75034233  1
  P  P32  1  0.28852367  0.00008433  0.75034233  1
  P  P33  1  0.04384200  0.66832700  0.91639100  1
  P  P34  1  0.33167300  0.37551500  0.91639100  1
  P  P35  1  0.62448500  0.95615800  0.91639100  1
  O  O36  1  0.67331533  0.52353767  0.02381467  1
  O  O37  1  0.85022233  0.32668467  0.02381467  1
  O  O38  1  0.47646233  0.14977767  0.02381467  1
  O  O39  1  0.18917067  0.02421633  0.08160633  1
  O  O40  1  0.48023933  0.13968067  0.14361367  1
  O  O41  1  0.35742633  0.85559367  0.08481767  1
  O  O42  1  0.83504567  0.81082933  0.08160633  1
  O  O43  1  0.49816733  0.64257367  0.08481767  1
  O  O44  1  0.80929100  0.99359800  0.19027200  1
  O  O45  1  0.14440633  0.50183267  0.08481767  1
  O  O46  1  0.69026367  0.16981633  0.25146633  1
  O  O47  1  0.00640200  0.81569300  0.19027200  1
  O  O48  1  0.65944133  0.51976067  0.14361367  1
  O  O49  1  0.97578367  0.16495433  0.08160633  1
  O  O50  1  0.52212700  0.83270800  0.24822200  1
  O  O51  1  0.86031933  0.34055867  0.14361367  1
  O  O52  1  0.16729200  0.68941900  0.24822200  1
  O  O53  1  0.83018367  0.52044733  0.25146633  1
  O  O54  1  0.31058100  0.47787300  0.24822200  1
  O  O55  1  0.18430700  0.19070900  0.19027200  1
  O  O56  1  0.47955267  0.30973633  0.25146633  1
  O  O57  1  0.19209033  0.18377367  0.30938867  1
  O  O58  1  0.81622633  0.00831667  0.30938867  1
  O  O59  1  0.99168333  0.80790967  0.30938867  1
  O  O60  1  0.33998200  0.85687100  0.35714800  1
  O  O61  1  0.51688900  0.66001800  0.35714800  1
  O  O62  1  0.14312900  0.48311100  0.35714800  1
  O  O63  1  0.85583733  0.35754967  0.41493967  1
  O  O64  1  0.14690600  0.47301400  0.47694700  1
  O  O65  1  0.02409300  0.18892700  0.41815100  1
  O  O66  1  0.50171233  0.14416267  0.41493967  1
  O  O67  1  0.16483400  0.97590700  0.41815100  1
  O  O68  1  0.47595767  0.32693133  0.52360533  1
  O  O69  1  0.81107300  0.83516600  0.41815100  1
  O  O70  1  0.35693033  0.50314967  0.58479967  1
  O  O71  1  0.67306867  0.14902633  0.52360533  1
  O  O72  1  0.32610800  0.85309400  0.47694700  1
  O  O73  1  0.64245033  0.49828767  0.41493967  1
  O  O74  1  0.18879367  0.16604133  0.58155533  1
  O  O75  1  0.52698600  0.67389200  0.47694700  1
  O  O76  1  0.83395867  0.02275233  0.58155533  1
  O  O77  1  0.49685033  0.85378067  0.58479967  1
  O  O78  1  0.97724767  0.81120633  0.58155533  1
  O  O79  1  0.85097367  0.52404233  0.52360533  1
  O  O80  1  0.14621933  0.64306967  0.58479967  1
  O  O81  1  0.85875700  0.51710700  0.64272200  1
  O  O82  1  0.48289300  0.34165000  0.64272200  1
  O  O83  1  0.65835000  0.14124300  0.64272200  1
  O  O84  1  0.00664867  0.19020433  0.69048133  1
  O  O85  1  0.18355567  0.99335133  0.69048133  1
  O  O86  1  0.80979567  0.81644433  0.69048133  1
  O  O87  1  0.52250400  0.69088300  0.74827300  1
  O  O88  1  0.81357267  0.80634733  0.81028033  1
  O  O89  1  0.69075967  0.52226033  0.75148433  1
  O  O90  1  0.16837900  0.47749600  0.74827300  1
  O  O91  1  0.83150067  0.30924033  0.75148433  1
  O  O92  1  0.14262433  0.66026467  0.85693867  1
  O  O93  1  0.47773967  0.16849933  0.75148433  1
  O  O94  1  0.02359700  0.83648300  0.91813300  1
  O  O95  1  0.33973533  0.48235967  0.85693867  1
  O  O96  1  0.99277467  0.18642733  0.81028033  1
  O  O97  1  0.30911700  0.83162100  0.74827300  1
  O  O98  1  0.85546033  0.49937467  0.91488867  1
  O  O99  1  0.19365267  0.00722533  0.81028033  1
  O  O100  1  0.50062533  0.35608567  0.91488867  1
  O  O101  1  0.16351700  0.18711400  0.91813300  1
  O  O102  1  0.64391433  0.14453967  0.91488867  1
  O  O103  1  0.51764033  0.85737567  0.85693867  1
  O  O104  1  0.81288600  0.97640300  0.91813300  1
  O  O105  1  0.52542367  0.85044033  0.97605533  1
  O  O106  1  0.14955967  0.67498333  0.97605533  1
  O  O107  1  0.32501667  0.47457633  0.97605533  1
