# generated using pymatgen
data_Li4Ni3O3F4
_symmetry_space_group_name_H-M   'P 1'
_cell_length_a   2.94239400
_cell_length_b   2.94239400
_cell_length_c   29.06014600
_cell_angle_alpha   90.00000000
_cell_angle_beta   90.00000000
_cell_angle_gamma   90.00000000
_symmetry_Int_Tables_number   1
_chemical_formula_structural   Li4Ni3O3F4
_chemical_formula_sum   'Li8 Ni6 O6 F8'
_cell_volume   251.59351605
_cell_formula_units_Z   2
loop_
 _symmetry_equiv_pos_site_id
 _symmetry_equiv_pos_as_xyz
  1  'x, y, z'
loop_
 _atom_site_type_symbol
 _atom_site_label
 _atom_site_symmetry_multiplicity
 _atom_site_fract_x
 _atom_site_fract_y
 _atom_site_fract_z
 _atom_site_occupancy
  Li  Li0  1  0.00000000  0.00000000  0.35506400  1
  Li  Li1  1  0.50000000  0.50000000  0.14493600  1
  Li  Li2  1  0.00000000  0.00000000  0.21583000  1
  Li  Li3  1  0.50000000  0.50000000  0.28417000  1
  Li  Li4  1  0.50000000  0.50000000  0.85506400  1
  Li  Li5  1  0.00000000  0.00000000  0.64493600  1
  Li  Li6  1  0.50000000  0.50000000  0.71583000  1
  Li  Li7  1  0.00000000  0.00000000  0.78417000  1
  Ni  Ni8  1  0.50000000  0.50000000  0.42784700  1
  Ni  Ni9  1  0.50000000  0.50000000  0.00000000  1
  Ni  Ni10  1  0.00000000  0.00000000  0.07215300  1
  Ni  Ni11  1  0.00000000  0.00000000  0.92784700  1
  Ni  Ni12  1  0.00000000  0.00000000  0.50000000  1
  Ni  Ni13  1  0.50000000  0.50000000  0.57215300  1
  O  O14  1  0.00000000  0.00000000  0.42677100  1
  O  O15  1  0.00000000  0.00000000  0.00000000  1
  O  O16  1  0.50000000  0.50000000  0.07322900  1
  O  O17  1  0.50000000  0.50000000  0.92677100  1
  O  O18  1  0.50000000  0.50000000  0.50000000  1
  O  O19  1  0.00000000  0.00000000  0.57322900  1
  F  F20  1  0.50000000  0.50000000  0.35326000  1
  F  F21  1  0.00000000  0.00000000  0.14674000  1
  F  F22  1  0.50000000  0.50000000  0.21536800  1
  F  F23  1  0.00000000  0.00000000  0.28463200  1
  F  F24  1  0.00000000  0.00000000  0.85326000  1
  F  F25  1  0.50000000  0.50000000  0.64674000  1
  F  F26  1  0.00000000  0.00000000  0.71536800  1
  F  F27  1  0.50000000  0.50000000  0.78463200  1
