# generated using pymatgen
data_Li5FeNi3O8
_symmetry_space_group_name_H-M   'P 1'
_cell_length_a   5.99151600
_cell_length_b   10.20745800
_cell_length_c   9.74323368
_cell_angle_alpha   90.00000000
_cell_angle_beta   91.17412057
_cell_angle_gamma   90.00000000
_symmetry_Int_Tables_number   1
_chemical_formula_structural   Li5FeNi3O8
_chemical_formula_sum   'Li20 Fe4 Ni12 O32'
_cell_volume   595.75301668
_cell_formula_units_Z   4
loop_
 _symmetry_equiv_pos_site_id
 _symmetry_equiv_pos_as_xyz
  1  'x, y, z'
loop_
 _atom_site_type_symbol
 _atom_site_label
 _atom_site_symmetry_multiplicity
 _atom_site_fract_x
 _atom_site_fract_y
 _atom_site_fract_z
 _atom_site_occupancy
  Li  Li0  1  0.50564500  0.30804800  0.55683700  1
  Li  Li1  1  0.52168750  0.16188150  0.77535500  1
  Li  Li2  1  0.31526500  0.09906900  0.54993700  1
  Li  Li3  1  0.01913550  0.00335350  0.48470300  1
  Li  Li4  1  0.01913550  0.99664650  0.98470300  1
  Li  Li5  1  0.71883100  0.09548700  0.55114100  1
  Li  Li6  1  0.52168750  0.83811850  0.27535500  1
  Li  Li7  1  0.71883100  0.90451300  0.05114100  1
  Li  Li8  1  0.31526500  0.90093100  0.04993700  1
  Li  Li9  1  0.50564500  0.69195200  0.05683700  1
  Li  Li10  1  0.00564500  0.80804800  0.55683700  1
  Li  Li11  1  0.02168750  0.66188150  0.77535500  1
  Li  Li12  1  0.81526500  0.59906900  0.54993700  1
  Li  Li13  1  0.51913550  0.50335350  0.48470300  1
  Li  Li14  1  0.51913550  0.49664650  0.98470300  1
  Li  Li15  1  0.21883100  0.59548700  0.55114100  1
  Li  Li16  1  0.02168750  0.33811850  0.27535500  1
  Li  Li17  1  0.21883100  0.40451300  0.05114100  1
  Li  Li18  1  0.81526500  0.40093100  0.04993700  1
  Li  Li19  1  0.00564500  0.19195200  0.05683700  1
  Fe  Fe20  1  0.51191600  0.16565200  0.03278700  1
  Fe  Fe21  1  0.51191600  0.83434800  0.53278700  1
  Fe  Fe22  1  0.01191600  0.66565200  0.03278700  1
  Fe  Fe23  1  0.01191600  0.33434800  0.53278700  1
  Ni  Ni24  1  0.51391250  0.33445850  0.28660200  1
  Ni  Ni25  1  0.26827400  0.08651500  0.28565500  1
  Ni  Ni26  1  0.76123700  0.08693500  0.28741800  1
  Ni  Ni27  1  0.26827400  0.91348500  0.78565500  1
  Ni  Ni28  1  0.76123700  0.91306500  0.78741800  1
  Ni  Ni29  1  0.51391250  0.66554150  0.78660200  1
  Ni  Ni30  1  0.01391250  0.83445850  0.28660200  1
  Ni  Ni31  1  0.76827400  0.58651500  0.28565500  1
  Ni  Ni32  1  0.26123700  0.58693500  0.28741800  1
  Ni  Ni33  1  0.76827400  0.41348500  0.78565500  1
  Ni  Ni34  1  0.26123700  0.41306500  0.78741800  1
  Ni  Ni35  1  0.01391250  0.16554150  0.78660200  1
  O  O36  1  0.51093550  0.32669850  0.91260800  1
  O  O37  1  0.27417000  0.24408400  0.16012300  1
  O  O38  1  0.27061550  0.07559750  0.91035200  1
  O  O39  1  0.51165400  0.16831400  0.39852000  1
  O  O40  1  0.74585500  0.24597500  0.16007100  1
  O  O41  1  0.51600150  0.00996150  0.16022500  1
  O  O42  1  0.27061550  0.92440250  0.41035200  1
  O  O43  1  0.76478300  0.07860100  0.91357200  1
  O  O44  1  0.51600150  0.99003850  0.66022500  1
  O  O45  1  0.76478300  0.92139900  0.41357200  1
  O  O46  1  0.51165400  0.83168600  0.89852000  1
  O  O47  1  0.01684350  0.99375250  0.68090000  1
  O  O48  1  0.01684350  0.00624750  0.18090000  1
  O  O49  1  0.27417000  0.75591600  0.66012300  1
  O  O50  1  0.74585500  0.75402500  0.66007100  1
  O  O51  1  0.51093550  0.67330150  0.41260800  1
  O  O52  1  0.01093550  0.82669850  0.91260800  1
  O  O53  1  0.77417000  0.74408400  0.16012300  1
  O  O54  1  0.77061550  0.57559750  0.91035200  1
  O  O55  1  0.01165400  0.66831400  0.39852000  1
  O  O56  1  0.24585500  0.74597500  0.16007100  1
  O  O57  1  0.01600150  0.50996150  0.16022500  1
  O  O58  1  0.77061550  0.42440250  0.41035200  1
  O  O59  1  0.26478300  0.57860100  0.91357200  1
  O  O60  1  0.01600150  0.49003850  0.66022500  1
  O  O61  1  0.26478300  0.42139900  0.41357200  1
  O  O62  1  0.01165400  0.33168600  0.89852000  1
  O  O63  1  0.51684350  0.49375250  0.68090000  1
  O  O64  1  0.51684350  0.50624750  0.18090000  1
  O  O65  1  0.77417000  0.25591600  0.66012300  1
  O  O66  1  0.24585500  0.25402500  0.66007100  1
  O  O67  1  0.01093550  0.17330150  0.41260800  1
