# generated using pymatgen
data_Li7Mn11O24
_symmetry_space_group_name_H-M   'P 1'
_cell_length_a   10.37185000
_cell_length_b   5.77426000
_cell_length_c   14.59125733
_cell_angle_alpha   90.00000000
_cell_angle_beta   91.09597114
_cell_angle_gamma   90.00000000
_symmetry_Int_Tables_number   1
_chemical_formula_structural   Li7Mn11O24
_chemical_formula_sum   'Li14 Mn22 O48'
_cell_volume   873.70701336
_cell_formula_units_Z   2
loop_
 _symmetry_equiv_pos_site_id
 _symmetry_equiv_pos_as_xyz
  1  'x, y, z'
loop_
 _atom_site_type_symbol
 _atom_site_label
 _atom_site_symmetry_multiplicity
 _atom_site_fract_x
 _atom_site_fract_y
 _atom_site_fract_z
 _atom_site_occupancy
  Li  Li0  1  0.52070500  0.00000000  0.64377600  1
  Li  Li1  1  0.97929500  0.50000000  0.35622400  1
  Li  Li2  1  0.00000000  0.50000000  0.50000000  1
  Li  Li3  1  0.84222200  0.00000000  0.95562600  1
  Li  Li4  1  0.82803400  0.00000000  0.69877800  1
  Li  Li5  1  0.67196600  0.50000000  0.30122200  1
  Li  Li6  1  0.65777800  0.50000000  0.04437400  1
  Li  Li7  1  0.02070500  0.50000000  0.64377600  1
  Li  Li8  1  0.47929500  0.00000000  0.35622400  1
  Li  Li9  1  0.50000000  0.00000000  0.50000000  1
  Li  Li10  1  0.34222200  0.50000000  0.95562600  1
  Li  Li11  1  0.32803400  0.50000000  0.69877800  1
  Li  Li12  1  0.17196600  0.00000000  0.30122200  1
  Li  Li13  1  0.15777800  0.00000000  0.04437400  1
  Mn  Mn14  1  0.83705600  0.00000000  0.34050000  1
  Mn  Mn15  1  0.75000000  0.25000000  0.50000000  1
  Mn  Mn16  1  0.83459600  0.50000000  0.83214000  1
  Mn  Mn17  1  0.66294400  0.50000000  0.65950000  1
  Mn  Mn18  1  0.58830050  0.24984450  0.83312600  1
  Mn  Mn19  1  0.75000000  0.75000000  0.50000000  1
  Mn  Mn20  1  0.58830050  0.75015550  0.83312600  1
  Mn  Mn21  1  0.66540400  0.00000000  0.16786000  1
  Mn  Mn22  1  0.00000000  0.50000000  0.00000000  1
  Mn  Mn23  1  0.91169950  0.25015550  0.16687400  1
  Mn  Mn24  1  0.91169950  0.74984450  0.16687400  1
  Mn  Mn25  1  0.33705600  0.50000000  0.34050000  1
  Mn  Mn26  1  0.25000000  0.75000000  0.50000000  1
  Mn  Mn27  1  0.33459600  0.00000000  0.83214000  1
  Mn  Mn28  1  0.16294400  0.00000000  0.65950000  1
  Mn  Mn29  1  0.08830050  0.74984450  0.83312600  1
  Mn  Mn30  1  0.25000000  0.25000000  0.50000000  1
  Mn  Mn31  1  0.08830050  0.25015550  0.83312600  1
  Mn  Mn32  1  0.16540400  0.50000000  0.16786000  1
  Mn  Mn33  1  0.50000000  0.00000000  0.00000000  1
  Mn  Mn34  1  0.41169950  0.75015550  0.16687400  1
  Mn  Mn35  1  0.41169950  0.24984450  0.16687400  1
  O  O36  1  0.89178700  0.24479000  0.41492000  1
  O  O37  1  0.67818800  0.00000000  0.42103800  1
  O  O38  1  0.82181200  0.50000000  0.57896200  1
  O  O39  1  0.67821100  0.50000000  0.43277200  1
  O  O40  1  0.60821300  0.25521000  0.58508000  1
  O  O41  1  0.60821300  0.74479000  0.58508000  1
  O  O42  1  0.93424400  0.72673800  0.90874300  1
  O  O43  1  0.73811000  0.72352700  0.75591600  1
  O  O44  1  0.89178700  0.75521000  0.41492000  1
  O  O45  1  0.52052800  0.50000000  0.75218600  1
  O  O46  1  0.82178900  0.00000000  0.56722800  1
  O  O47  1  0.65540000  0.50000000  0.90650300  1
  O  O48  1  0.51477000  0.00000000  0.76500500  1
  O  O49  1  0.66130100  0.00000000  0.90540300  1
  O  O50  1  0.84460000  0.00000000  0.09349700  1
  O  O51  1  0.76189000  0.22352700  0.24408400  1
  O  O52  1  0.93424400  0.27326200  0.90874300  1
  O  O53  1  0.56575600  0.22673800  0.09125700  1
  O  O54  1  0.56575600  0.77326200  0.09125700  1
  O  O55  1  0.73811000  0.27647300  0.75591600  1
  O  O56  1  0.83869900  0.50000000  0.09459700  1
  O  O57  1  0.98523000  0.50000000  0.23499500  1
  O  O58  1  0.97947200  0.00000000  0.24781400  1
  O  O59  1  0.76189000  0.77647300  0.24408400  1
  O  O60  1  0.39178700  0.74479000  0.41492000  1
  O  O61  1  0.17818800  0.50000000  0.42103800  1
  O  O62  1  0.32181200  0.00000000  0.57896200  1
  O  O63  1  0.17821100  0.00000000  0.43277200  1
  O  O64  1  0.10821300  0.75521000  0.58508000  1
  O  O65  1  0.10821300  0.24479000  0.58508000  1
  O  O66  1  0.43424400  0.22673800  0.90874300  1
  O  O67  1  0.23811000  0.22352700  0.75591600  1
  O  O68  1  0.39178700  0.25521000  0.41492000  1
  O  O69  1  0.02052800  0.00000000  0.75218600  1
  O  O70  1  0.32178900  0.50000000  0.56722800  1
  O  O71  1  0.15540000  0.00000000  0.90650300  1
  O  O72  1  0.01477000  0.50000000  0.76500500  1
  O  O73  1  0.16130100  0.50000000  0.90540300  1
  O  O74  1  0.34460000  0.50000000  0.09349700  1
  O  O75  1  0.26189000  0.72352700  0.24408400  1
  O  O76  1  0.43424400  0.77326200  0.90874300  1
  O  O77  1  0.06575600  0.72673800  0.09125700  1
  O  O78  1  0.06575600  0.27326200  0.09125700  1
  O  O79  1  0.23811000  0.77647300  0.75591600  1
  O  O80  1  0.33869900  0.00000000  0.09459700  1
  O  O81  1  0.48523000  0.00000000  0.23499500  1
  O  O82  1  0.47947200  0.50000000  0.24781400  1
  O  O83  1  0.26189000  0.27647300  0.24408400  1
