# generated using pymatgen
data_Ti3Co2Te(PO4)6
_symmetry_space_group_name_H-M   'P 1'
_cell_length_a   8.79707225
_cell_length_b   8.79707225
_cell_length_c   21.01526636
_cell_angle_alpha   90.00000000
_cell_angle_beta   90.00000000
_cell_angle_gamma   120.00000000
_symmetry_Int_Tables_number   1
_chemical_formula_structural   Ti3Co2Te(PO4)6
_chemical_formula_sum   'Ti9 Co6 Te3 P18 O72'
_cell_volume   1408.45134408
_cell_formula_units_Z   3
loop_
 _symmetry_equiv_pos_site_id
 _symmetry_equiv_pos_as_xyz
  1  'x, y, z'
loop_
 _atom_site_type_symbol
 _atom_site_label
 _atom_site_symmetry_multiplicity
 _atom_site_fract_x
 _atom_site_fract_y
 _atom_site_fract_z
 _atom_site_occupancy
  Ti  Ti0  1  0.33333333  0.66666667  0.80699767  1
  Ti  Ti1  1  0.33333333  0.66666667  0.02358767  1
  Ti  Ti2  1  0.33333333  0.66666667  0.30658767  1
  Ti  Ti3  1  0.00000000  0.00000000  0.14033100  1
  Ti  Ti4  1  0.00000000  0.00000000  0.35692100  1
  Ti  Ti5  1  0.00000000  0.00000000  0.63992100  1
  Ti  Ti6  1  0.66666667  0.33333333  0.47366433  1
  Ti  Ti7  1  0.66666667  0.33333333  0.69025433  1
  Ti  Ti8  1  0.66666667  0.33333333  0.97325433  1
  Co  Co9  1  0.33333333  0.66666667  0.67500267  1
  Co  Co10  1  0.33333333  0.66666667  0.17050867  1
  Co  Co11  1  0.00000000  0.00000000  0.00833600  1
  Co  Co12  1  0.00000000  0.00000000  0.50384200  1
  Co  Co13  1  0.66666667  0.33333333  0.34166933  1
  Co  Co14  1  0.66666667  0.33333333  0.83717533  1
  Te  Te15  1  0.33333333  0.66666667  0.52345367  1
  Te  Te16  1  0.00000000  0.00000000  0.85678700  1
  Te  Te17  1  0.66666667  0.33333333  0.19012033  1
  P  P18  1  0.28485200  0.29022300  0.25031800  1
  P  P19  1  0.70977700  0.99462900  0.25031800  1
  P  P20  1  0.00537100  0.71514800  0.25031800  1
  P  P21  1  0.66479933  0.63075767  0.08059767  1
  P  P22  1  0.96595833  0.33520067  0.08059767  1
  P  P23  1  0.36924233  0.03404167  0.08059767  1
  P  P24  1  0.95151867  0.62355633  0.58365133  1
  P  P25  1  0.37644367  0.32796233  0.58365133  1
  P  P26  1  0.67203767  0.04848133  0.58365133  1
  P  P27  1  0.33146600  0.96409100  0.41393100  1
  P  P28  1  0.63262500  0.66853400  0.41393100  1
  P  P29  1  0.03590900  0.36737500  0.41393100  1
  P  P30  1  0.61818533  0.95688967  0.91698467  1
  P  P31  1  0.04311033  0.66129567  0.91698467  1
  P  P32  1  0.33870433  0.38181467  0.91698467  1
  P  P33  1  0.99813267  0.29742433  0.74726433  1
  P  P34  1  0.29929167  0.00186733  0.74726433  1
  P  P35  1  0.70257567  0.70070833  0.74726433  1
  O  O36  1  0.34998167  0.49103033  0.97579733  1
  O  O37  1  0.50896967  0.85895133  0.97579733  1
  O  O38  1  0.83206467  0.81551233  0.07669633  1
  O  O39  1  0.14104867  0.65001833  0.97579733  1
  O  O40  1  0.66378233  0.54311867  0.14474367  1
  O  O41  1  0.50151100  0.65458500  0.08449700  1
  O  O42  1  0.98344767  0.16793533  0.07669633  1
  O  O43  1  0.15307400  0.49848900  0.08449700  1
  O  O44  1  0.52646167  0.85539833  0.85577833  1
  O  O45  1  0.34541500  0.84692600  0.08449700  1
  O  O46  1  0.46966733  0.30876667  0.26108067  1
  O  O47  1  0.14460167  0.67106333  0.85577833  1
  O  O48  1  0.87933633  0.33621767  0.14474367  1
  O  O49  1  0.18448767  0.01655233  0.07669633  1
  O  O50  1  0.30800167  0.47730733  0.24460033  1
  O  O51  1  0.45688133  0.12066367  0.14474367  1
  O  O52  1  0.52269267  0.83069433  0.24460033  1
  O  O53  1  0.69123333  0.16090067  0.26108067  1
  O  O54  1  0.16930567  0.69199833  0.24460033  1
  O  O55  1  0.32893667  0.47353833  0.85577833  1
  O  O56  1  0.52259433  0.66796467  0.35717667  1
  O  O57  1  0.83909933  0.53033267  0.26108067  1
  O  O58  1  0.14537033  0.47740567  0.35717667  1
  O  O59  1  0.33203533  0.85462967  0.35717667  1
  O  O60  1  0.01664833  0.82436367  0.30913067  1
  O  O61  1  0.17563633  0.19228467  0.30913067  1
  O  O62  1  0.49873133  0.14884567  0.41002967  1
  O  O63  1  0.80771533  0.98335167  0.30913067  1
  O  O64  1  0.33044900  0.87645200  0.47807700  1
  O  O65  1  0.16817767  0.98791833  0.41783033  1
  O  O66  1  0.65011433  0.50126867  0.41002967  1
  O  O67  1  0.81974067  0.83182233  0.41783033  1
  O  O68  1  0.19312833  0.18873167  0.18911167  1
  O  O69  1  0.01208167  0.18025933  0.41783033  1
  O  O70  1  0.13633400  0.64210000  0.59441400  1
  O  O71  1  0.81126833  0.00439667  0.18911167  1
  O  O72  1  0.54600300  0.66955100  0.47807700  1
  O  O73  1  0.85115433  0.34988567  0.41002967  1
  O  O74  1  0.97466833  0.81064067  0.57793367  1
  O  O75  1  0.12354800  0.45399700  0.47807700  1
  O  O76  1  0.18935933  0.16402767  0.57793367  1
  O  O77  1  0.35790000  0.49423400  0.59441400  1
  O  O78  1  0.83597233  0.02533167  0.57793367  1
  O  O79  1  0.99560333  0.80687167  0.18911167  1
  O  O80  1  0.18926100  0.00129800  0.69051000  1
  O  O81  1  0.50576600  0.86366600  0.59441400  1
  O  O82  1  0.81203700  0.81073900  0.69051000  1
  O  O83  1  0.99870200  0.18796300  0.69051000  1
  O  O84  1  0.68331500  0.15769700  0.64246400  1
  O  O85  1  0.84230300  0.52561800  0.64246400  1
  O  O86  1  0.16539800  0.48217900  0.74336300  1
  O  O87  1  0.47438200  0.31668500  0.64246400  1
  O  O88  1  0.99711567  0.20978533  0.81141033  1
  O  O89  1  0.83484433  0.32125167  0.75116367  1
  O  O90  1  0.31678100  0.83460200  0.74336300  1
  O  O91  1  0.48640733  0.16515567  0.75116367  1
  O  O92  1  0.85979500  0.52206500  0.52244500  1
  O  O93  1  0.67874833  0.51359267  0.75116367  1
  O  O94  1  0.80300067  0.97543333  0.92774733  1
  O  O95  1  0.47793500  0.33773000  0.52244500  1
  O  O96  1  0.21266967  0.00288433  0.81141033  1
  O  O97  1  0.51782100  0.68321900  0.74336300  1
  O  O98  1  0.64133500  0.14397400  0.91126700  1
  O  O99  1  0.79021467  0.78733033  0.81141033  1
  O  O100  1  0.85602600  0.49736100  0.91126700  1
  O  O101  1  0.02456667  0.82756733  0.92774733  1
  O  O102  1  0.50263900  0.35866500  0.91126700  1
  O  O103  1  0.66227000  0.14020500  0.52244500  1
  O  O104  1  0.85592767  0.33463133  0.02384333  1
  O  O105  1  0.17243267  0.19699933  0.92774733  1
  O  O106  1  0.47870367  0.14407233  0.02384333  1
  O  O107  1  0.66536867  0.52129633  0.02384333  1
