# generated using pymatgen
data_Li2V(CO3)2
_symmetry_space_group_name_H-M   'P 1'
_cell_length_a   9.45151800
_cell_length_b   12.72239600
_cell_length_c   9.04340563
_cell_angle_alpha   90.00000000
_cell_angle_beta   118.02881535
_cell_angle_gamma   90.00000000
_symmetry_Int_Tables_number   1
_chemical_formula_structural   Li2V(CO3)2
_chemical_formula_sum   'Li16 V8 C16 O48'
_cell_volume   959.88942754
_cell_formula_units_Z   8
loop_
 _symmetry_equiv_pos_site_id
 _symmetry_equiv_pos_as_xyz
  1  'x, y, z'
loop_
 _atom_site_type_symbol
 _atom_site_label
 _atom_site_symmetry_multiplicity
 _atom_site_fract_x
 _atom_site_fract_y
 _atom_site_fract_z
 _atom_site_occupancy
  Li  Li0  1  0.06833900  0.93232900  0.93410600  1
  Li  Li1  1  0.71654250  0.25670650  0.63330700  1
  Li  Li2  1  0.49624150  0.08733150  0.48211900  1
  Li  Li3  1  0.49624150  0.91266850  0.98211900  1
  Li  Li4  1  0.71144150  0.23474250  0.14571700  1
  Li  Li5  1  0.71144150  0.76525750  0.64571700  1
  Li  Li6  1  0.06833900  0.06767100  0.43410600  1
  Li  Li7  1  0.71654250  0.74329350  0.13330700  1
  Li  Li8  1  0.56833900  0.43232900  0.93410600  1
  Li  Li9  1  0.21654250  0.75670650  0.63330700  1
  Li  Li10  1  0.99624150  0.58733150  0.48211900  1
  Li  Li11  1  0.99624150  0.41266850  0.98211900  1
  Li  Li12  1  0.21144150  0.73474250  0.14571700  1
  Li  Li13  1  0.21144150  0.26525750  0.64571700  1
  Li  Li14  1  0.56833900  0.56767100  0.43410600  1
  Li  Li15  1  0.21654250  0.24329350  0.13330700  1
  V  V16  1  0.38028700  0.62836900  0.00311500  1
  V  V17  1  0.38028700  0.37163100  0.50311500  1
  V  V18  1  0.37844750  0.12739150  0.99958900  1
  V  V19  1  0.37844750  0.87260850  0.49958900  1
  V  V20  1  0.88028700  0.12836900  0.00311500  1
  V  V21  1  0.88028700  0.87163100  0.50311500  1
  V  V22  1  0.87844750  0.62739150  0.99958900  1
  V  V23  1  0.87844750  0.37260850  0.49958900  1
  C  C24  1  0.23546800  0.94850300  0.74042900  1
  C  C25  1  0.52218050  0.20068250  0.77182300  1
  C  C26  1  0.23546800  0.05149700  0.24042900  1
  C  C27  1  0.52218050  0.79931750  0.27182300  1
  C  C28  1  0.51628250  0.30099850  0.26725700  1
  C  C29  1  0.51628250  0.69900150  0.76725700  1
  C  C30  1  0.73817000  0.95257200  0.73813700  1
  C  C31  1  0.73817000  0.04742800  0.23813700  1
  C  C32  1  0.73546800  0.44850300  0.74042900  1
  C  C33  1  0.02218050  0.70068250  0.77182300  1
  C  C34  1  0.73546800  0.55149700  0.24042900  1
  C  C35  1  0.02218050  0.29931750  0.27182300  1
  C  C36  1  0.01628250  0.80099850  0.26725700  1
  C  C37  1  0.01628250  0.19900150  0.76725700  1
  C  C38  1  0.23817000  0.45257200  0.73813700  1
  C  C39  1  0.23817000  0.54742800  0.23813700  1
  O  O40  1  0.09927400  0.96861500  0.61272200  1
  O  O41  1  0.26328750  0.97400850  0.89173100  1
  O  O42  1  0.09927400  0.03138500  0.11272200  1
  O  O43  1  0.39163450  0.33358550  0.27727300  1
  O  O44  1  0.39549450  0.16827750  0.77681900  1
  O  O45  1  0.51337650  0.21982650  0.62367600  1
  O  O46  1  0.65524750  0.21948450  0.90509300  1
  O  O47  1  0.65354700  0.29226500  0.40067100  1
  O  O48  1  0.50343550  0.27277350  0.12311500  1
  O  O49  1  0.26328750  0.02599150  0.39173100  1
  O  O50  1  0.34883150  0.10090450  0.22536700  1
  O  O51  1  0.39549450  0.83172250  0.27681900  1
  O  O52  1  0.34883150  0.89909550  0.72536700  1
  O  O53  1  0.39163450  0.66641450  0.77727300  1
  O  O54  1  0.50343550  0.72722650  0.62311500  1
  O  O55  1  0.75709150  0.99180350  0.87575200  1
  O  O56  1  0.60120650  0.95732150  0.60257400  1
  O  O57  1  0.60120650  0.04267850  0.10257400  1
  O  O58  1  0.75709150  0.00819650  0.37575200  1
  O  O59  1  0.85773800  0.09782600  0.23136400  1
  O  O60  1  0.85773800  0.90217400  0.73136400  1
  O  O61  1  0.65354700  0.70773500  0.90067100  1
  O  O62  1  0.65524750  0.78051550  0.40509300  1
  O  O63  1  0.51337650  0.78017350  0.12367600  1
  O  O64  1  0.59927400  0.46861500  0.61272200  1
  O  O65  1  0.76328750  0.47400850  0.89173100  1
  O  O66  1  0.59927400  0.53138500  0.11272200  1
  O  O67  1  0.89163450  0.83358550  0.27727300  1
  O  O68  1  0.89549450  0.66827750  0.77681900  1
  O  O69  1  0.01337650  0.71982650  0.62367600  1
  O  O70  1  0.15524750  0.71948450  0.90509300  1
  O  O71  1  0.15354700  0.79226500  0.40067100  1
  O  O72  1  0.00343550  0.77277350  0.12311500  1
  O  O73  1  0.76328750  0.52599150  0.39173100  1
  O  O74  1  0.84883150  0.60090450  0.22536700  1
  O  O75  1  0.89549450  0.33172250  0.27681900  1
  O  O76  1  0.84883150  0.39909550  0.72536700  1
  O  O77  1  0.89163450  0.16641450  0.77727300  1
  O  O78  1  0.00343550  0.22722650  0.62311500  1
  O  O79  1  0.25709150  0.49180350  0.87575200  1
  O  O80  1  0.10120650  0.45732150  0.60257400  1
  O  O81  1  0.10120650  0.54267850  0.10257400  1
  O  O82  1  0.25709150  0.50819650  0.37575200  1
  O  O83  1  0.35773800  0.59782600  0.23136400  1
  O  O84  1  0.35773800  0.40217400  0.73136400  1
  O  O85  1  0.15354700  0.20773500  0.90067100  1
  O  O86  1  0.15524750  0.28051550  0.40509300  1
  O  O87  1  0.01337650  0.28017350  0.12367600  1
