# generated using pymatgen
data_Li2CrP2O7
_symmetry_space_group_name_H-M   'P 1'
_cell_length_a   5.28479978
_cell_length_b   8.59133005
_cell_length_c   7.16475228
_cell_angle_alpha   90.00000000
_cell_angle_beta   110.14244847
_cell_angle_gamma   90.00000000
_symmetry_Int_Tables_number   1
_chemical_formula_structural   Li2CrP2O7
_chemical_formula_sum   'Li4 Cr2 P4 O14'
_cell_volume   305.40871340
_cell_formula_units_Z   2
loop_
 _symmetry_equiv_pos_site_id
 _symmetry_equiv_pos_as_xyz
  1  'x, y, z'
loop_
 _atom_site_type_symbol
 _atom_site_label
 _atom_site_symmetry_multiplicity
 _atom_site_fract_x
 _atom_site_fract_y
 _atom_site_fract_z
 _atom_site_occupancy
  Li  Li0  1  0.24413800  0.32918500  0.40434050  1
  Li  Li1  1  0.75586200  0.82918500  0.59565950  1
  Li  Li2  1  0.42560000  0.15184600  0.13890950  1
  Li  Li3  1  0.57440000  0.65184600  0.86109050  1
  Cr  Cr4  1  0.46300200  0.00977200  0.77109950  1
  Cr  Cr5  1  0.53699800  0.50977200  0.22890050  1
  P  P6  1  0.16677100  0.71466200  0.42653650  1
  P  P7  1  0.83322900  0.21466200  0.57346350  1
  P  P8  1  0.15948700  0.81090500  0.02181050  1
  P  P9  1  0.84051300  0.31090500  0.97818950  1
  O  O10  1  0.88158300  0.69799400  0.42826950  1
  O  O11  1  0.11841700  0.19799400  0.57173050  1
  O  O12  1  0.63760100  0.29734400  0.38725350  1
  O  O13  1  0.36239900  0.79734400  0.61274650  1
  O  O14  1  0.29380500  0.55951100  0.39701950  1
  O  O15  1  0.70619500  0.05951100  0.60298050  1
  O  O16  1  0.16188700  0.83238300  0.24751350  1
  O  O17  1  0.83811300  0.33238300  0.75248650  1
  O  O18  1  0.13008000  0.28998700  0.11571150  1
  O  O19  1  0.86992000  0.78998700  0.88428850  1
  O  O20  1  0.34030100  0.67156800  0.02061850  1
  O  O21  1  0.65969900  0.17156800  0.97938150  1
  O  O22  1  0.28441800  0.96302000  0.98172950  1
  O  O23  1  0.71558200  0.46302000  0.01827050  1
