# generated using pymatgen
data_Li4Mn3V3(NiO8)2
_symmetry_space_group_name_H-M   'P 1'
_cell_length_a   10.15585004
_cell_length_b   5.80346850
_cell_length_c   9.62357206
_cell_angle_alpha   90.00000000
_cell_angle_beta   90.15883376
_cell_angle_gamma   90.00000000
_symmetry_Int_Tables_number   1
_chemical_formula_structural   Li4Mn3V3(NiO8)2
_chemical_formula_sum   'Li8 Mn6 V6 Ni4 O32'
_cell_volume   567.20303303
_cell_formula_units_Z   2
loop_
 _symmetry_equiv_pos_site_id
 _symmetry_equiv_pos_as_xyz
  1  'x, y, z'
loop_
 _atom_site_type_symbol
 _atom_site_label
 _atom_site_symmetry_multiplicity
 _atom_site_fract_x
 _atom_site_fract_y
 _atom_site_fract_z
 _atom_site_occupancy
  Li  Li0  1  0.16833800  0.50000000  0.11241600  1
  Li  Li1  1  0.49640400  0.50000000  0.00184100  1
  Li  Li2  1  0.49806300  0.50000000  0.50169800  1
  Li  Li3  1  0.33411050  0.00000000  0.61042000  1
  Li  Li4  1  0.66833800  0.00000000  0.11241600  1
  Li  Li5  1  0.99640400  0.00000000  0.00184100  1
  Li  Li6  1  0.99806300  0.00000000  0.50169800  1
  Li  Li7  1  0.83411050  0.50000000  0.61042000  1
  Mn  Mn8  1  0.33035650  0.50000000  0.78465200  1
  Mn  Mn9  1  0.41522100  0.24665800  0.28499100  1
  Mn  Mn10  1  0.41522100  0.75334200  0.28499100  1
  Mn  Mn11  1  0.83035650  0.00000000  0.78465200  1
  Mn  Mn12  1  0.91522100  0.74665800  0.28499100  1
  Mn  Mn13  1  0.91522100  0.25334200  0.28499100  1
  V  V14  1  0.08340650  0.74705850  0.78538200  1
  V  V15  1  0.08340650  0.25294150  0.78538200  1
  V  V16  1  0.16785000  0.00000000  0.28521600  1
  V  V17  1  0.58340650  0.24705850  0.78538200  1
  V  V18  1  0.58340650  0.75294150  0.78538200  1
  V  V19  1  0.66785000  0.50000000  0.28521600  1
  Ni  Ni20  1  0.16748600  0.50000000  0.50822800  1
  Ni  Ni21  1  0.33456850  0.00000000  0.01176800  1
  Ni  Ni22  1  0.66748600  0.00000000  0.50822800  1
  Ni  Ni23  1  0.83456850  0.50000000  0.01176800  1
  O  O24  1  0.07936050  0.76399350  0.39225600  1
  O  O25  1  0.02002850  0.50000000  0.66984000  1
  O  O26  1  0.17111650  0.50000000  0.89414500  1
  O  O27  1  0.49537900  0.50000000  0.68634100  1
  O  O28  1  0.49623950  0.50000000  0.18682200  1
  O  O29  1  0.07936050  0.23600650  0.39225600  1
  O  O30  1  0.24156350  0.72302750  0.66912300  1
  O  O31  1  0.24156350  0.27697250  0.66912300  1
  O  O32  1  0.15639600  0.00000000  0.89290700  1
  O  O33  1  0.34339350  0.50000000  0.39332800  1
  O  O34  1  0.25988750  0.22305350  0.17023900  1
  O  O35  1  0.25988750  0.77694650  0.17023900  1
  O  O36  1  0.33698250  0.00000000  0.39268200  1
  O  O37  1  0.42119600  0.26104100  0.89259400  1
  O  O38  1  0.48282050  0.00000000  0.17065600  1
  O  O39  1  0.42119600  0.73895900  0.89259400  1
  O  O40  1  0.57936050  0.26399350  0.39225600  1
  O  O41  1  0.52002850  0.00000000  0.66984000  1
  O  O42  1  0.67111650  0.00000000  0.89414500  1
  O  O43  1  0.99537900  0.00000000  0.68634100  1
  O  O44  1  0.99623950  0.00000000  0.18682200  1
  O  O45  1  0.57936050  0.73600650  0.39225600  1
  O  O46  1  0.74156350  0.22302750  0.66912300  1
  O  O47  1  0.74156350  0.77697250  0.66912300  1
  O  O48  1  0.65639600  0.50000000  0.89290700  1
  O  O49  1  0.84339350  0.00000000  0.39332800  1
  O  O50  1  0.75988750  0.72305350  0.17023900  1
  O  O51  1  0.75988750  0.27694650  0.17023900  1
  O  O52  1  0.83698250  0.50000000  0.39268200  1
  O  O53  1  0.92119600  0.76104100  0.89259400  1
  O  O54  1  0.98282050  0.50000000  0.17065600  1
  O  O55  1  0.92119600  0.23895900  0.89259400  1
