# generated using pymatgen
data_Tb5O9
_symmetry_space_group_name_H-M   'P 1'
_cell_length_a   8.48378600
_cell_length_b   8.48378600
_cell_length_c   5.65260000
_cell_angle_alpha   90.00000000
_cell_angle_beta   90.00000000
_cell_angle_gamma   90.00000000
_symmetry_Int_Tables_number   1
_chemical_formula_structural   Tb5O9
_chemical_formula_sum   'Tb10 O18'
_cell_volume   406.84376467
_cell_formula_units_Z   2
loop_
 _symmetry_equiv_pos_site_id
 _symmetry_equiv_pos_as_xyz
  1  'x, y, z'
loop_
 _atom_site_type_symbol
 _atom_site_label
 _atom_site_symmetry_multiplicity
 _atom_site_fract_x
 _atom_site_fract_y
 _atom_site_fract_z
 _atom_site_occupancy
  Tb  Tb0  1  0.21764950  0.11623950  0.22537150  1
  Tb  Tb1  1  0.78235050  0.88376050  0.22537150  1
  Tb  Tb2  1  0.38376050  0.71764950  0.27462850  1
  Tb  Tb3  1  0.61623950  0.28235050  0.27462850  1
  Tb  Tb4  1  0.50000000  0.00000000  0.75000000  1
  Tb  Tb5  1  0.71764950  0.61623950  0.72537150  1
  Tb  Tb6  1  0.28235050  0.38376050  0.72537150  1
  Tb  Tb7  1  0.88376050  0.21764950  0.77462850  1
  Tb  Tb8  1  0.11623950  0.78235050  0.77462850  1
  Tb  Tb9  1  0.00000000  0.50000000  0.25000000  1
  O  O10  1  0.00000000  0.00000000  0.00000000  1
  O  O11  1  0.59243650  0.80722550  0.49833650  1
  O  O12  1  0.30722550  0.90756350  0.00166350  1
  O  O13  1  0.69277450  0.09243650  0.00166350  1
  O  O14  1  0.26891400  0.91413400  0.49990600  1
  O  O15  1  0.73108600  0.08586600  0.49990600  1
  O  O16  1  0.58586600  0.76891400  0.00009400  1
  O  O17  1  0.40756350  0.19277450  0.49833650  1
  O  O18  1  0.41413400  0.23108600  0.00009400  1
  O  O19  1  0.50000000  0.50000000  0.50000000  1
  O  O20  1  0.09243650  0.30722550  0.99833650  1
  O  O21  1  0.80722550  0.40756350  0.50166350  1
  O  O22  1  0.19277450  0.59243650  0.50166350  1
  O  O23  1  0.76891400  0.41413400  0.99990600  1
  O  O24  1  0.23108600  0.58586600  0.99990600  1
  O  O25  1  0.08586600  0.26891400  0.50009400  1
  O  O26  1  0.90756350  0.69277450  0.99833650  1
  O  O27  1  0.91413400  0.73108600  0.50009400  1
