# generated using pymatgen
data_Cr3Co(PO4)4
_symmetry_space_group_name_H-M   'P 1'
_cell_length_a   4.76110700
_cell_length_b   5.77906700
_cell_length_c   9.92565437
_cell_angle_alpha   90.00000000
_cell_angle_beta   90.45746346
_cell_angle_gamma   90.00000000
_symmetry_Int_Tables_number   1
_chemical_formula_structural   Cr3Co(PO4)4
_chemical_formula_sum   'Cr3 Co1 P4 O16'
_cell_volume   273.09325673
_cell_formula_units_Z   1
loop_
 _symmetry_equiv_pos_site_id
 _symmetry_equiv_pos_as_xyz
  1  'x, y, z'
loop_
 _atom_site_type_symbol
 _atom_site_label
 _atom_site_symmetry_multiplicity
 _atom_site_fract_x
 _atom_site_fract_y
 _atom_site_fract_z
 _atom_site_occupancy
  Cr  Cr0  1  0.47364400  0.00000000  0.22944800  1
  Cr  Cr1  1  0.52784300  0.50000000  0.77261000  1
  Cr  Cr2  1  0.97445500  0.50000000  0.27043300  1
  Co  Co3  1  0.05301200  0.00000000  0.72299300  1
  P  P4  1  0.07774500  0.50000000  0.59314400  1
  P  P5  1  0.41475700  0.50000000  0.09214300  1
  P  P6  1  0.58851100  0.00000000  0.90361000  1
  P  P7  1  0.91781400  0.00000000  0.40890000  1
  O  O8  1  0.16929300  0.50000000  0.44673200  1
  O  O9  1  0.22949800  0.70528800  0.67325600  1
  O  O10  1  0.22949800  0.29471200  0.67325600  1
  O  O11  1  0.23464800  0.00000000  0.39055600  1
  O  O12  1  0.26427100  0.00000000  0.88917400  1
  O  O13  1  0.26613100  0.70582200  0.17175000  1
  O  O14  1  0.26613100  0.29417800  0.17175000  1
  O  O15  1  0.32594700  0.50000000  0.94548400  1
  O  O16  1  0.66349300  0.00000000  0.05367000  1
  O  O17  1  0.73105500  0.20804600  0.82888000  1
  O  O18  1  0.73105500  0.79195400  0.82888000  1
  O  O19  1  0.73211100  0.50000000  0.10952900  1
  O  O20  1  0.76181900  0.50000000  0.60852900  1
  O  O21  1  0.76683600  0.20559100  0.32927200  1
  O  O22  1  0.76683600  0.79440900  0.32927200  1
  O  O23  1  0.83359900  0.00000000  0.55672800  1
