# generated using pymatgen
data_Li4MnO3
_symmetry_space_group_name_H-M   'P 1'
_cell_length_a   10.47862548
_cell_length_b   5.08610209
_cell_length_c   6.79569679
_cell_angle_alpha   90.00000000
_cell_angle_beta   110.98000005
_cell_angle_gamma   90.00000000
_symmetry_Int_Tables_number   1
_chemical_formula_structural   Li4MnO3
_chemical_formula_sum   'Li16 Mn4 O12'
_cell_volume   338.16860422
_cell_formula_units_Z   4
loop_
 _symmetry_equiv_pos_site_id
 _symmetry_equiv_pos_as_xyz
  1  'x, y, z'
loop_
 _atom_site_type_symbol
 _atom_site_label
 _atom_site_symmetry_multiplicity
 _atom_site_fract_x
 _atom_site_fract_y
 _atom_site_fract_z
 _atom_site_occupancy
  Li  Li0  1  0.38091150  0.64633100  0.07731250  1
  Li  Li1  1  0.38091150  0.35366900  0.57731250  1
  Li  Li2  1  0.27623200  0.84087700  0.35994850  1
  Li  Li3  1  0.27623200  0.15912300  0.85994850  1
  Li  Li4  1  0.20651850  0.28222300  0.17004050  1
  Li  Li5  1  0.20651850  0.71777700  0.67004050  1
  Li  Li6  1  0.13681900  0.15064900  0.46693200  1
  Li  Li7  1  0.13681900  0.84935100  0.96693200  1
  Li  Li8  1  0.88091150  0.14633100  0.07731250  1
  Li  Li9  1  0.88091150  0.85366900  0.57731250  1
  Li  Li10  1  0.77623200  0.34087700  0.35994850  1
  Li  Li11  1  0.77623200  0.65912300  0.85994850  1
  Li  Li12  1  0.70651850  0.78222300  0.17004050  1
  Li  Li13  1  0.70651850  0.21777700  0.67004050  1
  Li  Li14  1  0.63681900  0.65064900  0.46693200  1
  Li  Li15  1  0.63681900  0.34935100  0.96693200  1
  Mn  Mn16  1  0.01642950  0.64882300  0.25921050  1
  Mn  Mn17  1  0.01642950  0.35117700  0.75921050  1
  Mn  Mn18  1  0.51642950  0.14882300  0.25921050  1
  Mn  Mn19  1  0.51642950  0.85117700  0.75921050  1
  O  O20  1  0.33322150  0.99350100  0.14148000  1
  O  O21  1  0.33322150  0.00649900  0.64148000  1
  O  O22  1  0.20357050  0.50266100  0.41708850  1
  O  O23  1  0.20357050  0.49733900  0.91708850  1
  O  O24  1  0.06292900  0.00652450  0.17053150  1
  O  O25  1  0.06292900  0.99347550  0.67053150  1
  O  O26  1  0.83322150  0.49350100  0.14148000  1
  O  O27  1  0.83322150  0.50649900  0.64148000  1
  O  O28  1  0.70357050  0.00266100  0.41708850  1
  O  O29  1  0.70357050  0.99733900  0.91708850  1
  O  O30  1  0.56292900  0.50652450  0.17053150  1
  O  O31  1  0.56292900  0.49347550  0.67053150  1
