# generated using pymatgen
data_LiTi2O4
_symmetry_space_group_name_H-M   'P 1'
_cell_length_a   5.94241000
_cell_length_b   5.99779600
_cell_length_c   8.41499200
_cell_angle_alpha   90.00000000
_cell_angle_beta   90.00000000
_cell_angle_gamma   90.00000000
_symmetry_Int_Tables_number   1
_chemical_formula_structural   LiTi2O4
_chemical_formula_sum   'Li4 Ti8 O16'
_cell_volume   299.92178391
_cell_formula_units_Z   4
loop_
 _symmetry_equiv_pos_site_id
 _symmetry_equiv_pos_as_xyz
  1  'x, y, z'
loop_
 _atom_site_type_symbol
 _atom_site_label
 _atom_site_symmetry_multiplicity
 _atom_site_fract_x
 _atom_site_fract_y
 _atom_site_fract_z
 _atom_site_occupancy
  Li  Li0  1  0.25000000  0.25000000  0.25000000  1
  Li  Li1  1  0.75000000  0.25000000  0.25000000  1
  Li  Li2  1  0.75000000  0.75000000  0.75000000  1
  Li  Li3  1  0.25000000  0.75000000  0.75000000  1
  Ti  Ti4  1  0.50000000  0.00000000  0.50000000  1
  Ti  Ti5  1  0.00000000  0.00000000  0.00000000  1
  Ti  Ti6  1  0.25000000  0.75000000  0.25000000  1
  Ti  Ti7  1  0.75000000  0.75000000  0.25000000  1
  Ti  Ti8  1  0.00000000  0.50000000  0.00000000  1
  Ti  Ti9  1  0.50000000  0.50000000  0.50000000  1
  Ti  Ti10  1  0.75000000  0.25000000  0.75000000  1
  Ti  Ti11  1  0.25000000  0.25000000  0.75000000  1
  O  O12  1  0.00000000  0.98268800  0.23724000  1
  O  O13  1  0.50000000  0.01731200  0.73724000  1
  O  O14  1  0.72181850  0.75000000  0.48978350  1
  O  O15  1  0.72181850  0.25000000  0.51021650  1
  O  O16  1  0.27818150  0.75000000  0.48978350  1
  O  O17  1  0.27818150  0.25000000  0.51021650  1
  O  O18  1  0.50000000  0.98268800  0.26276000  1
  O  O19  1  0.00000000  0.01731200  0.76276000  1
  O  O20  1  0.50000000  0.48268800  0.73724000  1
  O  O21  1  0.00000000  0.51731200  0.23724000  1
  O  O22  1  0.22181850  0.25000000  0.98978350  1
  O  O23  1  0.22181850  0.75000000  0.01021650  1
  O  O24  1  0.77818150  0.25000000  0.98978350  1
  O  O25  1  0.77818150  0.75000000  0.01021650  1
  O  O26  1  0.00000000  0.48268800  0.76276000  1
  O  O27  1  0.50000000  0.51731200  0.26276000  1
