# generated using pymatgen
data_Li4VFe3O8
_symmetry_space_group_name_H-M   'P 1'
_cell_length_a   5.96661367
_cell_length_b   5.96661367
_cell_length_c   14.73241145
_cell_angle_alpha   90.00000000
_cell_angle_beta   90.00000000
_cell_angle_gamma   120.00000000
_symmetry_Int_Tables_number   1
_chemical_formula_structural   Li4VFe3O8
_chemical_formula_sum   'Li12 V3 Fe9 O24'
_cell_volume   454.21378298
_cell_formula_units_Z   3
loop_
 _symmetry_equiv_pos_site_id
 _symmetry_equiv_pos_as_xyz
  1  'x, y, z'
loop_
 _atom_site_type_symbol
 _atom_site_label
 _atom_site_symmetry_multiplicity
 _atom_site_fract_x
 _atom_site_fract_y
 _atom_site_fract_z
 _atom_site_occupancy
  Li  Li0  1  0.83333333  0.16666667  0.16666667  1
  Li  Li1  1  0.33333333  0.66666667  0.16666667  1
  Li  Li2  1  0.83333333  0.66666667  0.16666667  1
  Li  Li3  1  0.33333333  0.16666667  0.16666667  1
  Li  Li4  1  0.50000000  0.50000000  0.50000000  1
  Li  Li5  1  1.00000000  1.00000000  0.50000000  1
  Li  Li6  1  0.50000000  0.00000000  0.50000000  1
  Li  Li7  1  0.00000000  0.50000000  0.50000000  1
  Li  Li8  1  0.16666667  0.83333333  0.83333333  1
  Li  Li9  1  0.66666667  0.33333333  0.83333333  1
  Li  Li10  1  0.16666667  0.33333333  0.83333333  1
  Li  Li11  1  0.66666667  0.83333333  0.83333333  1
  V  V12  1  0.66666667  0.33333333  0.33333333  1
  V  V13  1  0.33333333  0.66666667  0.66666667  1
  V  V14  1  1.00000000  1.00000000  0.00000000  1
  Fe  Fe15  1  0.66666667  0.83333333  0.33333333  1
  Fe  Fe16  1  0.50000000  0.50000000  0.00000000  1
  Fe  Fe17  1  0.16666667  0.33333333  0.33333333  1
  Fe  Fe18  1  0.33333333  0.16666667  0.66666667  1
  Fe  Fe19  1  0.16666667  0.83333333  0.33333333  1
  Fe  Fe20  1  0.83333333  0.66666667  0.66666667  1
  Fe  Fe21  1  0.00000000  0.50000000  0.00000000  1
  Fe  Fe22  1  0.83333333  0.16666667  0.66666667  1
  Fe  Fe23  1  0.50000000  0.00000000  0.00000000  1
  O  O24  1  0.16591567  0.83408433  0.07556533  1
  O  O25  1  0.66666667  0.33333333  0.07428200  1
  O  O26  1  0.66816867  0.83408433  0.07556533  1
  O  O27  1  0.16591567  0.33183133  0.07556533  1
  O  O28  1  0.00000000  0.00000000  0.25905133  1
  O  O29  1  0.50075100  0.49924900  0.25776800  1
  O  O30  1  0.50075100  0.00150200  0.25776800  1
  O  O31  1  0.99849800  0.49924900  0.25776800  1
  O  O32  1  0.83258233  0.16741767  0.40889867  1
  O  O33  1  0.33333333  0.66666667  0.40761533  1
  O  O34  1  0.33483533  0.16741767  0.40889867  1
  O  O35  1  0.83258233  0.66516467  0.40889867  1
  O  O36  1  0.66666667  0.33333333  0.59238467  1
  O  O37  1  0.16741767  0.83258233  0.59110133  1
  O  O38  1  0.16741767  0.33483533  0.59110133  1
  O  O39  1  0.66516467  0.83258233  0.59110133  1
  O  O40  1  0.49924900  0.50075100  0.74223200  1
  O  O41  1  0.00000000  0.00000000  0.74094867  1
  O  O42  1  0.00150200  0.50075100  0.74223200  1
  O  O43  1  0.49924900  0.99849800  0.74223200  1
  O  O44  1  0.33333333  0.66666667  0.92571800  1
  O  O45  1  0.83408433  0.16591567  0.92443467  1
  O  O46  1  0.83408433  0.66816867  0.92443467  1
  O  O47  1  0.33183133  0.16591567  0.92443467  1
