# generated using pymatgen
data_SrSn4
_symmetry_space_group_name_H-M   'P 1'
_cell_length_a   4.66329200
_cell_length_b   17.64875200
_cell_length_c   7.20838200
_cell_angle_alpha   90.00000000
_cell_angle_beta   90.00000000
_cell_angle_gamma   90.00000000
_symmetry_Int_Tables_number   1
_chemical_formula_structural   SrSn4
_chemical_formula_sum   'Sr4 Sn16'
_cell_volume   593.25909425
_cell_formula_units_Z   4
loop_
 _symmetry_equiv_pos_site_id
 _symmetry_equiv_pos_as_xyz
  1  'x, y, z'
loop_
 _atom_site_type_symbol
 _atom_site_label
 _atom_site_symmetry_multiplicity
 _atom_site_fract_x
 _atom_site_fract_y
 _atom_site_fract_z
 _atom_site_occupancy
  Sr  Sr0  1  0.50000000  0.88784000  0.25000000  1
  Sr  Sr1  1  0.00000000  0.61216000  0.75000000  1
  Sr  Sr2  1  0.00000000  0.38784000  0.25000000  1
  Sr  Sr3  1  0.50000000  0.11216000  0.75000000  1
  Sn  Sn4  1  0.50000000  0.69497700  0.04564600  1
  Sn  Sn5  1  0.00000000  0.80502300  0.95435400  1
  Sn  Sn6  1  0.00000000  0.80502300  0.54564600  1
  Sn  Sn7  1  0.50000000  0.69497700  0.45435400  1
  Sn  Sn8  1  0.00000000  0.59036100  0.25000000  1
  Sn  Sn9  1  0.50000000  0.90963900  0.75000000  1
  Sn  Sn10  1  0.00000000  0.00000000  0.00000000  1
  Sn  Sn11  1  0.00000000  0.00000000  0.50000000  1
  Sn  Sn12  1  0.00000000  0.19497700  0.04564600  1
  Sn  Sn13  1  0.50000000  0.30502300  0.95435400  1
  Sn  Sn14  1  0.50000000  0.30502300  0.54564600  1
  Sn  Sn15  1  0.00000000  0.19497700  0.45435400  1
  Sn  Sn16  1  0.50000000  0.09036100  0.25000000  1
  Sn  Sn17  1  0.00000000  0.40963900  0.75000000  1
  Sn  Sn18  1  0.50000000  0.50000000  0.00000000  1
  Sn  Sn19  1  0.50000000  0.50000000  0.50000000  1
