# generated using pymatgen
data_Li4Cr3FeO8
_symmetry_space_group_name_H-M   'P 1'
_cell_length_a   10.33442014
_cell_length_b   5.91122080
_cell_length_c   5.13594823
_cell_angle_alpha   90.00000000
_cell_angle_beta   109.30326289
_cell_angle_gamma   90.00000000
_symmetry_Int_Tables_number   1
_chemical_formula_structural   Li4Cr3FeO8
_chemical_formula_sum   'Li8 Cr6 Fe2 O16'
_cell_volume   296.11177764
_cell_formula_units_Z   2
loop_
 _symmetry_equiv_pos_site_id
 _symmetry_equiv_pos_as_xyz
  1  'x, y, z'
loop_
 _atom_site_type_symbol
 _atom_site_label
 _atom_site_symmetry_multiplicity
 _atom_site_fract_x
 _atom_site_fract_y
 _atom_site_fract_z
 _atom_site_occupancy
  Li  Li0  1  0.25010050  0.00000000  0.00101200  1
  Li  Li1  1  0.74989950  0.00000000  0.99898800  1
  Li  Li2  1  0.75000000  0.75000000  0.50000000  1
  Li  Li3  1  0.25000000  0.75000000  0.50000000  1
  Li  Li4  1  0.75010050  0.50000000  0.00101200  1
  Li  Li5  1  0.24989950  0.50000000  0.99898800  1
  Li  Li6  1  0.25000000  0.25000000  0.50000000  1
  Li  Li7  1  0.75000000  0.25000000  0.50000000  1
  Cr  Cr8  1  0.50000000  0.25377200  0.00000000  1
  Cr  Cr9  1  0.50000000  0.50000000  0.50000000  1
  Cr  Cr10  1  0.50000000  0.74622800  0.00000000  1
  Cr  Cr11  1  0.00000000  0.75377200  0.00000000  1
  Cr  Cr12  1  0.00000000  0.00000000  0.50000000  1
  Cr  Cr13  1  0.00000000  0.24622800  0.00000000  1
  Fe  Fe14  1  0.50000000  0.00000000  0.50000000  1
  Fe  Fe15  1  0.00000000  0.50000000  0.50000000  1
  O  O16  1  0.61392200  0.00000000  0.24079400  1
  O  O17  1  0.38607800  0.00000000  0.75920600  1
  O  O18  1  0.61294150  0.50000000  0.24287400  1
  O  O19  1  0.38705850  0.50000000  0.75712600  1
  O  O20  1  0.61328000  0.74860000  0.74342500  1
  O  O21  1  0.38672000  0.25140000  0.25657500  1
  O  O22  1  0.38672000  0.74860000  0.25657500  1
  O  O23  1  0.61328000  0.25140000  0.74342500  1
  O  O24  1  0.11392200  0.50000000  0.24079400  1
  O  O25  1  0.88607800  0.50000000  0.75920600  1
  O  O26  1  0.11294150  0.00000000  0.24287400  1
  O  O27  1  0.88705850  0.00000000  0.75712600  1
  O  O28  1  0.11328000  0.24860000  0.74342500  1
  O  O29  1  0.88672000  0.75140000  0.25657500  1
  O  O30  1  0.88672000  0.24860000  0.25657500  1
  O  O31  1  0.11328000  0.75140000  0.74342500  1
