# generated using pymatgen
data_LiNiPO4
_symmetry_space_group_name_H-M   'P 1'
_cell_length_a   5.49464502
_cell_length_b   6.23961108
_cell_length_c   9.28187495
_cell_angle_alpha   74.89732998
_cell_angle_beta   80.98396444
_cell_angle_gamma   76.03735688
_symmetry_Int_Tables_number   1
_chemical_formula_structural   LiNiPO4
_chemical_formula_sum   'Li4 Ni4 P4 O16'
_cell_volume   296.65562232
_cell_formula_units_Z   4
loop_
 _symmetry_equiv_pos_site_id
 _symmetry_equiv_pos_as_xyz
  1  'x, y, z'
loop_
 _atom_site_type_symbol
 _atom_site_label
 _atom_site_symmetry_multiplicity
 _atom_site_fract_x
 _atom_site_fract_y
 _atom_site_fract_z
 _atom_site_occupancy
  Li  Li0  1  0.70612800  0.35332300  0.91810900  1
  Li  Li1  1  0.29387200  0.64667700  0.08189100  1
  Li  Li2  1  0.19246300  0.47756200  0.74572500  1
  Li  Li3  1  0.80753700  0.52243800  0.25427500  1
  Ni  Ni4  1  0.68518700  0.06482600  0.21426200  1
  Ni  Ni5  1  0.77440500  0.16615900  0.58623700  1
  Ni  Ni6  1  0.31481300  0.93517400  0.78573800  1
  Ni  Ni7  1  0.22559500  0.83384100  0.41376300  1
  P  P8  1  0.81265200  0.83201100  0.92333100  1
  P  P9  1  0.18734800  0.16798900  0.07666900  1
  P  P10  1  0.68144200  0.69943400  0.54772200  1
  P  P11  1  0.31855800  0.30056600  0.45227800  1
  O  O12  1  0.60900700  0.70815800  0.90090200  1
  O  O13  1  0.39099300  0.29184200  0.09909800  1
  O  O14  1  0.08735400  0.70229500  0.88346000  1
  O  O15  1  0.91264600  0.29770500  0.11654000  1
  O  O16  1  0.20837900  0.16721500  0.90856500  1
  O  O17  1  0.79162100  0.83278500  0.09143500  1
  O  O18  1  0.77290600  0.07525700  0.82157900  1
  O  O19  1  0.22709400  0.92474300  0.17842100  1
  O  O20  1  0.85886300  0.84950900  0.56249800  1
  O  O21  1  0.14113700  0.15049100  0.43750200  1
  O  O22  1  0.40555500  0.75580300  0.62541800  1
  O  O23  1  0.59444500  0.24419700  0.37458200  1
  O  O24  1  0.80636900  0.45569400  0.61787200  1
  O  O25  1  0.19363100  0.54430600  0.38212800  1
  O  O26  1  0.36635300  0.25094400  0.62176200  1
  O  O27  1  0.63364700  0.74905600  0.37823800  1
