# generated using pymatgen
data_Li2VO2F
_symmetry_space_group_name_H-M   'P 1'
_cell_length_a   5.16260200
_cell_length_b   8.95981600
_cell_length_c   9.87521558
_cell_angle_alpha   90.00000000
_cell_angle_beta   99.92874330
_cell_angle_gamma   90.00000000
_symmetry_Int_Tables_number   1
_chemical_formula_structural   Li2VO2F
_chemical_formula_sum   'Li16 V8 O16 F8'
_cell_volume   449.94628621
_cell_formula_units_Z   8
loop_
 _symmetry_equiv_pos_site_id
 _symmetry_equiv_pos_as_xyz
  1  'x, y, z'
loop_
 _atom_site_type_symbol
 _atom_site_label
 _atom_site_symmetry_multiplicity
 _atom_site_fract_x
 _atom_site_fract_y
 _atom_site_fract_z
 _atom_site_occupancy
  Li  Li0  1  0.74570750  0.90849150  0.25230300  1
  Li  Li1  1  0.73487950  0.74860950  0.75006000  1
  Li  Li2  1  0.50000000  0.59266100  0.50000000  1
  Li  Li3  1  0.25429250  0.90849150  0.74769700  1
  Li  Li4  1  0.26512050  0.74860950  0.24994000  1
  Li  Li5  1  0.26222600  0.59801800  0.74371500  1
  Li  Li6  1  0.00000000  0.74630900  0.50000000  1
  Li  Li7  1  0.73777400  0.59801800  0.25628500  1
  Li  Li8  1  0.24570750  0.40849150  0.25230300  1
  Li  Li9  1  0.23487950  0.24860950  0.75006000  1
  Li  Li10  1  0.00000000  0.09266100  0.50000000  1
  Li  Li11  1  0.75429250  0.40849150  0.74769700  1
  Li  Li12  1  0.76512050  0.24860950  0.24994000  1
  Li  Li13  1  0.76222600  0.09801800  0.74371500  1
  Li  Li14  1  0.50000000  0.24630900  0.50000000  1
  Li  Li15  1  0.23777400  0.09801800  0.25628500  1
  V  V16  1  0.50000000  0.75133000  0.00000000  1
  V  V17  1  0.50000000  0.89540300  0.50000000  1
  V  V18  1  0.00000000  0.58432700  0.00000000  1
  V  V19  1  0.00000000  0.91823600  0.00000000  1
  V  V20  1  0.00000000  0.25133000  0.00000000  1
  V  V21  1  0.00000000  0.39540300  0.50000000  1
  V  V22  1  0.50000000  0.08432700  0.00000000  1
  V  V23  1  0.50000000  0.41823600  0.00000000  1
  O  O24  1  0.62957000  0.91796700  0.88522300  1
  O  O25  1  0.62164450  0.75614450  0.38042200  1
  O  O26  1  0.37139900  0.58472800  0.11657600  1
  O  O27  1  0.37043000  0.91796700  0.11477700  1
  O  O28  1  0.37835550  0.75614450  0.61957800  1
  O  O29  1  0.12745000  0.75096300  0.88348300  1
  O  O30  1  0.87255000  0.75096300  0.11651700  1
  O  O31  1  0.62860100  0.58472800  0.88342400  1
  O  O32  1  0.12957000  0.41796700  0.88522300  1
  O  O33  1  0.12164450  0.25614450  0.38042200  1
  O  O34  1  0.87139900  0.08472800  0.11657600  1
  O  O35  1  0.87043000  0.41796700  0.11477700  1
  O  O36  1  0.87835550  0.25614450  0.61957800  1
  O  O37  1  0.62745000  0.25096300  0.88348300  1
  O  O38  1  0.37255000  0.25096300  0.11651700  1
  O  O39  1  0.12860100  0.08472800  0.88342400  1
  F  F40  1  0.87219950  0.91559850  0.62293000  1
  F  F41  1  0.11605850  0.57529150  0.38191700  1
  F  F42  1  0.12780050  0.91559850  0.37707000  1
  F  F43  1  0.88394150  0.57529150  0.61808300  1
  F  F44  1  0.37219950  0.41559850  0.62293000  1
  F  F45  1  0.61605850  0.07529150  0.38191700  1
  F  F46  1  0.62780050  0.41559850  0.37707000  1
  F  F47  1  0.38394150  0.07529150  0.61808300  1
