# generated using pymatgen
data_LiCrSnO4
_symmetry_space_group_name_H-M   'P 1'
_cell_length_a   6.04920679
_cell_length_b   6.29556600
_cell_length_c   8.66383788
_cell_angle_alpha   90.00000000
_cell_angle_beta   90.00000000
_cell_angle_gamma   90.00000000
_symmetry_Int_Tables_number   1
_chemical_formula_structural   LiCrSnO4
_chemical_formula_sum   'Li4 Cr4 Sn4 O16'
_cell_volume   329.94650253
_cell_formula_units_Z   4
loop_
 _symmetry_equiv_pos_site_id
 _symmetry_equiv_pos_as_xyz
  1  'x, y, z'
loop_
 _atom_site_type_symbol
 _atom_site_label
 _atom_site_symmetry_multiplicity
 _atom_site_fract_x
 _atom_site_fract_y
 _atom_site_fract_z
 _atom_site_occupancy
  Li  Li0  1  0.50000000  0.75000000  0.62622500  1
  Li  Li1  1  0.50000000  0.25000000  0.37377500  1
  Li  Li2  1  0.00000000  0.25000000  0.12622500  1
  Li  Li3  1  0.00000000  0.75000000  0.87377500  1
  Cr  Cr4  1  0.75000000  0.25000000  0.75000000  1
  Cr  Cr5  1  0.25000000  0.25000000  0.75000000  1
  Cr  Cr6  1  0.25000000  0.75000000  0.25000000  1
  Cr  Cr7  1  0.75000000  0.75000000  0.25000000  1
  Sn  Sn8  1  0.00000000  0.50000000  0.50000000  1
  Sn  Sn9  1  0.00000000  0.00000000  0.50000000  1
  Sn  Sn10  1  0.50000000  0.00000000  0.00000000  1
  Sn  Sn11  1  0.50000000  0.50000000  0.00000000  1
  O  O12  1  0.50000000  0.03163300  0.76056850  1
  O  O13  1  0.00000000  0.96836700  0.26056850  1
  O  O14  1  0.00000000  0.03163300  0.73943150  1
  O  O15  1  0.50000000  0.96836700  0.23943150  1
  O  O16  1  0.23303100  0.75000000  0.48697900  1
  O  O17  1  0.76696900  0.75000000  0.48697900  1
  O  O18  1  0.76696900  0.25000000  0.51302100  1
  O  O19  1  0.23303100  0.25000000  0.51302100  1
  O  O20  1  0.00000000  0.53163300  0.26056850  1
  O  O21  1  0.50000000  0.46836700  0.76056850  1
  O  O22  1  0.50000000  0.53163300  0.23943150  1
  O  O23  1  0.00000000  0.46836700  0.73943150  1
  O  O24  1  0.73303100  0.25000000  0.98697900  1
  O  O25  1  0.26696900  0.25000000  0.98697900  1
  O  O26  1  0.26696900  0.75000000  0.01302100  1
  O  O27  1  0.73303100  0.75000000  0.01302100  1
