# generated using pymatgen
data_Li3V(PO4)2
_symmetry_space_group_name_H-M   'P 1'
_cell_length_a   7.14174683
_cell_length_b   5.35931801
_cell_length_c   8.55903024
_cell_angle_alpha   90.00000000
_cell_angle_beta   97.47586796
_cell_angle_gamma   90.00000000
_symmetry_Int_Tables_number   1
_chemical_formula_structural   Li3V(PO4)2
_chemical_formula_sum   'Li6 V2 P4 O16'
_cell_volume   324.81131351
_cell_formula_units_Z   2
loop_
 _symmetry_equiv_pos_site_id
 _symmetry_equiv_pos_as_xyz
  1  'x, y, z'
loop_
 _atom_site_type_symbol
 _atom_site_label
 _atom_site_symmetry_multiplicity
 _atom_site_fract_x
 _atom_site_fract_y
 _atom_site_fract_z
 _atom_site_occupancy
  Li  Li0  1  0.63924850  0.75000000  0.53192825  1
  Li  Li1  1  0.36075150  0.25000000  0.46807175  1
  Li  Li2  1  0.60937150  0.25000000  0.17661325  1
  Li  Li3  1  0.39062850  0.75000000  0.82338675  1
  Li  Li4  1  0.31015900  0.75000000  0.16254375  1
  Li  Li5  1  0.68984100  0.25000000  0.83745625  1
  V  V6  1  0.02911650  0.25000000  0.25448775  1
  V  V7  1  0.97088350  0.75000000  0.74551225  1
  P  P8  1  0.21972050  0.75000000  0.45539075  1
  P  P9  1  0.78027950  0.25000000  0.54460925  1
  P  P10  1  0.75384350  0.75000000  0.09138275  1
  P  P11  1  0.24615650  0.25000000  0.90861725  1
  O  O12  1  0.03602750  0.75000000  0.52884575  1
  O  O13  1  0.96397250  0.25000000  0.47115425  1
  O  O14  1  0.60595800  0.25000000  0.41933575  1
  O  O15  1  0.39404200  0.75000000  0.58066425  1
  O  O16  1  0.53587550  0.75000000  0.06664975  1
  O  O17  1  0.46412450  0.25000000  0.93335025  1
  O  O18  1  0.16590300  0.25000000  0.06848675  1
  O  O19  1  0.83409700  0.75000000  0.93151325  1
  O  O20  1  0.23066400  0.52057800  0.34198875  1
  O  O21  1  0.23066400  0.97942200  0.34198875  1
  O  O22  1  0.76933600  0.02057800  0.65801125  1
  O  O23  1  0.76933600  0.47942200  0.65801125  1
  O  O24  1  0.82207400  0.50715800  0.18096475  1
  O  O25  1  0.82207400  0.99284200  0.18096475  1
  O  O26  1  0.17792600  0.00715800  0.81903525  1
  O  O27  1  0.17792600  0.49284200  0.81903525  1
