# generated using pymatgen
data_NbVO5
_symmetry_space_group_name_H-M   'P 1'
_cell_length_a   13.97909081
_cell_length_b   5.57737100
_cell_length_c   14.07553825
_cell_angle_alpha   90.00000000
_cell_angle_beta   119.91017160
_cell_angle_gamma   90.00000000
_symmetry_Int_Tables_number   1
_chemical_formula_structural   NbVO5
_chemical_formula_sum   'Nb8 V8 O40'
_cell_volume   951.25401468
_cell_formula_units_Z   8
loop_
 _symmetry_equiv_pos_site_id
 _symmetry_equiv_pos_as_xyz
  1  'x, y, z'
loop_
 _atom_site_type_symbol
 _atom_site_label
 _atom_site_symmetry_multiplicity
 _atom_site_fract_x
 _atom_site_fract_y
 _atom_site_fract_z
 _atom_site_occupancy
  Nb  Nb0  1  0.94094300  0.74188000  0.79824500  1
  Nb  Nb1  1  0.94094300  0.75812000  0.29824500  1
  Nb  Nb2  1  0.55926300  0.24681400  0.35819700  1
  Nb  Nb3  1  0.44073700  0.74681400  0.14180300  1
  Nb  Nb4  1  0.55926300  0.25318600  0.85819700  1
  Nb  Nb5  1  0.44073700  0.75318600  0.64180300  1
  Nb  Nb6  1  0.05905700  0.24188000  0.70175500  1
  Nb  Nb7  1  0.05905700  0.25812000  0.20175500  1
  V  V8  1  0.84603100  0.26646100  0.40842200  1
  V  V9  1  0.65416100  0.75970900  0.56160400  1
  V  V10  1  0.84603100  0.23353900  0.90842200  1
  V  V11  1  0.65416100  0.74029100  0.06160400  1
  V  V12  1  0.34583900  0.25970900  0.93839600  1
  V  V13  1  0.15396900  0.76646100  0.09157800  1
  V  V14  1  0.34583900  0.24029100  0.43839600  1
  V  V15  1  0.15396900  0.73353900  0.59157800  1
  O  O16  1  0.99145900  0.03260900  0.75881300  1
  O  O17  1  0.88439200  0.45545600  0.84895800  1
  O  O18  1  0.92518400  0.24160400  0.55087100  1
  O  O19  1  0.79526000  0.74571100  0.66301200  1
  O  O20  1  0.99145900  0.46739100  0.25881300  1
  O  O21  1  0.88439200  0.04454400  0.34895800  1
  O  O22  1  0.86704000  0.54186700  0.36818600  1
  O  O23  1  0.62439000  0.03714900  0.49878400  1
  O  O24  1  0.62550900  0.54032900  0.46639300  1
  O  O25  1  0.70508800  0.23041200  0.36807200  1
  O  O26  1  0.92518400  0.25839600  0.05087100  1
  O  O27  1  0.79526000  0.75428900  0.16301200  1
  O  O28  1  0.42608900  0.28374500  0.37632400  1
  O  O29  1  0.50144500  0.97448100  0.26369200  1
  O  O30  1  0.49855500  0.47448100  0.23630800  1
  O  O31  1  0.86704000  0.95813300  0.86818600  1
  O  O32  1  0.57391100  0.78374500  0.12367600  1
  O  O33  1  0.62439000  0.46285100  0.99878400  1
  O  O34  1  0.62550900  0.95967100  0.96639300  1
  O  O35  1  0.70508800  0.26958800  0.86807200  1
  O  O36  1  0.29491200  0.73041200  0.13192800  1
  O  O37  1  0.37449100  0.04032900  0.03360700  1
  O  O38  1  0.37561000  0.53714900  0.00121600  1
  O  O39  1  0.42608900  0.21625500  0.87632400  1
  O  O40  1  0.13296000  0.04186700  0.13181400  1
  O  O41  1  0.50144500  0.52551900  0.76369200  1
  O  O42  1  0.49855500  0.02551900  0.73630800  1
  O  O43  1  0.57391100  0.71625500  0.62367600  1
  O  O44  1  0.20474000  0.24571100  0.83698800  1
  O  O45  1  0.07481600  0.74160400  0.94912900  1
  O  O46  1  0.29491200  0.76958800  0.63192800  1
  O  O47  1  0.37449100  0.45967100  0.53360700  1
  O  O48  1  0.37561000  0.96285100  0.50121600  1
  O  O49  1  0.13296000  0.45813300  0.63181400  1
  O  O50  1  0.11560800  0.95545600  0.65104200  1
  O  O51  1  0.00854100  0.53260900  0.74118700  1
  O  O52  1  0.20474000  0.25428900  0.33698800  1
  O  O53  1  0.07481600  0.75839600  0.44912900  1
  O  O54  1  0.11560800  0.54454400  0.15104200  1
  O  O55  1  0.00854100  0.96739100  0.24118700  1
