# generated using pymatgen
data_Li4TiMn5O12
_symmetry_space_group_name_H-M   'P 1'
_cell_length_a   5.28383600
_cell_length_b   8.83819200
_cell_length_c   10.25562229
_cell_angle_alpha   90.00000000
_cell_angle_beta   92.07986287
_cell_angle_gamma   90.00000000
_symmetry_Int_Tables_number   1
_chemical_formula_structural   Li4TiMn5O12
_chemical_formula_sum   'Li8 Ti2 Mn10 O24'
_cell_volume   478.61750261
_cell_formula_units_Z   2
loop_
 _symmetry_equiv_pos_site_id
 _symmetry_equiv_pos_as_xyz
  1  'x, y, z'
loop_
 _atom_site_type_symbol
 _atom_site_label
 _atom_site_symmetry_multiplicity
 _atom_site_fract_x
 _atom_site_fract_y
 _atom_site_fract_z
 _atom_site_occupancy
  Li  Li0  1  0.60927900  0.74863300  0.75054900  1
  Li  Li1  1  0.39072100  0.74863300  0.24945100  1
  Li  Li2  1  0.60927900  0.25136700  0.75054900  1
  Li  Li3  1  0.39072100  0.25136700  0.24945100  1
  Li  Li4  1  0.10927900  0.24863300  0.75054900  1
  Li  Li5  1  0.89072100  0.24863300  0.24945100  1
  Li  Li6  1  0.10927900  0.75136700  0.75054900  1
  Li  Li7  1  0.89072100  0.75136700  0.24945100  1
  Ti  Ti8  1  0.00000000  0.00000000  0.00000000  1
  Ti  Ti9  1  0.50000000  0.50000000  0.00000000  1
  Mn  Mn10  1  0.50000000  0.66407600  0.50000000  1
  Mn  Mn11  1  0.50000000  0.16486700  0.00000000  1
  Mn  Mn12  1  0.50000000  0.83513300  0.00000000  1
  Mn  Mn13  1  0.50000000  0.33592400  0.50000000  1
  Mn  Mn14  1  0.50000000  0.00000000  0.50000000  1
  Mn  Mn15  1  0.00000000  0.16407600  0.50000000  1
  Mn  Mn16  1  0.00000000  0.66486700  0.00000000  1
  Mn  Mn17  1  0.00000000  0.33513300  0.00000000  1
  Mn  Mn18  1  0.00000000  0.83592400  0.50000000  1
  Mn  Mn19  1  0.00000000  0.50000000  0.50000000  1
  O  O20  1  0.63598350  0.67081150  0.11025000  1
  O  O21  1  0.36401650  0.67081150  0.88975000  1
  O  O22  1  0.65298650  0.81842850  0.39215600  1
  O  O23  1  0.65298650  0.18157150  0.39215600  1
  O  O24  1  0.34701350  0.81842850  0.60784400  1
  O  O25  1  0.83089600  0.00000000  0.59090700  1
  O  O26  1  0.34701350  0.18157150  0.60784400  1
  O  O27  1  0.63598350  0.32918850  0.11025000  1
  O  O28  1  0.67620600  0.00000000  0.09332200  1
  O  O29  1  0.36401650  0.32918850  0.88975000  1
  O  O30  1  0.32379400  0.00000000  0.90667800  1
  O  O31  1  0.16910400  0.00000000  0.40909300  1
  O  O32  1  0.13598350  0.17081150  0.11025000  1
  O  O33  1  0.86401650  0.17081150  0.88975000  1
  O  O34  1  0.15298650  0.31842850  0.39215600  1
  O  O35  1  0.15298650  0.68157150  0.39215600  1
  O  O36  1  0.84701350  0.31842850  0.60784400  1
  O  O37  1  0.33089600  0.50000000  0.59090700  1
  O  O38  1  0.84701350  0.68157150  0.60784400  1
  O  O39  1  0.13598350  0.82918850  0.11025000  1
  O  O40  1  0.17620600  0.50000000  0.09332200  1
  O  O41  1  0.86401650  0.82918850  0.88975000  1
  O  O42  1  0.82379400  0.50000000  0.90667800  1
  O  O43  1  0.66910400  0.50000000  0.40909300  1
