# generated using pymatgen
data_BeCrO4
_symmetry_space_group_name_H-M   'P 1'
_cell_length_a   10.86229400
_cell_length_b   9.34599000
_cell_length_c   5.72091315
_cell_angle_alpha   90.00000000
_cell_angle_beta   106.26634239
_cell_angle_gamma   90.00000000
_symmetry_Int_Tables_number   1
_chemical_formula_structural   BeCrO4
_chemical_formula_sum   'Be8 Cr8 O32'
_cell_volume   557.53210563
_cell_formula_units_Z   8
loop_
 _symmetry_equiv_pos_site_id
 _symmetry_equiv_pos_as_xyz
  1  'x, y, z'
loop_
 _atom_site_type_symbol
 _atom_site_label
 _atom_site_symmetry_multiplicity
 _atom_site_fract_x
 _atom_site_fract_y
 _atom_site_fract_z
 _atom_site_occupancy
  Be  Be0  1  0.38652400  0.50000000  0.20668800  1
  Be  Be1  1  0.00000000  0.24875000  0.50000000  1
  Be  Be2  1  0.00000000  0.75125000  0.50000000  1
  Be  Be3  1  0.61347600  0.50000000  0.79331200  1
  Be  Be4  1  0.88652400  0.00000000  0.20668800  1
  Be  Be5  1  0.50000000  0.74875000  0.50000000  1
  Be  Be6  1  0.50000000  0.25125000  0.50000000  1
  Be  Be7  1  0.11347600  0.00000000  0.79331200  1
  Cr  Cr8  1  0.22028500  0.50000000  0.61318000  1
  Cr  Cr9  1  0.00000000  0.23844800  0.00000000  1
  Cr  Cr10  1  0.00000000  0.76155200  0.00000000  1
  Cr  Cr11  1  0.77971500  0.50000000  0.38682000  1
  Cr  Cr12  1  0.72028500  0.00000000  0.61318000  1
  Cr  Cr13  1  0.50000000  0.73844800  0.00000000  1
  Cr  Cr14  1  0.50000000  0.26155200  0.00000000  1
  Cr  Cr15  1  0.27971500  0.00000000  0.38682000  1
  O  O16  1  0.30862700  0.50000000  0.41693800  1
  O  O17  1  0.31539900  0.50000000  0.90403800  1
  O  O18  1  0.12148700  0.33969600  0.09436600  1
  O  O19  1  0.12148700  0.66030400  0.09436600  1
  O  O20  1  0.12723950  0.64378050  0.56370400  1
  O  O21  1  0.12723950  0.35621950  0.56370400  1
  O  O22  1  0.97784350  0.85324950  0.25836200  1
  O  O23  1  0.97784350  0.14675050  0.25836200  1
  O  O24  1  0.02215650  0.14675050  0.74163800  1
  O  O25  1  0.02215650  0.85324950  0.74163800  1
  O  O26  1  0.87276050  0.35621950  0.43629600  1
  O  O27  1  0.87276050  0.64378050  0.43629600  1
  O  O28  1  0.87851300  0.33969600  0.90563400  1
  O  O29  1  0.87851300  0.66030400  0.90563400  1
  O  O30  1  0.68460100  0.50000000  0.09596200  1
  O  O31  1  0.69137300  0.50000000  0.58306200  1
  O  O32  1  0.80862700  0.00000000  0.41693800  1
  O  O33  1  0.81539900  0.00000000  0.90403800  1
  O  O34  1  0.62148700  0.83969600  0.09436600  1
  O  O35  1  0.62148700  0.16030400  0.09436600  1
  O  O36  1  0.62723950  0.14378050  0.56370400  1
  O  O37  1  0.62723950  0.85621950  0.56370400  1
  O  O38  1  0.47784350  0.35324950  0.25836200  1
  O  O39  1  0.47784350  0.64675050  0.25836200  1
  O  O40  1  0.52215650  0.64675050  0.74163800  1
  O  O41  1  0.52215650  0.35324950  0.74163800  1
  O  O42  1  0.37276050  0.85621950  0.43629600  1
  O  O43  1  0.37276050  0.14378050  0.43629600  1
  O  O44  1  0.37851300  0.83969600  0.90563400  1
  O  O45  1  0.37851300  0.16030400  0.90563400  1
  O  O46  1  0.18460100  0.00000000  0.09596200  1
  O  O47  1  0.19137300  0.00000000  0.58306200  1
