# generated using pymatgen
data_Li4Ti3VO8
_symmetry_space_group_name_H-M   'P 1'
_cell_length_a   6.10895300
_cell_length_b   4.13867100
_cell_length_c   6.90013008
_cell_angle_alpha   90.00000000
_cell_angle_beta   91.67832701
_cell_angle_gamma   90.00000000
_symmetry_Int_Tables_number   1
_chemical_formula_structural   Li4Ti3VO8
_chemical_formula_sum   'Li4 Ti3 V1 O8'
_cell_volume   174.38078095
_cell_formula_units_Z   1
loop_
 _symmetry_equiv_pos_site_id
 _symmetry_equiv_pos_as_xyz
  1  'x, y, z'
loop_
 _atom_site_type_symbol
 _atom_site_label
 _atom_site_symmetry_multiplicity
 _atom_site_fract_x
 _atom_site_fract_y
 _atom_site_fract_z
 _atom_site_occupancy
  Li  Li0  1  0.07757900  0.50000000  0.38300400  1
  Li  Li1  1  0.41916100  0.00000000  0.88572000  1
  Li  Li2  1  0.57785900  0.50000000  0.11571300  1
  Li  Li3  1  0.92674100  0.00000000  0.61401100  1
  Ti  Ti4  1  0.08571500  0.50000000  0.86782400  1
  Ti  Ti5  1  0.41783500  0.00000000  0.37819000  1
  Ti  Ti6  1  0.57960900  0.50000000  0.62550300  1
  V  V7  1  0.91240200  0.00000000  0.12916600  1
  O  O8  1  0.09105900  0.00000000  0.87103200  1
  O  O9  1  0.11012100  0.00000000  0.38425400  1
  O  O10  1  0.40075600  0.50000000  0.85221700  1
  O  O11  1  0.41920700  0.50000000  0.37530700  1
  O  O12  1  0.58590500  0.00000000  0.63134700  1
  O  O13  1  0.57334000  0.00000000  0.14510900  1
  O  O14  1  0.89816800  0.50000000  0.64024900  1
  O  O15  1  0.92454400  0.50000000  0.10135500  1
