# generated using pymatgen
data_CdCoO3
_symmetry_space_group_name_H-M   'P 1'
_cell_length_a   5.07720985
_cell_length_b   5.07720985
_cell_length_c   15.00778144
_cell_angle_alpha   90.00000000
_cell_angle_beta   90.00000000
_cell_angle_gamma   120.00000000
_symmetry_Int_Tables_number   1
_chemical_formula_structural   CdCoO3
_chemical_formula_sum   'Cd6 Co6 O18'
_cell_volume   335.04053742
_cell_formula_units_Z   6
loop_
 _symmetry_equiv_pos_site_id
 _symmetry_equiv_pos_as_xyz
  1  'x, y, z'
loop_
 _atom_site_type_symbol
 _atom_site_label
 _atom_site_symmetry_multiplicity
 _atom_site_fract_x
 _atom_site_fract_y
 _atom_site_fract_z
 _atom_site_occupancy
  Cd  Cd0  1  0.33333333  0.66666667  0.29963567  1
  Cd  Cd1  1  0.33333333  0.66666667  0.03369767  1
  Cd  Cd2  1  0.00000000  0.00000000  0.63296900  1
  Cd  Cd3  1  0.00000000  0.00000000  0.36703100  1
  Cd  Cd4  1  0.66666667  0.33333333  0.96630233  1
  Cd  Cd5  1  0.66666667  0.33333333  0.70036433  1
  Co  Co6  1  0.66666667  0.33333333  0.17040633  1
  Co  Co7  1  0.00000000  0.00000000  0.16292700  1
  Co  Co8  1  0.33333333  0.66666667  0.50373967  1
  Co  Co9  1  0.66666667  0.33333333  0.49626033  1
  Co  Co10  1  0.00000000  0.00000000  0.83707300  1
  Co  Co11  1  0.33333333  0.66666667  0.82959367  1
  O  O12  1  0.32208033  0.05304767  0.23654367  1
  O  O13  1  0.71971433  0.06430067  0.09678967  1
  O  O14  1  0.93569933  0.65541367  0.09678967  1
  O  O15  1  0.73096733  0.67791967  0.23654367  1
  O  O16  1  0.94695233  0.26903267  0.23654367  1
  O  O17  1  0.34458633  0.28028567  0.09678967  1
  O  O18  1  0.98874700  0.38638100  0.56987700  1
  O  O19  1  0.38638100  0.39763400  0.43012300  1
  O  O20  1  0.60236600  0.98874700  0.43012300  1
  O  O21  1  0.39763400  0.01125300  0.56987700  1
  O  O22  1  0.61361900  0.60236600  0.56987700  1
  O  O23  1  0.01125300  0.61361900  0.43012300  1
  O  O24  1  0.65541367  0.71971433  0.90321033  1
  O  O25  1  0.05304767  0.73096733  0.76345633  1
  O  O26  1  0.26903267  0.32208033  0.76345633  1
  O  O27  1  0.06430067  0.34458633  0.90321033  1
  O  O28  1  0.28028567  0.93569933  0.90321033  1
  O  O29  1  0.67791967  0.94695233  0.76345633  1
