# generated using pymatgen
data_Li(Bi3O5)4
_symmetry_space_group_name_H-M   'P 1'
_cell_length_a   10.16299400
_cell_length_b   10.16299400
_cell_length_c   10.16299400
_cell_angle_alpha   90.00000000
_cell_angle_beta   90.00000000
_cell_angle_gamma   90.00000000
_symmetry_Int_Tables_number   1
_chemical_formula_structural   Li(Bi3O5)4
_chemical_formula_sum   'Li2 Bi24 O40'
_cell_volume   1049.69954159
_cell_formula_units_Z   2
loop_
 _symmetry_equiv_pos_site_id
 _symmetry_equiv_pos_as_xyz
  1  'x, y, z'
loop_
 _atom_site_type_symbol
 _atom_site_label
 _atom_site_symmetry_multiplicity
 _atom_site_fract_x
 _atom_site_fract_y
 _atom_site_fract_z
 _atom_site_occupancy
  Li  Li0  1  0.00000000  0.00000000  0.00000000  1
  Li  Li1  1  0.50000000  0.50000000  0.50000000  1
  Bi  Bi2  1  0.81299100  0.49586900  0.32626600  1
  Bi  Bi3  1  0.99586900  0.17373400  0.68700900  1
  Bi  Bi4  1  0.00413100  0.17373400  0.31299100  1
  Bi  Bi5  1  0.17373400  0.31299100  0.00413100  1
  Bi  Bi6  1  0.17373400  0.68700900  0.99586900  1
  Bi  Bi7  1  0.18700900  0.50413100  0.32626600  1
  Bi  Bi8  1  0.31299100  0.00413100  0.17373400  1
  Bi  Bi9  1  0.32626600  0.18700900  0.50413100  1
  Bi  Bi10  1  0.32626600  0.81299100  0.49586900  1
  Bi  Bi11  1  0.49586900  0.32626600  0.81299100  1
  Bi  Bi12  1  0.50413100  0.32626600  0.18700900  1
  Bi  Bi13  1  0.68700900  0.99586900  0.17373400  1
  Bi  Bi14  1  0.31299100  0.99586900  0.82626600  1
  Bi  Bi15  1  0.49586900  0.67373400  0.18700900  1
  Bi  Bi16  1  0.50413100  0.67373400  0.81299100  1
  Bi  Bi17  1  0.67373400  0.81299100  0.50413100  1
  Bi  Bi18  1  0.67373400  0.18700900  0.49586900  1
  Bi  Bi19  1  0.68700900  0.00413100  0.82626600  1
  Bi  Bi20  1  0.81299100  0.50413100  0.67373400  1
  Bi  Bi21  1  0.82626600  0.68700900  0.00413100  1
  Bi  Bi22  1  0.82626600  0.31299100  0.99586900  1
  Bi  Bi23  1  0.99586900  0.82626600  0.31299100  1
  Bi  Bi24  1  0.00413100  0.82626600  0.68700900  1
  Bi  Bi25  1  0.18700900  0.49586900  0.67373400  1
  O  O26  1  0.68897200  0.31102800  0.31102800  1
  O  O27  1  0.87050900  0.24834100  0.50983700  1
  O  O28  1  0.88073750  0.11926250  0.11926250  1
  O  O29  1  0.99016300  0.37050900  0.25165900  1
  O  O30  1  0.00983700  0.62949100  0.25165900  1
  O  O31  1  0.11926250  0.88073750  0.11926250  1
  O  O32  1  0.11926250  0.11926250  0.88073750  1
  O  O33  1  0.12949100  0.24834100  0.49016300  1
  O  O34  1  0.18897200  0.18897200  0.18897200  1
  O  O35  1  0.25165900  0.99016300  0.37050900  1
  O  O36  1  0.25165900  0.00983700  0.62949100  1
  O  O37  1  0.24834100  0.50983700  0.87050900  1
  O  O38  1  0.24834100  0.49016300  0.12949100  1
  O  O39  1  0.31102800  0.68897200  0.31102800  1
  O  O40  1  0.31102800  0.31102800  0.68897200  1
  O  O41  1  0.37050900  0.25165900  0.99016300  1
  O  O42  1  0.38073750  0.38073750  0.38073750  1
  O  O43  1  0.49016300  0.12949100  0.24834100  1
  O  O44  1  0.50983700  0.87050900  0.24834100  1
  O  O45  1  0.62949100  0.25165900  0.00983700  1
  O  O46  1  0.18897200  0.81102800  0.81102800  1
  O  O47  1  0.37050900  0.74834100  0.00983700  1
  O  O48  1  0.38073750  0.61926250  0.61926250  1
  O  O49  1  0.49016300  0.87050900  0.75165900  1
  O  O50  1  0.50983700  0.12949100  0.75165900  1
  O  O51  1  0.61926250  0.38073750  0.61926250  1
  O  O52  1  0.61926250  0.61926250  0.38073750  1
  O  O53  1  0.62949100  0.74834100  0.99016300  1
  O  O54  1  0.68897200  0.68897200  0.68897200  1
  O  O55  1  0.75165900  0.49016300  0.87050900  1
  O  O56  1  0.75165900  0.50983700  0.12949100  1
  O  O57  1  0.74834100  0.00983700  0.37050900  1
  O  O58  1  0.74834100  0.99016300  0.62949100  1
  O  O59  1  0.81102800  0.18897200  0.81102800  1
  O  O60  1  0.81102800  0.81102800  0.18897200  1
  O  O61  1  0.87050900  0.75165900  0.49016300  1
  O  O62  1  0.88073750  0.88073750  0.88073750  1
  O  O63  1  0.99016300  0.62949100  0.74834100  1
  O  O64  1  0.00983700  0.37050900  0.74834100  1
  O  O65  1  0.12949100  0.75165900  0.50983700  1
