# generated using pymatgen
data_Li4Co5SnO12
_symmetry_space_group_name_H-M   'P 1'
_cell_length_a   4.99502000
_cell_length_b   8.66623400
_cell_length_c   9.83221364
_cell_angle_alpha   90.00000000
_cell_angle_beta   99.39547698
_cell_angle_gamma   90.00000000
_symmetry_Int_Tables_number   1
_chemical_formula_structural   Li4Co5SnO12
_chemical_formula_sum   'Li8 Co10 Sn2 O24'
_cell_volume   419.90735362
_cell_formula_units_Z   2
loop_
 _symmetry_equiv_pos_site_id
 _symmetry_equiv_pos_as_xyz
  1  'x, y, z'
loop_
 _atom_site_type_symbol
 _atom_site_label
 _atom_site_symmetry_multiplicity
 _atom_site_fract_x
 _atom_site_fract_y
 _atom_site_fract_z
 _atom_site_occupancy
  Li  Li0  1  0.08721750  0.66626250  0.25890600  1
  Li  Li1  1  0.91278250  0.66626250  0.74109400  1
  Li  Li2  1  0.58721750  0.83373750  0.25890600  1
  Li  Li3  1  0.41278250  0.83373750  0.74109400  1
  Li  Li4  1  0.58721750  0.16626250  0.25890600  1
  Li  Li5  1  0.41278250  0.16626250  0.74109400  1
  Li  Li6  1  0.08721750  0.33373750  0.25890600  1
  Li  Li7  1  0.91278250  0.33373750  0.74109400  1
  Co  Co8  1  0.00000000  0.83446700  0.50000000  1
  Co  Co9  1  0.50000000  0.83336900  0.00000000  1
  Co  Co10  1  0.00000000  0.66663100  0.00000000  1
  Co  Co11  1  0.50000000  0.66553300  0.50000000  1
  Co  Co12  1  0.50000000  0.00000000  0.50000000  1
  Co  Co13  1  0.50000000  0.33446700  0.50000000  1
  Co  Co14  1  0.00000000  0.33336900  0.00000000  1
  Co  Co15  1  0.50000000  0.16663100  0.00000000  1
  Co  Co16  1  0.00000000  0.16553300  0.50000000  1
  Co  Co17  1  0.00000000  0.50000000  0.50000000  1
  Sn  Sn18  1  0.00000000  0.00000000  0.00000000  1
  Sn  Sn19  1  0.50000000  0.50000000  0.00000000  1
  O  O20  1  0.14263400  0.82155600  0.88894500  1
  O  O21  1  0.85736600  0.82155600  0.11105500  1
  O  O22  1  0.19419500  0.66825200  0.60060100  1
  O  O23  1  0.69419500  0.83174800  0.60060100  1
  O  O24  1  0.80580500  0.66825200  0.39939900  1
  O  O25  1  0.79120100  0.00000000  0.39843900  1
  O  O26  1  0.30580500  0.83174800  0.39939900  1
  O  O27  1  0.64263400  0.67844400  0.88894500  1
  O  O28  1  0.60733200  0.00000000  0.88901500  1
  O  O29  1  0.35736600  0.67844400  0.11105500  1
  O  O30  1  0.39266800  0.00000000  0.11098500  1
  O  O31  1  0.20879900  0.00000000  0.60156100  1
  O  O32  1  0.64263400  0.32155600  0.88894500  1
  O  O33  1  0.35736600  0.32155600  0.11105500  1
  O  O34  1  0.69419500  0.16825200  0.60060100  1
  O  O35  1  0.19419500  0.33174800  0.60060100  1
  O  O36  1  0.30580500  0.16825200  0.39939900  1
  O  O37  1  0.29120100  0.50000000  0.39843900  1
  O  O38  1  0.80580500  0.33174800  0.39939900  1
  O  O39  1  0.14263400  0.17844400  0.88894500  1
  O  O40  1  0.10733200  0.50000000  0.88901500  1
  O  O41  1  0.85736600  0.17844400  0.11105500  1
  O  O42  1  0.89266800  0.50000000  0.11098500  1
  O  O43  1  0.70879900  0.50000000  0.60156100  1
