# generated using pymatgen
data_Mn5Ni(PO4)6
_symmetry_space_group_name_H-M   'P 1'
_cell_length_a   8.56368978
_cell_length_b   8.56368978
_cell_length_c   21.05543090
_cell_angle_alpha   90.00000000
_cell_angle_beta   90.00000000
_cell_angle_gamma   120.00000000
_symmetry_Int_Tables_number   1
_chemical_formula_structural   Mn5Ni(PO4)6
_chemical_formula_sum   'Mn15 Ni3 P18 O72'
_cell_volume   1337.26235356
_cell_formula_units_Z   3
loop_
 _symmetry_equiv_pos_site_id
 _symmetry_equiv_pos_as_xyz
  1  'x, y, z'
loop_
 _atom_site_type_symbol
 _atom_site_label
 _atom_site_symmetry_multiplicity
 _atom_site_fract_x
 _atom_site_fract_y
 _atom_site_fract_z
 _atom_site_occupancy
  Mn  Mn0  1  0.00000000  0.00000000  0.00350700  1
  Mn  Mn1  1  0.33333333  0.66666667  0.30980067  1
  Mn  Mn2  1  0.33333333  0.66666667  0.16742167  1
  Mn  Mn3  1  0.66666667  0.33333333  0.19022233  1
  Mn  Mn4  1  0.33333333  0.66666667  0.02295767  1
  Mn  Mn5  1  0.66666667  0.33333333  0.33684033  1
  Mn  Mn6  1  0.00000000  0.00000000  0.64313400  1
  Mn  Mn7  1  0.00000000  0.00000000  0.50075500  1
  Mn  Mn8  1  0.33333333  0.66666667  0.52355567  1
  Mn  Mn9  1  0.00000000  0.00000000  0.35629100  1
  Mn  Mn10  1  0.33333333  0.66666667  0.67017367  1
  Mn  Mn11  1  0.66666667  0.33333333  0.97646733  1
  Mn  Mn12  1  0.66666667  0.33333333  0.83408833  1
  Mn  Mn13  1  0.00000000  0.00000000  0.85688900  1
  Mn  Mn14  1  0.66666667  0.33333333  0.68962433  1
  Ni  Ni15  1  0.00000000  0.00000000  0.14286700  1
  Ni  Ni16  1  0.66666667  0.33333333  0.47620033  1
  Ni  Ni17  1  0.33333333  0.66666667  0.80953367  1
  P  P18  1  0.99913767  0.28976233  0.24991233  1
  P  P19  1  0.71023767  0.70937533  0.24991233  1
  P  P20  1  0.29062467  0.00086233  0.24991233  1
  P  P21  1  0.37845800  0.33352400  0.08203100  1
  P  P22  1  0.95506600  0.62154200  0.08203100  1
  P  P23  1  0.66647600  0.04493400  0.08203100  1
  P  P24  1  0.66580433  0.62309567  0.58324567  1
  P  P25  1  0.37690433  0.04270867  0.58324567  1
  P  P26  1  0.95729133  0.33419567  0.58324567  1
  P  P27  1  0.04512467  0.66685733  0.41536433  1
  P  P28  1  0.62173267  0.95487533  0.41536433  1
  P  P29  1  0.33314267  0.37826733  0.41536433  1
  P  P30  1  0.33247100  0.95642900  0.91657900  1
  P  P31  1  0.04357100  0.37604200  0.91657900  1
  P  P32  1  0.62395800  0.66752900  0.91657900  1
  P  P33  1  0.71179133  0.00019067  0.74869767  1
  P  P34  1  0.28839933  0.28820867  0.74869767  1
  P  P35  1  0.99980933  0.71160067  0.74869767  1
  O  O36  1  0.81013133  0.80072167  0.31200267  1
  O  O37  1  0.19927833  0.00940967  0.31200267  1
  O  O38  1  0.99059033  0.18986867  0.31200267  1
  O  O39  1  0.82797933  0.31332967  0.25602567  1
  O  O40  1  0.00733300  0.20534700  0.18895300  1
  O  O41  1  0.17121367  0.48560133  0.24803233  1
  O  O42  1  0.68667033  0.51464967  0.25602567  1
  O  O43  1  0.51439867  0.68561233  0.24803233  1
  O  O44  1  0.47685600  0.34153600  0.14422900  1
  O  O45  1  0.31438767  0.82878633  0.24803233  1
  O  O46  1  0.18943500  0.16809100  0.07611400  1
  O  O47  1  0.86468000  0.52314400  0.14422900  1
  O  O48  1  0.79465300  0.80198600  0.18895300  1
  O  O49  1  0.48535033  0.17202067  0.25602567  1
  O  O50  1  0.36267833  0.50968067  0.08682367  1
  O  O51  1  0.19801400  0.99266700  0.18895300  1
  O  O52  1  0.14700233  0.63732167  0.08682367  1
  O  O53  1  0.97865600  0.81056500  0.07611400  1
  O  O54  1  0.49031933  0.85299767  0.08682367  1
  O  O55  1  0.65846400  0.13532000  0.14422900  1
  O  O56  1  0.83190900  0.02134400  0.07611400  1
  O  O57  1  0.66832133  0.14577267  0.02139467  1
  O  O58  1  0.47745133  0.33167867  0.02139467  1
  O  O59  1  0.85422733  0.52254867  0.02139467  1
  O  O60  1  0.47679800  0.13405500  0.64533600  1
  O  O61  1  0.86594500  0.34274300  0.64533600  1
  O  O62  1  0.65725700  0.52320200  0.64533600  1
  O  O63  1  0.49464600  0.64666300  0.58935900  1
  O  O64  1  0.67399967  0.53868033  0.52228633  1
  O  O65  1  0.83788033  0.81893467  0.58136567  1
  O  O66  1  0.35333700  0.84798300  0.58935900  1
  O  O67  1  0.18106533  0.01894567  0.58136567  1
  O  O68  1  0.14352267  0.67486933  0.47756233  1
  O  O69  1  0.98105433  0.16211967  0.58136567  1
  O  O70  1  0.85610167  0.50142433  0.40944733  1
  O  O71  1  0.53134667  0.85647733  0.47756233  1
  O  O72  1  0.46131967  0.13531933  0.52228633  1
  O  O73  1  0.15201700  0.50535400  0.58935900  1
  O  O74  1  0.02934500  0.84301400  0.42015700  1
  O  O75  1  0.86468067  0.32600033  0.52228633  1
  O  O76  1  0.81366900  0.97065500  0.42015700  1
  O  O77  1  0.64532267  0.14389833  0.40944733  1
  O  O78  1  0.15698600  0.18633100  0.42015700  1
  O  O79  1  0.32513067  0.46865333  0.47756233  1
  O  O80  1  0.49857567  0.35467733  0.40944733  1
  O  O81  1  0.33498800  0.47910600  0.35472800  1
  O  O82  1  0.14411800  0.66501200  0.35472800  1
  O  O83  1  0.52089400  0.85588200  0.35472800  1
  O  O84  1  0.14346467  0.46738833  0.97866933  1
  O  O85  1  0.53261167  0.67607633  0.97866933  1
  O  O86  1  0.32392367  0.85653533  0.97866933  1
  O  O87  1  0.16131267  0.97999633  0.92269233  1
  O  O88  1  0.34066633  0.87201367  0.85561967  1
  O  O89  1  0.50454700  0.15226800  0.91469900  1
  O  O90  1  0.02000367  0.18131633  0.92269233  1
  O  O91  1  0.84773200  0.35227900  0.91469900  1
  O  O92  1  0.81018933  0.00820267  0.81089567  1
  O  O93  1  0.64772100  0.49545300  0.91469900  1
  O  O94  1  0.52276833  0.83475767  0.74278067  1
  O  O95  1  0.19801333  0.18981067  0.81089567  1
  O  O96  1  0.12798633  0.46865267  0.85561967  1
  O  O97  1  0.81868367  0.83868733  0.92269233  1
  O  O98  1  0.69601167  0.17634733  0.75349033  1
  O  O99  1  0.53134733  0.65933367  0.85561967  1
  O  O100  1  0.48033567  0.30398833  0.75349033  1
  O  O101  1  0.31198933  0.47723167  0.74278067  1
  O  O102  1  0.82365267  0.51966433  0.75349033  1
  O  O103  1  0.99179733  0.80198667  0.81089567  1
  O  O104  1  0.16524233  0.68801067  0.74278067  1
  O  O105  1  0.00165467  0.81243933  0.68806133  1
  O  O106  1  0.81078467  0.99834533  0.68806133  1
  O  O107  1  0.18756067  0.18921533  0.68806133  1
