# generated using pymatgen
data_Na2FeO3
_symmetry_space_group_name_H-M   'P 1'
_cell_length_a   5.36504835
_cell_length_b   9.31090100
_cell_length_c   5.77601303
_cell_angle_alpha   90.00000000
_cell_angle_beta   108.62103833
_cell_angle_gamma   90.00000000
_symmetry_Int_Tables_number   1
_chemical_formula_structural   Na2FeO3
_chemical_formula_sum   'Na8 Fe4 O12'
_cell_volume   273.42740689
_cell_formula_units_Z   4
loop_
 _symmetry_equiv_pos_site_id
 _symmetry_equiv_pos_as_xyz
  1  'x, y, z'
loop_
 _atom_site_type_symbol
 _atom_site_label
 _atom_site_symmetry_multiplicity
 _atom_site_fract_x
 _atom_site_fract_y
 _atom_site_fract_z
 _atom_site_occupancy
  Na  Na0  1  0.00000000  0.84138350  0.50000000  1
  Na  Na1  1  0.50000000  0.65861650  0.50000000  1
  Na  Na2  1  0.00000000  0.50000000  0.50000000  1
  Na  Na3  1  0.00000000  0.00000000  0.00000000  1
  Na  Na4  1  0.50000000  0.34138350  0.50000000  1
  Na  Na5  1  0.00000000  0.15861650  0.50000000  1
  Na  Na6  1  0.50000000  0.00000000  0.50000000  1
  Na  Na7  1  0.50000000  0.50000000  0.00000000  1
  Fe  Fe8  1  0.50000000  0.83337100  0.00000000  1
  Fe  Fe9  1  0.00000000  0.66662900  0.00000000  1
  Fe  Fe10  1  0.00000000  0.33337100  0.00000000  1
  Fe  Fe11  1  0.50000000  0.16662900  0.00000000  1
  O  O12  1  0.19199600  0.50000000  0.20500200  1
  O  O13  1  0.23865700  0.68926600  0.79758000  1
  O  O14  1  0.73865700  0.81073400  0.79758000  1
  O  O15  1  0.26134300  0.81073400  0.20242000  1
  O  O16  1  0.76134300  0.68926600  0.20242000  1
  O  O17  1  0.30800400  0.00000000  0.79499800  1
  O  O18  1  0.69199600  0.00000000  0.20500200  1
  O  O19  1  0.73865700  0.18926600  0.79758000  1
  O  O20  1  0.23865700  0.31073400  0.79758000  1
  O  O21  1  0.76134300  0.31073400  0.20242000  1
  O  O22  1  0.26134300  0.18926600  0.20242000  1
  O  O23  1  0.80800400  0.50000000  0.79499800  1
