# generated using pymatgen
data_LiAlFeO4
_symmetry_space_group_name_H-M   'P 1'
_cell_length_a   5.70518200
_cell_length_b   5.70518200
_cell_length_c   8.44437100
_cell_angle_alpha   90.00000000
_cell_angle_beta   90.00000000
_cell_angle_gamma   90.00000000
_symmetry_Int_Tables_number   1
_chemical_formula_structural   LiAlFeO4
_chemical_formula_sum   'Li4 Al4 Fe4 O16'
_cell_volume   274.85669008
_cell_formula_units_Z   4
loop_
 _symmetry_equiv_pos_site_id
 _symmetry_equiv_pos_as_xyz
  1  'x, y, z'
loop_
 _atom_site_type_symbol
 _atom_site_label
 _atom_site_symmetry_multiplicity
 _atom_site_fract_x
 _atom_site_fract_y
 _atom_site_fract_z
 _atom_site_occupancy
  Li  Li0  1  0.00000000  0.23328750  0.00000000  1
  Li  Li1  1  0.00000000  0.76671250  0.50000000  1
  Li  Li2  1  0.23328750  0.00000000  0.25000000  1
  Li  Li3  1  0.76671250  0.00000000  0.75000000  1
  Al  Al4  1  0.26312550  0.26312550  0.62500000  1
  Al  Al5  1  0.26312550  0.73687450  0.87500000  1
  Al  Al6  1  0.73687450  0.26312550  0.37500000  1
  Al  Al7  1  0.73687450  0.73687450  0.12500000  1
  Fe  Fe8  1  0.23203950  0.50000000  0.25000000  1
  Fe  Fe9  1  0.50000000  0.23203950  0.00000000  1
  Fe  Fe10  1  0.50000000  0.76796050  0.50000000  1
  Fe  Fe11  1  0.76796050  0.50000000  0.75000000  1
  O  O12  1  0.00172950  0.26497050  0.26066500  1
  O  O13  1  0.00172950  0.73502950  0.23933500  1
  O  O14  1  0.26497050  0.00172950  0.98933500  1
  O  O15  1  0.26497050  0.99827050  0.51066500  1
  O  O16  1  0.26432550  0.48601850  0.00649600  1
  O  O17  1  0.26432550  0.51398150  0.49350400  1
  O  O18  1  0.48601850  0.26432550  0.24350400  1
  O  O19  1  0.48601850  0.73567450  0.25649600  1
  O  O20  1  0.51398150  0.26432550  0.75649600  1
  O  O21  1  0.51398150  0.73567450  0.74350400  1
  O  O22  1  0.73567450  0.51398150  0.50649600  1
  O  O23  1  0.73567450  0.48601850  0.99350400  1
  O  O24  1  0.73502950  0.00172950  0.01066500  1
  O  O25  1  0.73502950  0.99827050  0.48933500  1
  O  O26  1  0.99827050  0.26497050  0.73933500  1
  O  O27  1  0.99827050  0.73502950  0.76066500  1
