# generated using pymatgen
data_V5CoO12
_symmetry_space_group_name_H-M   'P 1'
_cell_length_a   10.06877700
_cell_length_b   9.12895918
_cell_length_c   5.85730805
_cell_angle_alpha   90.00000000
_cell_angle_beta   110.19500690
_cell_angle_gamma   90.00000000
_symmetry_Int_Tables_number   1
_chemical_formula_structural   V5CoO12
_chemical_formula_sum   'V10 Co2 O24'
_cell_volume   505.29037318
_cell_formula_units_Z   2
loop_
 _symmetry_equiv_pos_site_id
 _symmetry_equiv_pos_as_xyz
  1  'x, y, z'
loop_
 _atom_site_type_symbol
 _atom_site_label
 _atom_site_symmetry_multiplicity
 _atom_site_fract_x
 _atom_site_fract_y
 _atom_site_fract_z
 _atom_site_occupancy
  V  V0  1  0.20303000  0.59209400  0.49191900  1
  V  V1  1  0.20175150  0.40719050  0.98695400  1
  V  V2  1  0.79697000  0.59209400  0.50808100  1
  V  V3  1  0.79824850  0.40719050  0.01304600  1
  V  V4  1  0.00000000  0.08317200  0.00000000  1
  V  V5  1  0.70303000  0.09209400  0.49191900  1
  V  V6  1  0.70175150  0.90719050  0.98695400  1
  V  V7  1  0.29697000  0.09209400  0.50808100  1
  V  V8  1  0.29824850  0.90719050  0.01304600  1
  V  V9  1  0.50000000  0.58317200  0.00000000  1
  Co  Co10  1  0.00000000  0.91227000  0.50000000  1
  Co  Co11  1  0.50000000  0.41227000  0.50000000  1
  O  O12  1  0.38652650  0.57759450  0.61794600  1
  O  O13  1  0.14508150  0.76656450  0.47212200  1
  O  O14  1  0.38720550  0.42315150  0.10025500  1
  O  O15  1  0.13454300  0.49403400  0.69012200  1
  O  O16  1  0.85491850  0.76656450  0.52787800  1
  O  O17  1  0.14249950  0.50978650  0.19827100  1
  O  O18  1  0.86545700  0.49403400  0.30987800  1
  O  O19  1  0.13566200  0.23186300  0.96547200  1
  O  O20  1  0.85750050  0.50978650  0.80172900  1
  O  O21  1  0.61347350  0.57759450  0.38205400  1
  O  O22  1  0.86433800  0.23186300  0.03452800  1
  O  O23  1  0.61279450  0.42315150  0.89974500  1
  O  O24  1  0.88652650  0.07759450  0.61794600  1
  O  O25  1  0.64508150  0.26656450  0.47212200  1
  O  O26  1  0.88720550  0.92315150  0.10025500  1
  O  O27  1  0.63454300  0.99403400  0.69012200  1
  O  O28  1  0.35491850  0.26656450  0.52787800  1
  O  O29  1  0.64249950  0.00978650  0.19827100  1
  O  O30  1  0.36545700  0.99403400  0.30987800  1
  O  O31  1  0.63566200  0.73186300  0.96547200  1
  O  O32  1  0.35750050  0.00978650  0.80172900  1
  O  O33  1  0.11347350  0.07759450  0.38205400  1
  O  O34  1  0.36433800  0.73186300  0.03452800  1
  O  O35  1  0.11279450  0.92315150  0.89974500  1
