# generated using pymatgen
data_Ti5Nb2O14
_symmetry_space_group_name_H-M   'P 1'
_cell_length_a   6.65841000
_cell_length_b   6.72443600
_cell_length_c   21.06625400
_cell_angle_alpha   90.00000000
_cell_angle_beta   90.00000000
_cell_angle_gamma   90.00000000
_symmetry_Int_Tables_number   1
_chemical_formula_structural   Ti5Nb2O14
_chemical_formula_sum   'Ti20 Nb8 O56'
_cell_volume   943.22155008
_cell_formula_units_Z   4
loop_
 _symmetry_equiv_pos_site_id
 _symmetry_equiv_pos_as_xyz
  1  'x, y, z'
loop_
 _atom_site_type_symbol
 _atom_site_label
 _atom_site_symmetry_multiplicity
 _atom_site_fract_x
 _atom_site_fract_y
 _atom_site_fract_z
 _atom_site_occupancy
  Ti  Ti0  1  0.00000000  0.00000000  0.93028700  1
  Ti  Ti1  1  0.00000000  0.00000000  0.78460900  1
  Ti  Ti2  1  0.00000000  0.00000000  0.64550100  1
  Ti  Ti3  1  0.00000000  0.00000000  0.06971300  1
  Ti  Ti4  1  0.00000000  0.00000000  0.21539100  1
  Ti  Ti5  1  0.00000000  0.00000000  0.35449900  1
  Ti  Ti6  1  0.00000000  0.00000000  0.50000000  1
  Ti  Ti7  1  0.50000000  0.00000000  0.00000000  1
  Ti  Ti8  1  0.50000000  0.00000000  0.71552400  1
  Ti  Ti9  1  0.50000000  0.00000000  0.28447600  1
  Ti  Ti10  1  0.50000000  0.50000000  0.93028700  1
  Ti  Ti11  1  0.50000000  0.50000000  0.78460900  1
  Ti  Ti12  1  0.50000000  0.50000000  0.64550100  1
  Ti  Ti13  1  0.50000000  0.50000000  0.06971300  1
  Ti  Ti14  1  0.50000000  0.50000000  0.21539100  1
  Ti  Ti15  1  0.50000000  0.50000000  0.35449900  1
  Ti  Ti16  1  0.50000000  0.50000000  0.50000000  1
  Ti  Ti17  1  0.00000000  0.50000000  0.00000000  1
  Ti  Ti18  1  0.00000000  0.50000000  0.71552400  1
  Ti  Ti19  1  0.00000000  0.50000000  0.28447600  1
  Nb  Nb20  1  0.50000000  0.00000000  0.14261700  1
  Nb  Nb21  1  0.50000000  0.00000000  0.42612100  1
  Nb  Nb22  1  0.50000000  0.00000000  0.85738300  1
  Nb  Nb23  1  0.50000000  0.00000000  0.57387900  1
  Nb  Nb24  1  0.00000000  0.50000000  0.14261700  1
  Nb  Nb25  1  0.00000000  0.50000000  0.42612100  1
  Nb  Nb26  1  0.00000000  0.50000000  0.85738300  1
  Nb  Nb27  1  0.00000000  0.50000000  0.57387900  1
  O  O28  1  0.19491800  0.00000000  0.00000000  1
  O  O29  1  0.19530000  0.00000000  0.71419900  1
  O  O30  1  0.19308400  0.00000000  0.85715600  1
  O  O31  1  0.19308400  0.00000000  0.14284400  1
  O  O32  1  0.19530000  0.00000000  0.28580100  1
  O  O33  1  0.19366400  0.00000000  0.42869100  1
  O  O34  1  0.19366400  0.00000000  0.57130900  1
  O  O35  1  0.50000000  0.80064100  0.64397200  1
  O  O36  1  0.50000000  0.80138100  0.78481300  1
  O  O37  1  0.50000000  0.80190300  0.07040000  1
  O  O38  1  0.50000000  0.80138100  0.21518700  1
  O  O39  1  0.50000000  0.80064100  0.35602800  1
  O  O40  1  0.50000000  0.80190300  0.92960000  1
  O  O41  1  0.50000000  0.79930700  0.50000000  1
  O  O42  1  0.50000000  0.19935900  0.64397200  1
  O  O43  1  0.50000000  0.19861900  0.78481300  1
  O  O44  1  0.50000000  0.19809700  0.92960000  1
  O  O45  1  0.50000000  0.19809700  0.07040000  1
  O  O46  1  0.50000000  0.19935900  0.35602800  1
  O  O47  1  0.50000000  0.20069300  0.50000000  1
  O  O48  1  0.50000000  0.19861900  0.21518700  1
  O  O49  1  0.80470000  0.00000000  0.71419900  1
  O  O50  1  0.80691600  0.00000000  0.85715600  1
  O  O51  1  0.80508200  0.00000000  0.00000000  1
  O  O52  1  0.80691600  0.00000000  0.14284400  1
  O  O53  1  0.80470000  0.00000000  0.28580100  1
  O  O54  1  0.80633600  0.00000000  0.42869100  1
  O  O55  1  0.80633600  0.00000000  0.57130900  1
  O  O56  1  0.69491800  0.50000000  0.00000000  1
  O  O57  1  0.69530000  0.50000000  0.71419900  1
  O  O58  1  0.69308400  0.50000000  0.85715600  1
  O  O59  1  0.69308400  0.50000000  0.14284400  1
  O  O60  1  0.69530000  0.50000000  0.28580100  1
  O  O61  1  0.69366400  0.50000000  0.42869100  1
  O  O62  1  0.69366400  0.50000000  0.57130900  1
  O  O63  1  0.00000000  0.30064100  0.64397200  1
  O  O64  1  0.00000000  0.30138100  0.78481300  1
  O  O65  1  0.00000000  0.30190300  0.07040000  1
  O  O66  1  0.00000000  0.30138100  0.21518700  1
  O  O67  1  0.00000000  0.30064100  0.35602800  1
  O  O68  1  0.00000000  0.30190300  0.92960000  1
  O  O69  1  0.00000000  0.29930700  0.50000000  1
  O  O70  1  0.00000000  0.69935900  0.64397200  1
  O  O71  1  0.00000000  0.69861900  0.78481300  1
  O  O72  1  0.00000000  0.69809700  0.92960000  1
  O  O73  1  0.00000000  0.69809700  0.07040000  1
  O  O74  1  0.00000000  0.69935900  0.35602800  1
  O  O75  1  0.00000000  0.70069300  0.50000000  1
  O  O76  1  0.00000000  0.69861900  0.21518700  1
  O  O77  1  0.30470000  0.50000000  0.71419900  1
  O  O78  1  0.30691600  0.50000000  0.85715600  1
  O  O79  1  0.30508200  0.50000000  0.00000000  1
  O  O80  1  0.30691600  0.50000000  0.14284400  1
  O  O81  1  0.30470000  0.50000000  0.28580100  1
  O  O82  1  0.30633600  0.50000000  0.42869100  1
  O  O83  1  0.30633600  0.50000000  0.57130900  1
