# generated using pymatgen
data_Mn2VO4
_symmetry_space_group_name_H-M   'P 1'
_cell_length_a   6.14394779
_cell_length_b   6.14394779
_cell_length_c   15.18617607
_cell_angle_alpha   90.00000000
_cell_angle_beta   90.00000000
_cell_angle_gamma   120.00000000
_symmetry_Int_Tables_number   1
_chemical_formula_structural   Mn2VO4
_chemical_formula_sum   'Mn12 V6 O24'
_cell_volume   496.44837729
_cell_formula_units_Z   6
loop_
 _symmetry_equiv_pos_site_id
 _symmetry_equiv_pos_as_xyz
  1  'x, y, z'
loop_
 _atom_site_type_symbol
 _atom_site_label
 _atom_site_symmetry_multiplicity
 _atom_site_fract_x
 _atom_site_fract_y
 _atom_site_fract_z
 _atom_site_occupancy
  Mn  Mn0  1  0.16779067  0.83220933  0.20891833  1
  Mn  Mn1  1  0.66666667  0.33333333  0.07842633  1
  Mn  Mn2  1  0.16779067  0.33558133  0.20891833  1
  Mn  Mn3  1  0.66441867  0.83220933  0.20891833  1
  Mn  Mn4  1  0.83445733  0.16554267  0.54225167  1
  Mn  Mn5  1  0.33333333  0.66666667  0.41175967  1
  Mn  Mn6  1  0.83445733  0.66891467  0.54225167  1
  Mn  Mn7  1  0.33108533  0.16554267  0.54225167  1
  Mn  Mn8  1  0.50112400  0.49887600  0.87558500  1
  Mn  Mn9  1  0.00000000  0.00000000  0.74509300  1
  Mn  Mn10  1  0.50112400  0.00224800  0.87558500  1
  Mn  Mn11  1  0.99775200  0.49887600  0.87558500  1
  V  V12  1  0.33333333  0.66666667  0.04538967  1
  V  V13  1  0.00000000  0.00000000  0.00579400  1
  V  V14  1  0.00000000  0.00000000  0.37872300  1
  V  V15  1  0.66666667  0.33333333  0.33912733  1
  V  V16  1  0.66666667  0.33333333  0.71205633  1
  V  V17  1  0.33333333  0.66666667  0.67246067  1
  O  O18  1  0.03515267  0.51757633  0.11857833  1
  O  O19  1  0.48242367  0.96484733  0.11857833  1
  O  O20  1  0.00000000  0.00000000  0.13316800  1
  O  O21  1  0.84093567  0.68187133  0.29758733  1
  O  O22  1  0.84093567  0.15906433  0.29758733  1
  O  O23  1  0.31812867  0.15906433  0.29758733  1
  O  O24  1  0.48242367  0.51757633  0.11857833  1
  O  O25  1  0.33333333  0.66666667  0.27864467  1
  O  O26  1  0.70181933  0.85090967  0.45191167  1
  O  O27  1  0.14909033  0.29818067  0.45191167  1
  O  O28  1  0.66666667  0.33333333  0.46650133  1
  O  O29  1  0.50760233  0.01520467  0.63092067  1
  O  O30  1  0.50760233  0.49239767  0.63092067  1
  O  O31  1  0.98479533  0.49239767  0.63092067  1
  O  O32  1  0.14909033  0.85090967  0.45191167  1
  O  O33  1  0.00000000  0.00000000  0.61197800  1
  O  O34  1  0.36848600  0.18424300  0.78524500  1
  O  O35  1  0.81575700  0.63151400  0.78524500  1
  O  O36  1  0.33333333  0.66666667  0.79983467  1
  O  O37  1  0.17426900  0.34853800  0.96425400  1
  O  O38  1  0.17426900  0.82573100  0.96425400  1
  O  O39  1  0.65146200  0.82573100  0.96425400  1
  O  O40  1  0.81575700  0.18424300  0.78524500  1
  O  O41  1  0.66666667  0.33333333  0.94531133  1
