# generated using pymatgen
data_V3Fe(PO4)6
_symmetry_space_group_name_H-M   'P 1'
_cell_length_a   8.54121829
_cell_length_b   8.54121829
_cell_length_c   21.69683784
_cell_angle_alpha   90.00000000
_cell_angle_beta   90.00000000
_cell_angle_gamma   120.00000000
_symmetry_Int_Tables_number   1
_chemical_formula_structural   V3Fe(PO4)6
_chemical_formula_sum   'V9 Fe3 P18 O72'
_cell_volume   1370.77671141
_cell_formula_units_Z   3
loop_
 _symmetry_equiv_pos_site_id
 _symmetry_equiv_pos_as_xyz
  1  'x, y, z'
loop_
 _atom_site_type_symbol
 _atom_site_label
 _atom_site_symmetry_multiplicity
 _atom_site_fract_x
 _atom_site_fract_y
 _atom_site_fract_z
 _atom_site_occupancy
  V  V0  1  0.66666667  0.33333333  0.19344733  1
  V  V1  1  0.33333333  0.66666667  0.30747667  1
  V  V2  1  0.33333333  0.66666667  0.02770267  1
  V  V3  1  0.33333333  0.66666667  0.52678067  1
  V  V4  1  0.00000000  0.00000000  0.64081000  1
  V  V5  1  0.00000000  0.00000000  0.36103600  1
  V  V6  1  0.00000000  0.00000000  0.86011400  1
  V  V7  1  0.66666667  0.33333333  0.97414333  1
  V  V8  1  0.66666667  0.33333333  0.69436933  1
  Fe  Fe9  1  0.00000000  0.00000000  0.14066900  1
  Fe  Fe10  1  0.66666667  0.33333333  0.47400233  1
  Fe  Fe11  1  0.33333333  0.66666667  0.80733567  1
  P  P12  1  0.99986200  0.28259300  0.25020500  1
  P  P13  1  0.71740700  0.71726900  0.25020500  1
  P  P14  1  0.28273100  0.00013800  0.25020500  1
  P  P15  1  0.38546233  0.33351567  0.08315767  1
  P  P16  1  0.94805333  0.61453767  0.08315767  1
  P  P17  1  0.66648433  0.05194667  0.08315767  1
  P  P18  1  0.66652867  0.61592633  0.58353833  1
  P  P19  1  0.38407367  0.05060233  0.58353833  1
  P  P20  1  0.94939767  0.33347133  0.58353833  1
  P  P21  1  0.05212900  0.66684900  0.41649100  1
  P  P22  1  0.61472000  0.94787100  0.41649100  1
  P  P23  1  0.33315100  0.38528000  0.41649100  1
  P  P24  1  0.33319533  0.94925967  0.91687167  1
  P  P25  1  0.05074033  0.38393567  0.91687167  1
  P  P26  1  0.61606433  0.66680467  0.91687167  1
  P  P27  1  0.71879567  0.00018233  0.74982433  1
  P  P28  1  0.28138667  0.28120433  0.74982433  1
  P  P29  1  0.99981767  0.71861333  0.74982433  1
  O  O30  1  0.68446700  0.16438300  0.02538700  1
  O  O31  1  0.47991600  0.31553300  0.02538700  1
  O  O32  1  0.83065600  0.30618700  0.24269000  1
  O  O33  1  0.83561700  0.52008400  0.02538700  1
  O  O34  1  0.16347967  0.47648733  0.26023433  1
  O  O35  1  0.03501633  0.20823167  0.19233067  1
  O  O36  1  0.69381300  0.52446900  0.24269000  1
  O  O37  1  0.52351267  0.68699233  0.26023433  1
  O  O38  1  0.31300767  0.83652033  0.26023433  1
  O  O39  1  0.50347933  0.36633267  0.14125067  1
  O  O40  1  0.19990400  0.17021900  0.08724100  1
  O  O41  1  0.86285333  0.49652067  0.14125067  1
  O  O42  1  0.79176833  0.82678467  0.19233067  1
  O  O43  1  0.47553100  0.16934400  0.24269000  1
  O  O44  1  0.17321533  0.96498367  0.19233067  1
  O  O45  1  0.36934267  0.50771233  0.07506433  1
  O  O46  1  0.13836967  0.63065733  0.07506433  1
  O  O47  1  0.97031500  0.80009600  0.08724100  1
  O  O48  1  0.63366733  0.13714667  0.14125067  1
  O  O49  1  0.49228767  0.86163033  0.07506433  1
  O  O50  1  0.83338267  0.80267733  0.30823033  1
  O  O51  1  0.82978100  0.02968500  0.08724100  1
  O  O52  1  0.19732267  0.03070533  0.30823033  1
  O  O53  1  0.96929467  0.16661733  0.30823033  1
  O  O54  1  0.35113367  0.49771633  0.35872033  1
  O  O55  1  0.14658267  0.64886633  0.35872033  1
  O  O56  1  0.49732267  0.63952033  0.57602333  1
  O  O57  1  0.50228367  0.85341733  0.35872033  1
  O  O58  1  0.83014633  0.80982067  0.59356767  1
  O  O59  1  0.70168300  0.54156500  0.52566400  1
  O  O60  1  0.36047967  0.85780233  0.57602333  1
  O  O61  1  0.19017933  0.02032567  0.59356767  1
  O  O62  1  0.97967433  0.16985367  0.59356767  1
  O  O63  1  0.17014600  0.69966600  0.47458400  1
  O  O64  1  0.86657067  0.50355233  0.42057433  1
  O  O65  1  0.52952000  0.82985400  0.47458400  1
  O  O66  1  0.45843500  0.16011800  0.52566400  1
  O  O67  1  0.14219767  0.50267733  0.57602333  1
  O  O68  1  0.83988200  0.29831700  0.52566400  1
  O  O69  1  0.03600933  0.84104567  0.40839767  1
  O  O70  1  0.80503633  0.96399067  0.40839767  1
  O  O71  1  0.63698167  0.13342933  0.42057433  1
  O  O72  1  0.30033400  0.47048000  0.47458400  1
  O  O73  1  0.15895433  0.19496367  0.40839767  1
  O  O74  1  0.50004933  0.13601067  0.64156367  1
  O  O75  1  0.49644767  0.36301833  0.42057433  1
  O  O76  1  0.86398933  0.36403867  0.64156367  1
  O  O77  1  0.63596133  0.49995067  0.64156367  1
  O  O78  1  0.01780033  0.83104967  0.69205367  1
  O  O79  1  0.81324933  0.98219967  0.69205367  1
  O  O80  1  0.16398933  0.97285367  0.90935667  1
  O  O81  1  0.16895033  0.18675067  0.69205367  1
  O  O82  1  0.49681300  0.14315400  0.92690100  1
  O  O83  1  0.36834967  0.87489833  0.85899733  1
  O  O84  1  0.02714633  0.19113567  0.90935667  1
  O  O85  1  0.85684600  0.35365900  0.92690100  1
  O  O86  1  0.64634100  0.50318700  0.92690100  1
  O  O87  1  0.83681267  0.03299933  0.80791733  1
  O  O88  1  0.53323733  0.83688567  0.75390767  1
  O  O89  1  0.19618667  0.16318733  0.80791733  1
  O  O90  1  0.12510167  0.49345133  0.85899733  1
  O  O91  1  0.80886433  0.83601067  0.90935667  1
  O  O92  1  0.50654867  0.63165033  0.85899733  1
  O  O93  1  0.70267600  0.17437900  0.74173100  1
  O  O94  1  0.47170300  0.29732400  0.74173100  1
  O  O95  1  0.30364833  0.46676267  0.75390767  1
  O  O96  1  0.96700067  0.80381333  0.80791733  1
  O  O97  1  0.82562100  0.52829700  0.74173100  1
  O  O98  1  0.16671600  0.46934400  0.97489700  1
  O  O99  1  0.16311433  0.69635167  0.75390767  1
  O  O100  1  0.53065600  0.69737200  0.97489700  1
  O  O101  1  0.30262800  0.83328400  0.97489700  1
