# generated using pymatgen
data_Mn6OF11
_symmetry_space_group_name_H-M   'P 1'
_cell_length_a   6.85924200
_cell_length_b   7.02948400
_cell_length_c   9.97718600
_cell_angle_alpha   90.00000000
_cell_angle_beta   90.00000000
_cell_angle_gamma   90.00000000
_symmetry_Int_Tables_number   1
_chemical_formula_structural   Mn6OF11
_chemical_formula_sum   'Mn12 O2 F22'
_cell_volume   481.06929783
_cell_formula_units_Z   2
loop_
 _symmetry_equiv_pos_site_id
 _symmetry_equiv_pos_as_xyz
  1  'x, y, z'
loop_
 _atom_site_type_symbol
 _atom_site_label
 _atom_site_symmetry_multiplicity
 _atom_site_fract_x
 _atom_site_fract_y
 _atom_site_fract_z
 _atom_site_occupancy
  Mn  Mn0  1  0.01119800  0.00000000  0.65631000  1
  Mn  Mn1  1  0.01119800  0.00000000  0.34369000  1
  Mn  Mn2  1  0.99980100  0.00000000  0.00000000  1
  Mn  Mn3  1  0.50407500  0.00000000  0.83138600  1
  Mn  Mn4  1  0.47728900  0.00000000  0.50000000  1
  Mn  Mn5  1  0.50407500  0.00000000  0.16861400  1
  Mn  Mn6  1  0.51119800  0.50000000  0.65631000  1
  Mn  Mn7  1  0.51119800  0.50000000  0.34369000  1
  Mn  Mn8  1  0.49980100  0.50000000  0.00000000  1
  Mn  Mn9  1  0.00407500  0.50000000  0.83138600  1
  Mn  Mn10  1  0.97728900  0.50000000  0.50000000  1
  Mn  Mn11  1  0.00407500  0.50000000  0.16861400  1
  O  O12  1  0.20163100  0.00000000  0.50000000  1
  O  O13  1  0.70163100  0.50000000  0.50000000  1
  F  F14  1  0.19685000  0.00000000  0.16733500  1
  F  F15  1  0.19685000  0.00000000  0.83266500  1
  F  F16  1  0.49585750  0.19371750  0.66283800  1
  F  F17  1  0.49585750  0.19371750  0.33716200  1
  F  F18  1  0.50338850  0.19459450  0.00000000  1
  F  F19  1  0.49585750  0.80628250  0.66283800  1
  F  F20  1  0.49585750  0.80628250  0.33716200  1
  F  F21  1  0.50338850  0.80540550  0.00000000  1
  F  F22  1  0.78251100  0.00000000  0.50000000  1
  F  F23  1  0.81215700  0.00000000  0.17477000  1
  F  F24  1  0.81215700  0.00000000  0.82523000  1
  F  F25  1  0.69685000  0.50000000  0.16733500  1
  F  F26  1  0.69685000  0.50000000  0.83266500  1
  F  F27  1  0.99585750  0.69371750  0.66283800  1
  F  F28  1  0.99585750  0.69371750  0.33716200  1
  F  F29  1  0.00338850  0.69459450  0.00000000  1
  F  F30  1  0.99585750  0.30628250  0.66283800  1
  F  F31  1  0.99585750  0.30628250  0.33716200  1
  F  F32  1  0.00338850  0.30540550  0.00000000  1
  F  F33  1  0.28251100  0.50000000  0.50000000  1
  F  F34  1  0.31215700  0.50000000  0.17477000  1
  F  F35  1  0.31215700  0.50000000  0.82523000  1
