# generated using pymatgen
data_Li3MnF6
_symmetry_space_group_name_H-M   'P 1'
_cell_length_a   14.74580600
_cell_length_b   8.71923600
_cell_length_c   10.39441800
_cell_angle_alpha   90.00000000
_cell_angle_beta   97.51688634
_cell_angle_gamma   90.00000000
_symmetry_Int_Tables_number   1
_chemical_formula_structural   Li3MnF6
_chemical_formula_sum   'Li36 Mn12 F72'
_cell_volume   1324.94796345
_cell_formula_units_Z   12
loop_
 _symmetry_equiv_pos_site_id
 _symmetry_equiv_pos_as_xyz
  1  'x, y, z'
loop_
 _atom_site_type_symbol
 _atom_site_label
 _atom_site_symmetry_multiplicity
 _atom_site_fract_x
 _atom_site_fract_y
 _atom_site_fract_z
 _atom_site_occupancy
  Li  Li0  1  0.19928350  0.85811050  0.93057500  1
  Li  Li1  1  0.19928350  0.14188950  0.43057500  1
  Li  Li2  1  0.33307800  0.19117300  0.95153000  1
  Li  Li3  1  0.33307800  0.80882700  0.45153000  1
  Li  Li4  1  0.36102900  0.64693100  0.72231200  1
  Li  Li5  1  0.36102900  0.35306900  0.22231200  1
  Li  Li6  1  0.47455750  0.85454950  0.96704300  1
  Li  Li7  1  0.47455750  0.14545050  0.46704300  1
  Li  Li8  1  0.50000000  0.30227500  0.75000000  1
  Li  Li9  1  0.50000000  0.69772500  0.25000000  1
  Li  Li10  1  0.52544250  0.85454950  0.53295700  1
  Li  Li11  1  0.52544250  0.14545050  0.03295700  1
  Li  Li12  1  0.63897100  0.64693100  0.77768800  1
  Li  Li13  1  0.63897100  0.35306900  0.27768800  1
  Li  Li14  1  0.66692200  0.19117300  0.54847000  1
  Li  Li15  1  0.66692200  0.80882700  0.04847000  1
  Li  Li16  1  0.80071650  0.85811050  0.56942500  1
  Li  Li17  1  0.80071650  0.14188950  0.06942500  1
  Li  Li18  1  0.69928350  0.35811050  0.93057500  1
  Li  Li19  1  0.69928350  0.64188950  0.43057500  1
  Li  Li20  1  0.83307800  0.69117300  0.95153000  1
  Li  Li21  1  0.83307800  0.30882700  0.45153000  1
  Li  Li22  1  0.86102900  0.14693100  0.72231200  1
  Li  Li23  1  0.86102900  0.85306900  0.22231200  1
  Li  Li24  1  0.97455750  0.35454950  0.96704300  1
  Li  Li25  1  0.97455750  0.64545050  0.46704300  1
  Li  Li26  1  0.00000000  0.80227500  0.75000000  1
  Li  Li27  1  0.00000000  0.19772500  0.25000000  1
  Li  Li28  1  0.02544250  0.35454950  0.53295700  1
  Li  Li29  1  0.02544250  0.64545050  0.03295700  1
  Li  Li30  1  0.13897100  0.14693100  0.77768800  1
  Li  Li31  1  0.13897100  0.85306900  0.27768800  1
  Li  Li32  1  0.16692200  0.69117300  0.54847000  1
  Li  Li33  1  0.16692200  0.30882700  0.04847000  1
  Li  Li34  1  0.30071650  0.35811050  0.56942500  1
  Li  Li35  1  0.30071650  0.64188950  0.06942500  1
  Mn  Mn36  1  0.33505500  0.00159400  0.70309400  1
  Mn  Mn37  1  0.33505500  0.99840600  0.20309400  1
  Mn  Mn38  1  0.00000000  0.00000000  0.50000000  1
  Mn  Mn39  1  0.00000000  0.00000000  0.00000000  1
  Mn  Mn40  1  0.66494500  0.00159400  0.79690600  1
  Mn  Mn41  1  0.66494500  0.99840600  0.29690600  1
  Mn  Mn42  1  0.83505500  0.50159400  0.70309400  1
  Mn  Mn43  1  0.83505500  0.49840600  0.20309400  1
  Mn  Mn44  1  0.50000000  0.50000000  0.50000000  1
  Mn  Mn45  1  0.50000000  0.50000000  0.00000000  1
  Mn  Mn46  1  0.16494500  0.50159400  0.79690600  1
  Mn  Mn47  1  0.16494500  0.49840600  0.29690600  1
  F  F48  1  0.07047800  0.99580700  0.66367600  1
  F  F49  1  0.07047800  0.00419300  0.16367600  1
  F  F50  1  0.24253350  0.02531150  0.84569900  1
  F  F51  1  0.26014650  0.15375850  0.60764200  1
  F  F52  1  0.24253350  0.97468850  0.34569900  1
  F  F53  1  0.26726050  0.84148850  0.61106600  1
  F  F54  1  0.26014650  0.84624150  0.10764200  1
  F  F55  1  0.26726050  0.15851150  0.11106600  1
  F  F56  1  0.39845050  0.84273250  0.80271400  1
  F  F57  1  0.40327050  0.15668750  0.80072500  1
  F  F58  1  0.39845050  0.15726750  0.30271400  1
  F  F59  1  0.40327050  0.84331250  0.30072500  1
  F  F60  1  0.41936400  0.98096600  0.55482200  1
  F  F61  1  0.42451650  0.66120450  0.56021900  1
  F  F62  1  0.42689050  0.32020850  0.57011000  1
  F  F63  1  0.41936400  0.01903400  0.05482200  1
  F  F64  1  0.42451650  0.33879550  0.06021900  1
  F  F65  1  0.42689050  0.67979150  0.07011000  1
  F  F66  1  0.57310950  0.32020850  0.92989000  1
  F  F67  1  0.57548350  0.66120450  0.93978100  1
  F  F68  1  0.58063600  0.98096600  0.94517800  1
  F  F69  1  0.57310950  0.67979150  0.42989000  1
  F  F70  1  0.57548350  0.33879550  0.43978100  1
  F  F71  1  0.58063600  0.01903400  0.44517800  1
  F  F72  1  0.59672950  0.15668750  0.69927500  1
  F  F73  1  0.60154950  0.84273250  0.69728600  1
  F  F74  1  0.59672950  0.84331250  0.19927500  1
  F  F75  1  0.60154950  0.15726750  0.19728600  1
  F  F76  1  0.73273950  0.84148850  0.88893400  1
  F  F77  1  0.73985350  0.15375850  0.89235800  1
  F  F78  1  0.73273950  0.15851150  0.38893400  1
  F  F79  1  0.75746650  0.02531150  0.65430100  1
  F  F80  1  0.73985350  0.84624150  0.39235800  1
  F  F81  1  0.75746650  0.97468850  0.15430100  1
  F  F82  1  0.92952200  0.99580700  0.83632400  1
  F  F83  1  0.92952200  0.00419300  0.33632400  1
  F  F84  1  0.57047800  0.49580700  0.66367600  1
  F  F85  1  0.57047800  0.50419300  0.16367600  1
  F  F86  1  0.74253350  0.52531150  0.84569900  1
  F  F87  1  0.76014650  0.65375850  0.60764200  1
  F  F88  1  0.74253350  0.47468850  0.34569900  1
  F  F89  1  0.76726050  0.34148850  0.61106600  1
  F  F90  1  0.76014650  0.34624150  0.10764200  1
  F  F91  1  0.76726050  0.65851150  0.11106600  1
  F  F92  1  0.89845050  0.34273250  0.80271400  1
  F  F93  1  0.90327050  0.65668750  0.80072500  1
  F  F94  1  0.89845050  0.65726750  0.30271400  1
  F  F95  1  0.90327050  0.34331250  0.30072500  1
  F  F96  1  0.91936400  0.48096600  0.55482200  1
  F  F97  1  0.92451650  0.16120450  0.56021900  1
  F  F98  1  0.92689050  0.82020850  0.57011000  1
  F  F99  1  0.91936400  0.51903400  0.05482200  1
  F  F100  1  0.92451650  0.83879550  0.06021900  1
  F  F101  1  0.92689050  0.17979150  0.07011000  1
  F  F102  1  0.07310950  0.82020850  0.92989000  1
  F  F103  1  0.07548350  0.16120450  0.93978100  1
  F  F104  1  0.08063600  0.48096600  0.94517800  1
  F  F105  1  0.07310950  0.17979150  0.42989000  1
  F  F106  1  0.07548350  0.83879550  0.43978100  1
  F  F107  1  0.08063600  0.51903400  0.44517800  1
  F  F108  1  0.09672950  0.65668750  0.69927500  1
  F  F109  1  0.10154950  0.34273250  0.69728600  1
  F  F110  1  0.09672950  0.34331250  0.19927500  1
  F  F111  1  0.10154950  0.65726750  0.19728600  1
  F  F112  1  0.23273950  0.34148850  0.88893400  1
  F  F113  1  0.23985350  0.65375850  0.89235800  1
  F  F114  1  0.23273950  0.65851150  0.38893400  1
  F  F115  1  0.25746650  0.52531150  0.65430100  1
  F  F116  1  0.23985350  0.34624150  0.39235800  1
  F  F117  1  0.25746650  0.47468850  0.15430100  1
  F  F118  1  0.42952200  0.49580700  0.83632400  1
  F  F119  1  0.42952200  0.50419300  0.33632400  1
