# generated using pymatgen
data_Li7Cr5O12
_symmetry_space_group_name_H-M   'P 1'
_cell_length_a   5.07741800
_cell_length_b   8.83141800
_cell_length_c   9.78683315
_cell_angle_alpha   90.00000000
_cell_angle_beta   100.09583812
_cell_angle_gamma   90.00000000
_symmetry_Int_Tables_number   1
_chemical_formula_structural   Li7Cr5O12
_chemical_formula_sum   'Li14 Cr10 O24'
_cell_volume   432.05425328
_cell_formula_units_Z   2
loop_
 _symmetry_equiv_pos_site_id
 _symmetry_equiv_pos_as_xyz
  1  'x, y, z'
loop_
 _atom_site_type_symbol
 _atom_site_label
 _atom_site_symmetry_multiplicity
 _atom_site_fract_x
 _atom_site_fract_y
 _atom_site_fract_z
 _atom_site_occupancy
  Li  Li0  1  0.75612200  0.00000000  0.74627400  1
  Li  Li1  1  0.24774500  0.83422300  0.74591600  1
  Li  Li2  1  0.25225500  0.66577700  0.25408400  1
  Li  Li3  1  0.24387800  0.00000000  0.25372600  1
  Li  Li4  1  0.75225500  0.83422300  0.25408400  1
  Li  Li5  1  0.74774500  0.66577700  0.74591600  1
  Li  Li6  1  0.00000000  0.00000000  0.50000000  1
  Li  Li7  1  0.25612200  0.50000000  0.74627400  1
  Li  Li8  1  0.74774500  0.33422300  0.74591600  1
  Li  Li9  1  0.75225500  0.16577700  0.25408400  1
  Li  Li10  1  0.74387800  0.50000000  0.25372600  1
  Li  Li11  1  0.25225500  0.33422300  0.25408400  1
  Li  Li12  1  0.24774500  0.16577700  0.74591600  1
  Li  Li13  1  0.50000000  0.50000000  0.50000000  1
  Cr  Cr14  1  0.50000000  0.83465700  0.50000000  1
  Cr  Cr15  1  0.50000000  0.00000000  0.00000000  1
  Cr  Cr16  1  0.00000000  0.83244600  0.00000000  1
  Cr  Cr17  1  0.00000000  0.66534300  0.50000000  1
  Cr  Cr18  1  0.50000000  0.66755400  0.00000000  1
  Cr  Cr19  1  0.00000000  0.33465700  0.50000000  1
  Cr  Cr20  1  0.00000000  0.50000000  0.00000000  1
  Cr  Cr21  1  0.50000000  0.33244600  0.00000000  1
  Cr  Cr22  1  0.50000000  0.16534300  0.50000000  1
  Cr  Cr23  1  0.00000000  0.16755400  0.00000000  1
  O  O24  1  0.37158200  0.83265200  0.11320100  1
  O  O25  1  0.14710300  0.81551800  0.38824400  1
  O  O26  1  0.60214100  0.00000000  0.38797300  1
  O  O27  1  0.85289700  0.81551800  0.61175600  1
  O  O28  1  0.62841800  0.83265200  0.88679900  1
  O  O29  1  0.39785900  0.00000000  0.61202700  1
  O  O30  1  0.12759400  0.00000000  0.88434300  1
  O  O31  1  0.35289700  0.68448200  0.61175600  1
  O  O32  1  0.12841800  0.66734800  0.88679900  1
  O  O33  1  0.87240600  0.00000000  0.11565700  1
  O  O34  1  0.87158200  0.66734800  0.11320100  1
  O  O35  1  0.64710300  0.68448200  0.38824400  1
  O  O36  1  0.87158200  0.33265200  0.11320100  1
  O  O37  1  0.64710300  0.31551800  0.38824400  1
  O  O38  1  0.10214100  0.50000000  0.38797300  1
  O  O39  1  0.35289700  0.31551800  0.61175600  1
  O  O40  1  0.12841800  0.33265200  0.88679900  1
  O  O41  1  0.89785900  0.50000000  0.61202700  1
  O  O42  1  0.62759400  0.50000000  0.88434300  1
  O  O43  1  0.85289700  0.18448200  0.61175600  1
  O  O44  1  0.62841800  0.16734800  0.88679900  1
  O  O45  1  0.37240600  0.50000000  0.11565700  1
  O  O46  1  0.37158200  0.16734800  0.11320100  1
  O  O47  1  0.14710300  0.18448200  0.38824400  1
