# generated using pymatgen
data_FeOF
_symmetry_space_group_name_H-M   'P 1'
_cell_length_a   6.74179400
_cell_length_b   6.74668600
_cell_length_c   6.15238500
_cell_angle_alpha   90.00000000
_cell_angle_beta   90.00000000
_cell_angle_gamma   90.00000000
_symmetry_Int_Tables_number   1
_chemical_formula_structural   FeOF
_chemical_formula_sum   'Fe8 O8 F8'
_cell_volume   279.83979942
_cell_formula_units_Z   8
loop_
 _symmetry_equiv_pos_site_id
 _symmetry_equiv_pos_as_xyz
  1  'x, y, z'
loop_
 _atom_site_type_symbol
 _atom_site_label
 _atom_site_symmetry_multiplicity
 _atom_site_fract_x
 _atom_site_fract_y
 _atom_site_fract_z
 _atom_site_occupancy
  Fe  Fe0  1  0.52094850  0.53516750  0.75000000  1
  Fe  Fe1  1  0.52094850  0.46483250  0.25000000  1
  Fe  Fe2  1  0.48159500  0.00000000  0.50000000  1
  Fe  Fe3  1  0.48159500  0.00000000  0.00000000  1
  Fe  Fe4  1  0.02094850  0.03516750  0.75000000  1
  Fe  Fe5  1  0.02094850  0.96483250  0.25000000  1
  Fe  Fe6  1  0.98159500  0.50000000  0.50000000  1
  Fe  Fe7  1  0.98159500  0.50000000  0.00000000  1
  O  O8  1  0.19269800  0.00000000  0.50000000  1
  O  O9  1  0.19269800  0.00000000  0.00000000  1
  O  O10  1  0.50195400  0.17944400  0.25000000  1
  O  O11  1  0.50195400  0.82055600  0.75000000  1
  O  O12  1  0.69269800  0.50000000  0.50000000  1
  O  O13  1  0.69269800  0.50000000  0.00000000  1
  O  O14  1  0.00195400  0.67944400  0.25000000  1
  O  O15  1  0.00195400  0.32055600  0.75000000  1
  F  F16  1  0.49773250  0.20724350  0.75000000  1
  F  F17  1  0.49773250  0.79275650  0.25000000  1
  F  F18  1  0.80507000  0.00000000  0.50000000  1
  F  F19  1  0.80507000  0.00000000  0.00000000  1
  F  F20  1  0.99773250  0.70724350  0.75000000  1
  F  F21  1  0.99773250  0.29275650  0.25000000  1
  F  F22  1  0.30507000  0.50000000  0.50000000  1
  F  F23  1  0.30507000  0.50000000  0.00000000  1
