# generated using pymatgen
data_Li3VFe3O8
_symmetry_space_group_name_H-M   'P 1'
_cell_length_a   10.37842200
_cell_length_b   5.91675000
_cell_length_c   5.99246857
_cell_angle_alpha   90.00000000
_cell_angle_beta   124.82232286
_cell_angle_gamma   90.00000000
_symmetry_Int_Tables_number   1
_chemical_formula_structural   Li3VFe3O8
_chemical_formula_sum   'Li6 V2 Fe6 O16'
_cell_volume   302.08192471
_cell_formula_units_Z   2
loop_
 _symmetry_equiv_pos_site_id
 _symmetry_equiv_pos_as_xyz
  1  'x, y, z'
loop_
 _atom_site_type_symbol
 _atom_site_label
 _atom_site_symmetry_multiplicity
 _atom_site_fract_x
 _atom_site_fract_y
 _atom_site_fract_z
 _atom_site_occupancy
  Li  Li0  1  0.25000000  0.25000000  0.50000000  1
  Li  Li1  1  0.25000000  0.75000000  0.50000000  1
  Li  Li2  1  0.00000000  0.50000000  0.50000000  1
  Li  Li3  1  0.75000000  0.75000000  0.50000000  1
  Li  Li4  1  0.75000000  0.25000000  0.50000000  1
  Li  Li5  1  0.50000000  0.00000000  0.50000000  1
  V  V6  1  0.00000000  0.00000000  0.00000000  1
  V  V7  1  0.50000000  0.50000000  0.00000000  1
  Fe  Fe8  1  0.00000000  0.50000000  0.00000000  1
  Fe  Fe9  1  0.25000000  0.75000000  0.00000000  1
  Fe  Fe10  1  0.25000000  0.25000000  0.00000000  1
  Fe  Fe11  1  0.50000000  0.00000000  0.00000000  1
  Fe  Fe12  1  0.75000000  0.25000000  0.00000000  1
  Fe  Fe13  1  0.75000000  0.75000000  0.00000000  1
  O  O14  1  0.49175850  0.25306250  0.21964000  1
  O  O15  1  0.49175850  0.74693750  0.21964000  1
  O  O16  1  0.23435100  0.50000000  0.21460100  1
  O  O17  1  0.23933300  0.00000000  0.22877800  1
  O  O18  1  0.26066700  0.50000000  0.77122200  1
  O  O19  1  0.26564900  0.00000000  0.78539900  1
  O  O20  1  0.00824150  0.75306250  0.78036000  1
  O  O21  1  0.00824150  0.24693750  0.78036000  1
  O  O22  1  0.99175850  0.75306250  0.21964000  1
  O  O23  1  0.99175850  0.24693750  0.21964000  1
  O  O24  1  0.73435100  0.00000000  0.21460100  1
  O  O25  1  0.73933300  0.50000000  0.22877800  1
  O  O26  1  0.76066700  0.00000000  0.77122200  1
  O  O27  1  0.76564900  0.50000000  0.78539900  1
  O  O28  1  0.50824150  0.25306250  0.78036000  1
  O  O29  1  0.50824150  0.74693750  0.78036000  1
