# generated using pymatgen
data_Li4Co3Sn(PO4)4
_symmetry_space_group_name_H-M   'P 1'
_cell_length_a   4.82507700
_cell_length_b   6.06476600
_cell_length_c   10.72727962
_cell_angle_alpha   90.00000000
_cell_angle_beta   91.22797139
_cell_angle_gamma   90.00000000
_symmetry_Int_Tables_number   1
_chemical_formula_structural   Li4Co3Sn(PO4)4
_chemical_formula_sum   'Li4 Co3 Sn1 P4 O16'
_cell_volume   313.83989311
_cell_formula_units_Z   1
loop_
 _symmetry_equiv_pos_site_id
 _symmetry_equiv_pos_as_xyz
  1  'x, y, z'
loop_
 _atom_site_type_symbol
 _atom_site_label
 _atom_site_symmetry_multiplicity
 _atom_site_fract_x
 _atom_site_fract_y
 _atom_site_fract_z
 _atom_site_occupancy
  Li  Li0  1  0.00385400  0.74813400  0.98678100  1
  Li  Li1  1  0.00385400  0.25186600  0.98678100  1
  Li  Li2  1  0.50202300  0.25420500  0.51486200  1
  Li  Li3  1  0.50202300  0.74579500  0.51486200  1
  Co  Co4  1  0.02132600  0.00000000  0.72514600  1
  Co  Co5  1  0.48421400  0.00000000  0.21104800  1
  Co  Co6  1  0.53127400  0.50000000  0.78555000  1
  Sn  Sn7  1  0.99216800  0.50000000  0.28353300  1
  P  P8  1  0.08886100  0.50000000  0.61167000  1
  P  P9  1  0.43461700  0.50000000  0.07363800  1
  P  P10  1  0.58644200  0.00000000  0.90215100  1
  P  P11  1  0.87975200  0.00000000  0.41407600  1
  O  O12  1  0.22095700  0.50000000  0.48005700  1
  O  O13  1  0.22115700  0.70537100  0.67983300  1
  O  O14  1  0.22115700  0.29462900  0.67983300  1
  O  O15  1  0.19393100  0.00000000  0.39540900  1
  O  O16  1  0.26741100  0.00000000  0.89894800  1
  O  O17  1  0.32161200  0.70771700  0.14495100  1
  O  O18  1  0.32161200  0.29228300  0.14495100  1
  O  O19  1  0.28640100  0.50000000  0.94378400  1
  O  O20  1  0.71558300  0.00000000  0.03628600  1
  O  O21  1  0.71895900  0.20159300  0.83146100  1
  O  O22  1  0.71895900  0.79840700  0.83146100  1
  O  O23  1  0.75160000  0.50000000  0.06468500  1
  O  O24  1  0.77123500  0.50000000  0.60775000  1
  O  O25  1  0.72317300  0.19884600  0.34899400  1
  O  O26  1  0.72317300  0.80115400  0.34899400  1
  O  O27  1  0.79267400  0.00000000  0.55250500  1
