# generated using pymatgen
data_Co3OF5
_symmetry_space_group_name_H-M   'P 1'
_cell_length_a   9.07052800
_cell_length_b   6.84907400
_cell_length_c   7.37626793
_cell_angle_alpha   90.00000000
_cell_angle_beta   111.39517027
_cell_angle_gamma   90.00000000
_symmetry_Int_Tables_number   1
_chemical_formula_structural   Co3OF5
_chemical_formula_sum   'Co12 O4 F20'
_cell_volume   426.66908074
_cell_formula_units_Z   4
loop_
 _symmetry_equiv_pos_site_id
 _symmetry_equiv_pos_as_xyz
  1  'x, y, z'
loop_
 _atom_site_type_symbol
 _atom_site_label
 _atom_site_symmetry_multiplicity
 _atom_site_fract_x
 _atom_site_fract_y
 _atom_site_fract_z
 _atom_site_occupancy
  Co  Co0  1  0.16341800  0.50000000  0.16728200  1
  Co  Co1  1  0.19068900  0.50000000  0.65950200  1
  Co  Co2  1  0.00000000  0.00000000  0.00000000  1
  Co  Co3  1  0.00000000  0.00000000  0.50000000  1
  Co  Co4  1  0.83658200  0.50000000  0.83271800  1
  Co  Co5  1  0.80931100  0.50000000  0.34049800  1
  Co  Co6  1  0.66341800  0.00000000  0.16728200  1
  Co  Co7  1  0.69068900  0.00000000  0.65950200  1
  Co  Co8  1  0.50000000  0.50000000  0.00000000  1
  Co  Co9  1  0.50000000  0.50000000  0.50000000  1
  Co  Co10  1  0.33658200  0.00000000  0.83271800  1
  Co  Co11  1  0.30931100  0.00000000  0.34049800  1
  O  O12  1  0.60154400  0.50000000  0.30395600  1
  O  O13  1  0.39845600  0.50000000  0.69604400  1
  O  O14  1  0.10154400  0.00000000  0.30395600  1
  O  O15  1  0.89845600  0.00000000  0.69604400  1
  F  F16  1  0.17082750  0.19773450  0.66427500  1
  F  F17  1  0.00000000  0.69770200  0.00000000  1
  F  F18  1  0.26118800  0.50000000  0.95838300  1
  F  F19  1  0.94531700  0.50000000  0.63167800  1
  F  F20  1  0.05468300  0.50000000  0.36832200  1
  F  F21  1  0.73881200  0.50000000  0.04161700  1
  F  F22  1  0.17082750  0.80226550  0.66427500  1
  F  F23  1  0.00000000  0.30229800  0.00000000  1
  F  F24  1  0.82917250  0.80226550  0.33572500  1
  F  F25  1  0.82917250  0.19773450  0.33572500  1
  F  F26  1  0.67082750  0.69773450  0.66427500  1
  F  F27  1  0.50000000  0.19770200  0.00000000  1
  F  F28  1  0.76118800  0.00000000  0.95838300  1
  F  F29  1  0.44531700  0.00000000  0.63167800  1
  F  F30  1  0.55468300  0.00000000  0.36832200  1
  F  F31  1  0.23881200  0.00000000  0.04161700  1
  F  F32  1  0.67082750  0.30226550  0.66427500  1
  F  F33  1  0.50000000  0.80229800  0.00000000  1
  F  F34  1  0.32917250  0.30226550  0.33572500  1
  F  F35  1  0.32917250  0.69773450  0.33572500  1
