# generated using pymatgen
data_FeOF
_symmetry_space_group_name_H-M   'P 1'
_cell_length_a   9.44445800
_cell_length_b   3.10437200
_cell_length_c   9.48155548
_cell_angle_alpha   90.00000000
_cell_angle_beta   90.08516820
_cell_angle_gamma   90.00000000
_symmetry_Int_Tables_number   1
_chemical_formula_structural   FeOF
_chemical_formula_sum   'Fe8 O8 F8'
_cell_volume   277.99047003
_cell_formula_units_Z   8
loop_
 _symmetry_equiv_pos_site_id
 _symmetry_equiv_pos_as_xyz
  1  'x, y, z'
loop_
 _atom_site_type_symbol
 _atom_site_label
 _atom_site_symmetry_multiplicity
 _atom_site_fract_x
 _atom_site_fract_y
 _atom_site_fract_z
 _atom_site_occupancy
  Fe  Fe0  1  0.01954100  0.00000000  0.99588400  1
  Fe  Fe1  1  0.01147000  0.00000000  0.48999600  1
  Fe  Fe2  1  0.22802200  0.50000000  0.24909900  1
  Fe  Fe3  1  0.22454000  0.50000000  0.74043800  1
  Fe  Fe4  1  0.51898300  0.00000000  0.49517200  1
  Fe  Fe5  1  0.51211200  0.00000000  0.99024300  1
  Fe  Fe6  1  0.75951700  0.50000000  0.27531600  1
  Fe  Fe7  1  0.73168200  0.50000000  0.74571600  1
  O  O8  1  0.09995100  0.50000000  0.40488500  1
  O  O9  1  0.09596400  0.50000000  0.90146000  1
  O  O10  1  0.15327700  0.00000000  0.15198100  1
  O  O11  1  0.14987900  0.00000000  0.64976600  1
  O  O12  1  0.59432400  0.50000000  0.39919900  1
  O  O13  1  0.59818000  0.50000000  0.90734000  1
  O  O14  1  0.65054100  0.00000000  0.65444000  1
  O  O15  1  0.85073200  0.00000000  0.35203500  1
  F  F16  1  0.34773600  0.00000000  0.34878100  1
  F  F17  1  0.34881600  0.00000000  0.84847000  1
  F  F18  1  0.40631400  0.50000000  0.09926900  1
  F  F19  1  0.40136500  0.50000000  0.59782000  1
  F  F20  1  0.65341000  0.00000000  0.15324900  1
  F  F21  1  0.84609300  0.00000000  0.84941200  1
  F  F22  1  0.89714100  0.50000000  0.09463000  1
  F  F23  1  0.90041000  0.50000000  0.60540100  1
