# generated using pymatgen
data_LiNiPO4
_symmetry_space_group_name_H-M   'P 1'
_cell_length_a   7.89760800
_cell_length_b   6.03751400
_cell_length_c   15.40170774
_cell_angle_alpha   90.00000000
_cell_angle_beta   94.32813876
_cell_angle_gamma   90.00000000
_symmetry_Int_Tables_number   1
_chemical_formula_structural   LiNiPO4
_chemical_formula_sum   'Li8 Ni8 P8 O32'
_cell_volume   732.28865834
_cell_formula_units_Z   8
loop_
 _symmetry_equiv_pos_site_id
 _symmetry_equiv_pos_as_xyz
  1  'x, y, z'
loop_
 _atom_site_type_symbol
 _atom_site_label
 _atom_site_symmetry_multiplicity
 _atom_site_fract_x
 _atom_site_fract_y
 _atom_site_fract_z
 _atom_site_occupancy
  Li  Li0  1  0.72756500  0.94150000  0.22949600  1
  Li  Li1  1  0.72756500  0.05850000  0.72949600  1
  Li  Li2  1  0.27243500  0.94150000  0.27050400  1
  Li  Li3  1  0.27243500  0.05850000  0.77050400  1
  Li  Li4  1  0.22756500  0.44150000  0.22949600  1
  Li  Li5  1  0.22756500  0.55850000  0.72949600  1
  Li  Li6  1  0.77243500  0.44150000  0.27050400  1
  Li  Li7  1  0.77243500  0.55850000  0.77050400  1
  Ni  Ni8  1  0.65310900  0.72351800  0.41148200  1
  Ni  Ni9  1  0.34689100  0.72351800  0.08851800  1
  Ni  Ni10  1  0.65310900  0.27648200  0.91148200  1
  Ni  Ni11  1  0.34689100  0.27648200  0.58851800  1
  Ni  Ni12  1  0.15310900  0.22351800  0.41148200  1
  Ni  Ni13  1  0.84689100  0.22351800  0.08851800  1
  Ni  Ni14  1  0.15310900  0.77648200  0.91148200  1
  Ni  Ni15  1  0.84689100  0.77648200  0.58851800  1
  P  P16  1  0.51707650  0.21800850  0.12283100  1
  P  P17  1  0.48292350  0.21800850  0.37716900  1
  P  P18  1  0.51707650  0.78199150  0.62283100  1
  P  P19  1  0.48292350  0.78199150  0.87716900  1
  P  P20  1  0.01707650  0.71800850  0.12283100  1
  P  P21  1  0.98292350  0.71800850  0.37716900  1
  P  P22  1  0.01707650  0.28199150  0.62283100  1
  P  P23  1  0.98292350  0.28199150  0.87716900  1
  O  O24  1  0.67724500  0.23881500  0.18900200  1
  O  O25  1  0.67724500  0.76118500  0.68900200  1
  O  O26  1  0.11068750  0.90793850  0.36900800  1
  O  O27  1  0.56199000  0.99324100  0.35610400  1
  O  O28  1  0.59711850  0.21984050  0.03365100  1
  O  O29  1  0.11068750  0.09206150  0.86900800  1
  O  O30  1  0.56199000  0.00675900  0.85610400  1
  O  O31  1  0.59711850  0.78015950  0.53365100  1
  O  O32  1  0.40288150  0.21984050  0.46634900  1
  O  O33  1  0.43801000  0.99324100  0.14389600  1
  O  O34  1  0.88931250  0.90793850  0.13099200  1
  O  O35  1  0.40288150  0.78015950  0.96634900  1
  O  O36  1  0.43801000  0.00675900  0.64389600  1
  O  O37  1  0.88931250  0.09206150  0.63099200  1
  O  O38  1  0.32275500  0.23881500  0.31099800  1
  O  O39  1  0.32275500  0.76118500  0.81099800  1
  O  O40  1  0.17724500  0.73881500  0.18900200  1
  O  O41  1  0.17724500  0.26118500  0.68900200  1
  O  O42  1  0.61068750  0.40793850  0.36900800  1
  O  O43  1  0.06199000  0.49324100  0.35610400  1
  O  O44  1  0.09711850  0.71984050  0.03365100  1
  O  O45  1  0.61068750  0.59206150  0.86900800  1
  O  O46  1  0.06199000  0.50675900  0.85610400  1
  O  O47  1  0.09711850  0.28015950  0.53365100  1
  O  O48  1  0.90288150  0.71984050  0.46634900  1
  O  O49  1  0.93801000  0.49324100  0.14389600  1
  O  O50  1  0.38931250  0.40793850  0.13099200  1
  O  O51  1  0.90288150  0.28015950  0.96634900  1
  O  O52  1  0.93801000  0.50675900  0.64389600  1
  O  O53  1  0.38931250  0.59206150  0.63099200  1
  O  O54  1  0.82275500  0.73881500  0.31099800  1
  O  O55  1  0.82275500  0.26118500  0.81099800  1
