# generated using pymatgen
data_Al2CrO5
_symmetry_space_group_name_H-M   'P 1'
_cell_length_a   3.60761752
_cell_length_b   9.45225857
_cell_length_c   9.59366901
_cell_angle_alpha   90.00000000
_cell_angle_beta   90.00000000
_cell_angle_gamma   90.00000000
_symmetry_Int_Tables_number   1
_chemical_formula_structural   Al2CrO5
_chemical_formula_sum   'Al8 Cr4 O20'
_cell_volume   327.14539535
_cell_formula_units_Z   4
loop_
 _symmetry_equiv_pos_site_id
 _symmetry_equiv_pos_as_xyz
  1  'x, y, z'
loop_
 _atom_site_type_symbol
 _atom_site_label
 _atom_site_symmetry_multiplicity
 _atom_site_fract_x
 _atom_site_fract_y
 _atom_site_fract_z
 _atom_site_occupancy
  Al  Al0  1  0.50000000  0.63987350  0.55941600  1
  Al  Al1  1  0.50000000  0.63987350  0.94058400  1
  Al  Al2  1  0.00000000  0.86012650  0.05941600  1
  Al  Al3  1  0.00000000  0.86012650  0.44058400  1
  Al  Al4  1  0.00000000  0.13987350  0.55941600  1
  Al  Al5  1  0.00000000  0.13987350  0.94058400  1
  Al  Al6  1  0.50000000  0.36012650  0.05941600  1
  Al  Al7  1  0.50000000  0.36012650  0.44058400  1
  Cr  Cr8  1  0.50000000  0.68455700  0.25000000  1
  Cr  Cr9  1  0.00000000  0.81544300  0.75000000  1
  Cr  Cr10  1  0.00000000  0.18455700  0.25000000  1
  Cr  Cr11  1  0.50000000  0.31544300  0.75000000  1
  O  O12  1  0.50000000  0.73708525  0.75000000  1
  O  O13  1  0.00000000  0.76291475  0.25000000  1
  O  O14  1  0.50000000  0.54729325  0.11532450  1
  O  O15  1  0.50000000  0.54729325  0.38467550  1
  O  O16  1  0.00000000  0.95270675  0.61532450  1
  O  O17  1  0.00000000  0.95270675  0.88467550  1
  O  O18  1  0.50000000  0.81169925  0.42828750  1
  O  O19  1  0.50000000  0.81169925  0.07171250  1
  O  O20  1  0.00000000  0.68830075  0.92828750  1
  O  O21  1  0.00000000  0.68830075  0.57171250  1
  O  O22  1  0.00000000  0.23708525  0.75000000  1
  O  O23  1  0.50000000  0.26291475  0.25000000  1
  O  O24  1  0.00000000  0.04729325  0.11532450  1
  O  O25  1  0.00000000  0.04729325  0.38467550  1
  O  O26  1  0.50000000  0.45270675  0.61532450  1
  O  O27  1  0.50000000  0.45270675  0.88467550  1
  O  O28  1  0.00000000  0.31169925  0.42828750  1
  O  O29  1  0.00000000  0.31169925  0.07171250  1
  O  O30  1  0.50000000  0.18830075  0.92828750  1
  O  O31  1  0.50000000  0.18830075  0.57171250  1
