# generated using pymatgen
data_V(SiO3)2
_symmetry_space_group_name_H-M   'P 1'
_cell_length_a   7.05969947
_cell_length_b   7.29878887
_cell_length_c   7.68457202
_cell_angle_alpha   78.39928451
_cell_angle_beta   66.14250135
_cell_angle_gamma   76.64137978
_symmetry_Int_Tables_number   1
_chemical_formula_structural   V(SiO3)2
_chemical_formula_sum   'V3 Si6 O18'
_cell_volume   349.74568698
_cell_formula_units_Z   3
loop_
 _symmetry_equiv_pos_site_id
 _symmetry_equiv_pos_as_xyz
  1  'x, y, z'
loop_
 _atom_site_type_symbol
 _atom_site_label
 _atom_site_symmetry_multiplicity
 _atom_site_fract_x
 _atom_site_fract_y
 _atom_site_fract_z
 _atom_site_occupancy
  V  V0  1  0.00000000  0.50000000  0.50000000  1
  V  V1  1  0.05828250  0.77290200  0.73571700  1
  V  V2  1  0.94171750  0.22709800  0.26428300  1
  Si  Si3  1  0.30523350  0.83844300  0.27031200  1
  Si  Si4  1  0.69476650  0.16155700  0.72968800  1
  Si  Si5  1  0.75211650  0.84458050  0.28433400  1
  Si  Si6  1  0.24788350  0.15541950  0.71566600  1
  Si  Si7  1  0.16688400  0.62652750  0.06050700  1
  Si  Si8  1  0.83311600  0.37347250  0.93949300  1
  O  O9  1  0.23655400  0.95253050  0.67112600  1
  O  O10  1  0.76344600  0.04746950  0.32887400  1
  O  O11  1  0.82188000  0.94708900  0.75365300  1
  O  O12  1  0.17812000  0.05291100  0.24634700  1
  O  O13  1  0.53382750  0.84429400  0.26325500  1
  O  O14  1  0.46617250  0.15570600  0.73674500  1
  O  O15  1  0.16295750  0.71631050  0.47259500  1
  O  O16  1  0.83704250  0.28368950  0.52740500  1
  O  O17  1  0.33326450  0.72314900  0.09630800  1
  O  O18  1  0.66673550  0.27685100  0.90369200  1
  O  O19  1  0.94814500  0.78544750  0.07984900  1
  O  O20  1  0.05185500  0.21455250  0.92015100  1
  O  O21  1  0.79338800  0.67807400  0.44977800  1
  O  O22  1  0.20661200  0.32192600  0.55022200  1
  O  O23  1  0.88632150  0.55623000  0.77515900  1
  O  O24  1  0.11367850  0.44377000  0.22484100  1
  O  O25  1  0.76837850  0.40951450  0.15973100  1
  O  O26  1  0.23162150  0.59048550  0.84026900  1
