# generated using pymatgen
data_Li4Cu2Ni3Sb3O16
_symmetry_space_group_name_H-M   'P 1'
_cell_length_a   10.52279187
_cell_length_b   6.02916209
_cell_length_c   9.66925848
_cell_angle_alpha   90.00000000
_cell_angle_beta   92.45718617
_cell_angle_gamma   90.00000000
_symmetry_Int_Tables_number   1
_chemical_formula_structural   Li4Cu2Ni3Sb3O16
_chemical_formula_sum   'Li8 Cu4 Ni6 Sb6 O32'
_cell_volume   612.88869335
_cell_formula_units_Z   2
loop_
 _symmetry_equiv_pos_site_id
 _symmetry_equiv_pos_as_xyz
  1  'x, y, z'
loop_
 _atom_site_type_symbol
 _atom_site_label
 _atom_site_symmetry_multiplicity
 _atom_site_fract_x
 _atom_site_fract_y
 _atom_site_fract_z
 _atom_site_occupancy
  Li  Li0  1  0.67031600  0.00000000  0.88568000  1
  Li  Li1  1  0.97406850  0.00000000  0.98593800  1
  Li  Li2  1  0.98681700  0.00000000  0.50377900  1
  Li  Li3  1  0.82859150  0.50000000  0.40241100  1
  Li  Li4  1  0.17031600  0.50000000  0.88568000  1
  Li  Li5  1  0.47406850  0.50000000  0.98593800  1
  Li  Li6  1  0.48681700  0.50000000  0.50377900  1
  Li  Li7  1  0.32859150  0.00000000  0.40241100  1
  Cu  Cu8  1  0.67486600  0.00000000  0.49502500  1
  Cu  Cu9  1  0.85151800  0.50000000  0.97490200  1
  Cu  Cu10  1  0.17486600  0.50000000  0.49502500  1
  Cu  Cu11  1  0.35151800  0.00000000  0.97490200  1
  Ni  Ni12  1  0.82910450  0.00000000  0.21582800  1
  Ni  Ni13  1  0.91859550  0.25553950  0.71327000  1
  Ni  Ni14  1  0.91859550  0.74446050  0.71327000  1
  Ni  Ni15  1  0.32910450  0.50000000  0.21582800  1
  Ni  Ni16  1  0.41859550  0.75553950  0.71327000  1
  Ni  Ni17  1  0.41859550  0.24446050  0.71327000  1
  Sb  Sb18  1  0.58238550  0.75350150  0.21443500  1
  Sb  Sb19  1  0.58238550  0.24649850  0.21443500  1
  Sb  Sb20  1  0.67332200  0.50000000  0.71359300  1
  Sb  Sb21  1  0.08238550  0.25350150  0.21443500  1
  Sb  Sb22  1  0.08238550  0.74649850  0.21443500  1
  Sb  Sb23  1  0.17332200  0.00000000  0.71359300  1
  O  O24  1  0.58651700  0.74513400  0.59963600  1
  O  O25  1  0.51203050  0.00000000  0.33517200  1
  O  O26  1  0.65964100  0.00000000  0.10020800  1
  O  O27  1  0.50163000  0.50000000  0.31862000  1
  O  O28  1  0.50546200  0.50000000  0.80579300  1
  O  O29  1  0.58651700  0.25486600  0.59963600  1
  O  O30  1  0.73616800  0.77291900  0.34046500  1
  O  O31  1  0.73616800  0.22708100  0.34046500  1
  O  O32  1  0.65258000  0.50000000  0.10263500  1
  O  O33  1  0.83684650  0.00000000  0.60729900  1
  O  O34  1  0.76263700  0.28130800  0.84539000  1
  O  O35  1  0.76263700  0.71869200  0.84539000  1
  O  O36  1  0.83190850  0.50000000  0.60516800  1
  O  O37  1  0.92144950  0.24754050  0.09802400  1
  O  O38  1  0.98590200  0.50000000  0.83330300  1
  O  O39  1  0.92144950  0.75245950  0.09802400  1
  O  O40  1  0.08651700  0.24513400  0.59963600  1
  O  O41  1  0.01203050  0.50000000  0.33517200  1
  O  O42  1  0.15964100  0.50000000  0.10020800  1
  O  O43  1  0.00163000  0.00000000  0.31862000  1
  O  O44  1  0.00546200  0.00000000  0.80579300  1
  O  O45  1  0.08651700  0.75486600  0.59963600  1
  O  O46  1  0.23616800  0.27291900  0.34046500  1
  O  O47  1  0.23616800  0.72708100  0.34046500  1
  O  O48  1  0.15258000  0.00000000  0.10263500  1
  O  O49  1  0.33684650  0.50000000  0.60729900  1
  O  O50  1  0.26263700  0.78130800  0.84539000  1
  O  O51  1  0.26263700  0.21869200  0.84539000  1
  O  O52  1  0.33190850  0.00000000  0.60516800  1
  O  O53  1  0.42144950  0.74754050  0.09802400  1
  O  O54  1  0.48590200  0.00000000  0.83330300  1
  O  O55  1  0.42144950  0.25245950  0.09802400  1
