# generated using pymatgen
data_Li12MnCo3P4(CO7)4
_symmetry_space_group_name_H-M   'P 1'
_cell_length_a   8.46067100
_cell_length_b   6.49318900
_cell_length_c   10.02954912
_cell_angle_alpha   90.00000000
_cell_angle_beta   94.88486776
_cell_angle_gamma   90.00000000
_symmetry_Int_Tables_number   1
_chemical_formula_structural   Li12MnCo3P4(CO7)4
_chemical_formula_sum   'Li12 Mn1 Co3 P4 C4 O28'
_cell_volume   548.98939396
_cell_formula_units_Z   1
loop_
 _symmetry_equiv_pos_site_id
 _symmetry_equiv_pos_as_xyz
  1  'x, y, z'
loop_
 _atom_site_type_symbol
 _atom_site_label
 _atom_site_symmetry_multiplicity
 _atom_site_fract_x
 _atom_site_fract_y
 _atom_site_fract_z
 _atom_site_occupancy
  Li  Li0  1  0.09928200  0.00000000  0.61734500  1
  Li  Li1  1  0.09382500  0.00000000  0.11785800  1
  Li  Li2  1  0.27758000  0.77325100  0.87410600  1
  Li  Li3  1  0.27758000  0.22674900  0.87410600  1
  Li  Li4  1  0.27525700  0.77174200  0.37645000  1
  Li  Li5  1  0.27525700  0.22825800  0.37645000  1
  Li  Li6  1  0.72240000  0.27318000  0.62625700  1
  Li  Li7  1  0.72240000  0.72682000  0.62625700  1
  Li  Li8  1  0.72388600  0.27349200  0.12235500  1
  Li  Li9  1  0.72388600  0.72650800  0.12235500  1
  Li  Li10  1  0.90183700  0.50000000  0.88328500  1
  Li  Li11  1  0.90121400  0.50000000  0.38375800  1
  Mn  Mn12  1  0.66075000  0.00000000  0.38850500  1
  Co  Co13  1  0.33198100  0.50000000  0.60542000  1
  Co  Co14  1  0.33113800  0.50000000  0.10448100  1
  Co  Co15  1  0.66845100  0.00000000  0.89521200  1
  P  P16  1  0.41409900  0.00000000  0.64135800  1
  P  P17  1  0.41014700  0.00000000  0.13629000  1
  P  P18  1  0.58658500  0.50000000  0.86103400  1
  P  P19  1  0.58710200  0.50000000  0.36197700  1
  C  C20  1  0.03779300  0.50000000  0.64935000  1
  C  C21  1  0.03716200  0.50000000  0.14916500  1
  C  C22  1  0.96173500  0.00000000  0.84995900  1
  C  C23  1  0.96780200  0.00000000  0.35093300  1
  O  O24  1  0.07246500  0.50000000  0.52611000  1
  O  O25  1  0.10754900  0.00000000  0.81906100  1
  O  O26  1  0.07165000  0.50000000  0.02611900  1
  O  O27  1  0.15505500  0.50000000  0.74307800  1
  O  O28  1  0.11452800  0.00000000  0.32038400  1
  O  O29  1  0.15476700  0.50000000  0.24289900  1
  O  O30  1  0.31022900  0.81329100  0.58910800  1
  O  O31  1  0.31022900  0.18670900  0.58910800  1
  O  O32  1  0.30833100  0.81279000  0.08361700  1
  O  O33  1  0.30833100  0.18721000  0.08361700  1
  O  O34  1  0.42024500  0.50000000  0.91389000  1
  O  O35  1  0.43314700  0.00000000  0.79765000  1
  O  O36  1  0.41995200  0.50000000  0.41467200  1
  O  O37  1  0.42557700  0.00000000  0.29231800  1
  O  O38  1  0.56681400  0.50000000  0.70515500  1
  O  O39  1  0.58047000  0.00000000  0.58991000  1
  O  O40  1  0.56586000  0.50000000  0.20550300  1
  O  O41  1  0.57977500  0.00000000  0.08853800  1
  O  O42  1  0.69075500  0.68663200  0.91291500  1
  O  O43  1  0.69075500  0.31336800  0.91291500  1
  O  O44  1  0.69099900  0.31573000  0.41458500  1
  O  O45  1  0.69099900  0.68427000  0.41458500  1
  O  O46  1  0.84502400  0.00000000  0.75612000  1
  O  O47  1  0.89229900  0.50000000  0.68143800  1
  O  O48  1  0.85440500  0.00000000  0.25429500  1
  O  O49  1  0.92597800  0.00000000  0.97315000  1
  O  O50  1  0.89170400  0.50000000  0.18129400  1
  O  O51  1  0.93295500  0.00000000  0.47370100  1
