# generated using pymatgen
data_Ba6Bi6O17
_symmetry_space_group_name_H-M   'P 1'
_cell_length_a   6.33803400
_cell_length_b   8.69550600
_cell_length_c   19.02535400
_cell_angle_alpha   90.00000000
_cell_angle_beta   90.00000000
_cell_angle_gamma   90.00000000
_symmetry_Int_Tables_number   1
_chemical_formula_structural   Ba6Bi6O17
_chemical_formula_sum   'Ba12 Bi12 O34'
_cell_volume   1048.53316094
_cell_formula_units_Z   2
loop_
 _symmetry_equiv_pos_site_id
 _symmetry_equiv_pos_as_xyz
  1  'x, y, z'
loop_
 _atom_site_type_symbol
 _atom_site_label
 _atom_site_symmetry_multiplicity
 _atom_site_fract_x
 _atom_site_fract_y
 _atom_site_fract_z
 _atom_site_occupancy
  Ba  Ba0  1  0.00000000  0.50000000  0.00000000  1
  Ba  Ba1  1  0.00000000  0.50000000  0.67760700  1
  Ba  Ba2  1  0.50000000  0.50000000  0.83191800  1
  Ba  Ba3  1  0.00000000  0.00000000  0.00000000  1
  Ba  Ba4  1  0.00000000  0.00000000  0.66808200  1
  Ba  Ba5  1  0.50000000  0.00000000  0.82239300  1
  Ba  Ba6  1  0.50000000  0.00000000  0.50000000  1
  Ba  Ba7  1  0.50000000  0.00000000  0.17760700  1
  Ba  Ba8  1  0.00000000  0.00000000  0.33191800  1
  Ba  Ba9  1  0.50000000  0.50000000  0.50000000  1
  Ba  Ba10  1  0.50000000  0.50000000  0.16808200  1
  Ba  Ba11  1  0.00000000  0.50000000  0.32239300  1
  Bi  Bi12  1  0.50000000  0.24818800  0.00000000  1
  Bi  Bi13  1  0.00000000  0.24851700  0.83427900  1
  Bi  Bi14  1  0.50000000  0.75181200  0.00000000  1
  Bi  Bi15  1  0.00000000  0.75148300  0.83427900  1
  Bi  Bi16  1  0.50000000  0.74851700  0.66572100  1
  Bi  Bi17  1  0.50000000  0.25148300  0.66572100  1
  Bi  Bi18  1  0.00000000  0.74818800  0.50000000  1
  Bi  Bi19  1  0.50000000  0.74851700  0.33427900  1
  Bi  Bi20  1  0.00000000  0.25181200  0.50000000  1
  Bi  Bi21  1  0.50000000  0.25148300  0.33427900  1
  Bi  Bi22  1  0.00000000  0.24851700  0.16572100  1
  Bi  Bi23  1  0.00000000  0.75148300  0.16572100  1
  O  O24  1  0.75252550  0.24392750  0.91701750  1
  O  O25  1  0.24747450  0.24392750  0.91701750  1
  O  O26  1  0.00000000  0.50000000  0.83245300  1
  O  O27  1  0.50000000  0.50000000  0.00000000  1
  O  O28  1  0.50000000  0.50000000  0.66756100  1
  O  O29  1  0.75252550  0.75607250  0.91701750  1
  O  O30  1  0.24747450  0.75607250  0.91701750  1
  O  O31  1  0.75000000  0.75000000  0.75000000  1
  O  O32  1  0.25000000  0.75000000  0.75000000  1
  O  O33  1  0.25252550  0.74392750  0.58298250  1
  O  O34  1  0.74747450  0.74392750  0.58298250  1
  O  O35  1  0.00000000  0.00000000  0.83243900  1
  O  O36  1  0.50000000  0.00000000  0.66754700  1
  O  O37  1  0.75000000  0.25000000  0.75000000  1
  O  O38  1  0.25252550  0.25607250  0.58298250  1
  O  O39  1  0.74747450  0.25607250  0.58298250  1
  O  O40  1  0.25000000  0.25000000  0.75000000  1
  O  O41  1  0.25252550  0.74392750  0.41701750  1
  O  O42  1  0.74747450  0.74392750  0.41701750  1
  O  O43  1  0.50000000  0.00000000  0.33245300  1
  O  O44  1  0.00000000  0.00000000  0.50000000  1
  O  O45  1  0.00000000  0.00000000  0.16756100  1
  O  O46  1  0.25252550  0.25607250  0.41701750  1
  O  O47  1  0.74747450  0.25607250  0.41701750  1
  O  O48  1  0.25000000  0.25000000  0.25000000  1
  O  O49  1  0.75000000  0.25000000  0.25000000  1
  O  O50  1  0.75252550  0.24392750  0.08298250  1
  O  O51  1  0.24747450  0.24392750  0.08298250  1
  O  O52  1  0.50000000  0.50000000  0.33243900  1
  O  O53  1  0.00000000  0.50000000  0.16754700  1
  O  O54  1  0.25000000  0.75000000  0.25000000  1
  O  O55  1  0.75252550  0.75607250  0.08298250  1
  O  O56  1  0.24747450  0.75607250  0.08298250  1
  O  O57  1  0.75000000  0.75000000  0.25000000  1
