# generated using pymatgen
data_LiTiSiO4
_symmetry_space_group_name_H-M   'P 1'
_cell_length_a   5.66597000
_cell_length_b   8.40088200
_cell_length_c   5.97964700
_cell_angle_alpha   90.00000000
_cell_angle_beta   90.00000000
_cell_angle_gamma   90.00000000
_symmetry_Int_Tables_number   1
_chemical_formula_structural   LiTiSiO4
_chemical_formula_sum   'Li4 Ti4 Si4 O16'
_cell_volume   284.62608691
_cell_formula_units_Z   4
loop_
 _symmetry_equiv_pos_site_id
 _symmetry_equiv_pos_as_xyz
  1  'x, y, z'
loop_
 _atom_site_type_symbol
 _atom_site_label
 _atom_site_symmetry_multiplicity
 _atom_site_fract_x
 _atom_site_fract_y
 _atom_site_fract_z
 _atom_site_occupancy
  Li  Li0  1  0.50000000  0.83707500  0.25000000  1
  Li  Li1  1  0.50000000  0.16292500  0.75000000  1
  Li  Li2  1  0.00000000  0.33707500  0.25000000  1
  Li  Li3  1  0.00000000  0.66292500  0.75000000  1
  Ti  Ti4  1  0.00000000  0.00000000  0.00000000  1
  Ti  Ti5  1  0.00000000  0.00000000  0.50000000  1
  Ti  Ti6  1  0.50000000  0.50000000  0.00000000  1
  Ti  Ti7  1  0.50000000  0.50000000  0.50000000  1
  Si  Si8  1  0.50000000  0.84849900  0.75000000  1
  Si  Si9  1  0.50000000  0.15150100  0.25000000  1
  Si  Si10  1  0.00000000  0.34849900  0.75000000  1
  Si  Si11  1  0.00000000  0.65150100  0.25000000  1
  O  O12  1  0.26839350  0.02754250  0.25000000  1
  O  O13  1  0.26839350  0.97245750  0.75000000  1
  O  O14  1  0.50000000  0.73432400  0.53040300  1
  O  O15  1  0.50000000  0.26567600  0.03040300  1
  O  O16  1  0.50000000  0.73432400  0.96959700  1
  O  O17  1  0.50000000  0.26567600  0.46959700  1
  O  O18  1  0.73160650  0.97245750  0.75000000  1
  O  O19  1  0.73160650  0.02754250  0.25000000  1
  O  O20  1  0.76839350  0.52754250  0.25000000  1
  O  O21  1  0.76839350  0.47245750  0.75000000  1
  O  O22  1  0.00000000  0.23432400  0.53040300  1
  O  O23  1  0.00000000  0.76567600  0.03040300  1
  O  O24  1  0.00000000  0.23432400  0.96959700  1
  O  O25  1  0.00000000  0.76567600  0.46959700  1
  O  O26  1  0.23160650  0.47245750  0.75000000  1
  O  O27  1  0.23160650  0.52754250  0.25000000  1
