# generated using pymatgen
data_Li4Mn3Fe3(CuO8)2
_symmetry_space_group_name_H-M   'P 1'
_cell_length_a   10.20087900
_cell_length_b   5.83580560
_cell_length_c   9.57540278
_cell_angle_alpha   90.00000000
_cell_angle_beta   90.78994622
_cell_angle_gamma   90.00000000
_symmetry_Int_Tables_number   1
_chemical_formula_structural   Li4Mn3Fe3(CuO8)2
_chemical_formula_sum   'Li8 Mn6 Fe6 Cu4 O32'
_cell_volume   569.97287206
_cell_formula_units_Z   2
loop_
 _symmetry_equiv_pos_site_id
 _symmetry_equiv_pos_as_xyz
  1  'x, y, z'
loop_
 _atom_site_type_symbol
 _atom_site_label
 _atom_site_symmetry_multiplicity
 _atom_site_fract_x
 _atom_site_fract_y
 _atom_site_fract_z
 _atom_site_occupancy
  Li  Li0  1  0.66940000  0.00000000  0.10430300  1
  Li  Li1  1  0.99798200  0.00000000  0.00339100  1
  Li  Li2  1  0.50021150  0.50000000  0.50460300  1
  Li  Li3  1  0.83503750  0.50000000  0.60382100  1
  Li  Li4  1  0.16940000  0.50000000  0.10430300  1
  Li  Li5  1  0.49798200  0.50000000  0.00339100  1
  Li  Li6  1  0.00021150  0.00000000  0.50460300  1
  Li  Li7  1  0.33503750  0.00000000  0.60382100  1
  Mn  Mn8  1  0.82882700  0.00000000  0.78608500  1
  Mn  Mn9  1  0.91464450  0.74572050  0.28603700  1
  Mn  Mn10  1  0.91464450  0.25427950  0.28603700  1
  Mn  Mn11  1  0.32882700  0.50000000  0.78608500  1
  Mn  Mn12  1  0.41464450  0.24572050  0.28603700  1
  Mn  Mn13  1  0.41464450  0.75427950  0.28603700  1
  Fe  Fe14  1  0.58338450  0.24681550  0.78744700  1
  Fe  Fe15  1  0.58338450  0.75318450  0.78744700  1
  Fe  Fe16  1  0.66790900  0.50000000  0.28715100  1
  Fe  Fe17  1  0.08338450  0.74681550  0.78744700  1
  Fe  Fe18  1  0.08338450  0.25318450  0.78744700  1
  Fe  Fe19  1  0.16790900  0.00000000  0.28715100  1
  Cu  Cu20  1  0.66319500  0.00000000  0.51206500  1
  Cu  Cu21  1  0.83049400  0.50000000  0.01188100  1
  Cu  Cu22  1  0.16319500  0.50000000  0.51206500  1
  Cu  Cu23  1  0.33049400  0.00000000  0.01188100  1
  O  O24  1  0.57881550  0.25485650  0.39662100  1
  O  O25  1  0.52065950  0.00000000  0.65991400  1
  O  O26  1  0.67231400  0.00000000  0.89652400  1
  O  O27  1  0.99301800  0.00000000  0.69041400  1
  O  O28  1  0.99334800  0.00000000  0.18949100  1
  O  O29  1  0.57881550  0.74514350  0.39662100  1
  O  O30  1  0.74380800  0.21794200  0.66248400  1
  O  O31  1  0.74380800  0.78205800  0.66248400  1
  O  O32  1  0.66342450  0.50000000  0.89857800  1
  O  O33  1  0.84184300  0.00000000  0.39465700  1
  O  O34  1  0.76369500  0.72462500  0.16412000  1
  O  O35  1  0.76369500  0.27537500  0.16412000  1
  O  O36  1  0.84044150  0.50000000  0.39350100  1
  O  O37  1  0.91565450  0.75749550  0.89689700  1
  O  O38  1  0.98154450  0.50000000  0.16848400  1
  O  O39  1  0.91565450  0.24250450  0.89689700  1
  O  O40  1  0.07881550  0.75485650  0.39662100  1
  O  O41  1  0.02065950  0.50000000  0.65991400  1
  O  O42  1  0.17231400  0.50000000  0.89652400  1
  O  O43  1  0.49301800  0.50000000  0.69041400  1
  O  O44  1  0.49334800  0.50000000  0.18949100  1
  O  O45  1  0.07881550  0.24514350  0.39662100  1
  O  O46  1  0.24380800  0.71794200  0.66248400  1
  O  O47  1  0.24380800  0.28205800  0.66248400  1
  O  O48  1  0.16342450  0.00000000  0.89857800  1
  O  O49  1  0.34184300  0.50000000  0.39465700  1
  O  O50  1  0.26369500  0.22462500  0.16412000  1
  O  O51  1  0.26369500  0.77537500  0.16412000  1
  O  O52  1  0.34044150  0.00000000  0.39350100  1
  O  O53  1  0.41565450  0.25749550  0.89689700  1
  O  O54  1  0.48154450  0.00000000  0.16848400  1
  O  O55  1  0.41565450  0.74250450  0.89689700  1
