# generated using pymatgen
data_Li2VF4
_symmetry_space_group_name_H-M   'P 1'
_cell_length_a   6.00446800
_cell_length_b   6.27981600
_cell_length_c   8.54264800
_cell_angle_alpha   90.00000000
_cell_angle_beta   90.00000000
_cell_angle_gamma   90.00000000
_symmetry_Int_Tables_number   1
_chemical_formula_structural   Li2VF4
_chemical_formula_sum   'Li8 V4 F16'
_cell_volume   322.11723704
_cell_formula_units_Z   4
loop_
 _symmetry_equiv_pos_site_id
 _symmetry_equiv_pos_as_xyz
  1  'x, y, z'
loop_
 _atom_site_type_symbol
 _atom_site_label
 _atom_site_symmetry_multiplicity
 _atom_site_fract_x
 _atom_site_fract_y
 _atom_site_fract_z
 _atom_site_occupancy
  Li  Li0  1  0.50000000  0.25000000  0.63421100  1
  Li  Li1  1  0.75000000  0.25000000  0.25000000  1
  Li  Li2  1  0.50000000  0.75000000  0.36578900  1
  Li  Li3  1  0.25000000  0.25000000  0.25000000  1
  Li  Li4  1  0.00000000  0.75000000  0.13421100  1
  Li  Li5  1  0.25000000  0.75000000  0.75000000  1
  Li  Li6  1  0.00000000  0.25000000  0.86578900  1
  Li  Li7  1  0.75000000  0.75000000  0.75000000  1
  V  V8  1  0.50000000  0.00000000  0.00000000  1
  V  V9  1  0.00000000  0.00000000  0.50000000  1
  V  V10  1  0.00000000  0.50000000  0.50000000  1
  V  V11  1  0.50000000  0.50000000  0.00000000  1
  F  F12  1  0.76225400  0.75000000  0.50329700  1
  F  F13  1  0.50000000  0.01813900  0.24549100  1
  F  F14  1  0.00000000  0.98186100  0.74549100  1
  F  F15  1  0.23774600  0.75000000  0.50329700  1
  F  F16  1  0.76225400  0.25000000  0.49670300  1
  F  F17  1  0.00000000  0.01813900  0.25450900  1
  F  F18  1  0.50000000  0.98186100  0.75450900  1
  F  F19  1  0.23774600  0.25000000  0.49670300  1
  F  F20  1  0.26225400  0.25000000  0.00329700  1
  F  F21  1  0.00000000  0.51813900  0.74549100  1
  F  F22  1  0.50000000  0.48186100  0.24549100  1
  F  F23  1  0.73774600  0.25000000  0.00329700  1
  F  F24  1  0.26225400  0.75000000  0.99670300  1
  F  F25  1  0.50000000  0.51813900  0.75450900  1
  F  F26  1  0.00000000  0.48186100  0.25450900  1
  F  F27  1  0.73774600  0.75000000  0.99670300  1
