# generated using pymatgen
data_Mn2Cd3O5
_symmetry_space_group_name_H-M   'P 1'
_cell_length_a   10.44220369
_cell_length_b   4.68287461
_cell_length_c   7.38639905
_cell_angle_alpha   90.00000000
_cell_angle_beta   134.80089989
_cell_angle_gamma   90.00000000
_symmetry_Int_Tables_number   1
_chemical_formula_structural   Mn2Cd3O5
_chemical_formula_sum   'Mn4 Cd6 O10'
_cell_volume   256.28688313
_cell_formula_units_Z   2
loop_
 _symmetry_equiv_pos_site_id
 _symmetry_equiv_pos_as_xyz
  1  'x, y, z'
loop_
 _atom_site_type_symbol
 _atom_site_label
 _atom_site_symmetry_multiplicity
 _atom_site_fract_x
 _atom_site_fract_y
 _atom_site_fract_z
 _atom_site_occupancy
  Mn  Mn0  1  0.10170750  0.00000000  0.40111700  1
  Mn  Mn1  1  0.89829250  0.00000000  0.59888300  1
  Mn  Mn2  1  0.60170750  0.50000000  0.40111700  1
  Mn  Mn3  1  0.39829250  0.50000000  0.59888300  1
  Cd  Cd4  1  0.00000000  0.50000000  0.00000000  1
  Cd  Cd5  1  0.30346525  0.00000000  0.20157350  1
  Cd  Cd6  1  0.19653475  0.50000000  0.79842650  1
  Cd  Cd7  1  0.50000000  0.00000000  0.00000000  1
  Cd  Cd8  1  0.80346525  0.50000000  0.20157350  1
  Cd  Cd9  1  0.69653475  0.00000000  0.79842650  1
  O  O10  1  0.00000000  0.00000000  0.00000000  1
  O  O11  1  0.31919925  0.50000000  0.22123200  1
  O  O12  1  0.18080075  0.00000000  0.77876800  1
  O  O13  1  0.61152500  0.00000000  0.40447200  1
  O  O14  1  0.88847500  0.50000000  0.59552800  1
  O  O15  1  0.50000000  0.50000000  0.00000000  1
  O  O16  1  0.81919925  0.00000000  0.22123200  1
  O  O17  1  0.68080075  0.50000000  0.77876800  1
  O  O18  1  0.11152500  0.50000000  0.40447200  1
  O  O19  1  0.38847500  0.00000000  0.59552800  1
