# generated using pymatgen
data_Ti2Cr3Sb3O16
_symmetry_space_group_name_H-M   'P 1'
_cell_length_a   10.54955000
_cell_length_b   6.11115200
_cell_length_c   9.10620891
_cell_angle_alpha   90.00000000
_cell_angle_beta   90.43122263
_cell_angle_gamma   90.00000000
_symmetry_Int_Tables_number   1
_chemical_formula_structural   Ti2Cr3Sb3O16
_chemical_formula_sum   'Ti4 Cr6 Sb6 O32'
_cell_volume   587.05978299
_cell_formula_units_Z   2
loop_
 _symmetry_equiv_pos_site_id
 _symmetry_equiv_pos_as_xyz
  1  'x, y, z'
loop_
 _atom_site_type_symbol
 _atom_site_label
 _atom_site_symmetry_multiplicity
 _atom_site_fract_x
 _atom_site_fract_y
 _atom_site_fract_z
 _atom_site_occupancy
  Ti  Ti0  1  0.35035300  0.00000000  0.52359100  1
  Ti  Ti1  1  0.67765700  0.00000000  0.99427300  1
  Ti  Ti2  1  0.85035300  0.50000000  0.52359100  1
  Ti  Ti3  1  0.17765700  0.50000000  0.99427300  1
  Cr  Cr4  1  0.41532000  0.24793700  0.79095300  1
  Cr  Cr5  1  0.41532000  0.75206300  0.79095300  1
  Cr  Cr6  1  0.82850600  0.00000000  0.28997900  1
  Cr  Cr7  1  0.91532000  0.74793700  0.79095300  1
  Cr  Cr8  1  0.91532000  0.25206300  0.79095300  1
  Cr  Cr9  1  0.32850600  0.50000000  0.28997900  1
  Sb  Sb10  1  0.16700800  0.00000000  0.78933500  1
  Sb  Sb11  1  0.58103800  0.75193400  0.28763400  1
  Sb  Sb12  1  0.58103800  0.24806600  0.28763400  1
  Sb  Sb13  1  0.66700800  0.50000000  0.78933500  1
  Sb  Sb14  1  0.08103800  0.25193400  0.28763400  1
  Sb  Sb15  1  0.08103800  0.74806600  0.28763400  1
  O  O16  1  0.41756300  0.24584500  0.39970000  1
  O  O17  1  0.47729900  0.00000000  0.66104700  1
  O  O18  1  0.33145800  0.00000000  0.89880400  1
  O  O19  1  0.00025100  0.00000000  0.68911200  1
  O  O20  1  0.99643600  0.00000000  0.17989100  1
  O  O21  1  0.41756300  0.75415500  0.39970000  1
  O  O22  1  0.26279050  0.21156750  0.65572800  1
  O  O23  1  0.26279050  0.78843250  0.65572800  1
  O  O24  1  0.82777700  0.00000000  0.90004400  1
  O  O25  1  0.16434100  0.00000000  0.39840000  1
  O  O26  1  0.73429350  0.21304950  0.16142700  1
  O  O27  1  0.73429350  0.78695050  0.16142700  1
  O  O28  1  0.66424800  0.00000000  0.40591000  1
  O  O29  1  0.58818300  0.24345000  0.90171800  1
  O  O30  1  0.51647700  0.00000000  0.15955300  1
  O  O31  1  0.58818300  0.75655000  0.90171800  1
  O  O32  1  0.91756300  0.74584500  0.39970000  1
  O  O33  1  0.97729900  0.50000000  0.66104700  1
  O  O34  1  0.83145800  0.50000000  0.89880400  1
  O  O35  1  0.50025100  0.50000000  0.68911200  1
  O  O36  1  0.49643600  0.50000000  0.17989100  1
  O  O37  1  0.91756300  0.25415500  0.39970000  1
  O  O38  1  0.76279050  0.71156750  0.65572800  1
  O  O39  1  0.76279050  0.28843250  0.65572800  1
  O  O40  1  0.32777700  0.50000000  0.90004400  1
  O  O41  1  0.66434100  0.50000000  0.39840000  1
  O  O42  1  0.23429350  0.71304950  0.16142700  1
  O  O43  1  0.23429350  0.28695050  0.16142700  1
  O  O44  1  0.16424800  0.50000000  0.40591000  1
  O  O45  1  0.08818300  0.74345000  0.90171800  1
  O  O46  1  0.01647700  0.50000000  0.15955300  1
  O  O47  1  0.08818300  0.25655000  0.90171800  1
