# generated using pymatgen
data_LiCrFeO4
_symmetry_space_group_name_H-M   'P 1'
_cell_length_a   5.90073000
_cell_length_b   6.05558200
_cell_length_c   8.37114600
_cell_angle_alpha   90.00000000
_cell_angle_beta   90.00000000
_cell_angle_gamma   90.00000000
_symmetry_Int_Tables_number   1
_chemical_formula_structural   LiCrFeO4
_chemical_formula_sum   'Li4 Cr4 Fe4 O16'
_cell_volume   299.12075540
_cell_formula_units_Z   4
loop_
 _symmetry_equiv_pos_site_id
 _symmetry_equiv_pos_as_xyz
  1  'x, y, z'
loop_
 _atom_site_type_symbol
 _atom_site_label
 _atom_site_symmetry_multiplicity
 _atom_site_fract_x
 _atom_site_fract_y
 _atom_site_fract_z
 _atom_site_occupancy
  Li  Li0  1  0.50000000  0.75000000  0.62599300  1
  Li  Li1  1  0.50000000  0.25000000  0.37400700  1
  Li  Li2  1  0.00000000  0.25000000  0.12599300  1
  Li  Li3  1  0.00000000  0.75000000  0.87400700  1
  Cr  Cr4  1  0.25000000  0.75000000  0.25000000  1
  Cr  Cr5  1  0.75000000  0.75000000  0.25000000  1
  Cr  Cr6  1  0.75000000  0.25000000  0.75000000  1
  Cr  Cr7  1  0.25000000  0.25000000  0.75000000  1
  Fe  Fe8  1  0.50000000  0.00000000  0.00000000  1
  Fe  Fe9  1  0.00000000  0.00000000  0.50000000  1
  Fe  Fe10  1  0.00000000  0.50000000  0.50000000  1
  Fe  Fe11  1  0.50000000  0.50000000  0.00000000  1
  O  O12  1  0.50000000  0.03424450  0.75732750  1
  O  O13  1  0.23033350  0.75000000  0.48020550  1
  O  O14  1  0.76966650  0.75000000  0.48020550  1
  O  O15  1  0.00000000  0.96575550  0.25732750  1
  O  O16  1  0.00000000  0.03424450  0.74267250  1
  O  O17  1  0.76966650  0.25000000  0.51979450  1
  O  O18  1  0.23033350  0.25000000  0.51979450  1
  O  O19  1  0.50000000  0.96575550  0.24267250  1
  O  O20  1  0.00000000  0.53424450  0.25732750  1
  O  O21  1  0.73033350  0.25000000  0.98020550  1
  O  O22  1  0.26966650  0.25000000  0.98020550  1
  O  O23  1  0.50000000  0.46575550  0.75732750  1
  O  O24  1  0.50000000  0.53424450  0.24267250  1
  O  O25  1  0.26966650  0.75000000  0.01979450  1
  O  O26  1  0.73033350  0.75000000  0.01979450  1
  O  O27  1  0.00000000  0.46575550  0.74267250  1
