# generated using pymatgen
data_Li2Si3NiO8
_symmetry_space_group_name_H-M   'P 1'
_cell_length_a   6.32859000
_cell_length_b   8.44887600
_cell_length_c   6.64822361
_cell_angle_alpha   90.00000000
_cell_angle_beta   105.53967278
_cell_angle_gamma   90.00000000
_symmetry_Int_Tables_number   1
_chemical_formula_structural   Li2Si3NiO8
_chemical_formula_sum   'Li4 Si6 Ni2 O16'
_cell_volume   342.48260964
_cell_formula_units_Z   2
loop_
 _symmetry_equiv_pos_site_id
 _symmetry_equiv_pos_as_xyz
  1  'x, y, z'
loop_
 _atom_site_type_symbol
 _atom_site_label
 _atom_site_symmetry_multiplicity
 _atom_site_fract_x
 _atom_site_fract_y
 _atom_site_fract_z
 _atom_site_occupancy
  Li  Li0  1  0.14415400  0.30092000  0.74566400  1
  Li  Li1  1  0.43832200  0.81340400  0.47363900  1
  Li  Li2  1  0.56167800  0.31340400  0.52636100  1
  Li  Li3  1  0.85584600  0.80092000  0.25433600  1
  Si  Si4  1  0.58526800  0.51909100  0.97126000  1
  Si  Si5  1  0.76676300  0.18872200  0.91132900  1
  Si  Si6  1  0.83374700  0.66446800  0.70331100  1
  Si  Si7  1  0.16625300  0.16446800  0.29668900  1
  Si  Si8  1  0.23323700  0.68872200  0.08867100  1
  Si  Si9  1  0.41473200  0.01909100  0.02874000  1
  Ni  Ni10  1  0.97374400  0.98929800  0.62110200  1
  Ni  Ni11  1  0.02625600  0.48929800  0.37889800  1
  O  O12  1  0.00593400  0.74098200  0.91667400  1
  O  O13  1  0.66554100  0.03376600  0.00281200  1
  O  O14  1  0.58956600  0.33457000  0.89162400  1
  O  O15  1  0.23465300  0.06906500  0.82201800  1
  O  O16  1  0.60166900  0.62843000  0.76882900  1
  O  O17  1  0.79293700  0.16437100  0.67916700  1
  O  O18  1  0.92900400  0.50240000  0.63336000  1
  O  O19  1  0.76972800  0.80566300  0.52993800  1
  O  O20  1  0.23027200  0.30566300  0.47006200  1
  O  O21  1  0.07099600  0.00240000  0.36664000  1
  O  O22  1  0.20706300  0.66437100  0.32083300  1
  O  O23  1  0.39833100  0.12843000  0.23117100  1
  O  O24  1  0.76534700  0.56906500  0.17798200  1
  O  O25  1  0.41043400  0.83457000  0.10837600  1
  O  O26  1  0.33445900  0.53376600  0.99718800  1
  O  O27  1  0.99406600  0.24098200  0.08332600  1
