# generated using pymatgen
data_Li(FeO2)2
_symmetry_space_group_name_H-M   'P 1'
_cell_length_a   8.31128026
_cell_length_b   8.31305860
_cell_length_c   8.32581125
_cell_angle_alpha   90.00235412
_cell_angle_beta   90.06508225
_cell_angle_gamma   90.15608456
_symmetry_Int_Tables_number   1
_chemical_formula_structural   Li(FeO2)2
_chemical_formula_sum   'Li8 Fe16 O32'
_cell_volume   575.24577569
_cell_formula_units_Z   8
loop_
 _symmetry_equiv_pos_site_id
 _symmetry_equiv_pos_as_xyz
  1  'x, y, z'
loop_
 _atom_site_type_symbol
 _atom_site_label
 _atom_site_symmetry_multiplicity
 _atom_site_fract_x
 _atom_site_fract_y
 _atom_site_fract_z
 _atom_site_occupancy
  Li  Li0  1  0.62473700  0.87918200  0.87439200  1
  Li  Li1  1  0.25509400  0.74667800  0.75133400  1
  Li  Li2  1  0.75530600  0.75064500  0.25148400  1
  Li  Li3  1  0.12107500  0.62366300  0.12330600  1
  Li  Li4  1  0.37931900  0.37691100  0.62629100  1
  Li  Li5  1  0.74825500  0.24511100  0.74881600  1
  Li  Li6  1  0.25227200  0.24804700  0.24928000  1
  Li  Li7  1  0.87488000  0.12111400  0.37443700  1
  Fe  Fe8  1  0.50108100  0.00236700  0.50172200  1
  Fe  Fe9  1  0.87731400  0.88020600  0.62013900  1
  Fe  Fe10  1  0.11935300  0.88044100  0.37869200  1
  Fe  Fe11  1  0.37797400  0.87433600  0.12096800  1
  Fe  Fe12  1  0.87604700  0.62627300  0.88129700  1
  Fe  Fe13  1  0.62137900  0.62200100  0.62034100  1
  Fe  Fe14  1  0.37488600  0.62005300  0.37721700  1
  Fe  Fe15  1  0.99617100  0.50290000  0.49755600  1
  Fe  Fe16  1  0.49651800  0.49871900  0.99522800  1
  Fe  Fe17  1  0.12001100  0.37811400  0.87967300  1
  Fe  Fe18  1  0.87649900  0.37730700  0.12225300  1
  Fe  Fe19  1  0.62191700  0.37737000  0.37735900  1
  Fe  Fe20  1  0.12281900  0.12686400  0.62046800  1
  Fe  Fe21  1  0.37897100  0.12336200  0.87932900  1
  Fe  Fe22  1  0.62132900  0.12421600  0.12294400  1
  Fe  Fe23  1  0.99747100  0.00227000  0.00335500  1
  O  O24  1  0.61728400  0.90469800  0.13036000  1
  O  O25  1  0.37295800  0.90276200  0.88662000  1
  O  O26  1  0.10765400  0.87813700  0.61015700  1
  O  O27  1  0.89526500  0.87495400  0.39434000  1
  O  O28  1  0.12802200  0.87814400  0.14417400  1
  O  O29  1  0.36279500  0.87046500  0.36910400  1
  O  O30  1  0.64204300  0.86050300  0.61945500  1
  O  O31  1  0.87958400  0.86549800  0.86152100  1
  O  O32  1  0.38273100  0.63728400  0.13104300  1
  O  O33  1  0.13457900  0.64084200  0.37679400  1
  O  O34  1  0.86138000  0.63935200  0.62967600  1
  O  O35  1  0.63332600  0.61701500  0.85410400  1
  O  O36  1  0.40301600  0.62666400  0.61456400  1
  O  O37  1  0.62132900  0.60958900  0.39025600  1
  O  O38  1  0.87026700  0.59810700  0.11406000  1
  O  O39  1  0.11475700  0.59654800  0.87355400  1
  O  O40  1  0.40095800  0.38470400  0.37523400  1
  O  O41  1  0.63197500  0.39653700  0.60254400  1
  O  O42  1  0.89026900  0.37755200  0.89065900  1
  O  O43  1  0.10220100  0.37162100  0.10572800  1
  O  O44  1  0.86088100  0.37594400  0.35751500  1
  O  O45  1  0.63515900  0.36368100  0.13554300  1
  O  O46  1  0.35500400  0.35826100  0.87806900  1
  O  O47  1  0.11521400  0.36563000  0.63552100  1
  O  O48  1  0.62290000  0.14365400  0.36153000  1
  O  O49  1  0.85663900  0.14152500  0.12196400  1
  O  O50  1  0.13545900  0.13716900  0.87068100  1
  O  O51  1  0.37042800  0.12391000  0.64653300  1
  O  O52  1  0.60343600  0.13157400  0.89777100  1
  O  O53  1  0.39189900  0.12193800  0.11033200  1
  O  O54  1  0.12656600  0.10078600  0.38684000  1
  O  O55  1  0.88326500  0.09680300  0.62594800  1
