# generated using pymatgen
data_Li2VF4
_symmetry_space_group_name_H-M   'P 1'
_cell_length_a   12.47391734
_cell_length_b   12.47391734
_cell_length_c   11.80667333
_cell_angle_alpha   90.00000000
_cell_angle_beta   90.00000000
_cell_angle_gamma   120.00000000
_symmetry_Int_Tables_number   1
_chemical_formula_structural   Li2VF4
_chemical_formula_sum   'Li36 V18 F72'
_cell_volume   1590.97700359
_cell_formula_units_Z   18
loop_
 _symmetry_equiv_pos_site_id
 _symmetry_equiv_pos_as_xyz
  1  'x, y, z'
loop_
 _atom_site_type_symbol
 _atom_site_label
 _atom_site_symmetry_multiplicity
 _atom_site_fract_x
 _atom_site_fract_y
 _atom_site_fract_z
 _atom_site_occupancy
  Li  Li0  1  0.57713400  0.87299800  0.59236700  1
  Li  Li1  1  0.70413600  0.57713400  0.40763300  1
  Li  Li2  1  0.81756500  0.86483000  0.42552000  1
  Li  Li3  1  0.87299800  0.29586400  0.40763300  1
  Li  Li4  1  0.86483000  0.04726500  0.57448000  1
  Li  Li5  1  0.04726500  0.18243500  0.42552000  1
  Li  Li6  1  0.95273500  0.81756500  0.57448000  1
  Li  Li7  1  0.13517000  0.95273500  0.42552000  1
  Li  Li8  1  0.12700200  0.70413600  0.59236700  1
  Li  Li9  1  0.18243500  0.13517000  0.57448000  1
  Li  Li10  1  0.29586400  0.42286600  0.59236700  1
  Li  Li11  1  0.42286600  0.12700200  0.40763300  1
  Li  Li12  1  0.24380067  0.20633133  0.92570033  1
  Li  Li13  1  0.37080267  0.91046733  0.74096633  1
  Li  Li14  1  0.48423167  0.19816333  0.75885333  1
  Li  Li15  1  0.53966467  0.62919733  0.74096633  1
  Li  Li16  1  0.53149667  0.38059833  0.90781333  1
  Li  Li17  1  0.71393167  0.51576833  0.75885333  1
  Li  Li18  1  0.61940167  0.15089833  0.90781333  1
  Li  Li19  1  0.80183667  0.28606833  0.75885333  1
  Li  Li20  1  0.79366867  0.03746933  0.92570033  1
  Li  Li21  1  0.84910167  0.46850333  0.90781333  1
  Li  Li22  1  0.96253067  0.75619933  0.92570033  1
  Li  Li23  1  0.08953267  0.46033533  0.74096633  1
  Li  Li24  1  0.91046733  0.53966467  0.25903367  1
  Li  Li25  1  0.03746933  0.24380067  0.07429967  1
  Li  Li26  1  0.15089833  0.53149667  0.09218667  1
  Li  Li27  1  0.20633133  0.96253067  0.07429967  1
  Li  Li28  1  0.19816333  0.71393167  0.24114667  1
  Li  Li29  1  0.38059833  0.84910167  0.09218667  1
  Li  Li30  1  0.28606833  0.48423167  0.24114667  1
  Li  Li31  1  0.46850333  0.61940167  0.09218667  1
  Li  Li32  1  0.46033533  0.37080267  0.25903367  1
  Li  Li33  1  0.51576833  0.80183667  0.24114667  1
  Li  Li34  1  0.62919733  0.08953267  0.25903367  1
  Li  Li35  1  0.75619933  0.79366867  0.07429967  1
  V  V36  1  0.84830067  0.05660633  0.23667133  1
  V  V37  1  0.94339367  0.79169433  0.23667133  1
  V  V38  1  0.79169433  0.84830067  0.76332867  1
  V  V39  1  0.20830567  0.15169933  0.23667133  1
  V  V40  1  0.05660633  0.20830567  0.76332867  1
  V  V41  1  0.15169933  0.94339367  0.76332867  1
  V  V42  1  0.51496733  0.38993967  0.57000467  1
  V  V43  1  0.61006033  0.12502767  0.57000467  1
  V  V44  1  0.45836100  0.18163400  0.09666200  1
  V  V45  1  0.87497233  0.48503267  0.57000467  1
  V  V46  1  0.72327300  0.54163900  0.09666200  1
  V  V47  1  0.81836600  0.27672700  0.09666200  1
  V  V48  1  0.18163400  0.72327300  0.90333800  1
  V  V49  1  0.27672700  0.45836100  0.90333800  1
  V  V50  1  0.12502767  0.51496733  0.42999533  1
  V  V51  1  0.54163900  0.81836600  0.90333800  1
  V  V52  1  0.38993967  0.87497233  0.42999533  1
  V  V53  1  0.48503267  0.61006033  0.42999533  1
  F  F54  1  0.67675633  0.70979767  0.41617167  1
  F  F55  1  0.78866500  0.60198100  0.26862700  1
  F  F56  1  0.60198100  0.81331600  0.73137300  1
  F  F57  1  0.81331600  0.21133500  0.26862700  1
  F  F58  1  0.70979767  0.03304133  0.58382833  1
  F  F59  1  0.84042833  0.88467367  0.20787367  1
  F  F60  1  0.83950100  0.87959300  0.59151500  1
  F  F61  1  0.87959300  0.04009200  0.40848500  1
  F  F62  1  0.95990800  0.83950100  0.40848500  1
  F  F63  1  0.04424533  0.15957167  0.20787367  1
  F  F64  1  0.03304133  0.32324367  0.41617167  1
  F  F65  1  0.11532633  0.95575467  0.20787367  1
  F  F66  1  0.88467367  0.04424533  0.79212633  1
  F  F67  1  0.96695867  0.67675633  0.58382833  1
  F  F68  1  0.95575467  0.84042833  0.79212633  1
  F  F69  1  0.04009200  0.16049900  0.59151500  1
  F  F70  1  0.12040700  0.95990800  0.59151500  1
  F  F71  1  0.16049900  0.12040700  0.40848500  1
  F  F72  1  0.15957167  0.11532633  0.79212633  1
  F  F73  1  0.29020233  0.96695867  0.41617167  1
  F  F74  1  0.18668400  0.78866500  0.73137300  1
  F  F75  1  0.39801900  0.18668400  0.26862700  1
  F  F76  1  0.21133500  0.39801900  0.73137300  1
  F  F77  1  0.32324367  0.29020233  0.58382833  1
  F  F78  1  0.34342300  0.04313100  0.74950500  1
  F  F79  1  0.45533167  0.93531433  0.60196033  1
  F  F80  1  0.26864767  0.14664933  0.06470633  1
  F  F81  1  0.47998267  0.54466833  0.60196033  1
  F  F82  1  0.37646433  0.36637467  0.91716167  1
  F  F83  1  0.50709500  0.21800700  0.54120700  1
  F  F84  1  0.50616767  0.21292633  0.92484833  1
  F  F85  1  0.54625967  0.37342533  0.74181833  1
  F  F86  1  0.62657467  0.17283433  0.74181833  1
  F  F87  1  0.71091200  0.49290500  0.54120700  1
  F  F88  1  0.69970800  0.65657700  0.74950500  1
  F  F89  1  0.78199300  0.28908800  0.54120700  1
  F  F90  1  0.55134033  0.37757867  0.12545967  1
  F  F91  1  0.63362533  0.01008967  0.91716167  1
  F  F92  1  0.62242133  0.17376167  0.12545967  1
  F  F93  1  0.70675867  0.49383233  0.92484833  1
  F  F94  1  0.78707367  0.29324133  0.92484833  1
  F  F95  1  0.82716567  0.45374033  0.74181833  1
  F  F96  1  0.82623833  0.44865967  0.12545967  1
  F  F97  1  0.95686900  0.30029200  0.74950500  1
  F  F98  1  0.85335067  0.12199833  0.06470633  1
  F  F99  1  0.06468567  0.52001733  0.60196033  1
  F  F100  1  0.87800167  0.73135233  0.06470633  1
  F  F101  1  0.98991033  0.62353567  0.91716167  1
  F  F102  1  0.01008967  0.37646433  0.08283833  1
  F  F103  1  0.12199833  0.26864767  0.93529367  1
  F  F104  1  0.93531433  0.47998267  0.39803967  1
  F  F105  1  0.14664933  0.87800167  0.93529367  1
  F  F106  1  0.04313100  0.69970800  0.25049500  1
  F  F107  1  0.17376167  0.55134033  0.87454033  1
  F  F108  1  0.17283433  0.54625967  0.25818167  1
  F  F109  1  0.21292633  0.70675867  0.07515167  1
  F  F110  1  0.29324133  0.50616767  0.07515167  1
  F  F111  1  0.37757867  0.82623833  0.87454033  1
  F  F112  1  0.36637467  0.98991033  0.08283833  1
  F  F113  1  0.44865967  0.62242133  0.87454033  1
  F  F114  1  0.21800700  0.71091200  0.45879300  1
  F  F115  1  0.30029200  0.34342300  0.25049500  1
  F  F116  1  0.28908800  0.50709500  0.45879300  1
  F  F117  1  0.37342533  0.82716567  0.25818167  1
  F  F118  1  0.45374033  0.62657467  0.25818167  1
  F  F119  1  0.49383233  0.78707367  0.07515167  1
  F  F120  1  0.49290500  0.78199300  0.45879300  1
  F  F121  1  0.62353567  0.63362533  0.08283833  1
  F  F122  1  0.52001733  0.45533167  0.39803967  1
  F  F123  1  0.73135233  0.85335067  0.93529367  1
  F  F124  1  0.54466833  0.06468567  0.39803967  1
  F  F125  1  0.65657700  0.95686900  0.25049500  1
