# generated using pymatgen
data_Li3V2F12
_symmetry_space_group_name_H-M   'P 1'
_cell_length_a   5.03045500
_cell_length_b   8.84241100
_cell_length_c   9.72815648
_cell_angle_alpha   90.00000000
_cell_angle_beta   91.62877034
_cell_angle_gamma   90.00000000
_symmetry_Int_Tables_number   1
_chemical_formula_structural   Li3V2F12
_chemical_formula_sum   'Li6 V4 F24'
_cell_volume   432.54670628
_cell_formula_units_Z   2
loop_
 _symmetry_equiv_pos_site_id
 _symmetry_equiv_pos_as_xyz
  1  'x, y, z'
loop_
 _atom_site_type_symbol
 _atom_site_label
 _atom_site_symmetry_multiplicity
 _atom_site_fract_x
 _atom_site_fract_y
 _atom_site_fract_z
 _atom_site_occupancy
  Li  Li0  1  0.98405600  0.60715400  0.10828500  1
  Li  Li1  1  0.50349100  0.14991100  0.38231300  1
  Li  Li2  1  0.01797200  0.68503100  0.39770200  1
  Li  Li3  1  0.98405600  0.39284600  0.60828500  1
  Li  Li4  1  0.50349100  0.85008900  0.88231300  1
  Li  Li5  1  0.01797200  0.31496900  0.89770200  1
  V  V6  1  0.00234200  0.99283900  0.13159600  1
  V  V7  1  0.49726300  0.49383700  0.36697100  1
  V  V8  1  0.00234200  0.00716100  0.63159600  1
  V  V9  1  0.49726300  0.50616300  0.86697100  1
  F  F10  1  0.17728900  0.86077300  0.02139700  1
  F  F11  1  0.71177600  0.98147600  0.01658000  1
  F  F12  1  0.12491300  0.14835900  0.03093100  1
  F  F13  1  0.88507600  0.82713600  0.22563300  1
  F  F14  1  0.28967300  0.00335400  0.24806800  1
  F  F15  1  0.82182200  0.11454800  0.24351500  1
  F  F16  1  0.78592100  0.50606000  0.24951800  1
  F  F17  1  0.28933000  0.63135000  0.25877100  1
  F  F18  1  0.35212900  0.32639300  0.28302800  1
  F  F19  1  0.66298400  0.64840400  0.46271800  1
  F  F20  1  0.20190000  0.50889700  0.48798700  1
  F  F21  1  0.67912000  0.34454600  0.47977200  1
  F  F22  1  0.17728900  0.13922700  0.52139700  1
  F  F23  1  0.71177600  0.01852400  0.51658000  1
  F  F24  1  0.12491300  0.85164100  0.53093100  1
  F  F25  1  0.88507600  0.17286400  0.72563300  1
  F  F26  1  0.28967300  0.99664600  0.74806800  1
  F  F27  1  0.82182200  0.88545200  0.74351500  1
  F  F28  1  0.78592100  0.49394000  0.74951800  1
  F  F29  1  0.28933000  0.36865000  0.75877100  1
  F  F30  1  0.35212900  0.67360700  0.78302800  1
  F  F31  1  0.66298400  0.35159600  0.96271800  1
  F  F32  1  0.20190000  0.49110300  0.98798700  1
  F  F33  1  0.67912000  0.65545400  0.97977200  1
