# generated using pymatgen
data_Li4Mn2Co3Cu3O16
_symmetry_space_group_name_H-M   'P 1'
_cell_length_a   10.05388590
_cell_length_b   5.73890189
_cell_length_c   9.29604369
_cell_angle_alpha   90.00000000
_cell_angle_beta   91.68019317
_cell_angle_gamma   90.00000000
_symmetry_Int_Tables_number   1
_chemical_formula_structural   Li4Mn2Co3Cu3O16
_chemical_formula_sum   'Li8 Mn4 Co6 Cu6 O32'
_cell_volume   536.13498269
_cell_formula_units_Z   2
loop_
 _symmetry_equiv_pos_site_id
 _symmetry_equiv_pos_as_xyz
  1  'x, y, z'
loop_
 _atom_site_type_symbol
 _atom_site_label
 _atom_site_symmetry_multiplicity
 _atom_site_fract_x
 _atom_site_fract_y
 _atom_site_fract_z
 _atom_site_occupancy
  Li  Li0  1  0.16338800  0.50000000  0.10358100  1
  Li  Li1  1  0.49989550  0.50000000  0.00572700  1
  Li  Li2  1  0.49897350  0.50000000  0.50562700  1
  Li  Li3  1  0.33822300  0.00000000  0.59811500  1
  Li  Li4  1  0.66338800  0.00000000  0.10358100  1
  Li  Li5  1  0.99989550  0.00000000  0.00572700  1
  Li  Li6  1  0.99897350  0.00000000  0.50562700  1
  Li  Li7  1  0.83822300  0.50000000  0.59811500  1
  Mn  Mn8  1  0.17151100  0.50000000  0.50758400  1
  Mn  Mn9  1  0.32912350  0.00000000  0.02023400  1
  Mn  Mn10  1  0.67151100  0.00000000  0.50758400  1
  Mn  Mn11  1  0.82912350  0.50000000  0.02023400  1
  Co  Co12  1  0.33024250  0.50000000  0.78901600  1
  Co  Co13  1  0.41537800  0.24434000  0.28666600  1
  Co  Co14  1  0.41537800  0.75566000  0.28666600  1
  Co  Co15  1  0.83024250  0.00000000  0.78901600  1
  Co  Co16  1  0.91537800  0.74434000  0.28666600  1
  Co  Co17  1  0.91537800  0.25566000  0.28666600  1
  Cu  Cu18  1  0.08558850  0.74579350  0.78613800  1
  Cu  Cu19  1  0.08558850  0.25420650  0.78613800  1
  Cu  Cu20  1  0.16843550  0.00000000  0.28813400  1
  Cu  Cu21  1  0.58558850  0.24579350  0.78613800  1
  Cu  Cu22  1  0.58558850  0.75420650  0.78613800  1
  Cu  Cu23  1  0.66843550  0.50000000  0.28813400  1
  O  O24  1  0.08010950  0.74911250  0.40699600  1
  O  O25  1  0.02620000  0.50000000  0.64892900  1
  O  O26  1  0.17162200  0.50000000  0.88994600  1
  O  O27  1  0.49378400  0.50000000  0.69715500  1
  O  O28  1  0.49555950  0.50000000  0.19599700  1
  O  O29  1  0.08010950  0.25088750  0.40699600  1
  O  O30  1  0.25055700  0.71414300  0.65530600  1
  O  O31  1  0.25055700  0.28585700  0.65530600  1
  O  O32  1  0.16431350  0.00000000  0.90647900  1
  O  O33  1  0.33473850  0.50000000  0.39862900  1
  O  O34  1  0.26284600  0.22489100  0.15709200  1
  O  O35  1  0.26284600  0.77510900  0.15709200  1
  O  O36  1  0.33766950  0.00000000  0.38684100  1
  O  O37  1  0.40750400  0.25573400  0.90159000  1
  O  O38  1  0.47972300  0.00000000  0.16277400  1
  O  O39  1  0.40750400  0.74426600  0.90159000  1
  O  O40  1  0.58010950  0.24911250  0.40699600  1
  O  O41  1  0.52620000  0.00000000  0.64892900  1
  O  O42  1  0.67162200  0.00000000  0.88994600  1
  O  O43  1  0.99378400  0.00000000  0.69715500  1
  O  O44  1  0.99555950  0.00000000  0.19599700  1
  O  O45  1  0.58010950  0.75088750  0.40699600  1
  O  O46  1  0.75055700  0.21414300  0.65530600  1
  O  O47  1  0.75055700  0.78585700  0.65530600  1
  O  O48  1  0.66431350  0.50000000  0.90647900  1
  O  O49  1  0.83473850  0.00000000  0.39862900  1
  O  O50  1  0.76284600  0.72489100  0.15709200  1
  O  O51  1  0.76284600  0.27510900  0.15709200  1
  O  O52  1  0.83766950  0.50000000  0.38684100  1
  O  O53  1  0.90750400  0.75573400  0.90159000  1
  O  O54  1  0.97972300  0.50000000  0.16277400  1
  O  O55  1  0.90750400  0.24426600  0.90159000  1
