# generated using pymatgen
data_Na6Mn7O10
_symmetry_space_group_name_H-M   'P 1'
_cell_length_a   22.40047000
_cell_length_b   3.52522000
_cell_length_c   8.70607308
_cell_angle_alpha   90.00000000
_cell_angle_beta   107.71798939
_cell_angle_gamma   90.00000000
_symmetry_Int_Tables_number   1
_chemical_formula_structural   Na6Mn7O10
_chemical_formula_sum   'Na12 Mn14 O20'
_cell_volume   654.87849555
_cell_formula_units_Z   2
loop_
 _symmetry_equiv_pos_site_id
 _symmetry_equiv_pos_as_xyz
  1  'x, y, z'
loop_
 _atom_site_type_symbol
 _atom_site_label
 _atom_site_symmetry_multiplicity
 _atom_site_fract_x
 _atom_site_fract_y
 _atom_site_fract_z
 _atom_site_occupancy
  Na  Na0  1  0.00046300  0.00000000  0.82564600  1
  Na  Na1  1  0.37467400  0.50000000  0.25816100  1
  Na  Na2  1  0.28354400  0.00000000  0.34934200  1
  Na  Na3  1  0.20680700  0.50000000  0.59969300  1
  Na  Na4  1  0.10807500  0.00000000  0.73888100  1
  Na  Na5  1  0.00890900  0.00000000  0.17523600  1
  Na  Na6  1  0.50046300  0.50000000  0.82564600  1
  Na  Na7  1  0.87467400  0.00000000  0.25816100  1
  Na  Na8  1  0.78354400  0.50000000  0.34934200  1
  Na  Na9  1  0.70680700  0.00000000  0.59969300  1
  Na  Na10  1  0.60807500  0.50000000  0.73888100  1
  Na  Na11  1  0.50890900  0.50000000  0.17523600  1
  Mn  Mn12  1  0.39759700  0.00000000  0.03747600  1
  Mn  Mn13  1  0.43609600  0.00000000  0.52592100  1
  Mn  Mn14  1  0.34474600  0.50000000  0.71870200  1
  Mn  Mn15  1  0.25081800  0.00000000  0.91461400  1
  Mn  Mn16  1  0.15037300  0.00000000  0.29959300  1
  Mn  Mn17  1  0.05153000  0.50000000  0.46338500  1
  Mn  Mn18  1  0.14308300  0.50000000  0.03158700  1
  Mn  Mn19  1  0.89759700  0.50000000  0.03747600  1
  Mn  Mn20  1  0.93609600  0.50000000  0.52592100  1
  Mn  Mn21  1  0.84474600  0.00000000  0.71870200  1
  Mn  Mn22  1  0.75081800  0.50000000  0.91461400  1
  Mn  Mn23  1  0.65037300  0.50000000  0.29959300  1
  Mn  Mn24  1  0.55153000  0.00000000  0.46338500  1
  Mn  Mn25  1  0.64308300  0.00000000  0.03158700  1
  O  O26  1  0.46257000  0.00000000  0.29289800  1
  O  O27  1  0.38474000  0.50000000  0.52971900  1
  O  O28  1  0.41895300  0.50000000  0.94022700  1
  O  O29  1  0.32126700  0.00000000  0.12058200  1
  O  O30  1  0.28971600  0.00000000  0.71254500  1
  O  O31  1  0.19977700  0.50000000  0.29654700  1
  O  O32  1  0.19020100  0.50000000  0.86112000  1
  O  O33  1  0.09498500  0.00000000  0.05238500  1
  O  O34  1  0.10301800  0.00000000  0.46429100  1
  O  O35  1  0.02683700  0.50000000  0.67441800  1
  O  O36  1  0.96257000  0.50000000  0.29289800  1
  O  O37  1  0.88474000  0.00000000  0.52971900  1
  O  O38  1  0.91895300  0.00000000  0.94022700  1
  O  O39  1  0.82126700  0.50000000  0.12058200  1
  O  O40  1  0.78971600  0.50000000  0.71254500  1
  O  O41  1  0.69977700  0.00000000  0.29654700  1
  O  O42  1  0.69020100  0.00000000  0.86112000  1
  O  O43  1  0.59498500  0.50000000  0.05238500  1
  O  O44  1  0.60301800  0.50000000  0.46429100  1
  O  O45  1  0.52683700  0.00000000  0.67441800  1
