# generated using pymatgen
data_Li4Cr3CoO8
_symmetry_space_group_name_H-M   'P 1'
_cell_length_a   10.27693330
_cell_length_b   5.93540894
_cell_length_c   5.06914141
_cell_angle_alpha   90.00000000
_cell_angle_beta   108.80810527
_cell_angle_gamma   90.00000000
_symmetry_Int_Tables_number   1
_chemical_formula_structural   Li4Cr3CoO8
_chemical_formula_sum   'Li8 Cr6 Co2 O16'
_cell_volume   292.69598868
_cell_formula_units_Z   2
loop_
 _symmetry_equiv_pos_site_id
 _symmetry_equiv_pos_as_xyz
  1  'x, y, z'
loop_
 _atom_site_type_symbol
 _atom_site_label
 _atom_site_symmetry_multiplicity
 _atom_site_fract_x
 _atom_site_fract_y
 _atom_site_fract_z
 _atom_site_occupancy
  Li  Li0  1  0.25000000  0.75000000  0.50000000  1
  Li  Li1  1  0.75000000  0.75000000  0.50000000  1
  Li  Li2  1  0.75065800  0.50000000  0.01116850  1
  Li  Li3  1  0.74934200  0.00000000  0.98883150  1
  Li  Li4  1  0.75000000  0.25000000  0.50000000  1
  Li  Li5  1  0.25000000  0.25000000  0.50000000  1
  Li  Li6  1  0.25065800  0.00000000  0.01116850  1
  Li  Li7  1  0.24934200  0.50000000  0.98883150  1
  Cr  Cr8  1  0.00000000  0.00000000  0.50000000  1
  Cr  Cr9  1  0.00000000  0.75086450  0.00000000  1
  Cr  Cr10  1  0.50000000  0.74913550  0.00000000  1
  Cr  Cr11  1  0.50000000  0.50000000  0.50000000  1
  Cr  Cr12  1  0.50000000  0.25086450  0.00000000  1
  Cr  Cr13  1  0.00000000  0.24913550  0.00000000  1
  Co  Co14  1  0.00000000  0.50000000  0.50000000  1
  Co  Co15  1  0.50000000  0.00000000  0.50000000  1
  O  O16  1  0.89197200  0.50000000  0.75106200  1
  O  O17  1  0.60802800  0.00000000  0.24893800  1
  O  O18  1  0.61354200  0.50000000  0.24007850  1
  O  O19  1  0.88645800  0.00000000  0.75992150  1
  O  O20  1  0.88501300  0.75198350  0.25745850  1
  O  O21  1  0.38501300  0.74801650  0.25745850  1
  O  O22  1  0.11498700  0.75198350  0.74254150  1
  O  O23  1  0.61498700  0.74801650  0.74254150  1
  O  O24  1  0.39197200  0.00000000  0.75106200  1
  O  O25  1  0.10802800  0.50000000  0.24893800  1
  O  O26  1  0.11354200  0.00000000  0.24007850  1
  O  O27  1  0.38645800  0.50000000  0.75992150  1
  O  O28  1  0.38501300  0.25198350  0.25745850  1
  O  O29  1  0.88501300  0.24801650  0.25745850  1
  O  O30  1  0.61498700  0.25198350  0.74254150  1
  O  O31  1  0.11498700  0.24801650  0.74254150  1
