# generated using pymatgen
data_Na7Li4Yb5C12O37
_symmetry_space_group_name_H-M   'P 1'
_cell_length_a   17.88610800
_cell_length_b   10.18972600
_cell_length_c   10.34674487
_cell_angle_alpha   90.00000000
_cell_angle_beta   124.16694964
_cell_angle_gamma   90.00000000
_symmetry_Int_Tables_number   1
_chemical_formula_structural   Na7Li4Yb5C12O37
_chemical_formula_sum   'Na14 Li8 Yb10 C24 O74'
_cell_volume   1560.27109060
_cell_formula_units_Z   2
loop_
 _symmetry_equiv_pos_site_id
 _symmetry_equiv_pos_as_xyz
  1  'x, y, z'
loop_
 _atom_site_type_symbol
 _atom_site_label
 _atom_site_symmetry_multiplicity
 _atom_site_fract_x
 _atom_site_fract_y
 _atom_site_fract_z
 _atom_site_occupancy
  Na  Na0  1  0.37689000  0.73998200  0.88125900  1
  Na  Na1  1  0.37689000  0.26001800  0.88125900  1
  Na  Na2  1  0.13479300  0.50000000  0.89195700  1
  Na  Na3  1  0.11235300  0.00000000  0.36321300  1
  Na  Na4  1  0.38091700  0.50000000  0.62639900  1
  Na  Na5  1  0.12352700  0.75239300  0.12294700  1
  Na  Na6  1  0.12352700  0.24760700  0.12294700  1
  Na  Na7  1  0.87689000  0.23998200  0.88125900  1
  Na  Na8  1  0.87689000  0.76001800  0.88125900  1
  Na  Na9  1  0.63479300  0.00000000  0.89195700  1
  Na  Na10  1  0.61235300  0.50000000  0.36321300  1
  Na  Na11  1  0.88091700  0.00000000  0.62639900  1
  Na  Na12  1  0.62352700  0.25239300  0.12294700  1
  Na  Na13  1  0.62352700  0.74760700  0.12294700  1
  Li  Li14  1  0.00060500  0.00000000  0.99881400  1
  Li  Li15  1  0.24835600  0.74798300  0.99775600  1
  Li  Li16  1  0.24835600  0.25201700  0.99775600  1
  Li  Li17  1  0.12885700  0.50000000  0.35658600  1
  Li  Li18  1  0.50060500  0.50000000  0.99881400  1
  Li  Li19  1  0.74835600  0.24798300  0.99775600  1
  Li  Li20  1  0.74835600  0.75201700  0.99775600  1
  Li  Li21  1  0.62885700  0.00000000  0.35658600  1
  Yb  Yb22  1  0.12028600  0.24206200  0.61453000  1
  Yb  Yb23  1  0.12028600  0.75793800  0.61453000  1
  Yb  Yb24  1  0.37575050  0.74202250  0.36793800  1
  Yb  Yb25  1  0.37575050  0.25797750  0.36793800  1
  Yb  Yb26  1  0.37844600  0.00000000  0.12759000  1
  Yb  Yb27  1  0.62028600  0.74206200  0.61453000  1
  Yb  Yb28  1  0.62028600  0.25793800  0.61453000  1
  Yb  Yb29  1  0.87575050  0.24202250  0.36793800  1
  Yb  Yb30  1  0.87575050  0.75797750  0.36793800  1
  Yb  Yb31  1  0.87844600  0.50000000  0.12759000  1
  C  C32  1  0.22535200  0.00000000  0.78625200  1
  C  C33  1  0.01728600  0.50000000  0.06463500  1
  C  C34  1  0.02922950  0.20164450  0.77293200  1
  C  C35  1  0.22871500  0.28823000  0.48400400  1
  C  C36  1  0.02922950  0.79835550  0.77293200  1
  C  C37  1  0.28912500  0.50000000  0.86738600  1
  C  C38  1  0.02833300  0.50000000  0.47788200  1
  C  C39  1  0.22718600  0.00000000  0.16254700  1
  C  C40  1  0.46001800  0.67513700  0.21286600  1
  C  C41  1  0.46001800  0.32486300  0.21286600  1
  C  C42  1  0.22871500  0.71177000  0.48400400  1
  C  C43  1  0.29014200  0.50000000  0.21315600  1
  C  C44  1  0.72535200  0.50000000  0.78625200  1
  C  C45  1  0.51728600  0.00000000  0.06463500  1
  C  C46  1  0.52922950  0.70164450  0.77293200  1
  C  C47  1  0.72871500  0.78823000  0.48400400  1
  C  C48  1  0.52922950  0.29835550  0.77293200  1
  C  C49  1  0.78912500  0.00000000  0.86738600  1
  C  C50  1  0.52833300  0.00000000  0.47788200  1
  C  C51  1  0.72718600  0.50000000  0.16254700  1
  C  C52  1  0.96001800  0.17513700  0.21286600  1
  C  C53  1  0.96001800  0.82486300  0.21286600  1
  C  C54  1  0.72871500  0.21177000  0.48400400  1
  C  C55  1  0.79014200  0.00000000  0.21315600  1
  O  O56  1  0.25962400  0.11009900  0.85956100  1
  O  O57  1  0.25962400  0.88990100  0.85956100  1
  O  O58  1  0.15697300  0.00000000  0.64133900  1
  O  O59  1  0.49634500  0.65816100  0.84712900  1
  O  O60  1  0.49634500  0.34183900  0.84712900  1
  O  O61  1  0.10719050  0.26144250  0.84425200  1
  O  O62  1  0.10719050  0.73855750  0.84425200  1
  O  O63  1  0.48670550  0.68717650  0.62240200  1
  O  O64  1  0.48670550  0.31282350  0.62240200  1
  O  O65  1  0.25282700  0.60910700  0.86670300  1
  O  O66  1  0.25282700  0.39089300  0.86670300  1
  O  O67  1  0.36659300  0.00000000  0.46687500  1
  O  O68  1  0.15337000  0.00000000  0.15400900  1
  O  O69  1  0.36108600  0.50000000  0.86826600  1
  O  O70  1  0.09888100  0.50000000  0.61750300  1
  O  O71  1  0.26725050  0.89077550  0.16611800  1
  O  O72  1  0.26725050  0.10922450  0.16611800  1
  O  O73  1  0.49436700  0.10937700  0.40298200  1
  O  O74  1  0.49436700  0.89062300  0.40298200  1
  O  O75  1  0.49531550  0.64050950  0.35574000  1
  O  O76  1  0.49531550  0.35949050  0.35574000  1
  O  O77  1  0.26134850  0.67744850  0.62549300  1
  O  O78  1  0.26134850  0.32255150  0.62549300  1
  O  O79  1  0.38902350  0.24911950  0.14565600  1
  O  O80  1  0.38902350  0.75088050  0.14565600  1
  O  O81  1  0.15136150  0.22928550  0.40711900  1
  O  O82  1  0.15136150  0.77071450  0.40711900  1
  O  O83  1  0.26761500  0.32114800  0.41511100  1
  O  O84  1  0.26761500  0.67885200  0.41511100  1
  O  O85  1  0.49297500  0.36472400  0.13770800  1
  O  O86  1  0.49297500  0.63527600  0.13770800  1
  O  O87  1  0.47882450  0.89205150  0.06091500  1
  O  O88  1  0.47882450  0.10794850  0.06091500  1
  O  O89  1  0.09566200  0.50000000  0.08646300  1
  O  O90  1  0.36024500  0.50000000  0.35489200  1
  O  O91  1  0.25585150  0.61040050  0.14349700  1
  O  O92  1  0.25585150  0.38959950  0.14349700  1
  O  O93  1  0.75962400  0.61009900  0.85956100  1
  O  O94  1  0.75962400  0.38990100  0.85956100  1
  O  O95  1  0.65697300  0.50000000  0.64133900  1
  O  O96  1  0.99634500  0.15816100  0.84712900  1
  O  O97  1  0.99634500  0.84183900  0.84712900  1
  O  O98  1  0.60719050  0.76144250  0.84425200  1
  O  O99  1  0.60719050  0.23855750  0.84425200  1
  O  O100  1  0.98670550  0.18717650  0.62240200  1
  O  O101  1  0.98670550  0.81282350  0.62240200  1
  O  O102  1  0.75282700  0.10910700  0.86670300  1
  O  O103  1  0.75282700  0.89089300  0.86670300  1
  O  O104  1  0.86659300  0.50000000  0.46687500  1
  O  O105  1  0.65337000  0.50000000  0.15400900  1
  O  O106  1  0.86108600  0.00000000  0.86826600  1
  O  O107  1  0.59888100  0.00000000  0.61750300  1
  O  O108  1  0.76725050  0.39077550  0.16611800  1
  O  O109  1  0.76725050  0.60922450  0.16611800  1
  O  O110  1  0.99436700  0.60937700  0.40298200  1
  O  O111  1  0.99436700  0.39062300  0.40298200  1
  O  O112  1  0.99531550  0.14050950  0.35574000  1
  O  O113  1  0.99531550  0.85949050  0.35574000  1
  O  O114  1  0.76134850  0.17744850  0.62549300  1
  O  O115  1  0.76134850  0.82255150  0.62549300  1
  O  O116  1  0.88902350  0.74911950  0.14565600  1
  O  O117  1  0.88902350  0.25088050  0.14565600  1
  O  O118  1  0.65136150  0.72928550  0.40711900  1
  O  O119  1  0.65136150  0.27071450  0.40711900  1
  O  O120  1  0.76761500  0.82114800  0.41511100  1
  O  O121  1  0.76761500  0.17885200  0.41511100  1
  O  O122  1  0.99297500  0.86472400  0.13770800  1
  O  O123  1  0.99297500  0.13527600  0.13770800  1
  O  O124  1  0.97882450  0.39205150  0.06091500  1
  O  O125  1  0.97882450  0.60794850  0.06091500  1
  O  O126  1  0.59566200  0.00000000  0.08646300  1
  O  O127  1  0.86024500  0.00000000  0.35489200  1
  O  O128  1  0.75585150  0.11040050  0.14349700  1
  O  O129  1  0.75585150  0.88959950  0.14349700  1
