# generated using pymatgen
data_VFe(PO4)2
_symmetry_space_group_name_H-M   'P 1'
_cell_length_a   8.64282187
_cell_length_b   8.64282187
_cell_length_c   20.63794097
_cell_angle_alpha   90.00000000
_cell_angle_beta   90.00000000
_cell_angle_gamma   120.00000000
_symmetry_Int_Tables_number   1
_chemical_formula_structural   VFe(PO4)2
_chemical_formula_sum   'V9 Fe9 P18 O72'
_cell_volume   1335.08255609
_cell_formula_units_Z   9
loop_
 _symmetry_equiv_pos_site_id
 _symmetry_equiv_pos_as_xyz
  1  'x, y, z'
loop_
 _atom_site_type_symbol
 _atom_site_label
 _atom_site_symmetry_multiplicity
 _atom_site_fract_x
 _atom_site_fract_y
 _atom_site_fract_z
 _atom_site_occupancy
  V  V0  1  0.33333333  0.66666667  0.66800367  1
  V  V1  1  0.33333333  0.66666667  0.52209767  1
  V  V2  1  0.33333333  0.66666667  0.16744767  1
  V  V3  1  0.00000000  0.00000000  0.00133700  1
  V  V4  1  0.00000000  0.00000000  0.85543100  1
  V  V5  1  0.00000000  0.00000000  0.50078100  1
  V  V6  1  0.66666667  0.33333333  0.33467033  1
  V  V7  1  0.66666667  0.33333333  0.18876433  1
  V  V8  1  0.66666667  0.33333333  0.83411433  1
  Fe  Fe9  1  0.33333333  0.66666667  0.02106767  1
  Fe  Fe10  1  0.33333333  0.66666667  0.81281067  1
  Fe  Fe11  1  0.33333333  0.66666667  0.31223667  1
  Fe  Fe12  1  0.00000000  0.00000000  0.35440100  1
  Fe  Fe13  1  0.00000000  0.00000000  0.14614400  1
  Fe  Fe14  1  0.00000000  0.00000000  0.64557000  1
  Fe  Fe15  1  0.66666667  0.33333333  0.68773433  1
  Fe  Fe16  1  0.66666667  0.33333333  0.47947733  1
  Fe  Fe17  1  0.66666667  0.33333333  0.97890333  1
  P  P18  1  0.96224433  0.33420167  0.08292567  1
  P  P19  1  0.37195733  0.03775567  0.08292567  1
  P  P20  1  0.66579833  0.62804267  0.08292567  1
  P  P21  1  0.99943667  0.70346933  0.24953733  1
  P  P22  1  0.29653067  0.29596733  0.24953733  1
  P  P23  1  0.70403267  0.00056333  0.24953733  1
  P  P24  1  0.62891100  0.66753500  0.41625900  1
  P  P25  1  0.03862400  0.37108900  0.41625900  1
  P  P26  1  0.33246500  0.96137600  0.41625900  1
  P  P27  1  0.66610333  0.03680267  0.58287067  1
  P  P28  1  0.96319733  0.62930067  0.58287067  1
  P  P29  1  0.37069933  0.33389667  0.58287067  1
  P  P30  1  0.29557767  0.00086833  0.74959233  1
  P  P31  1  0.70529067  0.70442233  0.74959233  1
  P  P32  1  0.99913167  0.29470933  0.74959233  1
  P  P33  1  0.33277000  0.37013600  0.91620400  1
  P  P34  1  0.62986400  0.96263400  0.91620400  1
  P  P35  1  0.03736600  0.66723000  0.91620400  1
  O  O36  1  0.14417733  0.46167167  0.35551367  1
  O  O37  1  0.31749433  0.85582267  0.35551367  1
  O  O38  1  0.53832833  0.68250567  0.35551367  1
  O  O39  1  0.98592967  0.16826733  0.07457633  1
  O  O40  1  0.51863067  0.65414033  0.47746533  1
  O  O41  1  0.15105733  0.50121867  0.09426867  1
  O  O42  1  0.18233767  0.01407033  0.07457633  1
  O  O43  1  0.35016133  0.84894267  0.09426867  1
  O  O44  1  0.98730867  0.79592733  0.18870033  1
  O  O45  1  0.49878133  0.64983867  0.09426867  1
  O  O46  1  0.83289067  0.50930133  0.25715733  1
  O  O47  1  0.20407267  0.19138133  0.18870033  1
  O  O48  1  0.13550967  0.48136933  0.47746533  1
  O  O49  1  0.83173267  0.81766233  0.07457633  1
  O  O50  1  0.16507667  0.67755933  0.24092933  1
  O  O51  1  0.34585967  0.86449033  0.47746533  1
  O  O52  1  0.32244067  0.48751733  0.24092933  1
  O  O53  1  0.49069867  0.32358933  0.25715733  1
  O  O54  1  0.51248267  0.83492333  0.24092933  1
  O  O55  1  0.80861867  0.01269133  0.18870033  1
  O  O56  1  0.67641067  0.16710933  0.25715733  1
  O  O57  1  0.13224467  0.66211833  0.97770533  1
  O  O58  1  0.33788167  0.47012633  0.97770533  1
  O  O59  1  0.52987367  0.86775533  0.97770533  1
  O  O60  1  0.81084400  0.79500500  0.68884700  1
  O  O61  1  0.98416100  0.18915600  0.68884700  1
  O  O62  1  0.20499500  0.01583900  0.68884700  1
  O  O63  1  0.65259633  0.50160067  0.40790967  1
  O  O64  1  0.18529733  0.98747367  0.81079867  1
  O  O65  1  0.81772400  0.83455200  0.42760200  1
  O  O66  1  0.84900433  0.34740367  0.40790967  1
  O  O67  1  0.01682800  0.18227600  0.42760200  1
  O  O68  1  0.65397533  0.12926067  0.52203367  1
  O  O69  1  0.16544800  0.98317200  0.42760200  1
  O  O70  1  0.49955733  0.84263467  0.59049067  1
  O  O71  1  0.87073933  0.52471467  0.52203367  1
  O  O72  1  0.80217633  0.81470267  0.81079867  1
  O  O73  1  0.49839933  0.15099567  0.40790967  1
  O  O74  1  0.83174333  0.01089267  0.57426267  1
  O  O75  1  0.01252633  0.19782367  0.81079867  1
  O  O76  1  0.98910733  0.82085067  0.57426267  1
  O  O77  1  0.15736533  0.65692267  0.59049067  1
  O  O78  1  0.17914933  0.16825667  0.57426267  1
  O  O79  1  0.47528533  0.34602467  0.52203367  1
  O  O80  1  0.34307733  0.50044267  0.59049067  1
  O  O81  1  0.79891133  0.99545167  0.31103867  1
  O  O82  1  0.00454833  0.80345967  0.31103867  1
  O  O83  1  0.19654033  0.20108867  0.31103867  1
  O  O84  1  0.47751067  0.12833833  0.02218033  1
  O  O85  1  0.65082767  0.52248933  0.02218033  1
  O  O86  1  0.87166167  0.34917233  0.02218033  1
  O  O87  1  0.31926300  0.83493400  0.74124300  1
  O  O88  1  0.85196400  0.32080700  0.14413200  1
  O  O89  1  0.48439067  0.16788533  0.76093533  1
  O  O90  1  0.51567100  0.68073700  0.74124300  1
  O  O91  1  0.68349467  0.51560933  0.76093533  1
  O  O92  1  0.32064200  0.46259400  0.85536700  1
  O  O93  1  0.83211467  0.31650533  0.76093533  1
  O  O94  1  0.16622400  0.17596800  0.92382400  1
  O  O95  1  0.53740600  0.85804800  0.85536700  1
  O  O96  1  0.46884300  0.14803600  0.14413200  1
  O  O97  1  0.16506600  0.48432900  0.74124300  1
  O  O98  1  0.49841000  0.34422600  0.90759600  1
  O  O99  1  0.67919300  0.53115700  0.14413200  1
  O  O100  1  0.65577400  0.15418400  0.90759600  1
  O  O101  1  0.82403200  0.99025600  0.92382400  1
  O  O102  1  0.84581600  0.50159000  0.90759600  1
  O  O103  1  0.14195200  0.67935800  0.85536700  1
  O  O104  1  0.00974400  0.83377600  0.92382400  1
  O  O105  1  0.46557800  0.32878500  0.64437200  1
  O  O106  1  0.67121500  0.13679300  0.64437200  1
  O  O107  1  0.86320700  0.53442200  0.64437200  1
