# generated using pymatgen
data_Li3Fe2(SiO4)2
_symmetry_space_group_name_H-M   'P 1'
_cell_length_a   5.06885200
_cell_length_b   11.08150900
_cell_length_c   6.18676286
_cell_angle_alpha   90.00000000
_cell_angle_beta   90.08529409
_cell_angle_gamma   90.00000000
_symmetry_Int_Tables_number   1
_chemical_formula_structural   Li3Fe2(SiO4)2
_chemical_formula_sum   'Li6 Fe4 Si4 O16'
_cell_volume   347.51335767
_cell_formula_units_Z   2
loop_
 _symmetry_equiv_pos_site_id
 _symmetry_equiv_pos_as_xyz
  1  'x, y, z'
loop_
 _atom_site_type_symbol
 _atom_site_label
 _atom_site_symmetry_multiplicity
 _atom_site_fract_x
 _atom_site_fract_y
 _atom_site_fract_z
 _atom_site_occupancy
  Li  Li0  1  0.43008600  0.91236600  0.76038500  1
  Li  Li1  1  0.56991400  0.41236600  0.23961500  1
  Li  Li2  1  0.08107000  0.07924700  0.24651800  1
  Li  Li3  1  0.93631800  0.58536200  0.24786800  1
  Li  Li4  1  0.91893000  0.57924700  0.75348200  1
  Li  Li5  1  0.06368200  0.08536200  0.75213200  1
  Fe  Fe6  1  0.91131600  0.83547100  0.01701600  1
  Fe  Fe7  1  0.08868400  0.33547100  0.98298400  1
  Fe  Fe8  1  0.43041200  0.67096400  0.50145100  1
  Fe  Fe9  1  0.56958800  0.17096400  0.49854900  1
  Si  Si10  1  0.58568400  0.16592600  0.00388900  1
  Si  Si11  1  0.41431600  0.66592600  0.99611100  1
  Si  Si12  1  0.07047200  0.33911500  0.49301800  1
  Si  Si13  1  0.92952800  0.83911500  0.50698200  1
  O  O14  1  0.47373800  0.09638100  0.77546700  1
  O  O15  1  0.52448500  0.59868300  0.77152400  1
  O  O16  1  0.09046600  0.66063300  0.99803400  1
  O  O17  1  0.90953400  0.16063300  0.00196600  1
  O  O18  1  0.47588000  0.30378000  0.00625400  1
  O  O19  1  0.52412000  0.80378000  0.99374600  1
  O  O20  1  0.47551500  0.09868300  0.22847600  1
  O  O21  1  0.52626200  0.59638100  0.22453300  1
  O  O22  1  0.96104700  0.40926200  0.27681900  1
  O  O23  1  0.00773500  0.91351200  0.29151300  1
  O  O24  1  0.39504100  0.32082300  0.47653800  1
  O  O25  1  0.60495900  0.82082300  0.52346200  1
  O  O26  1  0.05259800  0.69653800  0.49824500  1
  O  O27  1  0.94740200  0.19653800  0.50175500  1
  O  O28  1  0.99226500  0.41351200  0.70848700  1
  O  O29  1  0.03895300  0.90926200  0.72318100  1
