# generated using pymatgen
data_Li4Nb3Co3(SnO8)2
_symmetry_space_group_name_H-M   'P 1'
_cell_length_a   10.53657600
_cell_length_b   6.13545600
_cell_length_c   10.03239592
_cell_angle_alpha   90.00000000
_cell_angle_beta   90.51095393
_cell_angle_gamma   90.00000000
_symmetry_Int_Tables_number   1
_chemical_formula_structural   Li4Nb3Co3(SnO8)2
_chemical_formula_sum   'Li8 Nb6 Co6 Sn4 O32'
_cell_volume   648.53548480
_cell_formula_units_Z   2
loop_
 _symmetry_equiv_pos_site_id
 _symmetry_equiv_pos_as_xyz
  1  'x, y, z'
loop_
 _atom_site_type_symbol
 _atom_site_label
 _atom_site_symmetry_multiplicity
 _atom_site_fract_x
 _atom_site_fract_y
 _atom_site_fract_z
 _atom_site_occupancy
  Li  Li0  1  0.66802900  0.00000000  0.09444100  1
  Li  Li1  1  0.00003000  0.00000000  0.00280100  1
  Li  Li2  1  0.02148000  0.00000000  0.51486100  1
  Li  Li3  1  0.33539700  0.00000000  0.61481200  1
  Li  Li4  1  0.16802900  0.50000000  0.09444100  1
  Li  Li5  1  0.50003000  0.50000000  0.00280100  1
  Li  Li6  1  0.52148000  0.50000000  0.51486100  1
  Li  Li7  1  0.83539700  0.50000000  0.61481200  1
  Nb  Nb8  1  0.82600600  0.00000000  0.77918000  1
  Nb  Nb9  1  0.40751150  0.75405150  0.28735500  1
  Nb  Nb10  1  0.40751150  0.24594850  0.28735500  1
  Nb  Nb11  1  0.32600600  0.50000000  0.77918000  1
  Nb  Nb12  1  0.90751150  0.25405150  0.28735500  1
  Nb  Nb13  1  0.90751150  0.74594850  0.28735500  1
  Co  Co14  1  0.58540050  0.75894350  0.78868200  1
  Co  Co15  1  0.58540050  0.24105650  0.78868200  1
  Co  Co16  1  0.19077900  0.00000000  0.28875300  1
  Co  Co17  1  0.08540050  0.25894350  0.78868200  1
  Co  Co18  1  0.08540050  0.74105650  0.78868200  1
  Co  Co19  1  0.69077900  0.50000000  0.28875300  1
  Sn  Sn20  1  0.64819800  0.00000000  0.51730500  1
  Sn  Sn21  1  0.32259200  0.00000000  0.99405100  1
  Sn  Sn22  1  0.14819800  0.50000000  0.51730500  1
  Sn  Sn23  1  0.82259200  0.50000000  0.99405100  1
  O  O24  1  0.57478850  0.74617250  0.39845000  1
  O  O25  1  0.51459900  0.00000000  0.66249200  1
  O  O26  1  0.67823000  0.00000000  0.90065500  1
  O  O27  1  0.99389400  0.00000000  0.69540400  1
  O  O28  1  0.99343600  0.00000000  0.19472800  1
  O  O29  1  0.57478850  0.25382750  0.39845000  1
  O  O30  1  0.74758950  0.78320250  0.64952600  1
  O  O31  1  0.74758950  0.21679750  0.64952600  1
  O  O32  1  0.15430800  0.00000000  0.90372000  1
  O  O33  1  0.82611500  0.00000000  0.39354100  1
  O  O34  1  0.26850150  0.77210950  0.15172000  1
  O  O35  1  0.26850150  0.22789050  0.15172000  1
  O  O36  1  0.35290400  0.00000000  0.41049600  1
  O  O37  1  0.41027050  0.74325750  0.90076900  1
  O  O38  1  0.48251500  0.00000000  0.17194400  1
  O  O39  1  0.41027050  0.25674250  0.90076900  1
  O  O40  1  0.07478850  0.24617250  0.39845000  1
  O  O41  1  0.01459900  0.50000000  0.66249200  1
  O  O42  1  0.17823000  0.50000000  0.90065500  1
  O  O43  1  0.49389400  0.50000000  0.69540400  1
  O  O44  1  0.49343600  0.50000000  0.19472800  1
  O  O45  1  0.07478850  0.75382750  0.39845000  1
  O  O46  1  0.24758950  0.28320250  0.64952600  1
  O  O47  1  0.24758950  0.71679750  0.64952600  1
  O  O48  1  0.65430800  0.50000000  0.90372000  1
  O  O49  1  0.32611500  0.50000000  0.39354100  1
  O  O50  1  0.76850150  0.27210950  0.15172000  1
  O  O51  1  0.76850150  0.72789050  0.15172000  1
  O  O52  1  0.85290400  0.50000000  0.41049600  1
  O  O53  1  0.91027050  0.24325750  0.90076900  1
  O  O54  1  0.98251500  0.50000000  0.17194400  1
  O  O55  1  0.91027050  0.75674250  0.90076900  1
