# generated using pymatgen
data_Li4Cr3Ni(PO4)4
_symmetry_space_group_name_H-M   'P 1'
_cell_length_a   4.78394823
_cell_length_b   6.26996700
_cell_length_c   10.20198877
_cell_angle_alpha   90.00000000
_cell_angle_beta   90.44332679
_cell_angle_gamma   90.00000000
_symmetry_Int_Tables_number   1
_chemical_formula_structural   Li4Cr3Ni(PO4)4
_chemical_formula_sum   'Li4 Cr3 Ni1 P4 O16'
_cell_volume   306.00150824
_cell_formula_units_Z   1
loop_
 _symmetry_equiv_pos_site_id
 _symmetry_equiv_pos_as_xyz
  1  'x, y, z'
loop_
 _atom_site_type_symbol
 _atom_site_label
 _atom_site_symmetry_multiplicity
 _atom_site_fract_x
 _atom_site_fract_y
 _atom_site_fract_z
 _atom_site_occupancy
  Li  Li0  1  0.99424400  0.25199500  0.99817900  1
  Li  Li1  1  0.99424400  0.74800500  0.99817900  1
  Li  Li2  1  0.50243500  0.74530300  0.50248900  1
  Li  Li3  1  0.50243500  0.25469700  0.50248900  1
  Cr  Cr4  1  0.54757800  0.50000000  0.21637300  1
  Cr  Cr5  1  0.45244300  0.00000000  0.78195900  1
  Cr  Cr6  1  0.04510700  0.00000000  0.28491900  1
  Ni  Ni7  1  0.98388000  0.50000000  0.72143100  1
  P  P8  1  0.91675700  0.00000000  0.59603200  1
  P  P9  1  0.58032300  0.00000000  0.09425600  1
  P  P10  1  0.41626500  0.50000000  0.90382900  1
  P  P11  1  0.08465800  0.50000000  0.40708400  1
  O  O12  1  0.80503500  0.00000000  0.45169500  1
  O  O13  1  0.78712300  0.20189200  0.66262700  1
  O  O14  1  0.78712300  0.79810800  0.66262700  1
  O  O15  1  0.76083900  0.50000000  0.39822700  1
  O  O16  1  0.73770500  0.50000000  0.89756200  1
  O  O17  1  0.71568100  0.19846900  0.16074300  1
  O  O18  1  0.71568100  0.80153100  0.16074300  1
  O  O19  1  0.68818800  0.00000000  0.94979500  1
  O  O20  1  0.30555000  0.50000000  0.04723400  1
  O  O21  1  0.27398200  0.69462900  0.83397000  1
  O  O22  1  0.27398200  0.30537100  0.83397000  1
  O  O23  1  0.25668700  0.00000000  0.10132800  1
  O  O24  1  0.24052700  0.00000000  0.60254200  1
  O  O25  1  0.21655300  0.69829600  0.33917500  1
  O  O26  1  0.21655300  0.30170400  0.33917500  1
  O  O27  1  0.19841500  0.50000000  0.55136600  1
