# generated using pymatgen
data_Li4VF7
_symmetry_space_group_name_H-M   'P 1'
_cell_length_a   8.46459200
_cell_length_b   8.46459200
_cell_length_c   8.46459200
_cell_angle_alpha   90.00000000
_cell_angle_beta   90.00000000
_cell_angle_gamma   90.00000000
_symmetry_Int_Tables_number   1
_chemical_formula_structural   Li4VF7
_chemical_formula_sum   'Li16 V4 F28'
_cell_volume   606.48224163
_cell_formula_units_Z   4
loop_
 _symmetry_equiv_pos_site_id
 _symmetry_equiv_pos_as_xyz
  1  'x, y, z'
loop_
 _atom_site_type_symbol
 _atom_site_label
 _atom_site_symmetry_multiplicity
 _atom_site_fract_x
 _atom_site_fract_y
 _atom_site_fract_z
 _atom_site_occupancy
  Li  Li0  1  0.37394100  0.12605900  0.87394100  1
  Li  Li1  1  0.62605900  0.12605900  0.12605900  1
  Li  Li2  1  0.12605900  0.37394100  0.87394100  1
  Li  Li3  1  0.87394100  0.37394100  0.12605900  1
  Li  Li4  1  0.37394100  0.62605900  0.37394100  1
  Li  Li5  1  0.62605900  0.62605900  0.62605900  1
  Li  Li6  1  0.12605900  0.87394100  0.37394100  1
  Li  Li7  1  0.87394100  0.87394100  0.62605900  1
  Li  Li8  1  0.87394100  0.12605900  0.37394100  1
  Li  Li9  1  0.12605900  0.12605900  0.62605900  1
  Li  Li10  1  0.62605900  0.37394100  0.37394100  1
  Li  Li11  1  0.37394100  0.37394100  0.62605900  1
  Li  Li12  1  0.87394100  0.62605900  0.87394100  1
  Li  Li13  1  0.12605900  0.62605900  0.12605900  1
  Li  Li14  1  0.62605900  0.87394100  0.87394100  1
  Li  Li15  1  0.37394100  0.87394100  0.12605900  1
  V  V16  1  0.00000000  0.00000000  0.00000000  1
  V  V17  1  0.00000000  0.50000000  0.50000000  1
  V  V18  1  0.50000000  0.00000000  0.50000000  1
  V  V19  1  0.50000000  0.50000000  0.00000000  1
  F  F20  1  0.50000000  0.26369100  0.00000000  1
  F  F21  1  0.50000000  0.00000000  0.73630900  1
  F  F22  1  0.23630900  0.00000000  0.00000000  1
  F  F23  1  0.00000000  0.23630900  0.00000000  1
  F  F24  1  0.25000000  0.25000000  0.75000000  1
  F  F25  1  0.76369100  0.00000000  0.00000000  1
  F  F26  1  0.50000000  0.00000000  0.26369100  1
  F  F27  1  0.50000000  0.76369100  0.50000000  1
  F  F28  1  0.50000000  0.50000000  0.23630900  1
  F  F29  1  0.23630900  0.50000000  0.50000000  1
  F  F30  1  0.00000000  0.73630900  0.50000000  1
  F  F31  1  0.25000000  0.75000000  0.25000000  1
  F  F32  1  0.76369100  0.50000000  0.50000000  1
  F  F33  1  0.50000000  0.50000000  0.76369100  1
  F  F34  1  0.00000000  0.26369100  0.50000000  1
  F  F35  1  0.00000000  0.00000000  0.23630900  1
  F  F36  1  0.73630900  0.00000000  0.50000000  1
  F  F37  1  0.50000000  0.23630900  0.50000000  1
  F  F38  1  0.75000000  0.25000000  0.25000000  1
  F  F39  1  0.26369100  0.00000000  0.50000000  1
  F  F40  1  0.00000000  0.00000000  0.76369100  1
  F  F41  1  0.00000000  0.76369100  0.00000000  1
  F  F42  1  0.00000000  0.50000000  0.73630900  1
  F  F43  1  0.73630900  0.50000000  0.00000000  1
  F  F44  1  0.50000000  0.73630900  0.00000000  1
  F  F45  1  0.75000000  0.75000000  0.75000000  1
  F  F46  1  0.26369100  0.50000000  0.00000000  1
  F  F47  1  0.00000000  0.50000000  0.26369100  1
