# generated using pymatgen
data_Cu6OF11
_symmetry_space_group_name_H-M   'P 1'
_cell_length_a   4.57206977
_cell_length_b   4.67418095
_cell_length_c   9.95448048
_cell_angle_alpha   82.15912691
_cell_angle_beta   89.15821911
_cell_angle_gamma   88.36069365
_symmetry_Int_Tables_number   1
_chemical_formula_structural   Cu6OF11
_chemical_formula_sum   'Cu6 O1 F11'
_cell_volume   210.64637680
_cell_formula_units_Z   1
loop_
 _symmetry_equiv_pos_site_id
 _symmetry_equiv_pos_as_xyz
  1  'x, y, z'
loop_
 _atom_site_type_symbol
 _atom_site_label
 _atom_site_symmetry_multiplicity
 _atom_site_fract_x
 _atom_site_fract_y
 _atom_site_fract_z
 _atom_site_occupancy
  Cu  Cu0  1  0.98159300  0.02292700  0.00062500  1
  Cu  Cu1  1  0.51409100  0.48730300  0.84121700  1
  Cu  Cu2  1  0.00718100  0.99592200  0.66894000  1
  Cu  Cu3  1  0.49963700  0.50016700  0.49948400  1
  Cu  Cu4  1  0.00090600  0.99728000  0.33246500  1
  Cu  Cu5  1  0.51917800  0.48327000  0.14890300  1
  O  O6  1  0.68857700  0.30102800  0.99489900  1
  F  F7  1  0.79673400  0.78908400  0.81756800  1
  F  F8  1  0.19822900  0.21024900  0.84988600  1
  F  F9  1  0.30553400  0.69827600  0.68596100  1
  F  F10  1  0.70627900  0.29162300  0.65246100  1
  F  F11  1  0.79504000  0.79145600  0.48426500  1
  F  F12  1  0.20807700  0.20635100  0.51613100  1
  F  F13  1  0.29924200  0.70131800  0.34331600  1
  F  F14  1  0.70571300  0.29467200  0.31645800  1
  F  F15  1  0.79080100  0.80002200  0.14983500  1
  F  F16  1  0.20605600  0.20752000  0.18420200  1
  F  F17  1  0.27713300  0.72153100  0.01338900  1
