# generated using pymatgen
data_LiFePO4
_symmetry_space_group_name_H-M   'P 1'
_cell_length_a   5.34450008
_cell_length_b   7.91870012
_cell_length_c   8.37002804
_cell_angle_alpha   90.00000000
_cell_angle_beta   90.00000000
_cell_angle_gamma   90.00000000
_symmetry_Int_Tables_number   1
_chemical_formula_structural   LiFePO4
_chemical_formula_sum   'Li4 Fe4 P4 O16'
_cell_volume   354.23208661
_cell_formula_units_Z   4
loop_
 _symmetry_equiv_pos_site_id
 _symmetry_equiv_pos_as_xyz
  1  'x, y, z'
loop_
 _atom_site_type_symbol
 _atom_site_label
 _atom_site_symmetry_multiplicity
 _atom_site_fract_x
 _atom_site_fract_y
 _atom_site_fract_z
 _atom_site_occupancy
  Li  Li0  1  0.34113900  0.52063600  0.70584000  1
  Li  Li1  1  0.34113900  0.02063600  0.79416000  1
  Li  Li2  1  0.84113900  0.97936400  0.20584000  1
  Li  Li3  1  0.84113900  0.47936400  0.29416000  1
  Fe  Fe4  1  0.47580600  0.67878900  0.06025800  1
  Fe  Fe5  1  0.47580600  0.17878900  0.43974200  1
  Fe  Fe6  1  0.97580600  0.82121100  0.56025800  1
  Fe  Fe7  1  0.97580600  0.32121100  0.93974200  1
  P  P8  1  0.00349800  0.24617500  0.56517900  1
  P  P9  1  0.00349800  0.74617500  0.93482100  1
  P  P10  1  0.50349800  0.25382500  0.06517900  1
  P  P11  1  0.50349800  0.75382500  0.43482100  1
  O  O12  1  0.24633400  0.35509900  0.54933200  1
  O  O13  1  0.24633400  0.85509900  0.95066800  1
  O  O14  1  0.74633400  0.14490100  0.04933200  1
  O  O15  1  0.74633400  0.64490100  0.45066800  1
  O  O16  1  0.34381500  0.73702300  0.58948100  1
  O  O17  1  0.34381500  0.23702300  0.91051900  1
  O  O18  1  0.84381500  0.76297700  0.08948100  1
  O  O19  1  0.84381500  0.26297700  0.41051900  1
  O  O20  1  0.11623600  0.06116300  0.57891400  1
  O  O21  1  0.11623600  0.56116300  0.92108600  1
  O  O22  1  0.61623600  0.43883700  0.07891400  1
  O  O23  1  0.61623600  0.93883700  0.42108600  1
  O  O24  1  0.84279500  0.29169500  0.71023300  1
  O  O25  1  0.84279500  0.79169500  0.78976700  1
  O  O26  1  0.34279500  0.20830500  0.21023300  1
  O  O27  1  0.34279500  0.70830500  0.28976700  1
