# generated using pymatgen
data_LiCrCo3O8
_symmetry_space_group_name_H-M   'P 1'
_cell_length_a   5.73774069
_cell_length_b   5.73774069
_cell_length_c   14.90167404
_cell_angle_alpha   90.00000000
_cell_angle_beta   90.00000000
_cell_angle_gamma   120.00000000
_symmetry_Int_Tables_number   1
_chemical_formula_structural   LiCrCo3O8
_chemical_formula_sum   'Li3 Cr3 Co9 O24'
_cell_volume   424.86164439
_cell_formula_units_Z   3
loop_
 _symmetry_equiv_pos_site_id
 _symmetry_equiv_pos_as_xyz
  1  'x, y, z'
loop_
 _atom_site_type_symbol
 _atom_site_label
 _atom_site_symmetry_multiplicity
 _atom_site_fract_x
 _atom_site_fract_y
 _atom_site_fract_z
 _atom_site_occupancy
  Li  Li0  1  0.66666667  0.33333333  0.83333333  1
  Li  Li1  1  0.33333333  0.66666667  0.16666667  1
  Li  Li2  1  1.00000000  1.00000000  0.50000000  1
  Cr  Cr3  1  0.00000000  0.00000000  0.00000000  1
  Cr  Cr4  1  0.66666667  0.33333333  0.33333333  1
  Cr  Cr5  1  0.33333333  0.66666667  0.66666667  1
  Co  Co6  1  0.83333333  0.16666667  0.66666667  1
  Co  Co7  1  0.83333333  0.66666667  0.66666667  1
  Co  Co8  1  0.33333333  0.16666667  0.66666667  1
  Co  Co9  1  0.50000000  0.50000000  0.00000000  1
  Co  Co10  1  0.50000000  0.00000000  0.00000000  1
  Co  Co11  1  0.00000000  0.50000000  0.00000000  1
  Co  Co12  1  0.16666667  0.83333333  0.33333333  1
  Co  Co13  1  0.16666667  0.33333333  0.33333333  1
  Co  Co14  1  0.66666667  0.83333333  0.33333333  1
  O  O15  1  0.00000000  0.00000000  0.73158883  1
  O  O16  1  0.33333333  0.66666667  0.93507783  1
  O  O17  1  0.50859158  0.49140842  0.73269217  1
  O  O18  1  0.35051650  0.17525825  0.93397450  1
  O  O19  1  0.82474175  0.64948350  0.93397450  1
  O  O20  1  0.50859158  0.01718317  0.73269217  1
  O  O21  1  0.98281683  0.49140842  0.73269217  1
  O  O22  1  0.82474175  0.17525825  0.93397450  1
  O  O23  1  0.66666667  0.33333333  0.06492217  1
  O  O24  1  1.00000000  0.00000000  0.26841117  1
  O  O25  1  0.17525825  0.82474175  0.06602550  1
  O  O26  1  0.01718317  0.50859158  0.26730783  1
  O  O27  1  0.49140842  0.98281683  0.26730783  1
  O  O28  1  0.17525825  0.35051650  0.06602550  1
  O  O29  1  0.64948350  0.82474175  0.06602550  1
  O  O30  1  0.49140842  0.50859158  0.26730783  1
  O  O31  1  0.33333333  0.66666667  0.39825550  1
  O  O32  1  0.66666667  0.33333333  0.60174450  1
  O  O33  1  0.84192492  0.15807508  0.39935883  1
  O  O34  1  0.68384983  0.84192492  0.60064117  1
  O  O35  1  0.15807508  0.31615017  0.60064117  1
  O  O36  1  0.84192492  0.68384983  0.39935883  1
  O  O37  1  0.31615017  0.15807508  0.39935883  1
  O  O38  1  0.15807508  0.84192492  0.60064117  1
