# generated using pymatgen
data_Mn3CoCu2(PO4)6
_symmetry_space_group_name_H-M   'P 1'
_cell_length_a   8.47257922
_cell_length_b   8.47257922
_cell_length_c   20.81911575
_cell_angle_alpha   90.00000000
_cell_angle_beta   90.00000000
_cell_angle_gamma   120.00000000
_symmetry_Int_Tables_number   1
_chemical_formula_structural   Mn3CoCu2(PO4)6
_chemical_formula_sum   'Mn9 Co3 Cu6 P18 O72'
_cell_volume   1294.26792185
_cell_formula_units_Z   3
loop_
 _symmetry_equiv_pos_site_id
 _symmetry_equiv_pos_as_xyz
  1  'x, y, z'
loop_
 _atom_site_type_symbol
 _atom_site_label
 _atom_site_symmetry_multiplicity
 _atom_site_fract_x
 _atom_site_fract_y
 _atom_site_fract_z
 _atom_site_occupancy
  Mn  Mn0  1  0.33333333  0.66666667  0.02436067  1
  Mn  Mn1  1  0.00000000  0.00000000  0.14173267  1
  Mn  Mn2  1  0.33333333  0.66666667  0.30885600  1
  Mn  Mn3  1  0.00000000  0.00000000  0.35769400  1
  Mn  Mn4  1  0.66666667  0.33333333  0.47506600  1
  Mn  Mn5  1  0.00000000  0.00000000  0.64218933  1
  Mn  Mn6  1  0.66666667  0.33333333  0.69102733  1
  Mn  Mn7  1  0.33333333  0.66666667  0.80839933  1
  Mn  Mn8  1  0.66666667  0.33333333  0.97552267  1
  Co  Co9  1  0.66666667  0.33333333  0.19269733  1
  Co  Co10  1  0.33333333  0.66666667  0.52603067  1
  Co  Co11  1  0.00000000  0.00000000  0.85936400  1
  Cu  Cu12  1  0.66666667  0.33333333  0.33139900  1
  Cu  Cu13  1  0.33333333  0.66666667  0.16643567  1
  Cu  Cu14  1  0.33333333  0.66666667  0.66473233  1
  Cu  Cu15  1  0.00000000  0.00000000  0.49976900  1
  Cu  Cu16  1  0.00000000  0.00000000  0.99806567  1
  Cu  Cu17  1  0.66666667  0.33333333  0.83310233  1
  P  P18  1  0.66662333  0.04711967  0.08434267  1
  P  P19  1  0.95288033  0.61950367  0.08434267  1
  P  P20  1  0.38049633  0.33337667  0.08434267  1
  P  P21  1  0.29130433  0.00253667  0.24973367  1
  P  P22  1  0.71123233  0.70869567  0.24973367  1
  P  P23  1  0.99746333  0.28876767  0.24973367  1
  P  P24  1  0.33329000  0.38045300  0.41767600  1
  P  P25  1  0.61954700  0.95283700  0.41767600  1
  P  P26  1  0.04716300  0.66671000  0.41767600  1
  P  P27  1  0.95797100  0.33587000  0.58306700  1
  P  P28  1  0.37789900  0.04202900  0.58306700  1
  P  P29  1  0.66413000  0.62210100  0.58306700  1
  P  P30  1  0.99995667  0.71378633  0.75100933  1
  P  P31  1  0.28621367  0.28617033  0.75100933  1
  P  P32  1  0.71382967  0.00004333  0.75100933  1
  P  P33  1  0.62463767  0.66920333  0.91640033  1
  P  P34  1  0.04456567  0.37536233  0.91640033  1
  P  P35  1  0.33079667  0.95543433  0.91640033  1
  O  O36  1  0.85552933  0.53145567  0.02138967  1
  O  O37  1  0.46854433  0.32407367  0.02138967  1
  O  O38  1  0.67592633  0.14447067  0.02138967  1
  O  O39  1  0.83922300  0.02417000  0.07865200  1
  O  O40  1  0.65608833  0.13585167  0.14604367  1
  O  O41  1  0.49278633  0.85110067  0.08765067  1
  O  O42  1  0.97583000  0.81505300  0.07865200  1
  O  O43  1  0.14889933  0.64168567  0.08765067  1
  O  O44  1  0.18896767  0.99063333  0.18795633  1
  O  O45  1  0.35831433  0.50721367  0.08765067  1
  O  O46  1  0.48447333  0.17475067  0.25405867  1
  O  O47  1  0.80166567  0.81103233  0.18795633  1
  O  O48  1  0.86414833  0.52023667  0.14604367  1
  O  O49  1  0.18494700  0.16077700  0.07865200  1
  O  O50  1  0.30911533  0.82702667  0.24548767  1
  O  O51  1  0.47976333  0.34391167  0.14604367  1
  O  O52  1  0.51791133  0.69088467  0.24548767  1
  O  O53  1  0.69027733  0.51552667  0.25405867  1
  O  O54  1  0.17297333  0.48208867  0.24548767  1
  O  O55  1  0.00936667  0.19833433  0.18795633  1
  O  O56  1  0.82524933  0.30972267  0.25405867  1
  O  O57  1  0.98997967  0.18843333  0.31176333  1
  O  O58  1  0.19845367  0.01002033  0.31176333  1
  O  O59  1  0.81156667  0.80154633  0.31176333  1
  O  O60  1  0.52219600  0.86478900  0.35472300  1
  O  O61  1  0.13521100  0.65740700  0.35472300  1
  O  O62  1  0.34259300  0.47780400  0.35472300  1
  O  O63  1  0.50588967  0.35750333  0.41198533  1
  O  O64  1  0.32275500  0.46918500  0.47937700  1
  O  O65  1  0.15945300  0.18443400  0.42098400  1
  O  O66  1  0.64249667  0.14838633  0.41198533  1
  O  O67  1  0.81556600  0.97501900  0.42098400  1
  O  O68  1  0.85563433  0.32396667  0.52128967  1
  O  O69  1  0.02498100  0.84054700  0.42098400  1
  O  O70  1  0.15114000  0.50808400  0.58739200  1
  O  O71  1  0.46833233  0.14436567  0.52128967  1
  O  O72  1  0.53081500  0.85357000  0.47937700  1
  O  O73  1  0.85161367  0.49411033  0.41198533  1
  O  O74  1  0.97578200  0.16036000  0.57882100  1
  O  O75  1  0.14643000  0.67724500  0.47937700  1
  O  O76  1  0.18457800  0.02421800  0.57882100  1
  O  O77  1  0.35694400  0.84886000  0.58739200  1
  O  O78  1  0.83964000  0.81542200  0.57882100  1
  O  O79  1  0.67603333  0.53166767  0.52128967  1
  O  O80  1  0.49191600  0.64305600  0.58739200  1
  O  O81  1  0.65664633  0.52176667  0.64509667  1
  O  O82  1  0.86512033  0.34335367  0.64509667  1
  O  O83  1  0.47823333  0.13487967  0.64509667  1
  O  O84  1  0.18886267  0.19812233  0.68805633  1
  O  O85  1  0.80187767  0.99074033  0.68805633  1
  O  O86  1  0.00925967  0.81113733  0.68805633  1
  O  O87  1  0.17255633  0.69083667  0.74531867  1
  O  O88  1  0.98942167  0.80251833  0.81271033  1
  O  O89  1  0.82611967  0.51776733  0.75431733  1
  O  O90  1  0.30916333  0.48171967  0.74531867  1
  O  O91  1  0.48223267  0.30835233  0.75431733  1
  O  O92  1  0.52230100  0.65730000  0.85462300  1
  O  O93  1  0.69164767  0.17388033  0.75431733  1
  O  O94  1  0.81780667  0.84141733  0.92072533  1
  O  O95  1  0.13499900  0.47769900  0.85462300  1
  O  O96  1  0.19748167  0.18690333  0.81271033  1
  O  O97  1  0.51828033  0.82744367  0.74531867  1
  O  O98  1  0.64244867  0.49369333  0.91215433  1
  O  O99  1  0.81309667  0.01057833  0.81271033  1
  O  O100  1  0.85124467  0.35755133  0.91215433  1
  O  O101  1  0.02361067  0.18219333  0.92072533  1
  O  O102  1  0.50630667  0.14875533  0.91215433  1
  O  O103  1  0.34270000  0.86500100  0.85462300  1
  O  O104  1  0.15858267  0.97638933  0.92072533  1
  O  O105  1  0.32331300  0.85510000  0.97843000  1
  O  O106  1  0.53178700  0.67668700  0.97843000  1
  O  O107  1  0.14490000  0.46821300  0.97843000  1
