# generated using pymatgen
data_Li4Fe(OF)2
_symmetry_space_group_name_H-M   'P 1'
_cell_length_a   9.97806210
_cell_length_b   3.66066114
_cell_length_c   6.57393767
_cell_angle_alpha   90.00000000
_cell_angle_beta   127.47779865
_cell_angle_gamma   90.00000000
_symmetry_Int_Tables_number   1
_chemical_formula_structural   Li4Fe(OF)2
_chemical_formula_sum   'Li8 Fe2 O4 F4'
_cell_volume   190.55793799
_cell_formula_units_Z   2
loop_
 _symmetry_equiv_pos_site_id
 _symmetry_equiv_pos_as_xyz
  1  'x, y, z'
loop_
 _atom_site_type_symbol
 _atom_site_label
 _atom_site_symmetry_multiplicity
 _atom_site_fract_x
 _atom_site_fract_y
 _atom_site_fract_z
 _atom_site_occupancy
  Li  Li0  1  0.35909900  0.50000000  0.97153200  1
  Li  Li1  1  0.64090100  0.50000000  0.02846800  1
  Li  Li2  1  0.33469688  0.00000000  0.64949725  1
  Li  Li3  1  0.66530312  0.00000000  0.35050275  1
  Li  Li4  1  0.85909900  0.00000000  0.97153200  1
  Li  Li5  1  0.14090100  0.00000000  0.02846800  1
  Li  Li6  1  0.83469688  0.50000000  0.64949725  1
  Li  Li7  1  0.16530312  0.50000000  0.35050275  1
  Fe  Fe8  1  0.50000000  0.50000000  0.50000000  1
  Fe  Fe9  1  0.00000000  0.00000000  0.50000000  1
  O  O10  1  0.41237737  0.50000000  0.69043525  1
  O  O11  1  0.58762263  0.50000000  0.30956475  1
  O  O12  1  0.91237737  0.00000000  0.69043525  1
  O  O13  1  0.08762263  0.00000000  0.30956475  1
  F  F14  1  0.25523675  0.00000000  0.85150850  1
  F  F15  1  0.74476325  0.00000000  0.14849150  1
  F  F16  1  0.75523675  0.50000000  0.85150850  1
  F  F17  1  0.24476325  0.50000000  0.14849150  1
