# generated using pymatgen
data_Nb3Co(PO4)6
_symmetry_space_group_name_H-M   'P 1'
_cell_length_a   8.70648838
_cell_length_b   8.70648838
_cell_length_c   22.08612647
_cell_angle_alpha   90.00000000
_cell_angle_beta   90.00000000
_cell_angle_gamma   120.00000000
_symmetry_Int_Tables_number   1
_chemical_formula_structural   Nb3Co(PO4)6
_chemical_formula_sum   'Nb9 Co3 P18 O72'
_cell_volume   1449.89394477
_cell_formula_units_Z   3
loop_
 _symmetry_equiv_pos_site_id
 _symmetry_equiv_pos_as_xyz
  1  'x, y, z'
loop_
 _atom_site_type_symbol
 _atom_site_label
 _atom_site_symmetry_multiplicity
 _atom_site_fract_x
 _atom_site_fract_y
 _atom_site_fract_z
 _atom_site_occupancy
  Nb  Nb0  1  0.66666667  0.33333333  0.19327333  1
  Nb  Nb1  1  0.33333333  0.66666667  0.30833667  1
  Nb  Nb2  1  0.33333333  0.66666667  0.02803967  1
  Nb  Nb3  1  0.33333333  0.66666667  0.52660667  1
  Nb  Nb4  1  0.00000000  0.00000000  0.64167000  1
  Nb  Nb5  1  0.00000000  0.00000000  0.36137300  1
  Nb  Nb6  1  0.00000000  0.00000000  0.85994000  1
  Nb  Nb7  1  0.66666667  0.33333333  0.97500333  1
  Nb  Nb8  1  0.66666667  0.33333333  0.69470633  1
  Co  Co9  1  0.00000000  0.00000000  0.14423100  1
  Co  Co10  1  0.66666667  0.33333333  0.47756433  1
  Co  Co11  1  0.33333333  0.66666667  0.81089767  1
  P  P12  1  0.00192800  0.27733700  0.24758800  1
  P  P13  1  0.72266300  0.72459100  0.24758800  1
  P  P14  1  0.27540900  0.99807200  0.24758800  1
  P  P15  1  0.37018533  0.32039267  0.08505167  1
  P  P16  1  0.95020733  0.62981467  0.08505167  1
  P  P17  1  0.67960733  0.04979267  0.08505167  1
  P  P18  1  0.66859467  0.61067033  0.58092133  1
  P  P19  1  0.38932967  0.05792433  0.58092133  1
  P  P20  1  0.94207567  0.33140533  0.58092133  1
  P  P21  1  0.03685200  0.65372600  0.41838500  1
  P  P22  1  0.61687400  0.96314800  0.41838500  1
  P  P23  1  0.34627400  0.38312600  0.41838500  1
  P  P24  1  0.33526133  0.94400367  0.91425467  1
  P  P25  1  0.05599633  0.39125767  0.91425467  1
  P  P26  1  0.60874233  0.66473867  0.91425467  1
  P  P27  1  0.70351867  0.98705933  0.75171833  1
  P  P28  1  0.28354067  0.29648133  0.75171833  1
  P  P29  1  0.01294067  0.71645933  0.75171833  1
  O  O30  1  0.69400900  0.16148200  0.02813100  1
  O  O31  1  0.46747300  0.30599100  0.02813100  1
  O  O32  1  0.83768067  0.30264033  0.24252333  1
  O  O33  1  0.83851800  0.53252700  0.02813100  1
  O  O34  1  0.16316833  0.46655367  0.25742367  1
  O  O35  1  0.03356500  0.20065900  0.19072900  1
  O  O36  1  0.69735967  0.53504033  0.24252333  1
  O  O37  1  0.53344633  0.69661467  0.25742367  1
  O  O38  1  0.30338533  0.83683167  0.25742367  1
  O  O39  1  0.49367633  0.35792767  0.14023567  1
  O  O40  1  0.18901367  0.15863733  0.09008133  1
  O  O41  1  0.86425133  0.50632367  0.14023567  1
  O  O42  1  0.79934100  0.83290600  0.19072900  1
  O  O43  1  0.46495967  0.16231933  0.24252333  1
  O  O44  1  0.16709400  0.96643500  0.19072900  1
  O  O45  1  0.35992333  0.49342867  0.07666267  1
  O  O46  1  0.13350533  0.64007667  0.07666267  1
  O  O47  1  0.96962367  0.81098633  0.09008133  1
  O  O48  1  0.64207233  0.13574867  0.14023567  1
  O  O49  1  0.50657133  0.86649467  0.07666267  1
  O  O50  1  0.83072300  0.80490600  0.30583600  1
  O  O51  1  0.84136267  0.03037633  0.09008133  1
  O  O52  1  0.19509400  0.02581700  0.30583600  1
  O  O53  1  0.97418300  0.16927700  0.30583600  1
  O  O54  1  0.36067567  0.49481533  0.36146433  1
  O  O55  1  0.13413967  0.63932433  0.36146433  1
  O  O56  1  0.50434733  0.63597367  0.57585667  1
  O  O57  1  0.50518467  0.86586033  0.36146433  1
  O  O58  1  0.82983500  0.79988700  0.59075700  1
  O  O59  1  0.70023167  0.53399233  0.52406233  1
  O  O60  1  0.36402633  0.86837367  0.57585667  1
  O  O61  1  0.20011300  0.02994800  0.59075700  1
  O  O62  1  0.97005200  0.17016500  0.59075700  1
  O  O63  1  0.16034300  0.69126100  0.47356900  1
  O  O64  1  0.85568033  0.49197067  0.42341467  1
  O  O65  1  0.53091800  0.83965700  0.47356900  1
  O  O66  1  0.46600767  0.16623933  0.52406233  1
  O  O67  1  0.13162633  0.49565267  0.57585667  1
  O  O68  1  0.83376067  0.29976833  0.52406233  1
  O  O69  1  0.02659000  0.82676200  0.40999600  1
  O  O70  1  0.80017200  0.97341000  0.40999600  1
  O  O71  1  0.63629033  0.14431967  0.42341467  1
  O  O72  1  0.30873900  0.46908200  0.47356900  1
  O  O73  1  0.17323800  0.19982800  0.40999600  1
  O  O74  1  0.49738967  0.13823933  0.63916933  1
  O  O75  1  0.50802933  0.36370967  0.42341467  1
  O  O76  1  0.86176067  0.35915033  0.63916933  1
  O  O77  1  0.64084967  0.50261033  0.63916933  1
  O  O78  1  0.02734233  0.82814867  0.69479767  1
  O  O79  1  0.80080633  0.97265767  0.69479767  1
  O  O80  1  0.17101400  0.96930700  0.90919000  1
  O  O81  1  0.17185133  0.19919367  0.69479767  1
  O  O82  1  0.49650167  0.13322033  0.92409033  1
  O  O83  1  0.36689833  0.86732567  0.85739567  1
  O  O84  1  0.03069300  0.20170700  0.90919000  1
  O  O85  1  0.86677967  0.36328133  0.92409033  1
  O  O86  1  0.63671867  0.50349833  0.92409033  1
  O  O87  1  0.82700967  0.02459433  0.80690233  1
  O  O88  1  0.52234700  0.82530400  0.75674800  1
  O  O89  1  0.19758467  0.17299033  0.80690233  1
  O  O90  1  0.13267433  0.49957267  0.85739567  1
  O  O91  1  0.79829300  0.82898600  0.90919000  1
  O  O92  1  0.50042733  0.63310167  0.85739567  1
  O  O93  1  0.69325667  0.16009533  0.74332933  1
  O  O94  1  0.46683867  0.30674333  0.74332933  1
  O  O95  1  0.30295700  0.47765300  0.75674800  1
  O  O96  1  0.97540567  0.80241533  0.80690233  1
  O  O97  1  0.83990467  0.53316133  0.74332933  1
  O  O98  1  0.16405633  0.47157267  0.97250267  1
  O  O99  1  0.17469600  0.69704300  0.75674800  1
  O  O100  1  0.52842733  0.69248367  0.97250267  1
  O  O101  1  0.30751633  0.83594367  0.97250267  1
