# generated using pymatgen
data_Mn3Sb(PO4)6
_symmetry_space_group_name_H-M   'P 1'
_cell_length_a   8.47570368
_cell_length_b   8.47570368
_cell_length_c   21.68902186
_cell_angle_alpha   90.00000000
_cell_angle_beta   90.00000000
_cell_angle_gamma   120.00000000
_symmetry_Int_Tables_number   1
_chemical_formula_structural   Mn3Sb(PO4)6
_chemical_formula_sum   'Mn9 Sb3 P18 O72'
_cell_volume   1349.34227764
_cell_formula_units_Z   3
loop_
 _symmetry_equiv_pos_site_id
 _symmetry_equiv_pos_as_xyz
  1  'x, y, z'
loop_
 _atom_site_type_symbol
 _atom_site_label
 _atom_site_symmetry_multiplicity
 _atom_site_fract_x
 _atom_site_fract_y
 _atom_site_fract_z
 _atom_site_occupancy
  Mn  Mn0  1  0.66666667  0.33333333  0.18868633  1
  Mn  Mn1  1  0.33333333  0.66666667  0.31129967  1
  Mn  Mn2  1  0.33333333  0.66666667  0.02289167  1
  Mn  Mn3  1  0.33333333  0.66666667  0.52201967  1
  Mn  Mn4  1  0.00000000  0.00000000  0.64463300  1
  Mn  Mn5  1  0.00000000  0.00000000  0.35622500  1
  Mn  Mn6  1  0.00000000  0.00000000  0.85535300  1
  Mn  Mn7  1  0.66666667  0.33333333  0.97796633  1
  Mn  Mn8  1  0.66666667  0.33333333  0.68955833  1
  Sb  Sb9  1  0.00000000  0.00000000  0.14268300  1
  Sb  Sb10  1  0.66666667  0.33333333  0.47601633  1
  Sb  Sb11  1  0.33333333  0.66666667  0.80934967  1
  P  P12  1  0.71058600  0.00006000  0.25178000  1
  P  P13  1  0.28947400  0.28941400  0.25178000  1
  P  P14  1  0.99994000  0.71052600  0.25178000  1
  P  P15  1  0.66116500  0.61262500  0.08244000  1
  P  P16  1  0.38737500  0.04854000  0.08244000  1
  P  P17  1  0.95146000  0.33883500  0.08244000  1
  P  P18  1  0.37725267  0.33339333  0.58511333  1
  P  P19  1  0.95614067  0.62274733  0.58511333  1
  P  P20  1  0.66660667  0.04385933  0.58511333  1
  P  P21  1  0.32783167  0.94595833  0.41577333  1
  P  P22  1  0.05404167  0.38187333  0.41577333  1
  P  P23  1  0.61812667  0.67216833  0.41577333  1
  P  P24  1  0.04391933  0.66672667  0.91844667  1
  P  P25  1  0.62280733  0.95608067  0.91844667  1
  P  P26  1  0.33327333  0.37719267  0.91844667  1
  P  P27  1  0.99449833  0.27929167  0.74910667  1
  P  P28  1  0.72070833  0.71520667  0.74910667  1
  P  P29  1  0.28479333  0.00550167  0.74910667  1
  O  O30  1  0.83493800  0.30128500  0.02443800  1
  O  O31  1  0.69871500  0.53365300  0.02443800  1
  O  O32  1  0.69457633  0.17212067  0.24518767  1
  O  O33  1  0.46634700  0.16506200  0.02443800  1
  O  O34  1  0.52247233  0.82889567  0.25652867  1
  O  O35  1  0.78878867  0.96306633  0.19197833  1
  O  O36  1  0.47754433  0.30542367  0.24518767  1
  O  O37  1  0.30642333  0.47752767  0.25652867  1
  O  O38  1  0.17110433  0.69357667  0.25652867  1
  O  O39  1  0.63261633  0.50250367  0.14189467  1
  O  O40  1  0.83514700  0.80442200  0.08669800  1
  O  O41  1  0.49749633  0.13011267  0.14189467  1
  O  O42  1  0.17427767  0.21121133  0.19197833  1
  O  O43  1  0.82787933  0.52245567  0.24518767  1
  O  O44  1  0.03693367  0.82572233  0.19197833  1
  O  O45  1  0.49284333  0.63429967  0.07760767  1
  O  O46  1  0.36570033  0.85854367  0.07760767  1
  O  O47  1  0.19557800  0.03072500  0.08669800  1
  O  O48  1  0.86988733  0.36738367  0.14189467  1
  O  O49  1  0.14145633  0.50715667  0.07760767  1
  O  O50  1  0.20314767  0.16876033  0.30848133  1
  O  O51  1  0.96927500  0.16485300  0.08669800  1
  O  O52  1  0.96561267  0.79685233  0.30848133  1
  O  O53  1  0.83123967  0.03438733  0.30848133  1
  O  O54  1  0.50160467  0.63461833  0.35777133  1
  O  O55  1  0.36538167  0.86698633  0.35777133  1
  O  O56  1  0.36124300  0.50545400  0.57852100  1
  O  O57  1  0.13301367  0.49839533  0.35777133  1
  O  O58  1  0.18913900  0.16222900  0.58986200  1
  O  O59  1  0.45545533  0.29639967  0.52531167  1
  O  O60  1  0.14421100  0.63875700  0.57852100  1
  O  O61  1  0.97309000  0.81086100  0.58986200  1
  O  O62  1  0.83777100  0.02691000  0.58986200  1
  O  O63  1  0.29928300  0.83583700  0.47522800  1
  O  O64  1  0.50181367  0.13775533  0.42003133  1
  O  O65  1  0.16416300  0.46344600  0.47522800  1
  O  O66  1  0.84094433  0.54454467  0.52531167  1
  O  O67  1  0.49454600  0.85578900  0.57852100  1
  O  O68  1  0.70360033  0.15905567  0.52531167  1
  O  O69  1  0.15951000  0.96763300  0.41094100  1
  O  O70  1  0.03236700  0.19187700  0.41094100  1
  O  O71  1  0.86224467  0.36405833  0.42003133  1
  O  O72  1  0.53655400  0.70071700  0.47522800  1
  O  O73  1  0.80812300  0.84049000  0.41094100  1
  O  O74  1  0.86981433  0.50209367  0.64181467  1
  O  O75  1  0.63594167  0.49818633  0.42003133  1
  O  O76  1  0.63227933  0.13018567  0.64181467  1
  O  O77  1  0.49790633  0.36772067  0.64181467  1
  O  O78  1  0.16827133  0.96795167  0.69110467  1
  O  O79  1  0.03204833  0.20031967  0.69110467  1
  O  O80  1  0.02790967  0.83878733  0.91185433  1
  O  O81  1  0.79968033  0.83172867  0.69110467  1
  O  O82  1  0.85580567  0.49556233  0.92319533  1
  O  O83  1  0.12212200  0.62973300  0.85864500  1
  O  O84  1  0.81087767  0.97209033  0.91185433  1
  O  O85  1  0.63975667  0.14419433  0.92319533  1
  O  O86  1  0.50443767  0.36024333  0.92319533  1
  O  O87  1  0.96594967  0.16917033  0.80856133  1
  O  O88  1  0.16848033  0.47108867  0.75336467  1
  O  O89  1  0.83082967  0.79677933  0.80856133  1
  O  O90  1  0.50761100  0.87787800  0.85864500  1
  O  O91  1  0.16121267  0.18912233  0.91185433  1
  O  O92  1  0.37026700  0.49238900  0.85864500  1
  O  O93  1  0.82617667  0.30096633  0.74427433  1
  O  O94  1  0.69903367  0.52521033  0.74427433  1
  O  O95  1  0.52891133  0.69739167  0.75336467  1
  O  O96  1  0.20322067  0.03405033  0.80856133  1
  O  O97  1  0.47478967  0.17382333  0.74427433  1
  O  O98  1  0.53648100  0.83542700  0.97514800  1
  O  O99  1  0.30260833  0.83151967  0.75336467  1
  O  O100  1  0.29894600  0.46351900  0.97514800  1
  O  O101  1  0.16457300  0.70105400  0.97514800  1
