# generated using pymatgen
data_Li2MnF4
_symmetry_space_group_name_H-M   'P 1'
_cell_length_a   12.38686600
_cell_length_b   12.38686600
_cell_length_c   8.52424400
_cell_angle_alpha   90.00000000
_cell_angle_beta   90.00000000
_cell_angle_gamma   90.00000000
_symmetry_Int_Tables_number   1
_chemical_formula_structural   Li2MnF4
_chemical_formula_sum   'Li32 Mn16 F64'
_cell_volume   1307.91268386
_cell_formula_units_Z   16
loop_
 _symmetry_equiv_pos_site_id
 _symmetry_equiv_pos_as_xyz
  1  'x, y, z'
loop_
 _atom_site_type_symbol
 _atom_site_label
 _atom_site_symmetry_multiplicity
 _atom_site_fract_x
 _atom_site_fract_y
 _atom_site_fract_z
 _atom_site_occupancy
  Li  Li0  1  0.14294150  0.25000000  0.37500000  1
  Li  Li1  1  0.63063100  0.86936900  0.25000000  1
  Li  Li2  1  0.13063100  0.13063100  0.00000000  1
  Li  Li3  1  0.25000000  0.14294150  0.62500000  1
  Li  Li4  1  0.75000000  0.85705850  0.62500000  1
  Li  Li5  1  0.86936900  0.63063100  0.75000000  1
  Li  Li6  1  0.86936900  0.86936900  0.00000000  1
  Li  Li7  1  0.85705850  0.75000000  0.37500000  1
  Li  Li8  1  0.14294150  0.75000000  0.37500000  1
  Li  Li9  1  0.63063100  0.13063100  0.25000000  1
  Li  Li10  1  0.13063100  0.86936900  0.00000000  1
  Li  Li11  1  0.75000000  0.14294150  0.62500000  1
  Li  Li12  1  0.25000000  0.85705850  0.62500000  1
  Li  Li13  1  0.86936900  0.36936900  0.75000000  1
  Li  Li14  1  0.86936900  0.13063100  0.00000000  1
  Li  Li15  1  0.85705850  0.25000000  0.37500000  1
  Li  Li16  1  0.64294150  0.75000000  0.87500000  1
  Li  Li17  1  0.13063100  0.36936900  0.75000000  1
  Li  Li18  1  0.63063100  0.63063100  0.50000000  1
  Li  Li19  1  0.75000000  0.64294150  0.12500000  1
  Li  Li20  1  0.25000000  0.35705850  0.12500000  1
  Li  Li21  1  0.36936900  0.13063100  0.25000000  1
  Li  Li22  1  0.36936900  0.36936900  0.50000000  1
  Li  Li23  1  0.35705850  0.25000000  0.87500000  1
  Li  Li24  1  0.64294150  0.25000000  0.87500000  1
  Li  Li25  1  0.13063100  0.63063100  0.75000000  1
  Li  Li26  1  0.63063100  0.36936900  0.50000000  1
  Li  Li27  1  0.25000000  0.64294150  0.12500000  1
  Li  Li28  1  0.75000000  0.35705850  0.12500000  1
  Li  Li29  1  0.36936900  0.86936900  0.25000000  1
  Li  Li30  1  0.36936900  0.63063100  0.50000000  1
  Li  Li31  1  0.35705850  0.75000000  0.87500000  1
  Mn  Mn32  1  0.36424500  0.00000000  0.90030000  1
  Mn  Mn33  1  0.86424500  0.00000000  0.34970000  1
  Mn  Mn34  1  0.00000000  0.63575500  0.09970000  1
  Mn  Mn35  1  0.00000000  0.13575500  0.65030000  1
  Mn  Mn36  1  0.00000000  0.36424500  0.09970000  1
  Mn  Mn37  1  0.00000000  0.86424500  0.65030000  1
  Mn  Mn38  1  0.63575500  0.00000000  0.90030000  1
  Mn  Mn39  1  0.13575500  0.00000000  0.34970000  1
  Mn  Mn40  1  0.86424500  0.50000000  0.40030000  1
  Mn  Mn41  1  0.36424500  0.50000000  0.84970000  1
  Mn  Mn42  1  0.50000000  0.13575500  0.59970000  1
  Mn  Mn43  1  0.50000000  0.63575500  0.15030000  1
  Mn  Mn44  1  0.50000000  0.86424500  0.59970000  1
  Mn  Mn45  1  0.50000000  0.36424500  0.15030000  1
  Mn  Mn46  1  0.13575500  0.50000000  0.40030000  1
  Mn  Mn47  1  0.63575500  0.50000000  0.84970000  1
  F  F48  1  0.12828500  0.25605800  0.13915900  1
  F  F49  1  0.12828500  0.24394200  0.61084100  1
  F  F50  1  0.74394200  0.87171500  0.86084100  1
  F  F51  1  0.24394200  0.12828500  0.38915900  1
  F  F52  1  0.75605800  0.87171500  0.38915900  1
  F  F53  1  0.25605800  0.12828500  0.86084100  1
  F  F54  1  0.36679850  0.00000000  0.13797450  1
  F  F55  1  0.86679850  0.00000000  0.11202550  1
  F  F56  1  0.87171500  0.75605800  0.61084100  1
  F  F57  1  0.87171500  0.74394200  0.13915900  1
  F  F58  1  0.88122750  0.00000000  0.61273450  1
  F  F59  1  0.38122750  0.00000000  0.63726550  1
  F  F60  1  0.00000000  0.36679850  0.86202550  1
  F  F61  1  0.00000000  0.38122750  0.36273450  1
  F  F62  1  0.00000000  0.61877250  0.36273450  1
  F  F63  1  0.00000000  0.11877250  0.38726550  1
  F  F64  1  0.00000000  0.63320150  0.86202550  1
  F  F65  1  0.00000000  0.88122750  0.38726550  1
  F  F66  1  0.00000000  0.13320150  0.88797450  1
  F  F67  1  0.00000000  0.86679850  0.88797450  1
  F  F68  1  0.61877250  0.00000000  0.63726550  1
  F  F69  1  0.11877250  0.00000000  0.61273450  1
  F  F70  1  0.12828500  0.74394200  0.13915900  1
  F  F71  1  0.12828500  0.75605800  0.61084100  1
  F  F72  1  0.63320150  0.00000000  0.13797450  1
  F  F73  1  0.13320150  0.00000000  0.11202550  1
  F  F74  1  0.74394200  0.12828500  0.86084100  1
  F  F75  1  0.24394200  0.87171500  0.38915900  1
  F  F76  1  0.25605800  0.87171500  0.86084100  1
  F  F77  1  0.75605800  0.12828500  0.38915900  1
  F  F78  1  0.87171500  0.25605800  0.13915900  1
  F  F79  1  0.87171500  0.24394200  0.61084100  1
  F  F80  1  0.62828500  0.75605800  0.63915900  1
  F  F81  1  0.62828500  0.74394200  0.11084100  1
  F  F82  1  0.24394200  0.37171500  0.36084100  1
  F  F83  1  0.74394200  0.62828500  0.88915900  1
  F  F84  1  0.25605800  0.37171500  0.88915900  1
  F  F85  1  0.75605800  0.62828500  0.36084100  1
  F  F86  1  0.86679850  0.50000000  0.63797450  1
  F  F87  1  0.36679850  0.50000000  0.61202550  1
  F  F88  1  0.37171500  0.25605800  0.11084100  1
  F  F89  1  0.37171500  0.24394200  0.63915900  1
  F  F90  1  0.38122750  0.50000000  0.11273450  1
  F  F91  1  0.88122750  0.50000000  0.13726550  1
  F  F92  1  0.50000000  0.86679850  0.36202550  1
  F  F93  1  0.50000000  0.88122750  0.86273450  1
  F  F94  1  0.50000000  0.11877250  0.86273450  1
  F  F95  1  0.50000000  0.61877250  0.88726550  1
  F  F96  1  0.50000000  0.13320150  0.36202550  1
  F  F97  1  0.50000000  0.38122750  0.88726550  1
  F  F98  1  0.50000000  0.63320150  0.38797450  1
  F  F99  1  0.50000000  0.36679850  0.38797450  1
  F  F100  1  0.11877250  0.50000000  0.13726550  1
  F  F101  1  0.61877250  0.50000000  0.11273450  1
  F  F102  1  0.62828500  0.24394200  0.63915900  1
  F  F103  1  0.62828500  0.25605800  0.11084100  1
  F  F104  1  0.13320150  0.50000000  0.63797450  1
  F  F105  1  0.63320150  0.50000000  0.61202550  1
  F  F106  1  0.24394200  0.62828500  0.36084100  1
  F  F107  1  0.74394200  0.37171500  0.88915900  1
  F  F108  1  0.75605800  0.37171500  0.36084100  1
  F  F109  1  0.25605800  0.62828500  0.88915900  1
  F  F110  1  0.37171500  0.75605800  0.63915900  1
  F  F111  1  0.37171500  0.74394200  0.11084100  1
