# generated using pymatgen
data_MnFe3Co2(PO4)6
_symmetry_space_group_name_H-M   'P 1'
_cell_length_a   8.62042339
_cell_length_b   8.62042339
_cell_length_c   20.36705295
_cell_angle_alpha   90.00000000
_cell_angle_beta   90.00000000
_cell_angle_gamma   120.00000000
_symmetry_Int_Tables_number   1
_chemical_formula_structural   MnFe3Co2(PO4)6
_chemical_formula_sum   'Mn3 Fe9 Co6 P18 O72'
_cell_volume   1310.73838249
_cell_formula_units_Z   3
loop_
 _symmetry_equiv_pos_site_id
 _symmetry_equiv_pos_as_xyz
  1  'x, y, z'
loop_
 _atom_site_type_symbol
 _atom_site_label
 _atom_site_symmetry_multiplicity
 _atom_site_fract_x
 _atom_site_fract_y
 _atom_site_fract_z
 _atom_site_occupancy
  Mn  Mn0  1  0.33333333  0.66666667  0.80788567  1
  Mn  Mn1  1  0.00000000  0.00000000  0.14121900  1
  Mn  Mn2  1  0.66666667  0.33333333  0.47455233  1
  Fe  Fe3  1  0.33333333  0.66666667  0.31198767  1
  Fe  Fe4  1  0.33333333  0.66666667  0.52275600  1
  Fe  Fe5  1  0.33333333  0.66666667  0.02240767  1
  Fe  Fe6  1  0.00000000  0.00000000  0.64532100  1
  Fe  Fe7  1  0.00000000  0.00000000  0.85608933  1
  Fe  Fe8  1  0.00000000  0.00000000  0.35574100  1
  Fe  Fe9  1  0.66666667  0.33333333  0.97865433  1
  Fe  Fe10  1  0.66666667  0.33333333  0.18942267  1
  Fe  Fe11  1  0.66666667  0.33333333  0.68907433  1
  Co  Co12  1  0.33333333  0.66666667  0.66485333  1
  Co  Co13  1  0.33333333  0.66666667  0.16712867  1
  Co  Co14  1  0.00000000  0.00000000  0.99818667  1
  Co  Co15  1  0.00000000  0.00000000  0.50046200  1
  Co  Co16  1  0.66666667  0.33333333  0.33152000  1
  Co  Co17  1  0.66666667  0.33333333  0.83379533  1
  P  P18  1  0.00241533  0.70951767  0.24889467  1
  P  P19  1  0.70710233  0.99758467  0.24889467  1
  P  P20  1  0.29048233  0.29289767  0.24889467  1
  P  P21  1  0.36894033  0.03675067  0.08507767  1
  P  P22  1  0.96324933  0.33218967  0.08507767  1
  P  P23  1  0.66781033  0.63105967  0.08507767  1
  P  P24  1  0.66908200  0.04285100  0.58222800  1
  P  P25  1  0.37376900  0.33091800  0.58222800  1
  P  P26  1  0.95714900  0.62623100  0.58222800  1
  P  P27  1  0.03560700  0.37008400  0.41841100  1
  P  P28  1  0.62991600  0.66552300  0.41841100  1
  P  P29  1  0.33447700  0.96439300  0.41841100  1
  P  P30  1  0.33574867  0.37618433  0.91556133  1
  P  P31  1  0.04043567  0.66425133  0.91556133  1
  P  P32  1  0.62381567  0.95956433  0.91556133  1
  P  P33  1  0.70227367  0.70341733  0.75174433  1
  P  P34  1  0.29658267  0.99885633  0.75174433  1
  P  P35  1  0.00114367  0.29772633  0.75174433  1
  O  O36  1  0.13127167  0.65194033  0.97746733  1
  O  O37  1  0.52066867  0.86872833  0.97746733  1
  O  O38  1  0.34805967  0.47933133  0.97746733  1
  O  O39  1  0.83447700  0.51869000  0.25896300  1
  O  O40  1  0.99700067  0.80828033  0.18667733  1
  O  O41  1  0.16844500  0.68364400  0.23855700  1
  O  O42  1  0.68421300  0.16552300  0.25896300  1
  O  O43  1  0.51519900  0.83155500  0.23855700  1
  O  O44  1  0.46275700  0.14014900  0.14652700  1
  O  O45  1  0.31635600  0.48480100  0.23855700  1
  O  O46  1  0.17531200  0.01421200  0.07572600  1
  O  O47  1  0.85985100  0.32260800  0.14652700  1
  O  O48  1  0.81127967  0.00299933  0.18667733  1
  O  O49  1  0.48131000  0.31578700  0.25896300  1
  O  O50  1  0.34170367  0.84480433  0.09392533  1
  O  O51  1  0.19171967  0.18872033  0.18667733  1
  O  O52  1  0.15519567  0.49689933  0.09392533  1
  O  O53  1  0.98578800  0.16110000  0.07572600  1
  O  O54  1  0.50310067  0.65829633  0.09392533  1
  O  O55  1  0.67739200  0.53724300  0.14652700  1
  O  O56  1  0.83890000  0.82468800  0.07572600  1
  O  O57  1  0.33152033  0.86608267  0.35584467  1
  O  O58  1  0.13391733  0.46543767  0.35584467  1
  O  O59  1  0.53456233  0.66847967  0.35584467  1
  O  O60  1  0.79793833  0.98527367  0.31080067  1
  O  O61  1  0.18733533  0.20206167  0.31080067  1
  O  O62  1  0.01472633  0.81266467  0.31080067  1
  O  O63  1  0.50114367  0.85202333  0.59229633  1
  O  O64  1  0.66366733  0.14161367  0.52001067  1
  O  O65  1  0.83511167  0.01697733  0.57189033  1
  O  O66  1  0.35087967  0.49885633  0.59229633  1
  O  O67  1  0.18186567  0.16488833  0.57189033  1
  O  O68  1  0.12942367  0.47348233  0.47986033  1
  O  O69  1  0.98302267  0.81813433  0.57189033  1
  O  O70  1  0.84197867  0.34754533  0.40905933  1
  O  O71  1  0.52651767  0.65594133  0.47986033  1
  O  O72  1  0.47794633  0.33633267  0.52001067  1
  O  O73  1  0.14797667  0.64912033  0.59229633  1
  O  O74  1  0.00837033  0.17813767  0.42725867  1
  O  O75  1  0.85838633  0.52205367  0.52001067  1
  O  O76  1  0.82186233  0.83023267  0.42725867  1
  O  O77  1  0.65245467  0.49443333  0.40905933  1
  O  O78  1  0.16976733  0.99162967  0.42725867  1
  O  O79  1  0.34405867  0.87057633  0.47986033  1
  O  O80  1  0.50556667  0.15802133  0.40905933  1
  O  O81  1  0.99818700  0.19941600  0.68917800  1
  O  O82  1  0.80058400  0.79877100  0.68917800  1
  O  O83  1  0.20122900  0.00181300  0.68917800  1
  O  O84  1  0.46460500  0.31860700  0.64413400  1
  O  O85  1  0.85400200  0.53539500  0.64413400  1
  O  O86  1  0.68139300  0.14599800  0.64413400  1
  O  O87  1  0.16781033  0.18535667  0.92562967  1
  O  O88  1  0.33033400  0.47494700  0.85334400  1
  O  O89  1  0.50177833  0.35031067  0.90522367  1
  O  O90  1  0.01754633  0.83218967  0.92562967  1
  O  O91  1  0.84853233  0.49822167  0.90522367  1
  O  O92  1  0.79609033  0.80681567  0.81319367  1
  O  O93  1  0.64968933  0.15146767  0.90522367  1
  O  O94  1  0.50864533  0.68087867  0.74239267  1
  O  O95  1  0.19318433  0.98927467  0.81319367  1
  O  O96  1  0.14461300  0.66966600  0.85334400  1
  O  O97  1  0.81464333  0.98245367  0.92562967  1
  O  O98  1  0.67503700  0.51147100  0.76059200  1
  O  O99  1  0.52505300  0.85538700  0.85334400  1
  O  O100  1  0.48852900  0.16356600  0.76059200  1
  O  O101  1  0.31912133  0.82776667  0.74239267  1
  O  O102  1  0.83643400  0.32496300  0.76059200  1
  O  O103  1  0.01072533  0.20390967  0.81319367  1
  O  O104  1  0.17223333  0.49135467  0.74239267  1
  O  O105  1  0.66485367  0.53274933  0.02251133  1
  O  O106  1  0.46725067  0.13210433  0.02251133  1
  O  O107  1  0.86789567  0.33514633  0.02251133  1
