# generated using pymatgen
data_Li3Cu4SnO8
_symmetry_space_group_name_H-M   'P 1'
_cell_length_a   11.05895800
_cell_length_b   5.81567600
_cell_length_c   5.82704495
_cell_angle_alpha   90.00000000
_cell_angle_beta   121.15426324
_cell_angle_gamma   90.00000000
_symmetry_Int_Tables_number   1
_chemical_formula_structural   Li3Cu4SnO8
_chemical_formula_sum   'Li6 Cu8 Sn2 O16'
_cell_volume   320.71823091
_cell_formula_units_Z   2
loop_
 _symmetry_equiv_pos_site_id
 _symmetry_equiv_pos_as_xyz
  1  'x, y, z'
loop_
 _atom_site_type_symbol
 _atom_site_label
 _atom_site_symmetry_multiplicity
 _atom_site_fract_x
 _atom_site_fract_y
 _atom_site_fract_z
 _atom_site_occupancy
  Li  Li0  1  0.25000000  0.25000000  0.00000000  1
  Li  Li1  1  0.00000000  0.00000000  0.50000000  1
  Li  Li2  1  0.25000000  0.75000000  0.00000000  1
  Li  Li3  1  0.75000000  0.75000000  0.00000000  1
  Li  Li4  1  0.50000000  0.50000000  0.50000000  1
  Li  Li5  1  0.75000000  0.25000000  0.00000000  1
  Cu  Cu6  1  0.00000000  0.50000000  0.50000000  1
  Cu  Cu7  1  0.00000000  0.00000000  0.00000000  1
  Cu  Cu8  1  0.25000000  0.25000000  0.50000000  1
  Cu  Cu9  1  0.25000000  0.75000000  0.50000000  1
  Cu  Cu10  1  0.50000000  0.00000000  0.50000000  1
  Cu  Cu11  1  0.50000000  0.50000000  0.00000000  1
  Cu  Cu12  1  0.75000000  0.75000000  0.50000000  1
  Cu  Cu13  1  0.75000000  0.25000000  0.50000000  1
  Sn  Sn14  1  0.00000000  0.50000000  0.00000000  1
  Sn  Sn15  1  0.50000000  0.00000000  0.00000000  1
  O  O16  1  0.27417600  0.00000000  0.74382700  1
  O  O17  1  0.47491000  0.23369000  0.24064600  1
  O  O18  1  0.47491000  0.76631000  0.24064600  1
  O  O19  1  0.29558100  0.50000000  0.75848600  1
  O  O20  1  0.20441900  0.00000000  0.24151400  1
  O  O21  1  0.02509000  0.73369000  0.75935400  1
  O  O22  1  0.02509000  0.26631000  0.75935400  1
  O  O23  1  0.22582400  0.50000000  0.25617300  1
  O  O24  1  0.77417600  0.50000000  0.74382700  1
  O  O25  1  0.97491000  0.73369000  0.24064600  1
  O  O26  1  0.97491000  0.26631000  0.24064600  1
  O  O27  1  0.79558100  0.00000000  0.75848600  1
  O  O28  1  0.70441900  0.50000000  0.24151400  1
  O  O29  1  0.52509000  0.23369000  0.75935400  1
  O  O30  1  0.52509000  0.76631000  0.75935400  1
  O  O31  1  0.72582400  0.00000000  0.25617300  1
