# generated using pymatgen
data_Na5LiMn2P2(CO7)2
_symmetry_space_group_name_H-M   'P 1'
_cell_length_a   5.19472802
_cell_length_b   6.85551402
_cell_length_c   8.98830607
_cell_angle_alpha   90.00000000
_cell_angle_beta   91.48120675
_cell_angle_gamma   90.00000000
_symmetry_Int_Tables_number   1
_chemical_formula_structural   Na5LiMn2P2(CO7)2
_chemical_formula_sum   'Na5 Li1 Mn2 P2 C2 O14'
_cell_volume   319.98936895
_cell_formula_units_Z   1
loop_
 _symmetry_equiv_pos_site_id
 _symmetry_equiv_pos_as_xyz
  1  'x, y, z'
loop_
 _atom_site_type_symbol
 _atom_site_label
 _atom_site_symmetry_multiplicity
 _atom_site_fract_x
 _atom_site_fract_y
 _atom_site_fract_z
 _atom_site_occupancy
  Na  Na0  1  0.74662800  0.24601100  0.25373900  1
  Na  Na1  1  0.74662800  0.75398900  0.25373900  1
  Na  Na2  1  0.25927500  0.74753900  0.74145700  1
  Na  Na3  1  0.25927500  0.25246100  0.74145700  1
  Na  Na4  1  0.76624400  0.50000000  0.91326400  1
  Li  Li5  1  0.23403800  0.00000000  0.10716700  1
  Mn  Mn6  1  0.22324900  0.50000000  0.35655400  1
  Mn  Mn7  1  0.78093500  0.00000000  0.63303400  1
  P  P8  1  0.28872400  0.00000000  0.40638600  1
  P  P9  1  0.71742500  0.50000000  0.58550200  1
  C  C10  1  0.27125600  0.50000000  0.05915700  1
  C  C11  1  0.71880200  0.00000000  0.95126700  1
  O  O12  1  0.61844200  0.00000000  0.08224400  1
  O  O13  1  0.04360700  0.50000000  0.11636800  1
  O  O14  1  0.47298900  0.50000000  0.14883800  1
  O  O15  1  0.20387200  0.18024400  0.31150700  1
  O  O16  1  0.20387200  0.81975600  0.31150700  1
  O  O17  1  0.58839400  0.00000000  0.42604100  1
  O  O18  1  0.83206700  0.50000000  0.42787000  1
  O  O19  1  0.17208500  0.00000000  0.56412600  1
  O  O20  1  0.41663900  0.50000000  0.56748200  1
  O  O21  1  0.80308100  0.68256900  0.67759000  1
  O  O22  1  0.80308100  0.31743100  0.67759000  1
  O  O23  1  0.56373900  0.00000000  0.83397100  1
  O  O24  1  0.96704300  0.00000000  0.93571400  1
  O  O25  1  0.29858800  0.50000000  0.91639000  1
