# generated using pymatgen
data_Li2MnF4
_symmetry_space_group_name_H-M   'P 1'
_cell_length_a   3.34324577
_cell_length_b   3.34324577
_cell_length_c   25.93504552
_cell_angle_alpha   90.00000000
_cell_angle_beta   90.00000000
_cell_angle_gamma   120.00000000
_symmetry_Int_Tables_number   1
_chemical_formula_structural   Li2MnF4
_chemical_formula_sum   'Li6 Mn3 F12'
_cell_volume   251.04654850
_cell_formula_units_Z   3
loop_
 _symmetry_equiv_pos_site_id
 _symmetry_equiv_pos_as_xyz
  1  'x, y, z'
loop_
 _atom_site_type_symbol
 _atom_site_label
 _atom_site_symmetry_multiplicity
 _atom_site_fract_x
 _atom_site_fract_y
 _atom_site_fract_z
 _atom_site_occupancy
  Li  Li0  1  0.00000000  0.00000000  0.20402800  1
  Li  Li1  1  0.66666667  0.33333333  0.12930533  1
  Li  Li2  1  0.66666667  0.33333333  0.53736133  1
  Li  Li3  1  0.33333333  0.66666667  0.46263867  1
  Li  Li4  1  0.33333333  0.66666667  0.87069467  1
  Li  Li5  1  0.00000000  0.00000000  0.79597200  1
  Mn  Mn6  1  0.00000000  0.00000000  0.00000000  1
  Mn  Mn7  1  0.66666667  0.33333333  0.33333333  1
  Mn  Mn8  1  0.33333333  0.66666667  0.66666667  1
  F  F9  1  0.00000000  0.00000000  0.12598100  1
  F  F10  1  0.33333333  0.66666667  0.29614767  1
  F  F11  1  0.33333333  0.66666667  0.03718567  1
  F  F12  1  0.66666667  0.33333333  0.20735233  1
  F  F13  1  0.66666667  0.33333333  0.45931433  1
  F  F14  1  0.00000000  0.00000000  0.62948100  1
  F  F15  1  0.00000000  0.00000000  0.37051900  1
  F  F16  1  0.33333333  0.66666667  0.54068567  1
  F  F17  1  0.33333333  0.66666667  0.79264767  1
  F  F18  1  0.66666667  0.33333333  0.96281433  1
  F  F19  1  0.66666667  0.33333333  0.70385233  1
  F  F20  1  0.00000000  0.00000000  0.87401900  1
