# generated using pymatgen
data_Co6OF11
_symmetry_space_group_name_H-M   'P 1'
_cell_length_a   6.75940000
_cell_length_b   19.88841800
_cell_length_c   3.20603100
_cell_angle_alpha   90.00000000
_cell_angle_beta   90.00000000
_cell_angle_gamma   90.00000000
_symmetry_Int_Tables_number   1
_chemical_formula_structural   Co6OF11
_chemical_formula_sum   'Co12 O2 F22'
_cell_volume   430.99884250
_cell_formula_units_Z   2
loop_
 _symmetry_equiv_pos_site_id
 _symmetry_equiv_pos_as_xyz
  1  'x, y, z'
loop_
 _atom_site_type_symbol
 _atom_site_label
 _atom_site_symmetry_multiplicity
 _atom_site_fract_x
 _atom_site_fract_y
 _atom_site_fract_z
 _atom_site_occupancy
  Co  Co0  1  0.50000000  0.49895600  0.00000000  1
  Co  Co1  1  0.50000000  0.00817450  0.50000000  1
  Co  Co2  1  0.00000000  0.33670900  0.00000000  1
  Co  Co3  1  0.00000000  0.16823400  0.50000000  1
  Co  Co4  1  0.50000000  0.33029500  0.50000000  1
  Co  Co5  1  0.50000000  0.15857900  0.00000000  1
  Co  Co6  1  0.00000000  0.99895600  0.00000000  1
  Co  Co7  1  0.00000000  0.50817450  0.50000000  1
  Co  Co8  1  0.50000000  0.83670900  0.00000000  1
  Co  Co9  1  0.50000000  0.66823400  0.50000000  1
  Co  Co10  1  0.00000000  0.83029500  0.50000000  1
  Co  Co11  1  0.00000000  0.65857900  0.00000000  1
  O  O12  1  0.50000000  0.09732400  0.50000000  1
  O  O13  1  0.00000000  0.59732400  0.50000000  1
  F  F14  1  0.80522400  0.49824800  0.00000000  1
  F  F15  1  0.19477600  0.49824800  0.00000000  1
  F  F16  1  0.69796000  0.33352100  0.00000000  1
  F  F17  1  0.00000000  0.40506100  0.50000000  1
  F  F18  1  0.00000000  0.27111500  0.50000000  1
  F  F19  1  0.50000000  0.43372000  0.50000000  1
  F  F20  1  0.30204000  0.33352100  0.00000000  1
  F  F21  1  0.19451200  0.16739500  0.00000000  1
  F  F22  1  0.00000000  0.06470700  0.50000000  1
  F  F23  1  0.50000000  0.22902700  0.50000000  1
  F  F24  1  0.80548800  0.16739500  0.00000000  1
  F  F25  1  0.30522400  0.99824800  0.00000000  1
  F  F26  1  0.69477600  0.99824800  0.00000000  1
  F  F27  1  0.19796000  0.83352100  0.00000000  1
  F  F28  1  0.50000000  0.90506100  0.50000000  1
  F  F29  1  0.50000000  0.77111500  0.50000000  1
  F  F30  1  0.00000000  0.93372000  0.50000000  1
  F  F31  1  0.80204000  0.83352100  0.00000000  1
  F  F32  1  0.69451200  0.66739500  0.00000000  1
  F  F33  1  0.50000000  0.56470700  0.50000000  1
  F  F34  1  0.00000000  0.72902700  0.50000000  1
  F  F35  1  0.30548800  0.66739500  0.00000000  1
