# generated using pymatgen
data_Li(CoO2)2
_symmetry_space_group_name_H-M   'P 1'
_cell_length_a   5.71350434
_cell_length_b   5.71350434
_cell_length_c   14.23238597
_cell_angle_alpha   90.00000000
_cell_angle_beta   90.00000000
_cell_angle_gamma   120.00000000
_symmetry_Int_Tables_number   1
_chemical_formula_structural   Li(CoO2)2
_chemical_formula_sum   'Li6 Co12 O24'
_cell_volume   402.35876583
_cell_formula_units_Z   6
loop_
 _symmetry_equiv_pos_site_id
 _symmetry_equiv_pos_as_xyz
  1  'x, y, z'
loop_
 _atom_site_type_symbol
 _atom_site_label
 _atom_site_symmetry_multiplicity
 _atom_site_fract_x
 _atom_site_fract_y
 _atom_site_fract_z
 _atom_site_occupancy
  Li  Li0  1  0.00000000  0.00000000  0.12139700  1
  Li  Li1  1  0.33333333  0.66666667  0.16668967  1
  Li  Li2  1  0.66666667  0.33333333  0.45473033  1
  Li  Li3  1  0.00000000  0.00000000  0.50002300  1
  Li  Li4  1  0.33333333  0.66666667  0.78806367  1
  Li  Li5  1  0.66666667  0.33333333  0.83335633  1
  Co  Co6  1  0.00471600  0.50235800  0.00095400  1
  Co  Co7  1  0.49764200  0.50235800  0.00095400  1
  Co  Co8  1  0.49764200  0.99528400  0.00095400  1
  Co  Co9  1  0.66666667  0.33333333  0.21198233  1
  Co  Co10  1  0.67138267  0.83569133  0.33428733  1
  Co  Co11  1  0.16430867  0.83569133  0.33428733  1
  Co  Co12  1  0.16430867  0.32861733  0.33428733  1
  Co  Co13  1  0.33333333  0.66666667  0.54531567  1
  Co  Co14  1  0.33804933  0.16902467  0.66762067  1
  Co  Co15  1  0.83097533  0.16902467  0.66762067  1
  Co  Co16  1  0.83097533  0.66195067  0.66762067  1
  Co  Co17  1  0.00000000  0.00000000  0.87864900  1
  O  O18  1  0.00000000  0.00000000  0.26312700  1
  O  O19  1  0.18111600  0.36223200  0.06881600  1
  O  O20  1  0.18111600  0.81888400  0.06881600  1
  O  O21  1  0.63776800  0.81888400  0.06881600  1
  O  O22  1  0.02754933  0.51377467  0.26265567  1
  O  O23  1  0.48622533  0.51377467  0.26265567  1
  O  O24  1  0.48622533  0.97245067  0.26265567  1
  O  O25  1  0.66666667  0.33333333  0.07285833  1
  O  O26  1  0.66666667  0.33333333  0.59646033  1
  O  O27  1  0.84778267  0.69556533  0.40214933  1
  O  O28  1  0.84778267  0.15221733  0.40214933  1
  O  O29  1  0.30443467  0.15221733  0.40214933  1
  O  O30  1  0.69421600  0.84710800  0.59598900  1
  O  O31  1  0.15289200  0.84710800  0.59598900  1
  O  O32  1  0.15289200  0.30578400  0.59598900  1
  O  O33  1  0.33333333  0.66666667  0.40619167  1
  O  O34  1  0.33333333  0.66666667  0.92979367  1
  O  O35  1  0.51444933  0.02889867  0.73548267  1
  O  O36  1  0.51444933  0.48555067  0.73548267  1
  O  O37  1  0.97110133  0.48555067  0.73548267  1
  O  O38  1  0.36088267  0.18044133  0.92932233  1
  O  O39  1  0.81955867  0.18044133  0.92932233  1
  O  O40  1  0.81955867  0.63911733  0.92932233  1
  O  O41  1  0.00000000  0.00000000  0.73952500  1
