# generated using pymatgen
data_Sr3Li4La5O12
_symmetry_space_group_name_H-M   'P 1'
_cell_length_a   6.98671400
_cell_length_b   3.59119400
_cell_length_c   13.61394379
_cell_angle_alpha   90.00000000
_cell_angle_beta   90.05723711
_cell_angle_gamma   90.00000000
_symmetry_Int_Tables_number   1
_chemical_formula_structural   Sr3Li4La5O12
_chemical_formula_sum   'Sr3 Li4 La5 O12'
_cell_volume   341.58246572
_cell_formula_units_Z   1
loop_
 _symmetry_equiv_pos_site_id
 _symmetry_equiv_pos_as_xyz
  1  'x, y, z'
loop_
 _atom_site_type_symbol
 _atom_site_label
 _atom_site_symmetry_multiplicity
 _atom_site_fract_x
 _atom_site_fract_y
 _atom_site_fract_z
 _atom_site_occupancy
  Sr  Sr0  1  0.08697500  0.50000000  0.78249200  1
  Sr  Sr1  1  0.58831700  0.50000000  0.72092500  1
  Sr  Sr2  1  0.41083500  0.00000000  0.27957600  1
  Li  Li3  1  0.37657000  0.00000000  0.86562600  1
  Li  Li4  1  0.87629600  0.00000000  0.63531800  1
  Li  Li5  1  0.12473800  0.50000000  0.36854900  1
  Li  Li6  1  0.61718400  0.50000000  0.13136900  1
  La  La7  1  0.75839900  0.00000000  0.95712200  1
  La  La8  1  0.25736300  0.00000000  0.54423200  1
  La  La9  1  0.74252700  0.50000000  0.45843600  1
  La  La10  1  0.91407200  0.00000000  0.21699200  1
  La  La11  1  0.23978000  0.50000000  0.04260700  1
  O  O12  1  0.13155600  0.00000000  0.93150900  1
  O  O13  1  0.51342200  0.50000000  0.90356000  1
  O  O14  1  0.81912900  0.00000000  0.77727100  1
  O  O15  1  0.31972700  0.00000000  0.71921400  1
  O  O16  1  0.01014300  0.50000000  0.59339400  1
  O  O17  1  0.63365900  0.00000000  0.56308700  1
  O  O18  1  0.37007400  0.50000000  0.43634300  1
  O  O19  1  0.98952100  0.00000000  0.39700400  1
  O  O20  1  0.68709400  0.50000000  0.27655500  1
  O  O21  1  0.16836300  0.50000000  0.22771800  1
  O  O22  1  0.49808000  0.00000000  0.10018600  1
  O  O23  1  0.86617600  0.50000000  0.07091300  1
