# generated using pymatgen
data_Li4V2Fe5O12
_symmetry_space_group_name_H-M   'P 1'
_cell_length_a   5.12407362
_cell_length_b   9.06229221
_cell_length_c   9.97310025
_cell_angle_alpha   90.00000000
_cell_angle_beta   101.65823212
_cell_angle_gamma   90.00000000
_symmetry_Int_Tables_number   1
_chemical_formula_structural   Li4V2Fe5O12
_chemical_formula_sum   'Li8 V4 Fe10 O24'
_cell_volume   453.55564035
_cell_formula_units_Z   2
loop_
 _symmetry_equiv_pos_site_id
 _symmetry_equiv_pos_as_xyz
  1  'x, y, z'
loop_
 _atom_site_type_symbol
 _atom_site_label
 _atom_site_symmetry_multiplicity
 _atom_site_fract_x
 _atom_site_fract_y
 _atom_site_fract_z
 _atom_site_occupancy
  Li  Li0  1  0.00712600  0.92047500  0.25437700  1
  Li  Li1  1  0.48701300  0.92214300  0.74243400  1
  Li  Li2  1  0.75810400  0.57908000  0.49698500  1
  Li  Li3  1  0.50170300  0.58358100  0.74901700  1
  Li  Li4  1  0.99287400  0.42047500  0.74562300  1
  Li  Li5  1  0.51298700  0.42214300  0.25756600  1
  Li  Li6  1  0.24189600  0.07908000  0.50301500  1
  Li  Li7  1  0.49829700  0.08358100  0.25098300  1
  V  V8  1  0.24544900  0.74543800  0.49295700  1
  V  V9  1  0.75468100  0.74698800  0.00565600  1
  V  V10  1  0.24531900  0.24698800  0.99434400  1
  V  V11  1  0.75455100  0.24543800  0.50704300  1
  Fe  Fe12  1  0.24842200  0.92290600  0.99200200  1
  Fe  Fe13  1  0.75390000  0.92561600  0.50717800  1
  Fe  Fe14  1  0.99359600  0.75584800  0.74666300  1
  Fe  Fe15  1  0.50840300  0.74638100  0.25200400  1
  Fe  Fe16  1  0.23880000  0.57857000  0.99816900  1
  Fe  Fe17  1  0.24610000  0.42561600  0.49282200  1
  Fe  Fe18  1  0.75157800  0.42290600  0.00799800  1
  Fe  Fe19  1  0.00640400  0.25584800  0.25333700  1
  Fe  Fe20  1  0.49159700  0.24638100  0.74799600  1
  Fe  Fe21  1  0.76120000  0.07857000  0.00183100  1
  O  O22  1  0.12364000  0.89907300  0.61033900  1
  O  O23  1  0.84644700  0.90549100  0.88578500  1
  O  O24  1  0.88526100  0.76402000  0.38477900  1
  O  O25  1  0.63557900  0.90916100  0.12841800  1
  O  O26  1  0.38534400  0.89969500  0.37409500  1
  O  O27  1  0.13786600  0.74955200  0.11486700  1
  O  O28  1  0.13869600  0.59143800  0.60941400  1
  O  O29  1  0.59838900  0.76084800  0.61018500  1
  O  O30  1  0.38346800  0.73954500  0.88445300  1
  O  O31  1  0.87949500  0.58786100  0.87662800  1
  O  O32  1  0.61063800  0.59125300  0.12135800  1
  O  O33  1  0.38407400  0.59363000  0.38232800  1
  O  O34  1  0.15355300  0.40549100  0.11421500  1
  O  O35  1  0.87636000  0.39907300  0.38966100  1
  O  O36  1  0.11473900  0.26402000  0.61522100  1
  O  O37  1  0.61465600  0.39969500  0.62590500  1
  O  O38  1  0.86213400  0.24955200  0.88513300  1
  O  O39  1  0.36442100  0.40916100  0.87158200  1
  O  O40  1  0.40161100  0.26084800  0.38981500  1
  O  O41  1  0.12050500  0.08786100  0.12337200  1
  O  O42  1  0.86130400  0.09143800  0.39058600  1
  O  O43  1  0.61653200  0.23954500  0.11554700  1
  O  O44  1  0.61592600  0.09363000  0.61767200  1
  O  O45  1  0.38936200  0.09125300  0.87864200  1
