# generated using pymatgen
data_AgSnO3
_symmetry_space_group_name_H-M   'P 1'
_cell_length_a   7.56015600
_cell_length_b   10.83346600
_cell_length_c   3.28670300
_cell_angle_alpha   90.00000000
_cell_angle_beta   90.00000000
_cell_angle_gamma   90.00000000
_symmetry_Int_Tables_number   1
_chemical_formula_structural   AgSnO3
_chemical_formula_sum   'Ag4 Sn4 O12'
_cell_volume   269.18982673
_cell_formula_units_Z   4
loop_
 _symmetry_equiv_pos_site_id
 _symmetry_equiv_pos_as_xyz
  1  'x, y, z'
loop_
 _atom_site_type_symbol
 _atom_site_label
 _atom_site_symmetry_multiplicity
 _atom_site_fract_x
 _atom_site_fract_y
 _atom_site_fract_z
 _atom_site_occupancy
  Ag  Ag0  1  0.00000000  0.00000000  0.00000000  1
  Ag  Ag1  1  0.50000000  0.00000000  0.00000000  1
  Ag  Ag2  1  0.50000000  0.50000000  0.00000000  1
  Ag  Ag3  1  0.00000000  0.50000000  0.00000000  1
  Sn  Sn4  1  0.25000000  0.25000000  0.50000000  1
  Sn  Sn5  1  0.25000000  0.75000000  0.50000000  1
  Sn  Sn6  1  0.75000000  0.75000000  0.50000000  1
  Sn  Sn7  1  0.75000000  0.25000000  0.50000000  1
  O  O8  1  0.80253750  0.13000350  0.00000000  1
  O  O9  1  0.80253750  0.86999650  0.00000000  1
  O  O10  1  0.50000000  0.17343400  0.50000000  1
  O  O11  1  0.50000000  0.82656600  0.50000000  1
  O  O12  1  0.19746250  0.13000350  0.00000000  1
  O  O13  1  0.19746250  0.86999650  0.00000000  1
  O  O14  1  0.30253750  0.63000350  0.00000000  1
  O  O15  1  0.30253750  0.36999650  0.00000000  1
  O  O16  1  0.00000000  0.67343400  0.50000000  1
  O  O17  1  0.00000000  0.32656600  0.50000000  1
  O  O18  1  0.69746250  0.63000350  0.00000000  1
  O  O19  1  0.69746250  0.36999650  0.00000000  1
