# generated using pymatgen
data_Li3Fe2P2(CO7)2
_symmetry_space_group_name_H-M   'P 1'
_cell_length_a   8.25697720
_cell_length_b   8.27055888
_cell_length_c   8.38793852
_cell_angle_alpha   93.52605453
_cell_angle_beta   93.60099462
_cell_angle_gamma   102.98570942
_symmetry_Int_Tables_number   1
_chemical_formula_structural   Li3Fe2P2(CO7)2
_chemical_formula_sum   'Li6 Fe4 P4 C4 O28'
_cell_volume   555.37333152
_cell_formula_units_Z   2
loop_
 _symmetry_equiv_pos_site_id
 _symmetry_equiv_pos_as_xyz
  1  'x, y, z'
loop_
 _atom_site_type_symbol
 _atom_site_label
 _atom_site_symmetry_multiplicity
 _atom_site_fract_x
 _atom_site_fract_y
 _atom_site_fract_z
 _atom_site_occupancy
  Li  Li0  1  0.50990800  0.26438600  0.89032300  1
  Li  Li1  1  0.00808600  0.75522800  0.90110500  1
  Li  Li2  1  0.86491900  0.39671700  0.71988100  1
  Li  Li3  1  0.35373700  0.40059000  0.28798600  1
  Li  Li4  1  0.48703400  0.74073400  0.10370300  1
  Li  Li5  1  0.98866900  0.23667300  0.10793200  1
  Fe  Fe6  1  0.27968800  0.52794000  0.67701500  1
  Fe  Fe7  1  0.77616000  0.02016100  0.65941800  1
  Fe  Fe8  1  0.22124900  0.96898100  0.33580600  1
  Fe  Fe9  1  0.73193200  0.47753000  0.32504700  1
  P  P10  1  0.48768500  0.24252400  0.57410800  1
  P  P11  1  0.99425400  0.73986400  0.58083900  1
  P  P12  1  0.01380500  0.26050400  0.42200100  1
  P  P13  1  0.50545500  0.75936300  0.41911100  1
  C  C14  1  0.22512800  0.46495200  0.96318500  1
  C  C15  1  0.72179900  0.98042000  0.95328600  1
  C  C16  1  0.27595200  0.03062200  0.05189800  1
  C  C17  1  0.77675700  0.51875100  0.03578000  1
  O  O18  1  0.34977800  0.58532300  0.93292800  1
  O  O19  1  0.84516600  0.10248700  0.92700200  1
  O  O20  1  0.32204400  0.07217000  0.91770000  1
  O  O21  1  0.12547600  0.39762100  0.83753600  1
  O  O22  1  0.82138000  0.54284600  0.89525300  1
  O  O23  1  0.63952500  0.89741500  0.82425800  1
  O  O24  1  0.42305000  0.36036300  0.69343000  1
  O  O25  1  0.63275400  0.19714300  0.67784800  1
  O  O26  1  0.12118800  0.68253300  0.69580300  1
  O  O27  1  0.93380800  0.87093400  0.68807400  1
  O  O28  1  0.34742700  0.08642200  0.52428500  1
  O  O29  1  0.93783400  0.20377600  0.57927100  1
  O  O30  1  0.43362100  0.69029600  0.57155600  1
  O  O31  1  0.84956200  0.58461200  0.52806800  1
  O  O32  1  0.17321900  0.40152600  0.46874100  1
  O  O33  1  0.54596900  0.32810400  0.42215600  1
  O  O34  1  0.06412500  0.80621600  0.42695100  1
  O  O35  1  0.65913500  0.90438500  0.46875200  1
  O  O36  1  0.06181200  0.12150400  0.31575400  1
  O  O37  1  0.37978300  0.82065700  0.30591600  1
  O  O38  1  0.88652900  0.32022800  0.30844300  1
  O  O39  1  0.55313100  0.62236400  0.30551600  1
  O  O40  1  0.35362900  0.11943900  0.18117500  1
  O  O41  1  0.20167400  0.41245500  0.10088600  1
  O  O42  1  0.85473000  0.61469400  0.15881900  1
  O  O43  1  0.67821700  0.93765600  0.08805800  1
  O  O44  1  0.65433400  0.39808200  0.06986100  1
  O  O45  1  0.15689600  0.90480300  0.07753100  1
