# generated using pymatgen
data_Fe3(OF2)2
_symmetry_space_group_name_H-M   'P 1'
_cell_length_a   9.26041000
_cell_length_b   6.80503000
_cell_length_c   7.53114260
_cell_angle_alpha   90.00000000
_cell_angle_beta   112.86687026
_cell_angle_gamma   90.00000000
_symmetry_Int_Tables_number   1
_chemical_formula_structural   Fe3(OF2)2
_chemical_formula_sum   'Fe12 O8 F16'
_cell_volume   437.29465632
_cell_formula_units_Z   4
loop_
 _symmetry_equiv_pos_site_id
 _symmetry_equiv_pos_as_xyz
  1  'x, y, z'
loop_
 _atom_site_type_symbol
 _atom_site_label
 _atom_site_symmetry_multiplicity
 _atom_site_fract_x
 _atom_site_fract_y
 _atom_site_fract_z
 _atom_site_occupancy
  Fe  Fe0  1  0.81278650  0.48779150  0.84437700  1
  Fe  Fe1  1  0.17007450  0.52598550  0.68836800  1
  Fe  Fe2  1  0.82992550  0.52598550  0.31163200  1
  Fe  Fe3  1  0.18721350  0.48779150  0.15562300  1
  Fe  Fe4  1  0.00000000  0.98763500  0.50000000  1
  Fe  Fe5  1  0.00000000  0.98938000  0.00000000  1
  Fe  Fe6  1  0.31278650  0.98779150  0.84437700  1
  Fe  Fe7  1  0.67007450  0.02598550  0.68836800  1
  Fe  Fe8  1  0.32992550  0.02598550  0.31163200  1
  Fe  Fe9  1  0.68721350  0.98779150  0.15562300  1
  Fe  Fe10  1  0.50000000  0.48763500  0.50000000  1
  Fe  Fe11  1  0.50000000  0.48938000  0.00000000  1
  O  O12  1  0.26805500  0.49772600  0.96162900  1
  O  O13  1  0.73194500  0.49772600  0.03837100  1
  O  O14  1  0.82603000  0.80300900  0.32799600  1
  O  O15  1  0.17397000  0.80300900  0.67200400  1
  O  O16  1  0.76805500  0.99772600  0.96162900  1
  O  O17  1  0.23194500  0.99772600  0.03837100  1
  O  O18  1  0.32603000  0.30300900  0.32799600  1
  O  O19  1  0.67397000  0.30300900  0.67200400  1
  F  F20  1  0.17268450  0.20468750  0.67039600  1
  F  F21  1  0.82731550  0.20468750  0.32960400  1
  F  F22  1  0.61301600  0.50093200  0.30708600  1
  F  F23  1  0.93682900  0.49984000  0.62752300  1
  F  F24  1  0.06317100  0.49984000  0.37247700  1
  F  F25  1  0.38698400  0.50093200  0.69291400  1
  F  F26  1  0.00000000  0.31175300  0.00000000  1
  F  F27  1  0.00000000  0.67129000  0.00000000  1
  F  F28  1  0.67268450  0.70468750  0.67039600  1
  F  F29  1  0.32731550  0.70468750  0.32960400  1
  F  F30  1  0.11301600  0.00093200  0.30708600  1
  F  F31  1  0.43682900  0.99984000  0.62752300  1
  F  F32  1  0.56317100  0.99984000  0.37247700  1
  F  F33  1  0.88698400  0.00093200  0.69291400  1
  F  F34  1  0.50000000  0.81175300  0.00000000  1
  F  F35  1  0.50000000  0.17129000  0.00000000  1
