# generated using pymatgen
data_Li6VFeP2(CO7)2
_symmetry_space_group_name_H-M   'P 1'
_cell_length_a   5.01706206
_cell_length_b   6.54139304
_cell_length_c   8.53904224
_cell_angle_alpha   90.00000000
_cell_angle_beta   96.59333450
_cell_angle_gamma   90.00000000
_symmetry_Int_Tables_number   1
_chemical_formula_structural   Li6VFeP2(CO7)2
_chemical_formula_sum   'Li6 V1 Fe1 P2 C2 O14'
_cell_volume   278.38573118
_cell_formula_units_Z   1
loop_
 _symmetry_equiv_pos_site_id
 _symmetry_equiv_pos_as_xyz
  1  'x, y, z'
loop_
 _atom_site_type_symbol
 _atom_site_label
 _atom_site_symmetry_multiplicity
 _atom_site_fract_x
 _atom_site_fract_y
 _atom_site_fract_z
 _atom_site_occupancy
  Li  Li0  1  0.79618650  0.50000000  0.89466850  1
  Li  Li1  1  0.20403000  0.00000000  0.10341750  1
  Li  Li2  1  0.26706550  0.27455600  0.72265550  1
  Li  Li3  1  0.26706550  0.72544400  0.72265550  1
  Li  Li4  1  0.73081650  0.76730850  0.27611100  1
  Li  Li5  1  0.73081650  0.23269150  0.27611100  1
  V  V6  1  0.79108450  0.00000000  0.67393250  1
  Fe  Fe7  1  0.21070000  0.50000000  0.32990450  1
  P  P8  1  0.73199500  0.50000000  0.58946800  1
  P  P9  1  0.26902900  0.00000000  0.41060650  1
  C  C10  1  0.67024050  0.00000000  0.96393200  1
  C  C11  1  0.32840450  0.50000000  0.03639850  1
  O  O12  1  0.91842900  0.00000000  0.93441350  1
  O  O13  1  0.39643250  0.50000000  0.89429100  1
  O  O14  1  0.48629550  0.00000000  0.84223700  1
  O  O15  1  0.16846250  0.00000000  0.57407500  1
  O  O16  1  0.41773550  0.50000000  0.56877450  1
  O  O17  1  0.58218050  0.00000000  0.43142350  1
  O  O18  1  0.83006200  0.50000000  0.42511250  1
  O  O19  1  0.51211750  0.50000000  0.15850850  1
  O  O20  1  0.60563950  0.00000000  0.10641200  1
  O  O21  1  0.07989050  0.50000000  0.06337250  1
  O  O22  1  0.84048800  0.31655400  0.69393450  1
  O  O23  1  0.84048800  0.68344600  0.69393450  1
  O  O24  1  0.16204850  0.18603500  0.30676050  1
  O  O25  1  0.16204850  0.81396500  0.30676050  1
