# generated using pymatgen
data_LiV(CO3)2
_symmetry_space_group_name_H-M   'P 1'
_cell_length_a   8.03348062
_cell_length_b   8.03348062
_cell_length_c   5.36848271
_cell_angle_alpha   90.00000000
_cell_angle_beta   90.00000000
_cell_angle_gamma   120.00000000
_symmetry_Int_Tables_number   1
_chemical_formula_structural   LiV(CO3)2
_chemical_formula_sum   'Li3 V3 C6 O18'
_cell_volume   300.04727797
_cell_formula_units_Z   3
loop_
 _symmetry_equiv_pos_site_id
 _symmetry_equiv_pos_as_xyz
  1  'x, y, z'
loop_
 _atom_site_type_symbol
 _atom_site_label
 _atom_site_symmetry_multiplicity
 _atom_site_fract_x
 _atom_site_fract_y
 _atom_site_fract_z
 _atom_site_occupancy
  Li  Li0  1  0.66292900  0.66292900  0.00000000  1
  Li  Li1  1  0.00000000  0.33707100  0.00000000  1
  Li  Li2  1  0.33707100  0.00000000  0.00000000  1
  V  V3  1  0.32996650  0.32996650  0.50000000  1
  V  V4  1  0.00000000  0.67003350  0.50000000  1
  V  V5  1  0.67003350  0.00000000  0.50000000  1
  C  C6  1  0.66666667  0.33333333  0.25082350  1
  C  C7  1  0.66666667  0.33333333  0.72254750  1
  C  C8  1  0.00000000  0.00000000  0.26132650  1
  C  C9  1  0.00000000  0.00000000  0.73867350  1
  C  C10  1  0.33333333  0.66666667  0.74917650  1
  C  C11  1  0.33333333  0.66666667  0.27745250  1
  O  O12  1  0.18930600  0.09398100  0.73764250  1
  O  O13  1  0.48371200  0.25498900  0.24935250  1
  O  O14  1  0.57528300  0.42247000  0.71846250  1
  O  O15  1  0.90467500  0.81069400  0.73764250  1
  O  O16  1  0.57753000  0.15281300  0.71846250  1
  O  O17  1  0.77127700  0.51628800  0.24935250  1
  O  O18  1  0.74501100  0.22872300  0.24935250  1
  O  O19  1  0.09532500  0.90601900  0.26235750  1
  O  O20  1  0.84718700  0.42471700  0.71846250  1
  O  O21  1  0.22872300  0.74501100  0.75064750  1
  O  O22  1  0.15281300  0.57753000  0.28153750  1
  O  O23  1  0.90601900  0.09532500  0.73764250  1
  O  O24  1  0.09398100  0.18930600  0.26235750  1
  O  O25  1  0.42471700  0.84718700  0.28153750  1
  O  O26  1  0.25498900  0.48371200  0.75064750  1
  O  O27  1  0.51628800  0.77127700  0.75064750  1
  O  O28  1  0.42247000  0.57528300  0.28153750  1
  O  O29  1  0.81069400  0.90467500  0.26235750  1
