# generated using pymatgen
data_Fe2C2O7
_symmetry_space_group_name_H-M   'P 1'
_cell_length_a   4.95307000
_cell_length_b   8.60127510
_cell_length_c   16.01251747
_cell_angle_alpha   90.00000000
_cell_angle_beta   90.61986140
_cell_angle_gamma   90.00000000
_symmetry_Int_Tables_number   1
_chemical_formula_structural   Fe2C2O7
_chemical_formula_sum   'Fe8 C8 O28'
_cell_volume   682.13683897
_cell_formula_units_Z   4
loop_
 _symmetry_equiv_pos_site_id
 _symmetry_equiv_pos_as_xyz
  1  'x, y, z'
loop_
 _atom_site_type_symbol
 _atom_site_label
 _atom_site_symmetry_multiplicity
 _atom_site_fract_x
 _atom_site_fract_y
 _atom_site_fract_z
 _atom_site_occupancy
  Fe  Fe0  1  0.00127550  0.66379050  0.13627500  1
  Fe  Fe1  1  0.99872450  0.66379050  0.36372500  1
  Fe  Fe2  1  0.50127550  0.83620950  0.63627500  1
  Fe  Fe3  1  0.49872450  0.83620950  0.86372500  1
  Fe  Fe4  1  0.50127550  0.16379050  0.13627500  1
  Fe  Fe5  1  0.49872450  0.16379050  0.36372500  1
  Fe  Fe6  1  0.00127550  0.33620950  0.63627500  1
  Fe  Fe7  1  0.99872450  0.33620950  0.86372500  1
  C  C8  1  0.50022900  0.83203900  0.09631400  1
  C  C9  1  0.49977100  0.83203900  0.40368600  1
  C  C10  1  0.00022900  0.66796100  0.59631400  1
  C  C11  1  0.99977100  0.66796100  0.90368600  1
  C  C12  1  0.00022900  0.33203900  0.09631400  1
  C  C13  1  0.99977100  0.33203900  0.40368600  1
  C  C14  1  0.50022900  0.16796100  0.59631400  1
  C  C15  1  0.49977100  0.16796100  0.90368600  1
  O  O16  1  0.37914100  0.96511100  0.40608200  1
  O  O17  1  0.86216250  0.79405450  0.90470000  1
  O  O18  1  0.23959050  0.82641550  0.09760000  1
  O  O19  1  0.13783750  0.79405450  0.59530000  1
  O  O20  1  0.62085900  0.96511100  0.09391800  1
  O  O21  1  0.73959050  0.67358450  0.59760000  1
  O  O22  1  0.50000000  0.83704300  0.75000000  1
  O  O23  1  0.00000000  0.66295700  0.25000000  1
  O  O24  1  0.76040950  0.82641550  0.40240000  1
  O  O25  1  0.87914100  0.53488900  0.90608200  1
  O  O26  1  0.36216250  0.70594550  0.40470000  1
  O  O27  1  0.26040950  0.67358450  0.90240000  1
  O  O28  1  0.63783750  0.70594550  0.09530000  1
  O  O29  1  0.12085900  0.53488900  0.59391800  1
  O  O30  1  0.87914100  0.46511100  0.40608200  1
  O  O31  1  0.36216250  0.29405450  0.90470000  1
  O  O32  1  0.73959050  0.32641550  0.09760000  1
  O  O33  1  0.63783750  0.29405450  0.59530000  1
  O  O34  1  0.12085900  0.46511100  0.09391800  1
  O  O35  1  0.23959050  0.17358450  0.59760000  1
  O  O36  1  0.00000000  0.33704300  0.75000000  1
  O  O37  1  0.50000000  0.16295700  0.25000000  1
  O  O38  1  0.26040950  0.32641550  0.40240000  1
  O  O39  1  0.37914100  0.03488900  0.90608200  1
  O  O40  1  0.86216250  0.20594550  0.40470000  1
  O  O41  1  0.76040950  0.17358450  0.90240000  1
  O  O42  1  0.13783750  0.20594550  0.09530000  1
  O  O43  1  0.62085900  0.03488900  0.59391800  1
