# generated using pymatgen
data_CrFe3Cu2(PO4)6
_symmetry_space_group_name_H-M   'P 1'
_cell_length_a   8.62619723
_cell_length_b   8.62619723
_cell_length_c   20.96482966
_cell_angle_alpha   90.00000000
_cell_angle_beta   90.00000000
_cell_angle_gamma   120.00000000
_symmetry_Int_Tables_number   1
_chemical_formula_structural   CrFe3Cu2(PO4)6
_chemical_formula_sum   'Cr3 Fe9 Cu6 P18 O72'
_cell_volume   1351.01676041
_cell_formula_units_Z   3
loop_
 _symmetry_equiv_pos_site_id
 _symmetry_equiv_pos_as_xyz
  1  'x, y, z'
loop_
 _atom_site_type_symbol
 _atom_site_label
 _atom_site_symmetry_multiplicity
 _atom_site_fract_x
 _atom_site_fract_y
 _atom_site_fract_z
 _atom_site_occupancy
  Cr  Cr0  1  0.33333333  0.66666667  0.52539367  1
  Cr  Cr1  1  0.00000000  0.00000000  0.85872700  1
  Cr  Cr2  1  0.66666667  0.33333333  0.19206033  1
  Fe  Fe3  1  0.33333333  0.66666667  0.81055967  1
  Fe  Fe4  1  0.33333333  0.66666667  0.02234267  1
  Fe  Fe5  1  0.33333333  0.66666667  0.31094467  1
  Fe  Fe6  1  0.00000000  0.00000000  0.14389300  1
  Fe  Fe7  1  0.00000000  0.00000000  0.35567600  1
  Fe  Fe8  1  0.00000000  0.00000000  0.64427800  1
  Fe  Fe9  1  0.66666667  0.33333333  0.47722633  1
  Fe  Fe10  1  0.66666667  0.33333333  0.68900933  1
  Fe  Fe11  1  0.66666667  0.33333333  0.97761133  1
  Cu  Cu12  1  0.33333333  0.66666667  0.66735567  1
  Cu  Cu13  1  0.33333333  0.66666667  0.16679867  1
  Cu  Cu14  1  0.00000000  0.00000000  0.00068900  1
  Cu  Cu15  1  0.00000000  0.00000000  0.50013200  1
  Cu  Cu16  1  0.66666667  0.33333333  0.33402233  1
  Cu  Cu17  1  0.66666667  0.33333333  0.83346533  1
  P  P18  1  0.66664233  0.62565067  0.08370667  1
  P  P19  1  0.95900833  0.33335767  0.08370667  1
  P  P20  1  0.37434933  0.04099167  0.08370667  1
  P  P21  1  0.29452300  0.29405000  0.24931600  1
  P  P22  1  0.70595000  0.00047300  0.24931600  1
  P  P23  1  0.99952700  0.70547700  0.24931600  1
  P  P24  1  0.33330900  0.95898400  0.41704000  1
  P  P25  1  0.62567500  0.66669100  0.41704000  1
  P  P26  1  0.04101600  0.37432500  0.41704000  1
  P  P27  1  0.96118967  0.62738333  0.58264933  1
  P  P28  1  0.37261667  0.33380633  0.58264933  1
  P  P29  1  0.66619367  0.03881033  0.58264933  1
  P  P30  1  0.99997567  0.29231733  0.75037333  1
  P  P31  1  0.29234167  0.00002433  0.75037333  1
  P  P32  1  0.70768267  0.70765833  0.75037333  1
  P  P33  1  0.62785633  0.96071667  0.91598267  1
  P  P34  1  0.03928333  0.66713967  0.91598267  1
  P  P35  1  0.33286033  0.37214367  0.91598267  1
  O  O36  1  0.33204900  0.46797100  0.97717600  1
  O  O37  1  0.53202900  0.86407800  0.97717600  1
  O  O38  1  0.83624967  0.81489433  0.07749633  1
  O  O39  1  0.13592200  0.66795100  0.97717600  1
  O  O40  1  0.66783167  0.52524633  0.14444633  1
  O  O41  1  0.49529100  0.64401600  0.09116800  1
  O  O42  1  0.97864467  0.16375033  0.07749633  1
  O  O43  1  0.14872500  0.50470900  0.09116800  1
  O  O44  1  0.19798233  0.19594767  0.18857467  1
  O  O45  1  0.35598400  0.85127500  0.09116800  1
  O  O46  1  0.48625067  0.31494133  0.25475433  1
  O  O47  1  0.80405233  0.00203467  0.18857467  1
  O  O48  1  0.85741467  0.33216833  0.14444633  1
  O  O49  1  0.18510567  0.02135533  0.07749633  1
  O  O50  1  0.31804067  0.48632033  0.24294233  1
  O  O51  1  0.47475367  0.14258533  0.14444633  1
  O  O52  1  0.51367967  0.83172033  0.24294233  1
  O  O53  1  0.68505867  0.17130933  0.25475433  1
  O  O54  1  0.16827967  0.68195933  0.24294233  1
  O  O55  1  0.99796533  0.80201767  0.18857467  1
  O  O56  1  0.53042067  0.66951133  0.35595433  1
  O  O57  1  0.82869067  0.51374933  0.25475433  1
  O  O58  1  0.13909067  0.46957933  0.35595433  1
  O  O59  1  0.33048867  0.86090933  0.35595433  1
  O  O60  1  0.99871567  0.80130433  0.31050933  1
  O  O61  1  0.19869567  0.19741133  0.31050933  1
  O  O62  1  0.50291633  0.14822767  0.41082967  1
  O  O63  1  0.80258867  0.00128433  0.31050933  1
  O  O64  1  0.33449833  0.85857967  0.47777967  1
  O  O65  1  0.16195767  0.97734933  0.42450133  1
  O  O66  1  0.64531133  0.49708367  0.41082967  1
  O  O67  1  0.81539167  0.83804233  0.42450133  1
  O  O68  1  0.86464900  0.52928100  0.52190800  1
  O  O69  1  0.02265067  0.18460833  0.42450133  1
  O  O70  1  0.15291733  0.64827467  0.58808767  1
  O  O71  1  0.47071900  0.33536800  0.52190800  1
  O  O72  1  0.52408133  0.66550167  0.47777967  1
  O  O73  1  0.85177233  0.35468867  0.41082967  1
  O  O74  1  0.98470733  0.81965367  0.57627567  1
  O  O75  1  0.14142033  0.47591867  0.47777967  1
  O  O76  1  0.18034633  0.16505367  0.57627567  1
  O  O77  1  0.35172533  0.50464267  0.58808767  1
  O  O78  1  0.83494633  0.01529267  0.57627567  1
  O  O79  1  0.66463200  0.13535100  0.52190800  1
  O  O80  1  0.19708733  0.00284467  0.68928767  1
  O  O81  1  0.49535733  0.84708267  0.58808767  1
  O  O82  1  0.80575733  0.80291267  0.68928767  1
  O  O83  1  0.99715533  0.19424267  0.68928767  1
  O  O84  1  0.66538233  0.13463767  0.64384267  1
  O  O85  1  0.86536233  0.53074467  0.64384267  1
  O  O86  1  0.16958300  0.48156100  0.74416300  1
  O  O87  1  0.46925533  0.33461767  0.64384267  1
  O  O88  1  0.00116500  0.19191300  0.81111300  1
  O  O89  1  0.82862433  0.31068267  0.75783467  1
  O  O90  1  0.31197800  0.83041700  0.74416300  1
  O  O91  1  0.48205833  0.17137567  0.75783467  1
  O  O92  1  0.53131567  0.86261433  0.85524133  1
  O  O93  1  0.68931733  0.51794167  0.75783467  1
  O  O94  1  0.81958400  0.98160800  0.92142100  1
  O  O95  1  0.13738567  0.66870133  0.85524133  1
  O  O96  1  0.19074800  0.99883500  0.81111300  1
  O  O97  1  0.51843900  0.68802200  0.74416300  1
  O  O98  1  0.65137400  0.15298700  0.90960900  1
  O  O99  1  0.80808700  0.80925200  0.81111300  1
  O  O100  1  0.84701300  0.49838700  0.90960900  1
  O  O101  1  0.01839200  0.83797600  0.92142100  1
  O  O102  1  0.50161300  0.34862600  0.90960900  1
  O  O103  1  0.33129867  0.46868433  0.85524133  1
  O  O104  1  0.86375400  0.33617800  0.02262100  1
  O  O105  1  0.16202400  0.18041600  0.92142100  1
  O  O106  1  0.47242400  0.13624600  0.02262100  1
  O  O107  1  0.66382200  0.52757600  0.02262100  1
