# generated using pymatgen
data_Ni3OF5
_symmetry_space_group_name_H-M   'P 1'
_cell_length_a   9.13436400
_cell_length_b   6.58615400
_cell_length_c   7.39009911
_cell_angle_alpha   90.00000000
_cell_angle_beta   112.47921083
_cell_angle_gamma   90.00000000
_symmetry_Int_Tables_number   1
_chemical_formula_structural   Ni3OF5
_chemical_formula_sum   'Ni12 O4 F20'
_cell_volume   410.81003367
_cell_formula_units_Z   4
loop_
 _symmetry_equiv_pos_site_id
 _symmetry_equiv_pos_as_xyz
  1  'x, y, z'
loop_
 _atom_site_type_symbol
 _atom_site_label
 _atom_site_symmetry_multiplicity
 _atom_site_fract_x
 _atom_site_fract_y
 _atom_site_fract_z
 _atom_site_occupancy
  Ni  Ni0  1  0.84167900  0.50000000  0.84119900  1
  Ni  Ni1  1  0.83114600  0.50000000  0.33462300  1
  Ni  Ni2  1  0.16885400  0.50000000  0.66537700  1
  Ni  Ni3  1  0.15832100  0.50000000  0.15880100  1
  Ni  Ni4  1  0.00000000  0.00000000  0.50000000  1
  Ni  Ni5  1  0.00000000  0.00000000  0.00000000  1
  Ni  Ni6  1  0.34167900  0.00000000  0.84119900  1
  Ni  Ni7  1  0.33114600  0.00000000  0.33462300  1
  Ni  Ni8  1  0.66885400  0.00000000  0.66537700  1
  Ni  Ni9  1  0.65832100  0.00000000  0.15880100  1
  Ni  Ni10  1  0.50000000  0.50000000  0.50000000  1
  Ni  Ni11  1  0.50000000  0.50000000  0.00000000  1
  O  O12  1  0.00000000  0.30058600  0.00000000  1
  O  O13  1  0.00000000  0.69941400  0.00000000  1
  O  O14  1  0.50000000  0.80058600  0.00000000  1
  O  O15  1  0.50000000  0.19941400  0.00000000  1
  F  F16  1  0.83011350  0.19461350  0.33070100  1
  F  F17  1  0.16988650  0.19461350  0.66929900  1
  F  F18  1  0.26594500  0.50000000  0.96196500  1
  F  F19  1  0.93728800  0.50000000  0.63140900  1
  F  F20  1  0.60036200  0.50000000  0.29966700  1
  F  F21  1  0.73405500  0.50000000  0.03803500  1
  F  F22  1  0.06271200  0.50000000  0.36859100  1
  F  F23  1  0.39963800  0.50000000  0.70033300  1
  F  F24  1  0.83011350  0.80538650  0.33070100  1
  F  F25  1  0.16988650  0.80538650  0.66929900  1
  F  F26  1  0.33011350  0.69461350  0.33070100  1
  F  F27  1  0.66988650  0.69461350  0.66929900  1
  F  F28  1  0.76594500  0.00000000  0.96196500  1
  F  F29  1  0.43728800  0.00000000  0.63140900  1
  F  F30  1  0.10036200  0.00000000  0.29966700  1
  F  F31  1  0.23405500  0.00000000  0.03803500  1
  F  F32  1  0.56271200  0.00000000  0.36859100  1
  F  F33  1  0.89963800  0.00000000  0.70033300  1
  F  F34  1  0.33011350  0.30538650  0.33070100  1
  F  F35  1  0.66988650  0.30538650  0.66929900  1
