# generated using pymatgen
data_Li2FeCo3O8
_symmetry_space_group_name_H-M   'P 1'
_cell_length_a   5.70648809
_cell_length_b   5.70648809
_cell_length_c   14.08343428
_cell_angle_alpha   90.00000000
_cell_angle_beta   90.00000000
_cell_angle_gamma   120.00000000
_symmetry_Int_Tables_number   1
_chemical_formula_structural   Li2FeCo3O8
_chemical_formula_sum   'Li6 Fe3 Co9 O24'
_cell_volume   397.17054577
_cell_formula_units_Z   3
loop_
 _symmetry_equiv_pos_site_id
 _symmetry_equiv_pos_as_xyz
  1  'x, y, z'
loop_
 _atom_site_type_symbol
 _atom_site_label
 _atom_site_symmetry_multiplicity
 _atom_site_fract_x
 _atom_site_fract_y
 _atom_site_fract_z
 _atom_site_occupancy
  Li  Li0  1  0.66666667  0.33333333  0.21031833  1
  Li  Li1  1  0.33333333  0.66666667  0.16778367  1
  Li  Li2  1  0.33333333  0.66666667  0.54365167  1
  Li  Li3  1  0.00000000  0.00000000  0.50111700  1
  Li  Li4  1  0.00000000  0.00000000  0.87698500  1
  Li  Li5  1  0.66666667  0.33333333  0.83445033  1
  Fe  Fe6  1  0.00000000  0.00000000  0.11884600  1
  Fe  Fe7  1  0.66666667  0.33333333  0.45217933  1
  Fe  Fe8  1  0.33333333  0.66666667  0.78551267  1
  Co  Co9  1  0.17091800  0.34183600  0.33068700  1
  Co  Co10  1  0.17091800  0.82908200  0.33068700  1
  Co  Co11  1  0.65816400  0.82908200  0.33068700  1
  Co  Co12  1  0.83758467  0.67516933  0.66402033  1
  Co  Co13  1  0.83758467  0.16241533  0.66402033  1
  Co  Co14  1  0.32483067  0.16241533  0.66402033  1
  Co  Co15  1  0.50425133  0.00850267  0.99735367  1
  Co  Co16  1  0.50425133  0.49574867  0.99735367  1
  Co  Co17  1  0.99149733  0.49574867  0.99735367  1
  O  O18  1  0.66666667  0.33333333  0.06878433  1
  O  O19  1  0.02273133  0.51136567  0.26537767  1
  O  O20  1  0.48863433  0.51136567  0.26537767  1
  O  O21  1  0.48863433  0.97726867  0.26537767  1
  O  O22  1  0.17972600  0.35945200  0.07359100  1
  O  O23  1  0.17972600  0.82027400  0.07359100  1
  O  O24  1  0.64054800  0.82027400  0.07359100  1
  O  O25  1  0.00000000  0.00000000  0.25863300  1
  O  O26  1  0.33333333  0.66666667  0.40211767  1
  O  O27  1  0.68939800  0.84469900  0.59871100  1
  O  O28  1  0.15530100  0.84469900  0.59871100  1
  O  O29  1  0.15530100  0.31060200  0.59871100  1
  O  O30  1  0.84639267  0.69278533  0.40692433  1
  O  O31  1  0.84639267  0.15360733  0.40692433  1
  O  O32  1  0.30721467  0.15360733  0.40692433  1
  O  O33  1  0.66666667  0.33333333  0.59196633  1
  O  O34  1  0.00000000  0.00000000  0.73545100  1
  O  O35  1  0.35606467  0.17803233  0.93204433  1
  O  O36  1  0.82196767  0.17803233  0.93204433  1
  O  O37  1  0.82196767  0.64393533  0.93204433  1
  O  O38  1  0.51305933  0.02611867  0.74025767  1
  O  O39  1  0.51305933  0.48694067  0.74025767  1
  O  O40  1  0.97388133  0.48694067  0.74025767  1
  O  O41  1  0.33333333  0.66666667  0.92529967  1
