# generated using pymatgen
data_Li2V3CoO8
_symmetry_space_group_name_H-M   'P 1'
_cell_length_a   5.85425616
_cell_length_b   5.85425616
_cell_length_c   14.34115323
_cell_angle_alpha   90.00000000
_cell_angle_beta   90.00000000
_cell_angle_gamma   120.00000000
_symmetry_Int_Tables_number   1
_chemical_formula_structural   Li2V3CoO8
_chemical_formula_sum   'Li6 V9 Co3 O24'
_cell_volume   425.65540394
_cell_formula_units_Z   3
loop_
 _symmetry_equiv_pos_site_id
 _symmetry_equiv_pos_as_xyz
  1  'x, y, z'
loop_
 _atom_site_type_symbol
 _atom_site_label
 _atom_site_symmetry_multiplicity
 _atom_site_fract_x
 _atom_site_fract_y
 _atom_site_fract_z
 _atom_site_occupancy
  Li  Li0  1  0.00000000  0.00000000  0.12464800  1
  Li  Li1  1  0.66666667  0.33333333  0.20868533  1
  Li  Li2  1  0.66666667  0.33333333  0.45798133  1
  Li  Li3  1  0.33333333  0.66666667  0.54201867  1
  Li  Li4  1  0.33333333  0.66666667  0.79131467  1
  Li  Li5  1  0.00000000  0.00000000  0.87535200  1
  V  V6  1  0.50000000  0.00000000  0.00000000  1
  V  V7  1  0.00000000  0.50000000  0.00000000  1
  V  V8  1  0.50000000  0.50000000  0.00000000  1
  V  V9  1  0.16666667  0.33333333  0.33333333  1
  V  V10  1  0.66666667  0.83333333  0.33333333  1
  V  V11  1  0.16666667  0.83333333  0.33333333  1
  V  V12  1  0.83333333  0.66666667  0.66666667  1
  V  V13  1  0.33333333  0.16666667  0.66666667  1
  V  V14  1  0.83333333  0.16666667  0.66666667  1
  Co  Co15  1  0.33333333  0.66666667  0.16666667  1
  Co  Co16  1  1.00000000  1.00000000  0.50000000  1
  Co  Co17  1  0.66666667  0.33333333  0.83333333  1
  O  O18  1  0.63297600  0.81648800  0.08110100  1
  O  O19  1  0.18351200  0.36702400  0.08110100  1
  O  O20  1  0.66666667  0.33333333  0.07216633  1
  O  O21  1  0.18351200  0.81648800  0.08110100  1
  O  O22  1  0.48315467  0.51684533  0.25223233  1
  O  O23  1  0.00000000  0.00000000  0.26116700  1
  O  O24  1  0.48315467  0.96630933  0.25223233  1
  O  O25  1  0.03369067  0.51684533  0.25223233  1
  O  O26  1  0.29964267  0.14982133  0.41443433  1
  O  O27  1  0.85017867  0.70035733  0.41443433  1
  O  O28  1  0.33333333  0.66666667  0.40549967  1
  O  O29  1  0.85017867  0.14982133  0.41443433  1
  O  O30  1  0.14982133  0.85017867  0.58556567  1
  O  O31  1  0.66666667  0.33333333  0.59450033  1
  O  O32  1  0.14982133  0.29964267  0.58556567  1
  O  O33  1  0.70035733  0.85017867  0.58556567  1
  O  O34  1  0.96630933  0.48315467  0.74776767  1
  O  O35  1  0.51684533  0.03369067  0.74776767  1
  O  O36  1  0.00000000  0.00000000  0.73883300  1
  O  O37  1  0.51684533  0.48315467  0.74776767  1
  O  O38  1  0.81648800  0.18351200  0.91889900  1
  O  O39  1  0.33333333  0.66666667  0.92783367  1
  O  O40  1  0.81648800  0.63297600  0.91889900  1
  O  O41  1  0.36702400  0.18351200  0.91889900  1
