# generated using pymatgen
data_Ti3Cr2Sb(PO4)6
_symmetry_space_group_name_H-M   'P 1'
_cell_length_a   8.73657627
_cell_length_b   8.73657627
_cell_length_c   21.31988403
_cell_angle_alpha   90.00000000
_cell_angle_beta   90.00000000
_cell_angle_gamma   120.00000000
_symmetry_Int_Tables_number   1
_chemical_formula_structural   Ti3Cr2Sb(PO4)6
_chemical_formula_sum   'Ti9 Cr6 Sb3 P18 O72'
_cell_volume   1409.28235752
_cell_formula_units_Z   3
loop_
 _symmetry_equiv_pos_site_id
 _symmetry_equiv_pos_as_xyz
  1  'x, y, z'
loop_
 _atom_site_type_symbol
 _atom_site_label
 _atom_site_symmetry_multiplicity
 _atom_site_fract_x
 _atom_site_fract_y
 _atom_site_fract_z
 _atom_site_occupancy
  Ti  Ti0  1  0.33333333  0.66666667  0.81206667  1
  Ti  Ti1  1  0.33333333  0.66666667  0.01982967  1
  Ti  Ti2  1  0.33333333  0.66666667  0.31240967  1
  Ti  Ti3  1  0.00000000  0.00000000  0.14540000  1
  Ti  Ti4  1  0.00000000  0.00000000  0.35316300  1
  Ti  Ti5  1  0.00000000  0.00000000  0.64574300  1
  Ti  Ti6  1  0.66666667  0.33333333  0.47873333  1
  Ti  Ti7  1  0.66666667  0.33333333  0.68649633  1
  Ti  Ti8  1  0.66666667  0.33333333  0.97907633  1
  Cr  Cr9  1  0.33333333  0.66666667  0.66718367  1
  Cr  Cr10  1  0.33333333  0.66666667  0.16502967  1
  Cr  Cr11  1  0.00000000  0.00000000  0.00051700  1
  Cr  Cr12  1  0.00000000  0.00000000  0.49836300  1
  Cr  Cr13  1  0.66666667  0.33333333  0.33385033  1
  Cr  Cr14  1  0.66666667  0.33333333  0.83169633  1
  Sb  Sb15  1  0.33333333  0.66666667  0.51884767  1
  Sb  Sb16  1  0.00000000  0.00000000  0.85218100  1
  Sb  Sb17  1  0.66666667  0.33333333  0.18551433  1
  P  P18  1  0.36098167  0.03037533  0.08107133  1
  P  P19  1  0.66939367  0.63901833  0.08107133  1
  P  P20  1  0.70531467  0.99001833  0.25148033  1
  P  P21  1  0.00998167  0.71529633  0.25148033  1
  P  P22  1  0.28470367  0.29468533  0.25148033  1
  P  P23  1  0.96962467  0.33060633  0.08107133  1
  P  P24  1  0.02764833  0.36370867  0.41440467  1
  P  P25  1  0.33606033  0.97235167  0.41440467  1
  P  P26  1  0.37198133  0.32335167  0.58481367  1
  P  P27  1  0.67664833  0.04862967  0.58481367  1
  P  P28  1  0.95137033  0.62801867  0.58481367  1
  P  P29  1  0.63629133  0.66393967  0.41440467  1
  P  P30  1  0.69431500  0.69704200  0.74773800  1
  P  P31  1  0.00272700  0.30568500  0.74773800  1
  P  P32  1  0.03864800  0.65668500  0.91814700  1
  P  P33  1  0.34331500  0.38196300  0.91814700  1
  P  P34  1  0.61803700  0.96135200  0.91814700  1
  P  P35  1  0.30295800  0.99727300  0.74773800  1
  O  O36  1  0.50126467  0.86414933  0.97481833  1
  O  O37  1  0.13585067  0.63711533  0.97481833  1
  O  O38  1  0.17660167  0.01494133  0.07623033  1
  O  O39  1  0.36288467  0.49873533  0.97481833  1
  O  O40  1  0.44560700  0.10591900  0.14417300  1
  O  O41  1  0.33336100  0.84047000  0.08070000  1
  O  O42  1  0.83833967  0.82339833  0.07623033  1
  O  O43  1  0.50710900  0.66663900  0.08070000  1
  O  O44  1  0.80715667  0.99983133  0.19103033  1
  O  O45  1  0.15953000  0.49289100  0.08070000  1
  O  O46  1  0.69141600  0.15655700  0.26321600  1
  O  O47  1  0.00016867  0.80732533  0.19103033  1
  O  O48  1  0.66031200  0.55439300  0.14417300  1
  O  O49  1  0.98505867  0.16166033  0.07623033  1
  O  O50  1  0.51812433  0.82537767  0.24611767  1
  O  O51  1  0.89408100  0.33968800  0.14417300  1
  O  O52  1  0.17462233  0.69274667  0.24611767  1
  O  O53  1  0.84344300  0.53485900  0.26321600  1
  O  O54  1  0.30725333  0.48187567  0.24611767  1
  O  O55  1  0.19267467  0.19284333  0.19103033  1
  O  O56  1  0.34046433  0.85967067  0.35937467  1
  O  O57  1  0.46514100  0.30858400  0.26321600  1
  O  O58  1  0.51920633  0.65953567  0.35937467  1
  O  O59  1  0.14032933  0.48079367  0.35937467  1
  O  O60  1  0.16793133  0.19748267  0.30815167  1
  O  O61  1  0.80251733  0.97044867  0.30815167  1
  O  O62  1  0.84326833  0.34827467  0.40956367  1
  O  O63  1  0.02955133  0.83206867  0.30815167  1
  O  O64  1  0.11227367  0.43925233  0.47750633  1
  O  O65  1  0.00002767  0.17380333  0.41403333  1
  O  O66  1  0.50500633  0.15673167  0.40956367  1
  O  O67  1  0.17377567  0.99997233  0.41403333  1
  O  O68  1  0.47382333  0.33316467  0.52436367  1
  O  O69  1  0.82619667  0.82622433  0.41403333  1
  O  O70  1  0.35808267  0.48989033  0.59654933  1
  O  O71  1  0.66683533  0.14065867  0.52436367  1
  O  O72  1  0.32697867  0.88772633  0.47750633  1
  O  O73  1  0.65172533  0.49499367  0.40956367  1
  O  O74  1  0.18479100  0.15871100  0.57945100  1
  O  O75  1  0.56074767  0.67302133  0.47750633  1
  O  O76  1  0.84128900  0.02608000  0.57945100  1
  O  O77  1  0.51010967  0.86819233  0.59654933  1
  O  O78  1  0.97392000  0.81520900  0.57945100  1
  O  O79  1  0.85934133  0.52617667  0.52436367  1
  O  O80  1  0.00713100  0.19300400  0.69270800  1
  O  O81  1  0.13180767  0.64191733  0.59654933  1
  O  O82  1  0.18587300  0.99286900  0.69270800  1
  O  O83  1  0.80699600  0.81412700  0.69270800  1
  O  O84  1  0.83459800  0.53081600  0.64148500  1
  O  O85  1  0.46918400  0.30378200  0.64148500  1
  O  O86  1  0.50993500  0.68160800  0.74289700  1
  O  O87  1  0.69621800  0.16540200  0.64148500  1
  O  O88  1  0.77894033  0.77258567  0.81083967  1
  O  O89  1  0.66669433  0.50713667  0.74736667  1
  O  O90  1  0.17167300  0.49006500  0.74289700  1
  O  O91  1  0.84044233  0.33330567  0.74736667  1
  O  O92  1  0.14049000  0.66649800  0.85769700  1
  O  O93  1  0.49286333  0.15955767  0.74736667  1
  O  O94  1  0.02474933  0.82322367  0.92988267  1
  O  O95  1  0.33350200  0.47399200  0.85769700  1
  O  O96  1  0.99364533  0.22105967  0.81083967  1
  O  O97  1  0.31839200  0.82832700  0.74289700  1
  O  O98  1  0.85145767  0.49204433  0.91278433  1
  O  O99  1  0.22741433  0.00635467  0.81083967  1
  O  O100  1  0.50795567  0.35941333  0.91278433  1
  O  O101  1  0.17677633  0.20152567  0.92988267  1
  O  O102  1  0.64058667  0.14854233  0.91278433  1
  O  O103  1  0.52600800  0.85951000  0.85769700  1
  O  O104  1  0.67379767  0.52633733  0.02604133  1
  O  O105  1  0.79847433  0.97525067  0.92988267  1
  O  O106  1  0.85253967  0.32620233  0.02604133  1
  O  O107  1  0.47366267  0.14746033  0.02604133  1
