# generated using pymatgen
data_Mn3OF5
_symmetry_space_group_name_H-M   'P 1'
_cell_length_a   6.77879000
_cell_length_b   7.07563200
_cell_length_c   9.76558700
_cell_angle_alpha   90.00000000
_cell_angle_beta   90.00000000
_cell_angle_gamma   90.00000000
_symmetry_Int_Tables_number   1
_chemical_formula_structural   Mn3OF5
_chemical_formula_sum   'Mn12 O4 F20'
_cell_volume   468.39879694
_cell_formula_units_Z   4
loop_
 _symmetry_equiv_pos_site_id
 _symmetry_equiv_pos_as_xyz
  1  'x, y, z'
loop_
 _atom_site_type_symbol
 _atom_site_label
 _atom_site_symmetry_multiplicity
 _atom_site_fract_x
 _atom_site_fract_y
 _atom_site_fract_z
 _atom_site_occupancy
  Mn  Mn0  1  0.01232900  0.00000000  0.82277400  1
  Mn  Mn1  1  0.01724700  0.00000000  0.50000000  1
  Mn  Mn2  1  0.01232900  0.00000000  0.17722600  1
  Mn  Mn3  1  0.51028800  0.00000000  0.00000000  1
  Mn  Mn4  1  0.48169300  0.00000000  0.66290900  1
  Mn  Mn5  1  0.48169300  0.00000000  0.33709100  1
  Mn  Mn6  1  0.51232900  0.50000000  0.82277400  1
  Mn  Mn7  1  0.51724700  0.50000000  0.50000000  1
  Mn  Mn8  1  0.51232900  0.50000000  0.17722600  1
  Mn  Mn9  1  0.01028800  0.50000000  0.00000000  1
  Mn  Mn10  1  0.98169300  0.50000000  0.66290900  1
  Mn  Mn11  1  0.98169300  0.50000000  0.33709100  1
  O  O12  1  0.18951300  0.00000000  0.65578900  1
  O  O13  1  0.18951300  0.00000000  0.34421100  1
  O  O14  1  0.68951300  0.50000000  0.65578900  1
  O  O15  1  0.68951300  0.50000000  0.34421100  1
  F  F16  1  0.19991200  0.00000000  0.00000000  1
  F  F17  1  0.50018700  0.19496100  0.83064500  1
  F  F18  1  0.49521450  0.19594150  0.50000000  1
  F  F19  1  0.50018700  0.19496100  0.16935500  1
  F  F20  1  0.50018700  0.80503900  0.83064500  1
  F  F21  1  0.49521450  0.80405850  0.50000000  1
  F  F22  1  0.50018700  0.80503900  0.16935500  1
  F  F23  1  0.79686600  0.00000000  0.65293200  1
  F  F24  1  0.79686600  0.00000000  0.34706800  1
  F  F25  1  0.82057600  0.00000000  0.00000000  1
  F  F26  1  0.69991200  0.50000000  0.00000000  1
  F  F27  1  0.00018700  0.69496100  0.83064500  1
  F  F28  1  0.99521450  0.69594150  0.50000000  1
  F  F29  1  0.00018700  0.69496100  0.16935500  1
  F  F30  1  0.00018700  0.30503900  0.83064500  1
  F  F31  1  0.99521450  0.30405850  0.50000000  1
  F  F32  1  0.00018700  0.30503900  0.16935500  1
  F  F33  1  0.29686600  0.50000000  0.65293200  1
  F  F34  1  0.29686600  0.50000000  0.34706800  1
  F  F35  1  0.32057600  0.50000000  0.00000000  1
