# generated using pymatgen
data_LaTh4O10
_symmetry_space_group_name_H-M   'P 1'
_cell_length_a   8.92646400
_cell_length_b   8.92646400
_cell_length_c   5.64403800
_cell_angle_alpha   90.00000000
_cell_angle_beta   90.00000000
_cell_angle_gamma   90.00000000
_symmetry_Int_Tables_number   1
_chemical_formula_structural   LaTh4O10
_chemical_formula_sum   'La2 Th8 O20'
_cell_volume   449.72687877
_cell_formula_units_Z   2
loop_
 _symmetry_equiv_pos_site_id
 _symmetry_equiv_pos_as_xyz
  1  'x, y, z'
loop_
 _atom_site_type_symbol
 _atom_site_label
 _atom_site_symmetry_multiplicity
 _atom_site_fract_x
 _atom_site_fract_y
 _atom_site_fract_z
 _atom_site_occupancy
  La  La0  1  0.00000000  0.00000000  0.50000000  1
  La  La1  1  0.50000000  0.50000000  0.00000000  1
  Th  Th2  1  0.60049400  0.20051000  0.50000000  1
  Th  Th3  1  0.39950600  0.79949000  0.50000000  1
  Th  Th4  1  0.29949000  0.10049400  0.00000000  1
  Th  Th5  1  0.70051000  0.89950600  0.00000000  1
  Th  Th6  1  0.10049400  0.70051000  0.00000000  1
  Th  Th7  1  0.89950600  0.29949000  0.00000000  1
  Th  Th8  1  0.79949000  0.60049400  0.50000000  1
  Th  Th9  1  0.20051000  0.39950600  0.50000000  1
  O  O10  1  0.20466450  0.89827250  0.75549650  1
  O  O11  1  0.20466450  0.89827250  0.24450350  1
  O  O12  1  0.39827250  0.29533550  0.74450350  1
  O  O13  1  0.50000000  0.00000000  0.25000000  1
  O  O14  1  0.50000000  0.00000000  0.75000000  1
  O  O15  1  0.79533550  0.10172750  0.75549650  1
  O  O16  1  0.79533550  0.10172750  0.24450350  1
  O  O17  1  0.39827250  0.29533550  0.25549650  1
  O  O18  1  0.60172750  0.70466450  0.25549650  1
  O  O19  1  0.60172750  0.70466450  0.74450350  1
  O  O20  1  0.70466450  0.39827250  0.25549650  1
  O  O21  1  0.70466450  0.39827250  0.74450350  1
  O  O22  1  0.89827250  0.79533550  0.24450350  1
  O  O23  1  0.00000000  0.50000000  0.75000000  1
  O  O24  1  0.00000000  0.50000000  0.25000000  1
  O  O25  1  0.29533550  0.60172750  0.25549650  1
  O  O26  1  0.29533550  0.60172750  0.74450350  1
  O  O27  1  0.89827250  0.79533550  0.75549650  1
  O  O28  1  0.10172750  0.20466450  0.75549650  1
  O  O29  1  0.10172750  0.20466450  0.24450350  1
