# generated using pymatgen
data_Li4Ti2Nb3V3O16
_symmetry_space_group_name_H-M   'P 1'
_cell_length_a   10.53400800
_cell_length_b   5.98479400
_cell_length_c   9.82834915
_cell_angle_alpha   90.00000000
_cell_angle_beta   90.42950890
_cell_angle_gamma   90.00000000
_symmetry_Int_Tables_number   1
_chemical_formula_structural   Li4Ti2Nb3V3O16
_chemical_formula_sum   'Li8 Ti4 Nb6 V6 O32'
_cell_volume   619.59973567
_cell_formula_units_Z   2
loop_
 _symmetry_equiv_pos_site_id
 _symmetry_equiv_pos_as_xyz
  1  'x, y, z'
loop_
 _atom_site_type_symbol
 _atom_site_label
 _atom_site_symmetry_multiplicity
 _atom_site_fract_x
 _atom_site_fract_y
 _atom_site_fract_z
 _atom_site_occupancy
  Li  Li0  1  0.66763400  0.00000000  0.09875600  1
  Li  Li1  1  0.50433500  0.50000000  0.00890500  1
  Li  Li2  1  0.50840000  0.50000000  0.50799300  1
  Li  Li3  1  0.83479800  0.50000000  0.61151800  1
  Li  Li4  1  0.16763400  0.50000000  0.09875600  1
  Li  Li5  1  0.00433500  0.00000000  0.00890500  1
  Li  Li6  1  0.00840000  0.00000000  0.50799300  1
  Li  Li7  1  0.33479800  0.00000000  0.61151800  1
  Ti  Ti8  1  0.65773900  0.00000000  0.50482200  1
  Ti  Ti9  1  0.82719000  0.50000000  0.99968000  1
  Ti  Ti10  1  0.15773900  0.50000000  0.50482200  1
  Ti  Ti11  1  0.32719000  0.00000000  0.99968000  1
  Nb  Nb12  1  0.82667800  0.00000000  0.77698500  1
  Nb  Nb13  1  0.90883500  0.27347700  0.28418000  1
  Nb  Nb14  1  0.90883500  0.72652300  0.28418000  1
  Nb  Nb15  1  0.32667800  0.50000000  0.77698500  1
  Nb  Nb16  1  0.40883500  0.77347700  0.28418000  1
  Nb  Nb17  1  0.40883500  0.22652300  0.28418000  1
  V  V18  1  0.58420150  0.76538750  0.78833900  1
  V  V19  1  0.58420150  0.23461250  0.78833900  1
  V  V20  1  0.67244500  0.50000000  0.28835200  1
  V  V21  1  0.08420150  0.26538750  0.78833900  1
  V  V22  1  0.08420150  0.73461250  0.78833900  1
  V  V23  1  0.17244500  0.00000000  0.28835200  1
  O  O24  1  0.58077350  0.75940850  0.40524800  1
  O  O25  1  0.52501000  0.00000000  0.64883900  1
  O  O26  1  0.67662200  0.00000000  0.90216400  1
  O  O27  1  0.99877200  0.00000000  0.69354900  1
  O  O28  1  0.50119900  0.50000000  0.19379800  1
  O  O29  1  0.58077350  0.24059150  0.40524800  1
  O  O30  1  0.74391600  0.77908700  0.65700600  1
  O  O31  1  0.74391600  0.22091300  0.65700600  1
  O  O32  1  0.66949900  0.50000000  0.90728400  1
  O  O33  1  0.82952000  0.00000000  0.40690300  1
  O  O34  1  0.76474750  0.27624250  0.15293500  1
  O  O35  1  0.76474750  0.72375750  0.15293500  1
  O  O36  1  0.82776800  0.50000000  0.41875300  1
  O  O37  1  0.90953100  0.25260300  0.90276700  1
  O  O38  1  0.98695200  0.50000000  0.14289300  1
  O  O39  1  0.90953100  0.74739700  0.90276700  1
  O  O40  1  0.08077350  0.25940850  0.40524800  1
  O  O41  1  0.02501000  0.50000000  0.64883900  1
  O  O42  1  0.17662200  0.50000000  0.90216400  1
  O  O43  1  0.49877200  0.50000000  0.69354900  1
  O  O44  1  0.00119900  0.00000000  0.19379800  1
  O  O45  1  0.08077350  0.74059150  0.40524800  1
  O  O46  1  0.24391600  0.27908700  0.65700600  1
  O  O47  1  0.24391600  0.72091300  0.65700600  1
  O  O48  1  0.16949900  0.00000000  0.90728400  1
  O  O49  1  0.32952000  0.50000000  0.40690300  1
  O  O50  1  0.26474750  0.77624250  0.15293500  1
  O  O51  1  0.26474750  0.22375750  0.15293500  1
  O  O52  1  0.32776800  0.00000000  0.41875300  1
  O  O53  1  0.40953100  0.75260300  0.90276700  1
  O  O54  1  0.48695200  0.00000000  0.14289300  1
  O  O55  1  0.40953100  0.24739700  0.90276700  1
