# generated using pymatgen
data_Cu6OF11
_symmetry_space_group_name_H-M   'P 1'
_cell_length_a   3.27614064
_cell_length_b   6.43031169
_cell_length_c   10.39573410
_cell_angle_alpha   107.12494828
_cell_angle_beta   93.56758871
_cell_angle_gamma   94.23240771
_symmetry_Int_Tables_number   1
_chemical_formula_structural   Cu6OF11
_chemical_formula_sum   'Cu6 O1 F11'
_cell_volume   207.91109457
_cell_formula_units_Z   1
loop_
 _symmetry_equiv_pos_site_id
 _symmetry_equiv_pos_as_xyz
  1  'x, y, z'
loop_
 _atom_site_type_symbol
 _atom_site_label
 _atom_site_symmetry_multiplicity
 _atom_site_fract_x
 _atom_site_fract_y
 _atom_site_fract_z
 _atom_site_occupancy
  Cu  Cu0  1  0.49874100  0.83410400  0.66670400  1
  Cu  Cu1  1  0.52113800  0.47095000  0.00021200  1
  Cu  Cu2  1  0.50066600  0.16632200  0.33317900  1
  Cu  Cu3  1  0.00031200  0.33368100  0.66732500  1
  Cu  Cu4  1  0.99997800  0.66638900  0.33301000  1
  Cu  Cu5  1  0.99784900  0.01369800  0.00022400  1
  O  O6  1  0.02597800  0.29993400  0.99904000  1
  F  F7  1  0.02710200  0.63238400  0.66658200  1
  F  F8  1  0.02426500  0.96571700  0.33330200  1
  F  F9  1  0.55283200  0.93478800  0.86295600  1
  F  F10  1  0.46899700  0.73493400  0.46940600  1
  F  F11  1  0.46483600  0.40049800  0.80301400  1
  F  F12  1  0.53748400  0.59557600  0.19676700  1
  F  F13  1  0.53125300  0.26494400  0.53071300  1
  F  F14  1  0.44382000  0.07229900  0.13611200  1
  F  F15  1  0.97468600  0.03395000  0.66628900  1
  F  F16  1  0.95510800  0.71224000  0.00089500  1
  F  F17  1  0.97495600  0.36758900  0.33427200  1
