# generated using pymatgen
data_Li2VO2F
_symmetry_space_group_name_H-M   'P 1'
_cell_length_a   5.19134603
_cell_length_b   5.99309026
_cell_length_c   7.36976916
_cell_angle_alpha   90.00000000
_cell_angle_beta   90.21806893
_cell_angle_gamma   90.00000000
_symmetry_Int_Tables_number   1
_chemical_formula_structural   Li2VO2F
_chemical_formula_sum   'Li8 V4 O8 F4'
_cell_volume   229.28811047
_cell_formula_units_Z   4
loop_
 _symmetry_equiv_pos_site_id
 _symmetry_equiv_pos_as_xyz
  1  'x, y, z'
loop_
 _atom_site_type_symbol
 _atom_site_label
 _atom_site_symmetry_multiplicity
 _atom_site_fract_x
 _atom_site_fract_y
 _atom_site_fract_z
 _atom_site_occupancy
  Li  Li0  1  0.34179400  0.00000000  0.84885500  1
  Li  Li1  1  0.65966700  0.00000000  0.15631100  1
  Li  Li2  1  0.70303600  0.50000000  0.13784500  1
  Li  Li3  1  0.30725100  0.50000000  0.85604300  1
  Li  Li4  1  0.14833600  0.74077200  0.13224600  1
  Li  Li5  1  0.14833600  0.25922800  0.13224600  1
  Li  Li6  1  0.84423400  0.73238800  0.85541400  1
  Li  Li7  1  0.84423400  0.26761200  0.85541400  1
  V  V8  1  0.50481900  0.75751100  0.50845800  1
  V  V9  1  0.50481900  0.24248900  0.50845800  1
  V  V10  1  0.99938700  0.00000000  0.50113400  1
  V  V11  1  0.99138300  0.50000000  0.50380100  1
  O  O12  1  0.66889600  0.00000000  0.65950700  1
  O  O13  1  0.34441300  0.00000000  0.35391400  1
  O  O14  1  0.65585400  0.50000000  0.64760100  1
  O  O15  1  0.00213900  0.50000000  0.99787800  1
  O  O16  1  0.16733600  0.74803400  0.64715500  1
  O  O17  1  0.16733600  0.25196600  0.64715500  1
  O  O18  1  0.83224900  0.74864900  0.35314200  1
  O  O19  1  0.83224900  0.25135100  0.35314200  1
  F  F20  1  0.00143000  0.00000000  0.00124300  1
  F  F21  1  0.33517200  0.50000000  0.33919600  1
  F  F22  1  0.49942100  0.75709300  0.00425600  1
  F  F23  1  0.49942100  0.24290700  0.00425600  1
