# generated using pymatgen
data_Li4Fe3Ni5O16
_symmetry_space_group_name_H-M   'P 1'
_cell_length_a   9.93680279
_cell_length_b   5.75296608
_cell_length_c   9.49680269
_cell_angle_alpha   90.00000000
_cell_angle_beta   90.11667072
_cell_angle_gamma   90.00000000
_symmetry_Int_Tables_number   1
_chemical_formula_structural   Li4Fe3Ni5O16
_chemical_formula_sum   'Li8 Fe6 Ni10 O32'
_cell_volume   542.89394598
_cell_formula_units_Z   2
loop_
 _symmetry_equiv_pos_site_id
 _symmetry_equiv_pos_as_xyz
  1  'x, y, z'
loop_
 _atom_site_type_symbol
 _atom_site_label
 _atom_site_symmetry_multiplicity
 _atom_site_fract_x
 _atom_site_fract_y
 _atom_site_fract_z
 _atom_site_occupancy
  Li  Li0  1  0.32967900  0.00000000  0.11201800  1
  Li  Li1  1  0.00167150  0.00000000  0.00387100  1
  Li  Li2  1  0.00385250  0.00000000  0.50057100  1
  Li  Li3  1  0.66646650  0.00000000  0.60804100  1
  Li  Li4  1  0.82967900  0.50000000  0.11201800  1
  Li  Li5  1  0.50167150  0.50000000  0.00387100  1
  Li  Li6  1  0.50385250  0.50000000  0.50057100  1
  Li  Li7  1  0.16646650  0.50000000  0.60804100  1
  Fe  Fe8  1  0.41487550  0.75335150  0.78559200  1
  Fe  Fe9  1  0.41487550  0.24664850  0.78559200  1
  Fe  Fe10  1  0.83129500  0.00000000  0.28392300  1
  Fe  Fe11  1  0.91487550  0.25335150  0.78559200  1
  Fe  Fe12  1  0.91487550  0.74664850  0.78559200  1
  Fe  Fe13  1  0.33129500  0.50000000  0.28392300  1
  Ni  Ni14  1  0.33482350  0.00000000  0.50571200  1
  Ni  Ni15  1  0.16978950  0.00000000  0.78627700  1
  Ni  Ni16  1  0.66425200  0.00000000  0.01188400  1
  Ni  Ni17  1  0.58473850  0.75380650  0.28469700  1
  Ni  Ni18  1  0.58473850  0.24619350  0.28469700  1
  Ni  Ni19  1  0.83482350  0.50000000  0.50571200  1
  Ni  Ni20  1  0.66978950  0.50000000  0.78627700  1
  Ni  Ni21  1  0.16425200  0.50000000  0.01188400  1
  Ni  Ni22  1  0.08473850  0.25380650  0.28469700  1
  Ni  Ni23  1  0.08473850  0.74619350  0.28469700  1
  O  O24  1  0.42196450  0.73734850  0.39219100  1
  O  O25  1  0.48380650  0.00000000  0.66648800  1
  O  O26  1  0.32472250  0.00000000  0.90091900  1
  O  O27  1  0.01098900  0.00000000  0.68482600  1
  O  O28  1  0.00341850  0.00000000  0.19145700  1
  O  O29  1  0.42196450  0.26265150  0.39219100  1
  O  O30  1  0.25683450  0.77888350  0.66661600  1
  O  O31  1  0.25683450  0.22111650  0.66661600  1
  O  O32  1  0.83819050  0.00000000  0.89565700  1
  O  O33  1  0.15915000  0.00000000  0.39198900  1
  O  O34  1  0.73905800  0.77597600  0.17019000  1
  O  O35  1  0.73905800  0.22402400  0.17019000  1
  O  O36  1  0.66418850  0.00000000  0.38708700  1
  O  O37  1  0.58096850  0.73562350  0.89591900  1
  O  O38  1  0.51644250  0.00000000  0.17102400  1
  O  O39  1  0.58096850  0.26437650  0.89591900  1
  O  O40  1  0.92196450  0.23734850  0.39219100  1
  O  O41  1  0.98380650  0.50000000  0.66648800  1
  O  O42  1  0.82472250  0.50000000  0.90091900  1
  O  O43  1  0.51098900  0.50000000  0.68482600  1
  O  O44  1  0.50341850  0.50000000  0.19145700  1
  O  O45  1  0.92196450  0.76265150  0.39219100  1
  O  O46  1  0.75683450  0.27888350  0.66661600  1
  O  O47  1  0.75683450  0.72111650  0.66661600  1
  O  O48  1  0.33819050  0.50000000  0.89565700  1
  O  O49  1  0.65915000  0.50000000  0.39198900  1
  O  O50  1  0.23905800  0.27597600  0.17019000  1
  O  O51  1  0.23905800  0.72402400  0.17019000  1
  O  O52  1  0.16418850  0.50000000  0.38708700  1
  O  O53  1  0.08096850  0.23562350  0.89591900  1
  O  O54  1  0.01644250  0.50000000  0.17102400  1
  O  O55  1  0.08096850  0.76437650  0.89591900  1
