# generated using pymatgen
data_Ca3Cu5Si9O26
_symmetry_space_group_name_H-M   'P 1'
_cell_length_a   10.24552871
_cell_length_b   10.10394600
_cell_length_c   20.20672971
_cell_angle_alpha   90.00000000
_cell_angle_beta   91.46479418
_cell_angle_gamma   90.00000000
_symmetry_Int_Tables_number   1
_chemical_formula_structural   Ca3Cu5Si9O26
_chemical_formula_sum   'Ca12 Cu20 Si36 O104'
_cell_volume   2091.12253317
_cell_formula_units_Z   4
loop_
 _symmetry_equiv_pos_site_id
 _symmetry_equiv_pos_as_xyz
  1  'x, y, z'
loop_
 _atom_site_type_symbol
 _atom_site_label
 _atom_site_symmetry_multiplicity
 _atom_site_fract_x
 _atom_site_fract_y
 _atom_site_fract_z
 _atom_site_occupancy
  Ca  Ca0  1  0.00000000  0.72619600  0.25000000  1
  Ca  Ca1  1  0.00000000  0.27380400  0.75000000  1
  Ca  Ca2  1  0.02569750  0.26328250  0.07015100  1
  Ca  Ca3  1  0.97430250  0.26328250  0.42984900  1
  Ca  Ca4  1  0.97430250  0.73671750  0.92984900  1
  Ca  Ca5  1  0.02569750  0.73671750  0.57015100  1
  Ca  Ca6  1  0.50000000  0.22619600  0.25000000  1
  Ca  Ca7  1  0.50000000  0.77380400  0.75000000  1
  Ca  Ca8  1  0.52569750  0.76328250  0.07015100  1
  Ca  Ca9  1  0.47430250  0.76328250  0.42984900  1
  Ca  Ca10  1  0.47430250  0.23671750  0.92984900  1
  Ca  Ca11  1  0.52569750  0.23671750  0.57015100  1
  Cu  Cu12  1  0.25000000  0.75000000  0.00000000  1
  Cu  Cu13  1  0.75000000  0.75000000  0.50000000  1
  Cu  Cu14  1  0.76827450  0.25779650  0.16045200  1
  Cu  Cu15  1  0.23172550  0.25779650  0.33954800  1
  Cu  Cu16  1  0.23172550  0.74220350  0.83954800  1
  Cu  Cu17  1  0.76827450  0.74220350  0.66045200  1
  Cu  Cu18  1  0.52835750  0.51066650  0.17137100  1
  Cu  Cu19  1  0.47164250  0.51066650  0.32862900  1
  Cu  Cu20  1  0.47164250  0.48933350  0.82862900  1
  Cu  Cu21  1  0.52835750  0.48933350  0.67137100  1
  Cu  Cu22  1  0.75000000  0.25000000  0.00000000  1
  Cu  Cu23  1  0.25000000  0.25000000  0.50000000  1
  Cu  Cu24  1  0.26827450  0.75779650  0.16045200  1
  Cu  Cu25  1  0.73172550  0.75779650  0.33954800  1
  Cu  Cu26  1  0.73172550  0.24220350  0.83954800  1
  Cu  Cu27  1  0.26827450  0.24220350  0.66045200  1
  Cu  Cu28  1  0.02835750  0.01066650  0.17137100  1
  Cu  Cu29  1  0.97164250  0.01066650  0.32862900  1
  Cu  Cu30  1  0.97164250  0.98933350  0.82862900  1
  Cu  Cu31  1  0.02835750  0.98933350  0.67137100  1
  Si  Si32  1  0.00224450  0.75447450  0.08852400  1
  Si  Si33  1  0.99775550  0.75447450  0.41147600  1
  Si  Si34  1  0.99775550  0.24552550  0.91147600  1
  Si  Si35  1  0.00224450  0.24552550  0.58852400  1
  Si  Si36  1  0.80072450  0.54462550  0.09309700  1
  Si  Si37  1  0.19927550  0.54462550  0.40690300  1
  Si  Si38  1  0.19927550  0.45537450  0.90690300  1
  Si  Si39  1  0.80072450  0.45537450  0.59309700  1
  Si  Si40  1  0.77204700  0.53481400  0.80429800  1
  Si  Si41  1  0.22795300  0.53481400  0.69570200  1
  Si  Si42  1  0.22795300  0.46518600  0.19570200  1
  Si  Si43  1  0.77204700  0.46518600  0.30429800  1
  Si  Si44  1  0.00000000  0.71980100  0.75000000  1
  Si  Si45  1  0.00000000  0.28019900  0.25000000  1
  Si  Si46  1  0.71511800  0.53457000  0.94872100  1
  Si  Si47  1  0.28488200  0.53457000  0.55127900  1
  Si  Si48  1  0.28488200  0.46543000  0.05127900  1
  Si  Si49  1  0.71511800  0.46543000  0.44872100  1
  Si  Si50  1  0.50224450  0.25447450  0.08852400  1
  Si  Si51  1  0.49775550  0.25447450  0.41147600  1
  Si  Si52  1  0.49775550  0.74552550  0.91147600  1
  Si  Si53  1  0.50224450  0.74552550  0.58852400  1
  Si  Si54  1  0.30072450  0.04462550  0.09309700  1
  Si  Si55  1  0.69927550  0.04462550  0.40690300  1
  Si  Si56  1  0.69927550  0.95537450  0.90690300  1
  Si  Si57  1  0.30072450  0.95537450  0.59309700  1
  Si  Si58  1  0.27204700  0.03481400  0.80429800  1
  Si  Si59  1  0.72795300  0.03481400  0.69570200  1
  Si  Si60  1  0.72795300  0.96518600  0.19570200  1
  Si  Si61  1  0.27204700  0.96518600  0.30429800  1
  Si  Si62  1  0.50000000  0.21980100  0.75000000  1
  Si  Si63  1  0.50000000  0.78019900  0.25000000  1
  Si  Si64  1  0.21511800  0.03457000  0.94872100  1
  Si  Si65  1  0.78488200  0.03457000  0.55127900  1
  Si  Si66  1  0.78488200  0.96543000  0.05127900  1
  Si  Si67  1  0.21511800  0.96543000  0.44872100  1
  O  O68  1  0.91077750  0.64654050  0.12833700  1
  O  O69  1  0.08922250  0.64654050  0.37166300  1
  O  O70  1  0.08922250  0.35345950  0.87166300  1
  O  O71  1  0.91077750  0.35345950  0.62833700  1
  O  O72  1  0.08725950  0.82982950  0.14778800  1
  O  O73  1  0.91274050  0.82982950  0.35221200  1
  O  O74  1  0.91274050  0.17017050  0.85221200  1
  O  O75  1  0.08725950  0.17017050  0.64778800  1
  O  O76  1  0.04148900  0.80641400  0.81605900  1
  O  O77  1  0.95851100  0.80641400  0.68394100  1
  O  O78  1  0.95851100  0.19358600  0.18394100  1
  O  O79  1  0.04148900  0.19358600  0.31605900  1
  O  O80  1  0.08577500  0.68456400  0.03196700  1
  O  O81  1  0.91422500  0.68456400  0.46803300  1
  O  O82  1  0.91422500  0.31543600  0.96803300  1
  O  O83  1  0.08577500  0.31543600  0.53196700  1
  O  O84  1  0.81225700  0.38217900  0.79061100  1
  O  O85  1  0.18774300  0.38217900  0.70938900  1
  O  O86  1  0.18774300  0.61782100  0.20938900  1
  O  O87  1  0.81225700  0.61782100  0.29061100  1
  O  O88  1  0.84444450  0.39209950  0.10541700  1
  O  O89  1  0.15555550  0.39209950  0.39458300  1
  O  O90  1  0.15555550  0.60790050  0.89458300  1
  O  O91  1  0.84444450  0.60790050  0.60541700  1
  O  O92  1  0.62158400  0.57227400  0.78450000  1
  O  O93  1  0.37841600  0.57227400  0.71550000  1
  O  O94  1  0.37841600  0.42772600  0.21550000  1
  O  O95  1  0.62158400  0.42772600  0.28450000  1
  O  O96  1  0.81139600  0.57679500  0.01183500  1
  O  O97  1  0.18860400  0.57679500  0.48816500  1
  O  O98  1  0.18860400  0.42320500  0.98816500  1
  O  O99  1  0.81139600  0.42320500  0.51183500  1
  O  O100  1  0.80402000  0.57637400  0.88403100  1
  O  O101  1  0.19598000  0.57637400  0.61596900  1
  O  O102  1  0.19598000  0.42362600  0.11596900  1
  O  O103  1  0.80402000  0.42362600  0.38403100  1
  O  O104  1  0.87166350  0.62721450  0.76188400  1
  O  O105  1  0.12833650  0.62721450  0.73811600  1
  O  O106  1  0.12833650  0.37278550  0.23811600  1
  O  O107  1  0.87166350  0.37278550  0.26188400  1
  O  O108  1  0.65727950  0.38640850  0.94579900  1
  O  O109  1  0.34272050  0.38640850  0.55420100  1
  O  O110  1  0.34272050  0.61359150  0.05420100  1
  O  O111  1  0.65727950  0.61359150  0.44579900  1
  O  O112  1  0.90680300  0.85943200  0.04786700  1
  O  O113  1  0.09319700  0.85943200  0.45213300  1
  O  O114  1  0.09319700  0.14056800  0.95213300  1
  O  O115  1  0.90680300  0.14056800  0.54786700  1
  O  O116  1  0.34346300  0.59014600  0.38503200  1
  O  O117  1  0.65653700  0.59014600  0.11496800  1
  O  O118  1  0.65653700  0.40985400  0.61496800  1
  O  O119  1  0.34346300  0.40985400  0.88503200  1
  O  O120  1  0.41077750  0.14654050  0.12833700  1
  O  O121  1  0.58922250  0.14654050  0.37166300  1
  O  O122  1  0.58922250  0.85345950  0.87166300  1
  O  O123  1  0.41077750  0.85345950  0.62833700  1
  O  O124  1  0.58725950  0.32982950  0.14778800  1
  O  O125  1  0.41274050  0.32982950  0.35221200  1
  O  O126  1  0.41274050  0.67017050  0.85221200  1
  O  O127  1  0.58725950  0.67017050  0.64778800  1
  O  O128  1  0.54148900  0.30641400  0.81605900  1
  O  O129  1  0.45851100  0.30641400  0.68394100  1
  O  O130  1  0.45851100  0.69358600  0.18394100  1
  O  O131  1  0.54148900  0.69358600  0.31605900  1
  O  O132  1  0.58577500  0.18456400  0.03196700  1
  O  O133  1  0.41422500  0.18456400  0.46803300  1
  O  O134  1  0.41422500  0.81543600  0.96803300  1
  O  O135  1  0.58577500  0.81543600  0.53196700  1
  O  O136  1  0.31225700  0.88217900  0.79061100  1
  O  O137  1  0.68774300  0.88217900  0.70938900  1
  O  O138  1  0.68774300  0.11782100  0.20938900  1
  O  O139  1  0.31225700  0.11782100  0.29061100  1
  O  O140  1  0.34444450  0.89209950  0.10541700  1
  O  O141  1  0.65555550  0.89209950  0.39458300  1
  O  O142  1  0.65555550  0.10790050  0.89458300  1
  O  O143  1  0.34444450  0.10790050  0.60541700  1
  O  O144  1  0.12158400  0.07227400  0.78450000  1
  O  O145  1  0.87841600  0.07227400  0.71550000  1
  O  O146  1  0.87841600  0.92772600  0.21550000  1
  O  O147  1  0.12158400  0.92772600  0.28450000  1
  O  O148  1  0.31139600  0.07679500  0.01183500  1
  O  O149  1  0.68860400  0.07679500  0.48816500  1
  O  O150  1  0.68860400  0.92320500  0.98816500  1
  O  O151  1  0.31139600  0.92320500  0.51183500  1
  O  O152  1  0.30402000  0.07637400  0.88403100  1
  O  O153  1  0.69598000  0.07637400  0.61596900  1
  O  O154  1  0.69598000  0.92362600  0.11596900  1
  O  O155  1  0.30402000  0.92362600  0.38403100  1
  O  O156  1  0.37166350  0.12721450  0.76188400  1
  O  O157  1  0.62833650  0.12721450  0.73811600  1
  O  O158  1  0.62833650  0.87278550  0.23811600  1
  O  O159  1  0.37166350  0.87278550  0.26188400  1
  O  O160  1  0.15727950  0.88640850  0.94579900  1
  O  O161  1  0.84272050  0.88640850  0.55420100  1
  O  O162  1  0.84272050  0.11359150  0.05420100  1
  O  O163  1  0.15727950  0.11359150  0.44579900  1
  O  O164  1  0.40680300  0.35943200  0.04786700  1
  O  O165  1  0.59319700  0.35943200  0.45213300  1
  O  O166  1  0.59319700  0.64056800  0.95213300  1
  O  O167  1  0.40680300  0.64056800  0.54786700  1
  O  O168  1  0.84346300  0.09014600  0.38503200  1
  O  O169  1  0.15653700  0.09014600  0.11496800  1
  O  O170  1  0.15653700  0.90985400  0.61496800  1
  O  O171  1  0.84346300  0.90985400  0.88503200  1
