# generated using pymatgen
data_Li4Mn3Cr3(WO8)2
_symmetry_space_group_name_H-M   'P 1'
_cell_length_a   10.44605400
_cell_length_b   6.03121200
_cell_length_c   9.78220422
_cell_angle_alpha   90.00000000
_cell_angle_beta   91.57703016
_cell_angle_gamma   90.00000000
_symmetry_Int_Tables_number   1
_chemical_formula_structural   Li4Mn3Cr3(WO8)2
_chemical_formula_sum   'Li8 Mn6 Cr6 W4 O32'
_cell_volume   616.06857525
_cell_formula_units_Z   2
loop_
 _symmetry_equiv_pos_site_id
 _symmetry_equiv_pos_as_xyz
  1  'x, y, z'
loop_
 _atom_site_type_symbol
 _atom_site_label
 _atom_site_symmetry_multiplicity
 _atom_site_fract_x
 _atom_site_fract_y
 _atom_site_fract_z
 _atom_site_occupancy
  Li  Li0  1  0.66375100  0.00000000  0.90949600  1
  Li  Li1  1  0.00316600  0.00000000  0.98728900  1
  Li  Li2  1  0.00344800  0.00000000  0.48833700  1
  Li  Li3  1  0.32897100  0.00000000  0.40546200  1
  Li  Li4  1  0.16375100  0.50000000  0.90949600  1
  Li  Li5  1  0.50316600  0.50000000  0.98728900  1
  Li  Li6  1  0.50344800  0.50000000  0.48833700  1
  Li  Li7  1  0.82897100  0.50000000  0.40546200  1
  Mn  Mn8  1  0.83139800  0.00000000  0.21176700  1
  Mn  Mn9  1  0.41739950  0.24461950  0.71260900  1
  Mn  Mn10  1  0.41739950  0.75538050  0.71260900  1
  Mn  Mn11  1  0.33139800  0.50000000  0.21176700  1
  Mn  Mn12  1  0.91739950  0.74461950  0.71260900  1
  Mn  Mn13  1  0.91739950  0.25538050  0.71260900  1
  Cr  Cr14  1  0.58573150  0.24625450  0.21351400  1
  Cr  Cr15  1  0.58573150  0.75374550  0.21351400  1
  Cr  Cr16  1  0.17133100  0.00000000  0.71509200  1
  Cr  Cr17  1  0.08573150  0.74625450  0.21351400  1
  Cr  Cr18  1  0.08573150  0.25374550  0.21351400  1
  Cr  Cr19  1  0.67133100  0.50000000  0.71509200  1
  W  W20  1  0.66782200  0.00000000  0.48572600  1
  W  W21  1  0.33273200  0.00000000  0.98607600  1
  W  W22  1  0.16782200  0.50000000  0.48572600  1
  W  W23  1  0.83273200  0.50000000  0.98607600  1
  O  O24  1  0.59382050  0.24241250  0.58689300  1
  O  O25  1  0.52067700  0.00000000  0.34020900  1
  O  O26  1  0.66576100  0.00000000  0.11232000  1
  O  O27  1  0.00108700  0.00000000  0.30279500  1
  O  O28  1  0.00372800  0.00000000  0.80149600  1
  O  O29  1  0.59382050  0.75758750  0.58689300  1
  O  O30  1  0.73364300  0.22267400  0.34871300  1
  O  O31  1  0.73364300  0.77732600  0.34871300  1
  O  O32  1  0.17085100  0.00000000  0.09932900  1
  O  O33  1  0.82917500  0.00000000  0.57506800  1
  O  O34  1  0.25126300  0.21381600  0.85487000  1
  O  O35  1  0.25126300  0.78618400  0.85487000  1
  O  O36  1  0.32925900  0.00000000  0.60999800  1
  O  O37  1  0.41518650  0.24168450  0.08942900  1
  O  O38  1  0.47631800  0.00000000  0.86469000  1
  O  O39  1  0.41518650  0.75831550  0.08942900  1
  O  O40  1  0.09382050  0.74241250  0.58689300  1
  O  O41  1  0.02067700  0.50000000  0.34020900  1
  O  O42  1  0.16576100  0.50000000  0.11232000  1
  O  O43  1  0.50108700  0.50000000  0.30279500  1
  O  O44  1  0.50372800  0.50000000  0.80149600  1
  O  O45  1  0.09382050  0.25758750  0.58689300  1
  O  O46  1  0.23364300  0.72267400  0.34871300  1
  O  O47  1  0.23364300  0.27732600  0.34871300  1
  O  O48  1  0.67085100  0.50000000  0.09932900  1
  O  O49  1  0.32917500  0.50000000  0.57506800  1
  O  O50  1  0.75126300  0.71381600  0.85487000  1
  O  O51  1  0.75126300  0.28618400  0.85487000  1
  O  O52  1  0.82925900  0.50000000  0.60999800  1
  O  O53  1  0.91518650  0.74168450  0.08942900  1
  O  O54  1  0.97631800  0.50000000  0.86469000  1
  O  O55  1  0.91518650  0.25831550  0.08942900  1
