# generated using pymatgen
data_LiV2O2F3
_symmetry_space_group_name_H-M   'P 1'
_cell_length_a   10.70852200
_cell_length_b   5.14388200
_cell_length_c   7.13783750
_cell_angle_alpha   90.00000000
_cell_angle_beta   111.09950340
_cell_angle_gamma   90.00000000
_symmetry_Int_Tables_number   1
_chemical_formula_structural   LiV2O2F3
_chemical_formula_sum   'Li4 V8 O8 F12'
_cell_volume   366.81632398
_cell_formula_units_Z   4
loop_
 _symmetry_equiv_pos_site_id
 _symmetry_equiv_pos_as_xyz
  1  'x, y, z'
loop_
 _atom_site_type_symbol
 _atom_site_label
 _atom_site_symmetry_multiplicity
 _atom_site_fract_x
 _atom_site_fract_y
 _atom_site_fract_z
 _atom_site_occupancy
  Li  Li0  1  0.02432850  0.38632650  0.98120200  1
  Li  Li1  1  0.02432850  0.61367350  0.48120200  1
  Li  Li2  1  0.52432850  0.88632650  0.98120200  1
  Li  Li3  1  0.52432850  0.11367350  0.48120200  1
  V  V4  1  0.19545700  0.01170300  0.87761800  1
  V  V5  1  0.19545700  0.98829700  0.37761800  1
  V  V6  1  0.30395850  0.50711950  0.62758300  1
  V  V7  1  0.30395850  0.49288050  0.12758300  1
  V  V8  1  0.69545700  0.51170300  0.87761800  1
  V  V9  1  0.69545700  0.48829700  0.37761800  1
  V  V10  1  0.80395850  0.00711950  0.62758300  1
  V  V11  1  0.80395850  0.99288050  0.12758300  1
  O  O12  1  0.19383500  0.82492900  0.63674800  1
  O  O13  1  0.19383500  0.17507100  0.13674800  1
  O  O14  1  0.28881100  0.33717200  0.86190100  1
  O  O15  1  0.28881100  0.66282800  0.36190100  1
  O  O16  1  0.69383500  0.32492900  0.63674800  1
  O  O17  1  0.69383500  0.67507100  0.13674800  1
  O  O18  1  0.78881100  0.83717200  0.86190100  1
  O  O19  1  0.78881100  0.16282800  0.36190100  1
  F  F20  1  0.49557550  0.34901950  0.26005900  1
  F  F21  1  0.12334300  0.32096100  0.46445500  1
  F  F22  1  0.12334300  0.67903900  0.96445500  1
  F  F23  1  0.37543700  0.83136600  0.04607300  1
  F  F24  1  0.37543700  0.16863400  0.54607300  1
  F  F25  1  0.49557550  0.65098050  0.76005900  1
  F  F26  1  0.99557550  0.84901950  0.26005900  1
  F  F27  1  0.62334300  0.82096100  0.46445500  1
  F  F28  1  0.62334300  0.17903900  0.96445500  1
  F  F29  1  0.87543700  0.33136600  0.04607300  1
  F  F30  1  0.87543700  0.66863400  0.54607300  1
  F  F31  1  0.99557550  0.15098050  0.76005900  1
