# generated using pymatgen
data_LiAl2FeO6
_symmetry_space_group_name_H-M   'P 1'
_cell_length_a   4.90543400
_cell_length_b   8.53292600
_cell_length_c   5.32219508
_cell_angle_alpha   90.00000000
_cell_angle_beta   109.30481277
_cell_angle_gamma   90.00000000
_symmetry_Int_Tables_number   1
_chemical_formula_structural   LiAl2FeO6
_chemical_formula_sum   'Li2 Al4 Fe2 O12'
_cell_volume   210.24895165
_cell_formula_units_Z   2
loop_
 _symmetry_equiv_pos_site_id
 _symmetry_equiv_pos_as_xyz
  1  'x, y, z'
loop_
 _atom_site_type_symbol
 _atom_site_label
 _atom_site_symmetry_multiplicity
 _atom_site_fract_x
 _atom_site_fract_y
 _atom_site_fract_z
 _atom_site_occupancy
  Li  Li0  1  0.50000000  0.00000000  0.50000000  1
  Li  Li1  1  0.00000000  0.50000000  0.50000000  1
  Al  Al2  1  0.50000000  0.83211600  0.00000000  1
  Al  Al3  1  0.00000000  0.66788400  0.00000000  1
  Al  Al4  1  0.00000000  0.33211600  0.00000000  1
  Al  Al5  1  0.50000000  0.16788400  0.00000000  1
  Fe  Fe6  1  0.00000000  0.00000000  0.00000000  1
  Fe  Fe7  1  0.50000000  0.50000000  0.00000000  1
  O  O8  1  0.76143300  0.83735400  0.80391300  1
  O  O9  1  0.73502800  0.00000000  0.19544200  1
  O  O10  1  0.23856700  0.83735400  0.19608700  1
  O  O11  1  0.26143300  0.66264600  0.80391300  1
  O  O12  1  0.26497200  0.00000000  0.80455800  1
  O  O13  1  0.73856700  0.66264600  0.19608700  1
  O  O14  1  0.26143300  0.33735400  0.80391300  1
  O  O15  1  0.23502800  0.50000000  0.19544200  1
  O  O16  1  0.73856700  0.33735400  0.19608700  1
  O  O17  1  0.76143300  0.16264600  0.80391300  1
  O  O18  1  0.76497200  0.50000000  0.80455800  1
  O  O19  1  0.23856700  0.16264600  0.19608700  1
