# generated using pymatgen
data_Li4Ti3Nb3Cr2O16
_symmetry_space_group_name_H-M   'P 1'
_cell_length_a   10.42306800
_cell_length_b   5.96545200
_cell_length_c   9.93942991
_cell_angle_alpha   90.00000000
_cell_angle_beta   90.59275615
_cell_angle_gamma   90.00000000
_symmetry_Int_Tables_number   1
_chemical_formula_structural   Li4Ti3Nb3Cr2O16
_chemical_formula_sum   'Li8 Ti6 Nb6 Cr4 O32'
_cell_volume   617.98389926
_cell_formula_units_Z   2
loop_
 _symmetry_equiv_pos_site_id
 _symmetry_equiv_pos_as_xyz
  1  'x, y, z'
loop_
 _atom_site_type_symbol
 _atom_site_label
 _atom_site_symmetry_multiplicity
 _atom_site_fract_x
 _atom_site_fract_y
 _atom_site_fract_z
 _atom_site_occupancy
  Li  Li0  1  0.66586000  0.00000000  0.10031300  1
  Li  Li1  1  0.51148000  0.50000000  0.00661900  1
  Li  Li2  1  0.50624900  0.50000000  0.50301500  1
  Li  Li3  1  0.83104300  0.50000000  0.60889900  1
  Li  Li4  1  0.16586000  0.50000000  0.10031300  1
  Li  Li5  1  0.01148000  0.00000000  0.00661900  1
  Li  Li6  1  0.00624900  0.00000000  0.50301500  1
  Li  Li7  1  0.33104300  0.00000000  0.60889900  1
  Ti  Ti8  1  0.58468900  0.75344900  0.78333600  1
  Ti  Ti9  1  0.58468900  0.24655100  0.78333600  1
  Ti  Ti10  1  0.66498100  0.50000000  0.28169700  1
  Ti  Ti11  1  0.08468900  0.25344900  0.78333600  1
  Ti  Ti12  1  0.08468900  0.74655100  0.78333600  1
  Ti  Ti13  1  0.16498100  0.00000000  0.28169700  1
  Nb  Nb14  1  0.83361200  0.00000000  0.78861100  1
  Nb  Nb15  1  0.91400350  0.27341650  0.29017300  1
  Nb  Nb16  1  0.91400350  0.72658350  0.29017300  1
  Nb  Nb17  1  0.33361200  0.50000000  0.78861100  1
  Nb  Nb18  1  0.41400350  0.77341650  0.29017300  1
  Nb  Nb19  1  0.41400350  0.22658350  0.29017300  1
  Cr  Cr20  1  0.66936800  0.00000000  0.51629800  1
  Cr  Cr21  1  0.83226000  0.50000000  0.01063500  1
  Cr  Cr22  1  0.16936800  0.50000000  0.51629800  1
  Cr  Cr23  1  0.33226000  0.00000000  0.01063500  1
  O  O24  1  0.58156900  0.74902300  0.39771300  1
  O  O25  1  0.52135000  0.00000000  0.66513900  1
  O  O26  1  0.66479700  0.00000000  0.89547800  1
  O  O27  1  0.50576800  0.50000000  0.68365000  1
  O  O28  1  0.50071100  0.50000000  0.18772700  1
  O  O29  1  0.58156900  0.25097700  0.39771300  1
  O  O30  1  0.73942150  0.77855850  0.66123300  1
  O  O31  1  0.73942150  0.22144150  0.66123300  1
  O  O32  1  0.66313300  0.50000000  0.89272000  1
  O  O33  1  0.83676500  0.00000000  0.40419300  1
  O  O34  1  0.75588750  0.27836650  0.16578300  1
  O  O35  1  0.75588750  0.72163350  0.16578300  1
  O  O36  1  0.81254600  0.50000000  0.41183300  1
  O  O37  1  0.92204450  0.24364950  0.89623000  1
  O  O38  1  0.98328600  0.50000000  0.14630800  1
  O  O39  1  0.92204450  0.75635050  0.89623000  1
  O  O40  1  0.08156900  0.24902300  0.39771300  1
  O  O41  1  0.02135000  0.50000000  0.66513900  1
  O  O42  1  0.16479700  0.50000000  0.89547800  1
  O  O43  1  0.00576800  0.00000000  0.68365000  1
  O  O44  1  0.00071100  0.00000000  0.18772700  1
  O  O45  1  0.08156900  0.75097700  0.39771300  1
  O  O46  1  0.23942150  0.27855850  0.66123300  1
  O  O47  1  0.23942150  0.72144150  0.66123300  1
  O  O48  1  0.16313300  0.00000000  0.89272000  1
  O  O49  1  0.33676500  0.50000000  0.40419300  1
  O  O50  1  0.25588750  0.77836650  0.16578300  1
  O  O51  1  0.25588750  0.22163350  0.16578300  1
  O  O52  1  0.31254600  0.00000000  0.41183300  1
  O  O53  1  0.42204450  0.74364950  0.89623000  1
  O  O54  1  0.48328600  0.00000000  0.14630800  1
  O  O55  1  0.42204450  0.25635050  0.89623000  1
