# generated using pymatgen
data_ZrCoO3
_symmetry_space_group_name_H-M   'P 1'
_cell_length_a   5.03371215
_cell_length_b   5.41414200
_cell_length_c   8.39620768
_cell_angle_alpha   90.00000000
_cell_angle_beta   90.00000000
_cell_angle_gamma   90.00000000
_symmetry_Int_Tables_number   1
_chemical_formula_structural   ZrCoO3
_chemical_formula_sum   'Zr4 Co4 O12'
_cell_volume   228.82379910
_cell_formula_units_Z   4
loop_
 _symmetry_equiv_pos_site_id
 _symmetry_equiv_pos_as_xyz
  1  'x, y, z'
loop_
 _atom_site_type_symbol
 _atom_site_label
 _atom_site_symmetry_multiplicity
 _atom_site_fract_x
 _atom_site_fract_y
 _atom_site_fract_z
 _atom_site_occupancy
  Zr  Zr0  1  0.54326350  0.43086400  0.75000000  1
  Zr  Zr1  1  0.95673650  0.93086400  0.75000000  1
  Zr  Zr2  1  0.04326350  0.06913600  0.25000000  1
  Zr  Zr3  1  0.45673650  0.56913600  0.25000000  1
  Co  Co4  1  0.50000000  0.00000000  0.50000000  1
  Co  Co5  1  0.00000000  0.50000000  0.00000000  1
  Co  Co6  1  0.50000000  0.00000000  0.00000000  1
  Co  Co7  1  0.00000000  0.50000000  0.50000000  1
  O  O8  1  0.66856950  0.91424400  0.25000000  1
  O  O9  1  0.83143050  0.41424400  0.25000000  1
  O  O10  1  0.16856950  0.58575600  0.75000000  1
  O  O11  1  0.33143050  0.08575600  0.75000000  1
  O  O12  1  0.69524550  0.69960900  0.59064950  1
  O  O13  1  0.69524550  0.69960900  0.90935050  1
  O  O14  1  0.80475450  0.19960900  0.90935050  1
  O  O15  1  0.80475450  0.19960900  0.59064950  1
  O  O16  1  0.19524550  0.80039100  0.40935050  1
  O  O17  1  0.19524550  0.80039100  0.09064950  1
  O  O18  1  0.30475450  0.30039100  0.09064950  1
  O  O19  1  0.30475450  0.30039100  0.40935050  1
