# generated using pymatgen
data_LiP(WO4)2
_symmetry_space_group_name_H-M   'P 1'
_cell_length_a   6.80269600
_cell_length_b   5.40501900
_cell_length_c   17.98199608
_cell_angle_alpha   90.00000000
_cell_angle_beta   90.61029361
_cell_angle_gamma   90.00000000
_symmetry_Int_Tables_number   1
_chemical_formula_structural   LiP(WO4)2
_chemical_formula_sum   'Li4 P4 W8 O32'
_cell_volume   661.13713259
_cell_formula_units_Z   4
loop_
 _symmetry_equiv_pos_site_id
 _symmetry_equiv_pos_as_xyz
  1  'x, y, z'
loop_
 _atom_site_type_symbol
 _atom_site_label
 _atom_site_symmetry_multiplicity
 _atom_site_fract_x
 _atom_site_fract_y
 _atom_site_fract_z
 _atom_site_occupancy
  Li  Li0  1  0.75809000  0.70682800  0.20280400  1
  Li  Li1  1  0.75208800  0.71795700  0.70547700  1
  Li  Li2  1  0.24791200  0.21795700  0.29452300  1
  Li  Li3  1  0.24191000  0.20682800  0.79719600  1
  P  P4  1  0.80383500  0.27836100  0.30749400  1
  P  P5  1  0.69890500  0.27859600  0.81010700  1
  P  P6  1  0.30109500  0.77859600  0.18989300  1
  P  P7  1  0.19616500  0.77836100  0.69250600  1
  W  W8  1  0.00452300  0.26361500  0.12478400  1
  W  W9  1  0.83956100  0.76880300  0.54651600  1
  W  W10  1  0.66004800  0.77088000  0.04657100  1
  W  W11  1  0.49702600  0.27370600  0.62740500  1
  W  W12  1  0.50297400  0.77370600  0.37259500  1
  W  W13  1  0.33995200  0.27088000  0.95342900  1
  W  W14  1  0.16043900  0.26880300  0.45348400  1
  W  W15  1  0.99547700  0.76361500  0.87521600  1
  O  O16  1  0.99644700  0.26319300  0.35317800  1
  O  O17  1  0.99548600  0.52607200  0.50422500  1
  O  O18  1  0.86465000  0.30965800  0.22524600  1
  O  O19  1  0.84848300  0.97046500  0.11104000  1
  O  O20  1  0.85037800  0.09229500  0.83854500  1
  O  O21  1  0.83735100  0.76448700  0.95732200  1
  O  O22  1  0.79658000  0.48629300  0.08788500  1
  O  O23  1  0.78485400  0.54829500  0.81064400  1
  O  O24  1  0.69340600  0.52049000  0.32300400  1
  O  O25  1  0.67649500  0.01658200  0.59238800  1
  O  O26  1  0.66153800  0.77324500  0.45556400  1
  O  O27  1  0.67708400  0.04507600  0.31535800  1
  O  O28  1  0.67939900  0.53266400  0.60726000  1
  O  O29  1  0.64835200  0.21843900  0.72816200  1
  O  O30  1  0.52445900  0.04319800  0.00973600  1
  O  O31  1  0.50302000  0.26560300  0.85322800  1
  O  O32  1  0.49698000  0.76560300  0.14677200  1
  O  O33  1  0.47554100  0.54319800  0.99026400  1
  O  O34  1  0.35164800  0.71843900  0.27183800  1
  O  O35  1  0.32060100  0.03266400  0.39274000  1
  O  O36  1  0.32291600  0.54507600  0.68464200  1
  O  O37  1  0.33846200  0.27324500  0.54443600  1
  O  O38  1  0.32350500  0.51658200  0.40761200  1
  O  O39  1  0.30659400  0.02049000  0.67699600  1
  O  O40  1  0.21514600  0.04829500  0.18935600  1
  O  O41  1  0.20342000  0.98629300  0.91211500  1
  O  O42  1  0.16264900  0.26448700  0.04267800  1
  O  O43  1  0.14962200  0.59229500  0.16145500  1
  O  O44  1  0.15151700  0.47046500  0.88896000  1
  O  O45  1  0.13535000  0.80965800  0.77475400  1
  O  O46  1  0.00451400  0.02607200  0.49577500  1
  O  O47  1  0.00355300  0.76319300  0.64682200  1
