# generated using pymatgen
data_Li4MnV(WO6)2
_symmetry_space_group_name_H-M   'P 1'
_cell_length_a   5.07133431
_cell_length_b   5.38126312
_cell_length_c   7.68780571
_cell_angle_alpha   94.81044902
_cell_angle_beta   90.85685986
_cell_angle_gamma   90.18159299
_symmetry_Int_Tables_number   1
_chemical_formula_structural   Li4MnV(WO6)2
_chemical_formula_sum   'Li4 Mn1 V1 W2 O12'
_cell_volume   209.03718714
_cell_formula_units_Z   1
loop_
 _symmetry_equiv_pos_site_id
 _symmetry_equiv_pos_as_xyz
  1  'x, y, z'
loop_
 _atom_site_type_symbol
 _atom_site_label
 _atom_site_symmetry_multiplicity
 _atom_site_fract_x
 _atom_site_fract_y
 _atom_site_fract_z
 _atom_site_occupancy
  Li  Li0  1  0.99702800  0.42997900  0.29303000  1
  Li  Li1  1  0.51104800  0.90780000  0.77845900  1
  Li  Li2  1  0.99613650  0.44688500  0.77353000  1
  Li  Li3  1  0.49412150  0.90977200  0.29756900  1
  Mn  Mn4  1  0.49969100  0.49922500  0.49694700  1
  V  V5  1  0.99474700  0.97778700  0.02583700  1
  W  W6  1  0.01356050  0.00346650  0.51831950  1
  W  W7  1  0.49104900  0.47582900  0.99701500  1
  O  O8  1  0.30163950  0.19741450  0.42865850  1
  O  O9  1  0.12877750  0.02057200  0.74569500  1
  O  O10  1  0.29801900  0.82984200  0.05837600  1
  O  O11  1  0.19412050  0.70679700  0.42951400  1
  O  O12  1  0.80875150  0.71703300  0.93214700  1
  O  O13  1  0.37884500  0.53822700  0.76714800  1
  O  O14  1  0.62866450  0.53400450  0.22386450  1
  O  O15  1  0.17880050  0.31566400  0.05328400  1
  O  O16  1  0.81974700  0.31524050  0.54234550  1
  O  O17  1  0.69550950  0.19920750  0.92740150  1
  O  O18  1  0.87589000  0.01195500  0.23627100  1
  O  O19  1  0.69385500  0.82089350  0.54579650  1
