# generated using pymatgen
data_Li10Fe(SiO5)2
_symmetry_space_group_name_H-M   'P 1'
_cell_length_a   30.04951200
_cell_length_b   6.17261000
_cell_length_c   5.16096556
_cell_angle_alpha   90.00000000
_cell_angle_beta   99.12472099
_cell_angle_gamma   90.00000000
_symmetry_Int_Tables_number   1
_chemical_formula_structural   Li10Fe(SiO5)2
_chemical_formula_sum   'Li40 Fe4 Si8 O40'
_cell_volume   945.16224102
_cell_formula_units_Z   4
loop_
 _symmetry_equiv_pos_site_id
 _symmetry_equiv_pos_as_xyz
  1  'x, y, z'
loop_
 _atom_site_type_symbol
 _atom_site_label
 _atom_site_symmetry_multiplicity
 _atom_site_fract_x
 _atom_site_fract_y
 _atom_site_fract_z
 _atom_site_occupancy
  Li  Li0  1  0.00952700  0.50000000  0.25923400  1
  Li  Li1  1  0.06767850  0.70739150  0.89544900  1
  Li  Li2  1  0.06767850  0.29260850  0.89544900  1
  Li  Li3  1  0.13220500  0.00000000  0.78011200  1
  Li  Li4  1  0.13152800  0.78455400  0.23994800  1
  Li  Li5  1  0.13152800  0.21544600  0.23994800  1
  Li  Li6  1  0.17485200  0.50000000  0.93407700  1
  Li  Li7  1  0.19528800  0.75653700  0.60251700  1
  Li  Li8  1  0.19528800  0.24346300  0.60251700  1
  Li  Li9  1  0.23033700  0.50000000  0.32432800  1
  Li  Li10  1  0.26966300  0.00000000  0.67567200  1
  Li  Li11  1  0.30471200  0.74346300  0.39748300  1
  Li  Li12  1  0.30471200  0.25653700  0.39748300  1
  Li  Li13  1  0.32514800  0.00000000  0.06592300  1
  Li  Li14  1  0.36847200  0.28455400  0.76005200  1
  Li  Li15  1  0.36847200  0.71544600  0.76005200  1
  Li  Li16  1  0.36779500  0.50000000  0.21988800  1
  Li  Li17  1  0.43232150  0.79260850  0.10455100  1
  Li  Li18  1  0.43232150  0.20739150  0.10455100  1
  Li  Li19  1  0.49047300  0.00000000  0.74076600  1
  Li  Li20  1  0.50952700  0.00000000  0.25923400  1
  Li  Li21  1  0.56767850  0.20739150  0.89544900  1
  Li  Li22  1  0.56767850  0.79260850  0.89544900  1
  Li  Li23  1  0.63220500  0.50000000  0.78011200  1
  Li  Li24  1  0.63152800  0.28455400  0.23994800  1
  Li  Li25  1  0.63152800  0.71544600  0.23994800  1
  Li  Li26  1  0.67485200  0.00000000  0.93407700  1
  Li  Li27  1  0.69528800  0.25653700  0.60251700  1
  Li  Li28  1  0.69528800  0.74346300  0.60251700  1
  Li  Li29  1  0.73033700  0.00000000  0.32432800  1
  Li  Li30  1  0.76966300  0.50000000  0.67567200  1
  Li  Li31  1  0.80471200  0.24346300  0.39748300  1
  Li  Li32  1  0.80471200  0.75653700  0.39748300  1
  Li  Li33  1  0.82514800  0.50000000  0.06592300  1
  Li  Li34  1  0.86847200  0.78455400  0.76005200  1
  Li  Li35  1  0.86847200  0.21544600  0.76005200  1
  Li  Li36  1  0.86779500  0.00000000  0.21988800  1
  Li  Li37  1  0.93232150  0.29260850  0.10455100  1
  Li  Li38  1  0.93232150  0.70739150  0.10455100  1
  Li  Li39  1  0.99047300  0.50000000  0.74076600  1
  Fe  Fe40  1  0.03632400  0.00000000  0.17513800  1
  Fe  Fe41  1  0.46367600  0.50000000  0.82486200  1
  Fe  Fe42  1  0.53632400  0.50000000  0.17513800  1
  Fe  Fe43  1  0.96367600  0.00000000  0.82486200  1
  Si  Si44  1  0.10077100  0.50000000  0.50825300  1
  Si  Si45  1  0.21927800  0.00000000  0.12860000  1
  Si  Si46  1  0.28072200  0.50000000  0.87140000  1
  Si  Si47  1  0.39922900  0.00000000  0.49174700  1
  Si  Si48  1  0.60077100  0.00000000  0.50825300  1
  Si  Si49  1  0.71927800  0.50000000  0.12860000  1
  Si  Si50  1  0.78072200  0.00000000  0.87140000  1
  Si  Si51  1  0.89922900  0.50000000  0.49174700  1
  O  O52  1  0.05053100  0.50000000  0.60039500  1
  O  O53  1  0.09270900  0.00000000  0.05364400  1
  O  O54  1  0.09699700  0.50000000  0.18302900  1
  O  O55  1  0.12913800  0.71560500  0.62610300  1
  O  O56  1  0.12913800  0.28439500  0.62610300  1
  O  O57  1  0.19377350  0.77523650  0.21677000  1
  O  O58  1  0.19377350  0.22476350  0.21677000  1
  O  O59  1  0.21375700  0.00000000  0.80595100  1
  O  O60  1  0.22827700  0.50000000  0.71992200  1
  O  O61  1  0.27172300  0.00000000  0.28007800  1
  O  O62  1  0.28624300  0.50000000  0.19404900  1
  O  O63  1  0.30622650  0.72476350  0.78323000  1
  O  O64  1  0.30622650  0.27523650  0.78323000  1
  O  O65  1  0.37086200  0.21560500  0.37389700  1
  O  O66  1  0.37086200  0.78439500  0.37389700  1
  O  O67  1  0.40300300  0.00000000  0.81697100  1
  O  O68  1  0.40729100  0.50000000  0.94635600  1
  O  O69  1  0.44946900  0.00000000  0.39960500  1
  O  O70  1  0.00000000  0.75056000  0.00000000  1
  O  O71  1  0.00000000  0.24944000  0.00000000  1
  O  O72  1  0.55053100  0.00000000  0.60039500  1
  O  O73  1  0.59270900  0.50000000  0.05364400  1
  O  O74  1  0.59699700  0.00000000  0.18302900  1
  O  O75  1  0.62913800  0.21560500  0.62610300  1
  O  O76  1  0.62913800  0.78439500  0.62610300  1
  O  O77  1  0.69377350  0.27523650  0.21677000  1
  O  O78  1  0.69377350  0.72476350  0.21677000  1
  O  O79  1  0.71375700  0.50000000  0.80595100  1
  O  O80  1  0.72827700  0.00000000  0.71992200  1
  O  O81  1  0.77172300  0.50000000  0.28007800  1
  O  O82  1  0.78624300  0.00000000  0.19404900  1
  O  O83  1  0.80622650  0.22476350  0.78323000  1
  O  O84  1  0.80622650  0.77523650  0.78323000  1
  O  O85  1  0.87086200  0.71560500  0.37389700  1
  O  O86  1  0.87086200  0.28439500  0.37389700  1
  O  O87  1  0.90300300  0.50000000  0.81697100  1
  O  O88  1  0.90729100  0.00000000  0.94635600  1
  O  O89  1  0.94946900  0.50000000  0.39960500  1
  O  O90  1  0.50000000  0.25056000  0.00000000  1
  O  O91  1  0.50000000  0.74944000  0.00000000  1
