# generated using pymatgen
data_Mn6OF11
_symmetry_space_group_name_H-M   'P 1'
_cell_length_a   4.94857100
_cell_length_b   5.90234500
_cell_length_c   16.23636364
_cell_angle_alpha   90.00000000
_cell_angle_beta   90.58408156
_cell_angle_gamma   90.00000000
_symmetry_Int_Tables_number   1
_chemical_formula_structural   Mn6OF11
_chemical_formula_sum   'Mn12 O2 F22'
_cell_volume   474.20988176
_cell_formula_units_Z   2
loop_
 _symmetry_equiv_pos_site_id
 _symmetry_equiv_pos_as_xyz
  1  'x, y, z'
loop_
 _atom_site_type_symbol
 _atom_site_label
 _atom_site_symmetry_multiplicity
 _atom_site_fract_x
 _atom_site_fract_y
 _atom_site_fract_z
 _atom_site_occupancy
  Mn  Mn0  1  0.02600800  0.81521000  0.82884800  1
  Mn  Mn1  1  0.00000000  0.16738300  0.00000000  1
  Mn  Mn2  1  0.97399200  0.81521000  0.17115200  1
  Mn  Mn3  1  0.00000000  0.82887500  0.50000000  1
  Mn  Mn4  1  0.00362000  0.16767800  0.66697600  1
  Mn  Mn5  1  0.99638000  0.16767800  0.33302400  1
  Mn  Mn6  1  0.48351300  0.66655100  0.67285400  1
  Mn  Mn7  1  0.51648700  0.66655100  0.32714600  1
  Mn  Mn8  1  0.50000000  0.67158600  0.00000000  1
  Mn  Mn9  1  0.50483800  0.35480300  0.16840100  1
  Mn  Mn10  1  0.49516200  0.35480300  0.83159900  1
  Mn  Mn11  1  0.50000000  0.33967400  0.50000000  1
  O  O12  1  0.29587400  0.58970900  0.78319200  1
  O  O13  1  0.70412600  0.58970900  0.21680800  1
  F  F14  1  0.22080200  0.89411900  0.94440900  1
  F  F15  1  0.23256100  0.89519600  0.61018500  1
  F  F16  1  0.21124800  0.88289500  0.27680900  1
  F  F17  1  0.24402800  0.12700100  0.11506300  1
  F  F18  1  0.24259300  0.10721100  0.77890600  1
  F  F19  1  0.22646000  0.11036100  0.44364500  1
  F  F20  1  0.25933500  0.60855500  0.10685200  1
  F  F21  1  0.28009700  0.38631100  0.94214800  1
  F  F22  1  0.26306900  0.39609100  0.60766100  1
  F  F23  1  0.27828500  0.61513700  0.43757200  1
  F  F24  1  0.27164100  0.37941300  0.27302600  1
  F  F25  1  0.71990300  0.38631100  0.05785200  1
  F  F26  1  0.74066500  0.60855500  0.89314800  1
  F  F27  1  0.72835900  0.37941300  0.72697400  1
  F  F28  1  0.73693100  0.39609100  0.39233900  1
  F  F29  1  0.72171500  0.61513700  0.56242800  1
  F  F30  1  0.77919800  0.89411900  0.05559100  1
  F  F31  1  0.78875200  0.88289500  0.72319100  1
  F  F32  1  0.75597200  0.12700100  0.88493700  1
  F  F33  1  0.75740700  0.10721100  0.22109400  1
  F  F34  1  0.76743900  0.89519600  0.38981500  1
  F  F35  1  0.77354000  0.11036100  0.55635500  1
