# generated using pymatgen
data_Na2CuO2
_symmetry_space_group_name_H-M   'P 1'
_cell_length_a   2.94942000
_cell_length_b   10.36175200
_cell_length_c   8.24148600
_cell_angle_alpha   90.00000000
_cell_angle_beta   90.00000000
_cell_angle_gamma   90.00000000
_symmetry_Int_Tables_number   1
_chemical_formula_structural   Na2CuO2
_chemical_formula_sum   'Na8 Cu4 O8'
_cell_volume   251.86936061
_cell_formula_units_Z   4
loop_
 _symmetry_equiv_pos_site_id
 _symmetry_equiv_pos_as_xyz
  1  'x, y, z'
loop_
 _atom_site_type_symbol
 _atom_site_label
 _atom_site_symmetry_multiplicity
 _atom_site_fract_x
 _atom_site_fract_y
 _atom_site_fract_z
 _atom_site_occupancy
  Na  Na0  1  0.50000000  0.35280900  0.66812100  1
  Na  Na1  1  0.50000000  0.10647800  0.84853900  1
  Na  Na2  1  0.00000000  0.14719100  0.16812100  1
  Na  Na3  1  0.00000000  0.39352200  0.34853900  1
  Na  Na4  1  0.00000000  0.85280900  0.66812100  1
  Na  Na5  1  0.00000000  0.60647800  0.84853900  1
  Na  Na6  1  0.50000000  0.64719100  0.16812100  1
  Na  Na7  1  0.50000000  0.89352200  0.34853900  1
  Cu  Cu8  1  0.50000000  0.37769000  0.00343200  1
  Cu  Cu9  1  0.00000000  0.12231000  0.50343200  1
  Cu  Cu10  1  0.00000000  0.87769000  0.00343200  1
  Cu  Cu11  1  0.50000000  0.62231000  0.50343200  1
  O  O12  1  0.50000000  0.22508000  0.40335700  1
  O  O13  1  0.00000000  0.48295600  0.09144100  1
  O  O14  1  0.50000000  0.01704400  0.59144100  1
  O  O15  1  0.00000000  0.27492000  0.90335700  1
  O  O16  1  0.00000000  0.72508000  0.40335700  1
  O  O17  1  0.50000000  0.98295600  0.09144100  1
  O  O18  1  0.00000000  0.51704400  0.59144100  1
  O  O19  1  0.50000000  0.77492000  0.90335700  1
