# generated using pymatgen
data_Li2Cr3FeO8
_symmetry_space_group_name_H-M   'P 1'
_cell_length_a   10.29559600
_cell_length_b   5.88558200
_cell_length_c   5.99533557
_cell_angle_alpha   90.00000000
_cell_angle_beta   124.61372659
_cell_angle_gamma   90.00000000
_symmetry_Int_Tables_number   1
_chemical_formula_structural   Li2Cr3FeO8
_chemical_formula_sum   'Li4 Cr6 Fe2 O16'
_cell_volume   298.98844165
_cell_formula_units_Z   2
loop_
 _symmetry_equiv_pos_site_id
 _symmetry_equiv_pos_as_xyz
  1  'x, y, z'
loop_
 _atom_site_type_symbol
 _atom_site_label
 _atom_site_symmetry_multiplicity
 _atom_site_fract_x
 _atom_site_fract_y
 _atom_site_fract_z
 _atom_site_occupancy
  Li  Li0  1  0.00000000  0.00000000  0.00000000  1
  Li  Li1  1  0.00000000  0.50000000  0.00000000  1
  Li  Li2  1  0.50000000  0.50000000  0.00000000  1
  Li  Li3  1  0.50000000  0.00000000  0.00000000  1
  Cr  Cr4  1  0.25000000  0.75000000  0.50000000  1
  Cr  Cr5  1  0.25000000  0.25000000  0.50000000  1
  Cr  Cr6  1  0.00000000  0.50000000  0.50000000  1
  Cr  Cr7  1  0.75000000  0.25000000  0.50000000  1
  Cr  Cr8  1  0.75000000  0.75000000  0.50000000  1
  Cr  Cr9  1  0.50000000  0.00000000  0.50000000  1
  Fe  Fe10  1  0.00000000  0.00000000  0.50000000  1
  Fe  Fe11  1  0.50000000  0.50000000  0.50000000  1
  O  O12  1  0.26090000  0.00000000  0.29515800  1
  O  O13  1  0.47904250  0.74986650  0.71171400  1
  O  O14  1  0.24224700  0.00000000  0.70467800  1
  O  O15  1  0.47904250  0.25013350  0.71171400  1
  O  O16  1  0.02095750  0.24986650  0.28828600  1
  O  O17  1  0.25775300  0.50000000  0.29532200  1
  O  O18  1  0.02095750  0.75013350  0.28828600  1
  O  O19  1  0.23910000  0.50000000  0.70484200  1
  O  O20  1  0.76090000  0.50000000  0.29515800  1
  O  O21  1  0.97904250  0.24986650  0.71171400  1
  O  O22  1  0.74224700  0.50000000  0.70467800  1
  O  O23  1  0.97904250  0.75013350  0.71171400  1
  O  O24  1  0.52095750  0.74986650  0.28828600  1
  O  O25  1  0.75775300  0.00000000  0.29532200  1
  O  O26  1  0.52095750  0.25013350  0.28828600  1
  O  O27  1  0.73910000  0.00000000  0.70484200  1
