# generated using pymatgen
data_Mn2Fe3Ni(PO4)6
_symmetry_space_group_name_H-M   'P 1'
_cell_length_a   8.67866445
_cell_length_b   8.67866445
_cell_length_c   20.90122083
_cell_angle_alpha   90.00000000
_cell_angle_beta   90.00000000
_cell_angle_gamma   120.00000000
_symmetry_Int_Tables_number   1
_chemical_formula_structural   Mn2Fe3Ni(PO4)6
_chemical_formula_sum   'Mn6 Fe9 Ni3 P18 O72'
_cell_volume   1363.35225335
_cell_formula_units_Z   3
loop_
 _symmetry_equiv_pos_site_id
 _symmetry_equiv_pos_as_xyz
  1  'x, y, z'
loop_
 _atom_site_type_symbol
 _atom_site_label
 _atom_site_symmetry_multiplicity
 _atom_site_fract_x
 _atom_site_fract_y
 _atom_site_fract_z
 _atom_site_occupancy
  Mn  Mn0  1  0.33333333  0.66666667  0.66758267  1
  Mn  Mn1  1  0.33333333  0.66666667  0.16700767  1
  Mn  Mn2  1  0.00000000  0.00000000  0.00091600  1
  Mn  Mn3  1  0.00000000  0.00000000  0.50034100  1
  Mn  Mn4  1  0.66666667  0.33333333  0.33424933  1
  Mn  Mn5  1  0.66666667  0.33333333  0.83367433  1
  Fe  Fe6  1  0.33333333  0.66666667  0.52133867  1
  Fe  Fe7  1  0.33333333  0.66666667  0.31286067  1
  Fe  Fe8  1  0.33333333  0.66666667  0.02117467  1
  Fe  Fe9  1  0.00000000  0.00000000  0.85467200  1
  Fe  Fe10  1  0.00000000  0.00000000  0.64619400  1
  Fe  Fe11  1  0.00000000  0.00000000  0.35450800  1
  Fe  Fe12  1  0.66666667  0.33333333  0.18800533  1
  Fe  Fe13  1  0.66666667  0.33333333  0.97952733  1
  Fe  Fe14  1  0.66666667  0.33333333  0.68784133  1
  Ni  Ni15  1  0.33333333  0.66666667  0.81010167  1
  Ni  Ni16  1  0.00000000  0.00000000  0.14343500  1
  Ni  Ni17  1  0.66666667  0.33333333  0.47676833  1
  P  P18  1  0.00001000  0.29545000  0.24990300  1
  P  P19  1  0.70455000  0.70456000  0.24990300  1
  P  P20  1  0.29544000  0.99999000  0.24990300  1
  P  P21  1  0.37067900  0.33314400  0.08351600  1
  P  P22  1  0.96246500  0.62932100  0.08351600  1
  P  P23  1  0.66685600  0.03753500  0.08351600  1
  P  P24  1  0.66667667  0.62878333  0.58323633  1
  P  P25  1  0.37121667  0.03789333  0.58323633  1
  P  P26  1  0.96210667  0.33332333  0.58323633  1
  P  P27  1  0.03734567  0.66647733  0.41684933  1
  P  P28  1  0.62913167  0.96265433  0.41684933  1
  P  P29  1  0.33352267  0.37086833  0.41684933  1
  P  P30  1  0.33334333  0.96211667  0.91656967  1
  P  P31  1  0.03788333  0.37122667  0.91656967  1
  P  P32  1  0.62877333  0.66665667  0.91656967  1
  P  P33  1  0.70401233  0.99981067  0.75018267  1
  P  P34  1  0.29579833  0.29598767  0.75018267  1
  P  P35  1  0.00018933  0.70420167  0.75018267  1
  O  O36  1  0.32450233  0.46498567  0.35627267  1
  O  O37  1  0.14048333  0.67549767  0.35627267  1
  O  O38  1  0.83201133  0.31730767  0.25828567  1
  O  O39  1  0.53501433  0.85951667  0.35627267  1
  O  O40  1  0.99652500  0.20098400  0.18842600  1
  O  O41  1  0.16628767  0.48695133  0.24336533  1
  O  O42  1  0.68269233  0.51470367  0.25828567  1
  O  O43  1  0.51304867  0.67933633  0.24336533  1
  O  O44  1  0.46485333  0.32496167  0.14402067  1
  O  O45  1  0.32066367  0.83371233  0.24336533  1
  O  O46  1  0.18259200  0.16615300  0.07464700  1
  O  O47  1  0.86010833  0.53514667  0.14402067  1
  O  O48  1  0.79901600  0.79554100  0.18842600  1
  O  O49  1  0.48529633  0.16798867  0.25828567  1
  O  O50  1  0.34947800  0.50086700  0.09131000  1
  O  O51  1  0.20445900  0.00347500  0.18842600  1
  O  O52  1  0.15138900  0.65052200  0.09131000  1
  O  O53  1  0.98356100  0.81740800  0.07464700  1
  O  O54  1  0.49913300  0.84861100  0.09131000  1
  O  O55  1  0.67503833  0.13989167  0.14402067  1
  O  O56  1  0.13293133  0.47282967  0.97689967  1
  O  O57  1  0.83384700  0.01643900  0.07464700  1
  O  O58  1  0.52717033  0.66010167  0.97689967  1
  O  O59  1  0.33989833  0.86706867  0.97689967  1
  O  O60  1  0.99116900  0.79831900  0.68960600  1
  O  O61  1  0.80715000  0.00883100  0.68960600  1
  O  O62  1  0.49867800  0.65064100  0.59161900  1
  O  O63  1  0.20168100  0.19285000  0.68960600  1
  O  O64  1  0.66319167  0.53431733  0.52175933  1
  O  O65  1  0.83295433  0.82028467  0.57669867  1
  O  O66  1  0.34935900  0.84803700  0.59161900  1
  O  O67  1  0.17971533  0.01266967  0.57669867  1
  O  O68  1  0.13152000  0.65829500  0.47735400  1
  O  O69  1  0.98733033  0.16704567  0.57669867  1
  O  O70  1  0.84925867  0.49948633  0.40798033  1
  O  O71  1  0.52677500  0.86848000  0.47735400  1
  O  O72  1  0.46568267  0.12887433  0.52175933  1
  O  O73  1  0.15196300  0.50132200  0.59161900  1
  O  O74  1  0.01614467  0.83420033  0.42464333  1
  O  O75  1  0.87112567  0.33680833  0.52175933  1
  O  O76  1  0.81805567  0.98385533  0.42464333  1
  O  O77  1  0.65022767  0.15074133  0.40798033  1
  O  O78  1  0.16579967  0.18194433  0.42464333  1
  O  O79  1  0.34170500  0.47322500  0.47735400  1
  O  O80  1  0.79959800  0.80616300  0.31023300  1
  O  O81  1  0.50051367  0.34977233  0.40798033  1
  O  O82  1  0.19383700  0.99343500  0.31023300  1
  O  O83  1  0.00656500  0.20040200  0.31023300  1
  O  O84  1  0.65783567  0.13165233  0.02293933  1
  O  O85  1  0.47381667  0.34216433  0.02293933  1
  O  O86  1  0.16534467  0.98397433  0.92495233  1
  O  O87  1  0.86834767  0.52618333  0.02293933  1
  O  O88  1  0.32985833  0.86765067  0.85509267  1
  O  O89  1  0.49962100  0.15361800  0.91003200  1
  O  O90  1  0.01602567  0.18137033  0.92495233  1
  O  O91  1  0.84638200  0.34600300  0.91003200  1
  O  O92  1  0.79818667  0.99162833  0.81068733  1
  O  O93  1  0.65399700  0.50037900  0.91003200  1
  O  O94  1  0.51592533  0.83281967  0.74131367  1
  O  O95  1  0.19344167  0.20181333  0.81068733  1
  O  O96  1  0.13234933  0.46220767  0.85509267  1
  O  O97  1  0.81862967  0.83465533  0.92495233  1
  O  O98  1  0.68281133  0.16753367  0.75797667  1
  O  O99  1  0.53779233  0.67014167  0.85509267  1
  O  O100  1  0.48472233  0.31718867  0.75797667  1
  O  O101  1  0.31689433  0.48407467  0.74131367  1
  O  O102  1  0.83246633  0.51527767  0.75797667  1
  O  O103  1  0.00837167  0.80655833  0.81068733  1
  O  O104  1  0.46626467  0.13949633  0.64356633  1
  O  O105  1  0.16718033  0.68310567  0.74131367  1
  O  O106  1  0.86050367  0.32676833  0.64356633  1
  O  O107  1  0.67323167  0.53373533  0.64356633  1
