# generated using pymatgen
data_Li2FeBO4
_symmetry_space_group_name_H-M   'P 1'
_cell_length_a   7.02129800
_cell_length_b   7.30490200
_cell_length_c   6.17738805
_cell_angle_alpha   90.00000000
_cell_angle_beta   91.14666216
_cell_angle_gamma   90.00000000
_symmetry_Int_Tables_number   1
_chemical_formula_structural   Li2FeBO4
_chemical_formula_sum   'Li8 Fe4 B4 O16'
_cell_volume   316.77412890
_cell_formula_units_Z   4
loop_
 _symmetry_equiv_pos_site_id
 _symmetry_equiv_pos_as_xyz
  1  'x, y, z'
loop_
 _atom_site_type_symbol
 _atom_site_label
 _atom_site_symmetry_multiplicity
 _atom_site_fract_x
 _atom_site_fract_y
 _atom_site_fract_z
 _atom_site_occupancy
  Li  Li0  1  0.32609600  0.00000000  0.71299700  1
  Li  Li1  1  0.50000000  0.67779600  0.50000000  1
  Li  Li2  1  0.50000000  0.32220400  0.50000000  1
  Li  Li3  1  0.67390400  0.00000000  0.28700300  1
  Li  Li4  1  0.82609600  0.50000000  0.71299700  1
  Li  Li5  1  0.00000000  0.17779600  0.50000000  1
  Li  Li6  1  0.00000000  0.82220400  0.50000000  1
  Li  Li7  1  0.17390400  0.50000000  0.28700300  1
  Fe  Fe8  1  0.50000000  0.69556800  0.00000000  1
  Fe  Fe9  1  0.50000000  0.30443200  0.00000000  1
  Fe  Fe10  1  0.00000000  0.19556800  0.00000000  1
  Fe  Fe11  1  0.00000000  0.80443200  0.00000000  1
  B  B12  1  0.31738600  0.00000000  0.25578200  1
  B  B13  1  0.68261400  0.00000000  0.74421800  1
  B  B14  1  0.81738600  0.50000000  0.25578200  1
  B  B15  1  0.18261400  0.50000000  0.74421800  1
  O  O16  1  0.19566700  0.00000000  0.03178900  1
  O  O17  1  0.19910200  0.00000000  0.43512500  1
  O  O18  1  0.44617000  0.16594300  0.24336200  1
  O  O19  1  0.44617000  0.83405700  0.24336200  1
  O  O20  1  0.55383000  0.83405700  0.75663800  1
  O  O21  1  0.55383000  0.16594300  0.75663800  1
  O  O22  1  0.80089800  0.00000000  0.56487500  1
  O  O23  1  0.80433300  0.00000000  0.96821100  1
  O  O24  1  0.69566700  0.50000000  0.03178900  1
  O  O25  1  0.69910200  0.50000000  0.43512500  1
  O  O26  1  0.94617000  0.66594300  0.24336200  1
  O  O27  1  0.94617000  0.33405700  0.24336200  1
  O  O28  1  0.05383000  0.33405700  0.75663800  1
  O  O29  1  0.05383000  0.66594300  0.75663800  1
  O  O30  1  0.30089800  0.50000000  0.56487500  1
  O  O31  1  0.30433300  0.50000000  0.96821100  1
