# generated using pymatgen
data_Li4Ti2Fe3Cu3O16
_symmetry_space_group_name_H-M   'P 1'
_cell_length_a   10.25018202
_cell_length_b   5.93202314
_cell_length_c   9.56284144
_cell_angle_alpha   90.00000000
_cell_angle_beta   90.52609911
_cell_angle_gamma   90.00000000
_symmetry_Int_Tables_number   1
_chemical_formula_structural   Li4Ti2Fe3Cu3O16
_chemical_formula_sum   'Li8 Ti4 Fe6 Cu6 O32'
_cell_volume   581.43752980
_cell_formula_units_Z   2
loop_
 _symmetry_equiv_pos_site_id
 _symmetry_equiv_pos_as_xyz
  1  'x, y, z'
loop_
 _atom_site_type_symbol
 _atom_site_label
 _atom_site_symmetry_multiplicity
 _atom_site_fract_x
 _atom_site_fract_y
 _atom_site_fract_z
 _atom_site_occupancy
  Li  Li0  1  0.16321650  0.50000000  0.10235700  1
  Li  Li1  1  0.50036550  0.50000000  0.00416400  1
  Li  Li2  1  0.50386300  0.50000000  0.50893000  1
  Li  Li3  1  0.83335850  0.50000000  0.60475700  1
  Li  Li4  1  0.66321650  0.00000000  0.10235700  1
  Li  Li5  1  0.00036550  0.00000000  0.00416400  1
  Li  Li6  1  0.00386300  0.00000000  0.50893000  1
  Li  Li7  1  0.33335850  0.00000000  0.60475700  1
  Ti  Ti8  1  0.17047500  0.50000000  0.50216600  1
  Ti  Ti9  1  0.83710350  0.50000000  0.00392600  1
  Ti  Ti10  1  0.67047500  0.00000000  0.50216600  1
  Ti  Ti11  1  0.33710350  0.00000000  0.00392600  1
  Fe  Fe12  1  0.32970950  0.50000000  0.78331600  1
  Fe  Fe13  1  0.91554300  0.74390400  0.28362900  1
  Fe  Fe14  1  0.91554300  0.25609600  0.28362900  1
  Fe  Fe15  1  0.82970950  0.00000000  0.78331600  1
  Fe  Fe16  1  0.41554300  0.24390400  0.28362900  1
  Fe  Fe17  1  0.41554300  0.75609600  0.28362900  1
  Cu  Cu18  1  0.08795800  0.74521100  0.78561800  1
  Cu  Cu19  1  0.08795800  0.25478900  0.78561800  1
  Cu  Cu20  1  0.67036250  0.50000000  0.28721800  1
  Cu  Cu21  1  0.58795800  0.24521100  0.78561800  1
  Cu  Cu22  1  0.58795800  0.75478900  0.78561800  1
  Cu  Cu23  1  0.17036250  0.00000000  0.28721800  1
  O  O24  1  0.08122950  0.74786550  0.40790200  1
  O  O25  1  0.02281900  0.50000000  0.65761300  1
  O  O26  1  0.16197750  0.50000000  0.88994800  1
  O  O27  1  0.50636100  0.50000000  0.69907300  1
  O  O28  1  0.50767700  0.50000000  0.19488900  1
  O  O29  1  0.08122950  0.25213450  0.40790200  1
  O  O30  1  0.24202300  0.72161300  0.65442800  1
  O  O31  1  0.24202300  0.27838700  0.65442800  1
  O  O32  1  0.66393100  0.50000000  0.90655200  1
  O  O33  1  0.33150550  0.50000000  0.40681500  1
  O  O34  1  0.75848750  0.72165950  0.15668500  1
  O  O35  1  0.75848750  0.27834050  0.15668500  1
  O  O36  1  0.82764300  0.50000000  0.39305800  1
  O  O37  1  0.90961050  0.75029350  0.90767300  1
  O  O38  1  0.98069350  0.50000000  0.15561900  1
  O  O39  1  0.90961050  0.24970650  0.90767300  1
  O  O40  1  0.58122950  0.24786550  0.40790200  1
  O  O41  1  0.52281900  0.00000000  0.65761300  1
  O  O42  1  0.66197750  0.00000000  0.88994800  1
  O  O43  1  0.00636100  0.00000000  0.69907300  1
  O  O44  1  0.00767700  0.00000000  0.19488900  1
  O  O45  1  0.58122950  0.75213450  0.40790200  1
  O  O46  1  0.74202300  0.22161300  0.65442800  1
  O  O47  1  0.74202300  0.77838700  0.65442800  1
  O  O48  1  0.16393100  0.00000000  0.90655200  1
  O  O49  1  0.83150550  0.00000000  0.40681500  1
  O  O50  1  0.25848750  0.22165950  0.15668500  1
  O  O51  1  0.25848750  0.77834050  0.15668500  1
  O  O52  1  0.32764300  0.00000000  0.39305800  1
  O  O53  1  0.40961050  0.25029350  0.90767300  1
  O  O54  1  0.48069350  0.00000000  0.15561900  1
  O  O55  1  0.40961050  0.74970650  0.90767300  1
