# generated using pymatgen
data_Fe2O3F
_symmetry_space_group_name_H-M   'P 1'
_cell_length_a   4.70778140
_cell_length_b   3.00931700
_cell_length_c   23.39590693
_cell_angle_alpha   90.00000000
_cell_angle_beta   92.50889797
_cell_angle_gamma   90.00000000
_symmetry_Int_Tables_number   1
_chemical_formula_structural   Fe2O3F
_chemical_formula_sum   'Fe10 O15 F5'
_cell_volume   331.13692650
_cell_formula_units_Z   5
loop_
 _symmetry_equiv_pos_site_id
 _symmetry_equiv_pos_as_xyz
  1  'x, y, z'
loop_
 _atom_site_type_symbol
 _atom_site_label
 _atom_site_symmetry_multiplicity
 _atom_site_fract_x
 _atom_site_fract_y
 _atom_site_fract_z
 _atom_site_occupancy
  Fe  Fe0  1  0.04109300  0.00000000  0.00040200  1
  Fe  Fe1  1  0.93629300  0.00000000  0.80451100  1
  Fe  Fe2  1  0.96697700  0.00000000  0.60350500  1
  Fe  Fe3  1  0.99338700  0.00000000  0.40352500  1
  Fe  Fe4  1  0.01296100  0.00000000  0.20442000  1
  Fe  Fe5  1  0.45438900  0.50000000  0.89447400  1
  Fe  Fe6  1  0.49261500  0.50000000  0.69695000  1
  Fe  Fe7  1  0.51826400  0.50000000  0.49732000  1
  Fe  Fe8  1  0.53420200  0.50000000  0.29658800  1
  Fe  Fe9  1  0.55892700  0.50000000  0.09567300  1
  O  O10  1  0.75697500  0.50000000  0.84047300  1
  O  O11  1  0.79524800  0.50000000  0.64096800  1
  O  O12  1  0.81181500  0.50000000  0.44001600  1
  O  O13  1  0.86120000  0.50000000  0.03620900  1
  O  O14  1  0.82364900  0.50000000  0.23746900  1
  O  O15  1  0.68712100  0.00000000  0.54108800  1
  O  O16  1  0.70231900  0.00000000  0.33964200  1
  O  O17  1  0.72728300  0.00000000  0.13673600  1
  O  O18  1  0.65160300  0.00000000  0.74026700  1
  O  O19  1  0.26089600  0.00000000  0.86010800  1
  O  O20  1  0.28829200  0.00000000  0.66244800  1
  O  O21  1  0.32335700  0.00000000  0.26118400  1
  O  O22  1  0.36622800  0.00000000  0.05885800  1
  O  O23  1  0.30637900  0.00000000  0.46329800  1
  O  O24  1  0.19301300  0.50000000  0.95850400  1
  F  F25  1  0.68025000  0.00000000  0.93852300  1
  F  F26  1  0.14560700  0.50000000  0.76270400  1
  F  F27  1  0.18431100  0.50000000  0.56326000  1
  F  F28  1  0.20380500  0.50000000  0.36144900  1
  F  F29  1  0.22154000  0.50000000  0.15942700  1
