# generated using pymatgen
data_Li2FeNi(PO4)2
_symmetry_space_group_name_H-M   'P 1'
_cell_length_a   4.74089410
_cell_length_b   6.00666700
_cell_length_c   10.29715725
_cell_angle_alpha   90.00000000
_cell_angle_beta   90.24650642
_cell_angle_gamma   90.00000000
_symmetry_Int_Tables_number   1
_chemical_formula_structural   Li2FeNi(PO4)2
_chemical_formula_sum   'Li4 Fe2 Ni2 P4 O16'
_cell_volume   293.22914662
_cell_formula_units_Z   2
loop_
 _symmetry_equiv_pos_site_id
 _symmetry_equiv_pos_as_xyz
  1  'x, y, z'
loop_
 _atom_site_type_symbol
 _atom_site_label
 _atom_site_symmetry_multiplicity
 _atom_site_fract_x
 _atom_site_fract_y
 _atom_site_fract_z
 _atom_site_occupancy
  Li  Li0  1  0.50000000  0.00000000  0.00000000  1
  Li  Li1  1  0.50000000  0.50000000  0.00000000  1
  Li  Li2  1  0.00000000  0.00000000  0.50000000  1
  Li  Li3  1  0.00000000  0.50000000  0.50000000  1
  Fe  Fe4  1  0.47569600  0.25000000  0.72292200  1
  Fe  Fe5  1  0.52430400  0.75000000  0.27707800  1
  Ni  Ni6  1  0.01597500  0.25000000  0.22038300  1
  Ni  Ni7  1  0.98402500  0.75000000  0.77961700  1
  P  P8  1  0.08147300  0.75000000  0.09129300  1
  P  P9  1  0.91852700  0.25000000  0.90870700  1
  P  P10  1  0.58279800  0.25000000  0.40276100  1
  P  P11  1  0.41720200  0.75000000  0.59723900  1
  O  O12  1  0.79464800  0.25000000  0.04882200  1
  O  O13  1  0.20535200  0.75000000  0.95117800  1
  O  O14  1  0.75779400  0.75000000  0.09351900  1
  O  O15  1  0.24220600  0.25000000  0.90648100  1
  O  O16  1  0.25847900  0.25000000  0.39751900  1
  O  O17  1  0.74152100  0.75000000  0.60248100  1
  O  O18  1  0.29681400  0.75000000  0.45692500  1
  O  O19  1  0.70318600  0.25000000  0.54307500  1
  O  O20  1  0.21691200  0.95631100  0.16257400  1
  O  O21  1  0.21691200  0.54368900  0.16257400  1
  O  O22  1  0.78308800  0.45631100  0.83742600  1
  O  O23  1  0.78308800  0.04368900  0.83742600  1
  O  O24  1  0.72169100  0.45409600  0.33170600  1
  O  O25  1  0.72169100  0.04590400  0.33170600  1
  O  O26  1  0.27830900  0.95409600  0.66829400  1
  O  O27  1  0.27830900  0.54590400  0.66829400  1
