# generated using pymatgen
data_VOF3
_symmetry_space_group_name_H-M   'P 1'
_cell_length_a   13.31478800
_cell_length_b   4.73183600
_cell_length_c   4.65098690
_cell_angle_alpha   90.00000000
_cell_angle_beta   109.66767527
_cell_angle_gamma   90.00000000
_symmetry_Int_Tables_number   1
_chemical_formula_structural   VOF3
_chemical_formula_sum   'V4 O4 F12'
_cell_volume   275.93287399
_cell_formula_units_Z   4
loop_
 _symmetry_equiv_pos_site_id
 _symmetry_equiv_pos_as_xyz
  1  'x, y, z'
loop_
 _atom_site_type_symbol
 _atom_site_label
 _atom_site_symmetry_multiplicity
 _atom_site_fract_x
 _atom_site_fract_y
 _atom_site_fract_z
 _atom_site_occupancy
  V  V0  1  0.31578250  0.70949650  0.79018500  1
  V  V1  1  0.18421750  0.20949650  0.20981500  1
  V  V2  1  0.81578250  0.20949650  0.79018500  1
  V  V3  1  0.68421750  0.70949650  0.20981500  1
  O  O4  1  0.19736500  0.96570200  0.47520300  1
  O  O5  1  0.30263500  0.46570200  0.52479700  1
  O  O6  1  0.69736500  0.46570200  0.47520300  1
  O  O7  1  0.80263500  0.96570200  0.52479700  1
  F  F8  1  0.40472250  0.95571350  0.71848300  1
  F  F9  1  0.29135550  0.07590950  0.07466100  1
  F  F10  1  0.08398400  0.06640000  0.88400100  1
  F  F11  1  0.09527750  0.45571350  0.28151700  1
  F  F12  1  0.20864450  0.57590950  0.92533900  1
  F  F13  1  0.41601600  0.56640000  0.11599900  1
  F  F14  1  0.90472250  0.45571350  0.71848300  1
  F  F15  1  0.79135550  0.57590950  0.07466100  1
  F  F16  1  0.58398400  0.56640000  0.88400100  1
  F  F17  1  0.59527750  0.95571350  0.28151700  1
  F  F18  1  0.70864450  0.07590950  0.92533900  1
  F  F19  1  0.91601600  0.06640000  0.11599900  1
