# generated using pymatgen
data_NaVSiO4
_symmetry_space_group_name_H-M   'P 1'
_cell_length_a   5.43379820
_cell_length_b   8.53625407
_cell_length_c   6.70651800
_cell_angle_alpha   90.00000000
_cell_angle_beta   90.00000000
_cell_angle_gamma   90.00000000
_symmetry_Int_Tables_number   1
_chemical_formula_structural   NaVSiO4
_chemical_formula_sum   'Na4 V4 Si4 O16'
_cell_volume   311.07702216
_cell_formula_units_Z   4
loop_
 _symmetry_equiv_pos_site_id
 _symmetry_equiv_pos_as_xyz
  1  'x, y, z'
loop_
 _atom_site_type_symbol
 _atom_site_label
 _atom_site_symmetry_multiplicity
 _atom_site_fract_x
 _atom_site_fract_y
 _atom_site_fract_z
 _atom_site_occupancy
  Na  Na0  1  0.50000000  0.81631075  0.25000000  1
  Na  Na1  1  0.50000000  0.18368925  0.75000000  1
  Na  Na2  1  0.00000000  0.31631075  0.25000000  1
  Na  Na3  1  0.00000000  0.68368925  0.75000000  1
  V  V4  1  0.00000000  0.00000000  0.00000000  1
  V  V5  1  0.50000000  0.50000000  0.50000000  1
  V  V6  1  0.50000000  0.50000000  0.00000000  1
  V  V7  1  0.00000000  0.00000000  0.50000000  1
  Si  Si8  1  0.50000000  0.83859075  0.75000000  1
  Si  Si9  1  0.50000000  0.16140925  0.25000000  1
  Si  Si10  1  0.00000000  0.33859075  0.75000000  1
  Si  Si11  1  0.00000000  0.66140925  0.25000000  1
  O  O12  1  0.50000000  0.72446975  0.55621950  1
  O  O13  1  0.50000000  0.72446975  0.94378050  1
  O  O14  1  0.50000000  0.27553025  0.05621950  1
  O  O15  1  0.50000000  0.27553025  0.44378050  1
  O  O16  1  0.25095650  0.95439975  0.75000000  1
  O  O17  1  0.25095650  0.04560025  0.25000000  1
  O  O18  1  0.74904350  0.95439975  0.75000000  1
  O  O19  1  0.74904350  0.04560025  0.25000000  1
  O  O20  1  0.00000000  0.22446975  0.55621950  1
  O  O21  1  0.00000000  0.22446975  0.94378050  1
  O  O22  1  0.00000000  0.77553025  0.05621950  1
  O  O23  1  0.00000000  0.77553025  0.44378050  1
  O  O24  1  0.75095650  0.45439975  0.75000000  1
  O  O25  1  0.75095650  0.54560025  0.25000000  1
  O  O26  1  0.24904350  0.45439975  0.75000000  1
  O  O27  1  0.24904350  0.54560025  0.25000000  1
