# generated using pymatgen
data_LiCuPO4
_symmetry_space_group_name_H-M   'P 1'
_cell_length_a   5.59439800
_cell_length_b   8.05590800
_cell_length_c   6.27371200
_cell_angle_alpha   90.00000000
_cell_angle_beta   90.00000000
_cell_angle_gamma   90.00000000
_symmetry_Int_Tables_number   1
_chemical_formula_structural   LiCuPO4
_chemical_formula_sum   'Li4 Cu4 P4 O16'
_cell_volume   282.74337388
_cell_formula_units_Z   4
loop_
 _symmetry_equiv_pos_site_id
 _symmetry_equiv_pos_as_xyz
  1  'x, y, z'
loop_
 _atom_site_type_symbol
 _atom_site_label
 _atom_site_symmetry_multiplicity
 _atom_site_fract_x
 _atom_site_fract_y
 _atom_site_fract_z
 _atom_site_occupancy
  Li  Li0  1  0.50000000  0.82568400  0.75000000  1
  Li  Li1  1  0.50000000  0.17431600  0.25000000  1
  Li  Li2  1  0.00000000  0.32568400  0.75000000  1
  Li  Li3  1  0.00000000  0.67431600  0.25000000  1
  Cu  Cu4  1  0.00000000  0.00000000  0.00000000  1
  Cu  Cu5  1  0.00000000  0.00000000  0.50000000  1
  Cu  Cu6  1  0.50000000  0.50000000  0.00000000  1
  Cu  Cu7  1  0.50000000  0.50000000  0.50000000  1
  P  P8  1  0.50000000  0.84748300  0.25000000  1
  P  P9  1  0.50000000  0.15251700  0.75000000  1
  P  P10  1  0.00000000  0.34748300  0.25000000  1
  P  P11  1  0.00000000  0.65251700  0.75000000  1
  O  O12  1  0.50000000  0.74037800  0.04649500  1
  O  O13  1  0.50000000  0.74037800  0.45350500  1
  O  O14  1  0.27657650  0.96606750  0.25000000  1
  O  O15  1  0.27657650  0.03393250  0.75000000  1
  O  O16  1  0.72342350  0.96606750  0.25000000  1
  O  O17  1  0.72342350  0.03393250  0.75000000  1
  O  O18  1  0.50000000  0.25962200  0.95350500  1
  O  O19  1  0.50000000  0.25962200  0.54649500  1
  O  O20  1  0.00000000  0.24037800  0.04649500  1
  O  O21  1  0.00000000  0.24037800  0.45350500  1
  O  O22  1  0.77657650  0.46606750  0.25000000  1
  O  O23  1  0.77657650  0.53393250  0.75000000  1
  O  O24  1  0.22342350  0.46606750  0.25000000  1
  O  O25  1  0.22342350  0.53393250  0.75000000  1
  O  O26  1  0.00000000  0.75962200  0.95350500  1
  O  O27  1  0.00000000  0.75962200  0.54649500  1
