# generated using pymatgen
data_Li3V2P4(HO8)2
_symmetry_space_group_name_H-M   'P 1'
_cell_length_a   4.85802773
_cell_length_b   7.58003871
_cell_length_c   8.06527792
_cell_angle_alpha   89.16219375
_cell_angle_beta   89.38549613
_cell_angle_gamma   75.25200336
_symmetry_Int_Tables_number   1
_chemical_formula_structural   Li3V2P4(HO8)2
_chemical_formula_sum   'Li3 V2 P4 H2 O16'
_cell_volume   287.17328311
_cell_formula_units_Z   1
loop_
 _symmetry_equiv_pos_site_id
 _symmetry_equiv_pos_as_xyz
  1  'x, y, z'
loop_
 _atom_site_type_symbol
 _atom_site_label
 _atom_site_symmetry_multiplicity
 _atom_site_fract_x
 _atom_site_fract_y
 _atom_site_fract_z
 _atom_site_occupancy
  Li  Li0  1  0.38685750  0.15562050  0.86704800  1
  Li  Li1  1  0.60475500  0.84333100  0.13301600  1
  Li  Li2  1  0.90811200  0.64371750  0.63247000  1
  V  V3  1  0.49312550  0.00347500  0.49732500  1
  V  V4  1  0.00010950  0.49947100  0.00484000  1
  P  P5  1  0.13012850  0.73510700  0.35186500  1
  P  P6  1  0.36731250  0.76959350  0.84762100  1
  P  P7  1  0.63284200  0.23571450  0.15626600  1
  P  P8  1  0.87023650  0.26270200  0.64942300  1
  H  H9  1  0.51445450  0.49355300  0.50494100  1
  H  H10  1  0.97200000  0.01129050  0.00926000  1
  O  O11  1  0.12917050  0.14426350  0.54915300  1
  O  O12  1  0.01848100  0.69354800  0.18398300  1
  O  O13  1  0.15130800  0.65218650  0.82706300  1
  O  O14  1  0.25694400  0.56564300  0.45747600  1
  O  O15  1  0.37713400  0.33102400  0.04808800  1
  O  O16  1  0.54225950  0.17717650  0.32777700  1
  O  O17  1  0.24102400  0.94983450  0.93900500  1
  O  O18  1  0.34062400  0.86030350  0.32775900  1
  O  O19  1  0.65100400  0.14561600  0.67132900  1
  O  O20  1  0.75916650  0.05164900  0.05898500  1
  O  O21  1  0.48433750  0.81342650  0.67536200  1
  O  O22  1  0.61850600  0.66271450  0.95543300  1
  O  O23  1  0.73899400  0.44369550  0.55554200  1
  O  O24  1  0.84397900  0.35223950  0.17184400  1
  O  O25  1  0.98561600  0.31024950  0.81435800  1
  O  O26  1  0.86596600  0.84815350  0.45573500  1
