# generated using pymatgen
data_Li4Fe5Cu3O16
_symmetry_space_group_name_H-M   'P 1'
_cell_length_a   10.28013215
_cell_length_b   5.85010276
_cell_length_c   9.50225371
_cell_angle_alpha   90.00000000
_cell_angle_beta   90.88344310
_cell_angle_gamma   90.00000000
_symmetry_Int_Tables_number   1
_chemical_formula_structural   Li4Fe5Cu3O16
_chemical_formula_sum   'Li8 Fe10 Cu6 O32'
_cell_volume   571.39598802
_cell_formula_units_Z   2
loop_
 _symmetry_equiv_pos_site_id
 _symmetry_equiv_pos_as_xyz
  1  'x, y, z'
loop_
 _atom_site_type_symbol
 _atom_site_label
 _atom_site_symmetry_multiplicity
 _atom_site_fract_x
 _atom_site_fract_y
 _atom_site_fract_z
 _atom_site_occupancy
  Li  Li0  1  0.16010000  0.50000000  0.10463700  1
  Li  Li1  1  0.00025300  0.00000000  0.00307700  1
  Li  Li2  1  0.00643850  0.00000000  0.50701400  1
  Li  Li3  1  0.33685950  0.00000000  0.60659400  1
  Li  Li4  1  0.66010000  0.00000000  0.10463700  1
  Li  Li5  1  0.50025300  0.50000000  0.00307700  1
  Li  Li6  1  0.50643850  0.50000000  0.50701400  1
  Li  Li7  1  0.83685950  0.50000000  0.60659400  1
  Fe  Fe8  1  0.17107350  0.50000000  0.50886000  1
  Fe  Fe9  1  0.32855100  0.50000000  0.78558700  1
  Fe  Fe10  1  0.32784000  0.00000000  0.00945700  1
  Fe  Fe11  1  0.41558600  0.24600000  0.28444600  1
  Fe  Fe12  1  0.41558600  0.75400000  0.28444600  1
  Fe  Fe13  1  0.67107350  0.00000000  0.50886000  1
  Fe  Fe14  1  0.82855100  0.00000000  0.78558700  1
  Fe  Fe15  1  0.82784000  0.50000000  0.00945700  1
  Fe  Fe16  1  0.91558600  0.74600000  0.28444600  1
  Fe  Fe17  1  0.91558600  0.25400000  0.28444600  1
  Cu  Cu18  1  0.08463900  0.74465100  0.78712800  1
  Cu  Cu19  1  0.08463900  0.25534900  0.78712800  1
  Cu  Cu20  1  0.17117500  0.00000000  0.28855000  1
  Cu  Cu21  1  0.58463900  0.24465100  0.78712800  1
  Cu  Cu22  1  0.58463900  0.75534900  0.78712800  1
  Cu  Cu23  1  0.67117500  0.50000000  0.28855000  1
  O  O24  1  0.08353250  0.75035250  0.40362400  1
  O  O25  1  0.02238800  0.50000000  0.65896600  1
  O  O26  1  0.16132350  0.50000000  0.89272200  1
  O  O27  1  0.00432000  0.00000000  0.69735600  1
  O  O28  1  0.00777650  0.00000000  0.19204200  1
  O  O29  1  0.08353250  0.24964750  0.40362400  1
  O  O30  1  0.24660500  0.71926300  0.65739900  1
  O  O31  1  0.24660500  0.28073700  0.65739900  1
  O  O32  1  0.15956400  0.00000000  0.90085800  1
  O  O33  1  0.33961900  0.50000000  0.39976200  1
  O  O34  1  0.25748750  0.22464150  0.15714200  1
  O  O35  1  0.25748750  0.77535850  0.15714200  1
  O  O36  1  0.33155400  0.00000000  0.39617600  1
  O  O37  1  0.40807550  0.25710050  0.90129300  1
  O  O38  1  0.48030250  0.00000000  0.15821300  1
  O  O39  1  0.40807550  0.74289950  0.90129300  1
  O  O40  1  0.58353250  0.25035250  0.40362400  1
  O  O41  1  0.52238800  0.00000000  0.65896600  1
  O  O42  1  0.66132350  0.00000000  0.89272200  1
  O  O43  1  0.50432000  0.50000000  0.69735600  1
  O  O44  1  0.50777650  0.50000000  0.19204200  1
  O  O45  1  0.58353250  0.74964750  0.40362400  1
  O  O46  1  0.74660500  0.21926300  0.65739900  1
  O  O47  1  0.74660500  0.78073700  0.65739900  1
  O  O48  1  0.65956400  0.50000000  0.90085800  1
  O  O49  1  0.83961900  0.00000000  0.39976200  1
  O  O50  1  0.75748750  0.72464150  0.15714200  1
  O  O51  1  0.75748750  0.27535850  0.15714200  1
  O  O52  1  0.83155400  0.50000000  0.39617600  1
  O  O53  1  0.90807550  0.75710050  0.90129300  1
  O  O54  1  0.98030250  0.50000000  0.15821300  1
  O  O55  1  0.90807550  0.24289950  0.90129300  1
