# generated using pymatgen
data_Li5Ni5(SnO6)2
_symmetry_space_group_name_H-M   'P 1'
_cell_length_a   5.20396000
_cell_length_b   9.03148800
_cell_length_c   9.94206931
_cell_angle_alpha   90.00000000
_cell_angle_beta   100.40796950
_cell_angle_gamma   90.00000000
_symmetry_Int_Tables_number   1
_chemical_formula_structural   Li5Ni5(SnO6)2
_chemical_formula_sum   'Li10 Ni10 Sn4 O24'
_cell_volume   459.58397517
_cell_formula_units_Z   2
loop_
 _symmetry_equiv_pos_site_id
 _symmetry_equiv_pos_as_xyz
  1  'x, y, z'
loop_
 _atom_site_type_symbol
 _atom_site_label
 _atom_site_symmetry_multiplicity
 _atom_site_fract_x
 _atom_site_fract_y
 _atom_site_fract_z
 _atom_site_occupancy
  Li  Li0  1  0.74752100  0.93222600  0.74815300  1
  Li  Li1  1  0.25165850  0.57481250  0.25532300  1
  Li  Li2  1  0.25247900  0.93222600  0.25184700  1
  Li  Li3  1  0.74834150  0.57481250  0.74467700  1
  Li  Li4  1  0.00000000  0.91359300  0.50000000  1
  Li  Li5  1  0.24752100  0.43222600  0.74815300  1
  Li  Li6  1  0.75165850  0.07481250  0.25532300  1
  Li  Li7  1  0.75247900  0.43222600  0.25184700  1
  Li  Li8  1  0.24834150  0.07481250  0.74467700  1
  Li  Li9  1  0.50000000  0.41359300  0.50000000  1
  Ni  Ni10  1  0.50000000  0.58432700  0.00000000  1
  Ni  Ni11  1  0.75184150  0.75175650  0.25334000  1
  Ni  Ni12  1  0.24815850  0.75175650  0.74666000  1
  Ni  Ni13  1  0.50000000  0.91555700  0.00000000  1
  Ni  Ni14  1  0.00000000  0.58108800  0.50000000  1
  Ni  Ni15  1  0.00000000  0.08432700  0.00000000  1
  Ni  Ni16  1  0.25184150  0.25175650  0.25334000  1
  Ni  Ni17  1  0.74815850  0.25175650  0.74666000  1
  Ni  Ni18  1  0.00000000  0.41555700  0.00000000  1
  Ni  Ni19  1  0.50000000  0.08108800  0.50000000  1
  Sn  Sn20  1  0.50000000  0.74764200  0.50000000  1
  Sn  Sn21  1  0.00000000  0.74982100  0.00000000  1
  Sn  Sn22  1  0.00000000  0.24764200  0.50000000  1
  Sn  Sn23  1  0.50000000  0.24982100  0.00000000  1
  O  O24  1  0.62963450  0.59360050  0.37442800  1
  O  O25  1  0.37036550  0.59360050  0.62557200  1
  O  O26  1  0.62126250  0.75043350  0.88051000  1
  O  O27  1  0.37873750  0.75043350  0.11949000  1
  O  O28  1  0.61357850  0.91547150  0.38022400  1
  O  O29  1  0.38642150  0.91547150  0.61977600  1
  O  O30  1  0.13103800  0.58861400  0.87984000  1
  O  O31  1  0.86896200  0.58861400  0.12016000  1
  O  O32  1  0.11653650  0.73618950  0.38251800  1
  O  O33  1  0.88346350  0.73618950  0.61748200  1
  O  O34  1  0.12898950  0.91088150  0.87767100  1
  O  O35  1  0.87101050  0.91088150  0.12232900  1
  O  O36  1  0.12963450  0.09360050  0.37442800  1
  O  O37  1  0.87036550  0.09360050  0.62557200  1
  O  O38  1  0.12126250  0.25043350  0.88051000  1
  O  O39  1  0.87873750  0.25043350  0.11949000  1
  O  O40  1  0.11357850  0.41547150  0.38022400  1
  O  O41  1  0.88642150  0.41547150  0.61977600  1
  O  O42  1  0.63103800  0.08861400  0.87984000  1
  O  O43  1  0.36896200  0.08861400  0.12016000  1
  O  O44  1  0.61653650  0.23618950  0.38251800  1
  O  O45  1  0.38346350  0.23618950  0.61748200  1
  O  O46  1  0.62898950  0.41088150  0.87767100  1
  O  O47  1  0.37101050  0.41088150  0.12232900  1
