# generated using pymatgen
data_Li2MnFe(BO3)2
_symmetry_space_group_name_H-M   'P 1'
_cell_length_a   5.24342633
_cell_length_b   9.04764596
_cell_length_c   10.44924090
_cell_angle_alpha   90.00000000
_cell_angle_beta   91.63990385
_cell_angle_gamma   90.00000000
_symmetry_Int_Tables_number   1
_chemical_formula_structural   Li2MnFe(BO3)2
_chemical_formula_sum   'Li8 Mn4 Fe4 B8 O24'
_cell_volume   495.51590479
_cell_formula_units_Z   4
loop_
 _symmetry_equiv_pos_site_id
 _symmetry_equiv_pos_as_xyz
  1  'x, y, z'
loop_
 _atom_site_type_symbol
 _atom_site_label
 _atom_site_symmetry_multiplicity
 _atom_site_fract_x
 _atom_site_fract_y
 _atom_site_fract_z
 _atom_site_occupancy
  Li  Li0  1  0.33518000  0.01282100  0.33185700  1
  Li  Li1  1  0.33518000  0.98717900  0.83185700  1
  Li  Li2  1  0.65773900  0.00512300  0.58417900  1
  Li  Li3  1  0.65773900  0.99487700  0.08417900  1
  Li  Li4  1  0.83518000  0.51282100  0.33185700  1
  Li  Li5  1  0.83518000  0.48717900  0.83185700  1
  Li  Li6  1  0.15773900  0.50512300  0.58417900  1
  Li  Li7  1  0.15773900  0.49487700  0.08417900  1
  Mn  Mn8  1  0.66087550  0.66724450  0.61603700  1
  Mn  Mn9  1  0.66087550  0.33275550  0.11603700  1
  Mn  Mn10  1  0.16087550  0.16724450  0.61603700  1
  Mn  Mn11  1  0.16087550  0.83275550  0.11603700  1
  Fe  Fe12  1  0.83929200  0.15679500  0.86777000  1
  Fe  Fe13  1  0.83929200  0.84320500  0.36777000  1
  Fe  Fe14  1  0.33929200  0.65679500  0.86777000  1
  Fe  Fe15  1  0.33929200  0.34320500  0.36777000  1
  B  B16  1  0.33159400  0.32919500  0.87353700  1
  B  B17  1  0.33159400  0.67080500  0.37353700  1
  B  B18  1  0.66460000  0.33083100  0.62456200  1
  B  B19  1  0.66460000  0.66916900  0.12456200  1
  B  B20  1  0.83159400  0.82919500  0.87353700  1
  B  B21  1  0.83159400  0.17080500  0.37353700  1
  B  B22  1  0.16460000  0.83083100  0.62456200  1
  B  B23  1  0.16460000  0.16916900  0.12456200  1
  O  O24  1  0.41189700  0.34193000  0.58061600  1
  O  O25  1  0.41189700  0.65807000  0.08061600  1
  O  O26  1  0.59342550  0.33597450  0.90218700  1
  O  O27  1  0.59342550  0.66402550  0.40218700  1
  O  O28  1  0.21862500  0.19687100  0.83393900  1
  O  O29  1  0.21862500  0.80312900  0.33393900  1
  O  O30  1  0.76859300  0.19226900  0.65585700  1
  O  O31  1  0.76859300  0.80773100  0.15585700  1
  O  O32  1  0.31433900  0.04413700  0.13941300  1
  O  O33  1  0.31433900  0.95586300  0.63941300  1
  O  O34  1  0.68284500  0.04501000  0.38815800  1
  O  O35  1  0.68284500  0.95499000  0.88815800  1
  O  O36  1  0.91189700  0.84193000  0.58061600  1
  O  O37  1  0.91189700  0.15807000  0.08061600  1
  O  O38  1  0.09342550  0.83597450  0.90218700  1
  O  O39  1  0.09342550  0.16402550  0.40218700  1
  O  O40  1  0.71862500  0.69687100  0.83393900  1
  O  O41  1  0.71862500  0.30312900  0.33393900  1
  O  O42  1  0.26859300  0.69226900  0.65585700  1
  O  O43  1  0.26859300  0.30773100  0.15585700  1
  O  O44  1  0.81433900  0.54413700  0.13941300  1
  O  O45  1  0.81433900  0.45586300  0.63941300  1
  O  O46  1  0.18284500  0.54501000  0.38815800  1
  O  O47  1  0.18284500  0.45499000  0.88815800  1
