# generated using pymatgen
data_Li4Nb3Fe3(NiO8)2
_symmetry_space_group_name_H-M   'P 1'
_cell_length_a   10.56363800
_cell_length_b   6.10427600
_cell_length_c   9.81582900
_cell_angle_alpha   90.00000000
_cell_angle_beta   90.35461655
_cell_angle_gamma   90.00000000
_symmetry_Int_Tables_number   1
_chemical_formula_structural   Li4Nb3Fe3(NiO8)2
_chemical_formula_sum   'Li8 Nb6 Fe6 Ni4 O32'
_cell_volume   632.94553104
_cell_formula_units_Z   2
loop_
 _symmetry_equiv_pos_site_id
 _symmetry_equiv_pos_as_xyz
  1  'x, y, z'
loop_
 _atom_site_type_symbol
 _atom_site_label
 _atom_site_symmetry_multiplicity
 _atom_site_fract_x
 _atom_site_fract_y
 _atom_site_fract_z
 _atom_site_occupancy
  Li  Li0  1  0.66874200  0.00000000  0.09964400  1
  Li  Li1  1  0.00650000  0.00000000  0.99359000  1
  Li  Li2  1  0.01227700  0.00000000  0.50882100  1
  Li  Li3  1  0.33640500  0.00000000  0.62491900  1
  Li  Li4  1  0.16874200  0.50000000  0.09964400  1
  Li  Li5  1  0.50650000  0.50000000  0.99359000  1
  Li  Li6  1  0.51227700  0.50000000  0.50882100  1
  Li  Li7  1  0.83640500  0.50000000  0.62491900  1
  Nb  Nb8  1  0.82933900  0.00000000  0.78545500  1
  Nb  Nb9  1  0.41427450  0.75282950  0.28603200  1
  Nb  Nb10  1  0.41427450  0.24717050  0.28603200  1
  Nb  Nb11  1  0.32933900  0.50000000  0.78545500  1
  Nb  Nb12  1  0.91427450  0.25282950  0.28603200  1
  Nb  Nb13  1  0.91427450  0.74717050  0.28603200  1
  Fe  Fe14  1  0.58414550  0.75428050  0.78427600  1
  Fe  Fe15  1  0.58414550  0.24571950  0.78427600  1
  Fe  Fe16  1  0.16729200  0.00000000  0.28297000  1
  Fe  Fe17  1  0.08414550  0.25428050  0.78427600  1
  Fe  Fe18  1  0.08414550  0.74571950  0.78427600  1
  Fe  Fe19  1  0.66729200  0.50000000  0.28297000  1
  Ni  Ni20  1  0.65975000  0.00000000  0.52455300  1
  Ni  Ni21  1  0.32619400  0.00000000  0.98812100  1
  Ni  Ni22  1  0.15975000  0.50000000  0.52455300  1
  Ni  Ni23  1  0.82619400  0.50000000  0.98812100  1
  O  O24  1  0.57673050  0.73677350  0.39262700  1
  O  O25  1  0.51864500  0.00000000  0.66601400  1
  O  O26  1  0.67011900  0.00000000  0.89979100  1
  O  O27  1  0.99710500  0.00000000  0.68751500  1
  O  O28  1  0.99585700  0.00000000  0.17967100  1
  O  O29  1  0.57673050  0.26322650  0.39262700  1
  O  O30  1  0.74383700  0.77926400  0.66163900  1
  O  O31  1  0.74383700  0.22073600  0.66163900  1
  O  O32  1  0.15808100  0.00000000  0.89391300  1
  O  O33  1  0.84257600  0.00000000  0.39625000  1
  O  O34  1  0.26049150  0.77490350  0.17108800  1
  O  O35  1  0.26049150  0.22509650  0.17108800  1
  O  O36  1  0.33891100  0.00000000  0.40018600  1
  O  O37  1  0.41431900  0.73845600  0.89829300  1
  O  O38  1  0.48565000  0.00000000  0.17281100  1
  O  O39  1  0.41431900  0.26154400  0.89829300  1
  O  O40  1  0.07673050  0.23677350  0.39262700  1
  O  O41  1  0.01864500  0.50000000  0.66601400  1
  O  O42  1  0.17011900  0.50000000  0.89979100  1
  O  O43  1  0.49710500  0.50000000  0.68751500  1
  O  O44  1  0.49585700  0.50000000  0.17967100  1
  O  O45  1  0.07673050  0.76322650  0.39262700  1
  O  O46  1  0.24383700  0.27926400  0.66163900  1
  O  O47  1  0.24383700  0.72073600  0.66163900  1
  O  O48  1  0.65808100  0.50000000  0.89391300  1
  O  O49  1  0.34257600  0.50000000  0.39625000  1
  O  O50  1  0.76049150  0.27490350  0.17108800  1
  O  O51  1  0.76049150  0.72509650  0.17108800  1
  O  O52  1  0.83891100  0.50000000  0.40018600  1
  O  O53  1  0.91431900  0.23845600  0.89829300  1
  O  O54  1  0.98565000  0.50000000  0.17281100  1
  O  O55  1  0.91431900  0.76154400  0.89829300  1
