# generated using pymatgen
data_Li4Cu3TeO8
_symmetry_space_group_name_H-M   'P 1'
_cell_length_a   6.12857411
_cell_length_b   6.12857411
_cell_length_c   14.43039816
_cell_angle_alpha   90.00000000
_cell_angle_beta   90.00000000
_cell_angle_gamma   120.00000000
_symmetry_Int_Tables_number   1
_chemical_formula_structural   Li4Cu3TeO8
_chemical_formula_sum   'Li12 Cu9 Te3 O24'
_cell_volume   469.38351268
_cell_formula_units_Z   3
loop_
 _symmetry_equiv_pos_site_id
 _symmetry_equiv_pos_as_xyz
  1  'x, y, z'
loop_
 _atom_site_type_symbol
 _atom_site_label
 _atom_site_symmetry_multiplicity
 _atom_site_fract_x
 _atom_site_fract_y
 _atom_site_fract_z
 _atom_site_occupancy
  Li  Li0  1  0.33333333  0.66666667  0.16666667  1
  Li  Li1  1  0.16666667  0.33333333  0.83333333  1
  Li  Li2  1  0.83333333  0.16666667  0.16666667  1
  Li  Li3  1  0.33333333  0.16666667  0.16666667  1
  Li  Li4  1  1.00000000  1.00000000  0.50000000  1
  Li  Li5  1  0.83333333  0.66666667  0.16666667  1
  Li  Li6  1  0.50000000  0.50000000  0.50000000  1
  Li  Li7  1  0.00000000  0.50000000  0.50000000  1
  Li  Li8  1  0.66666667  0.33333333  0.83333333  1
  Li  Li9  1  0.50000000  0.00000000  0.50000000  1
  Li  Li10  1  0.16666667  0.83333333  0.83333333  1
  Li  Li11  1  0.66666667  0.83333333  0.83333333  1
  Cu  Cu12  1  0.16666667  0.33333333  0.33333333  1
  Cu  Cu13  1  0.50000000  0.50000000  0.00000000  1
  Cu  Cu14  1  0.00000000  0.50000000  0.00000000  1
  Cu  Cu15  1  0.83333333  0.66666667  0.66666667  1
  Cu  Cu16  1  0.16666667  0.83333333  0.33333333  1
  Cu  Cu17  1  0.66666667  0.83333333  0.33333333  1
  Cu  Cu18  1  0.50000000  0.00000000  0.00000000  1
  Cu  Cu19  1  0.83333333  0.16666667  0.66666667  1
  Cu  Cu20  1  0.33333333  0.16666667  0.66666667  1
  Te  Te21  1  0.00000000  0.00000000  0.00000000  1
  Te  Te22  1  0.66666667  0.33333333  0.33333333  1
  Te  Te23  1  0.33333333  0.66666667  0.66666667  1
  O  O24  1  0.33333333  0.66666667  0.39668767  1
  O  O25  1  0.14877767  0.29755533  0.08138833  1
  O  O26  1  0.14877767  0.85122233  0.08138833  1
  O  O27  1  0.33333333  0.66666667  0.93664567  1
  O  O28  1  0.70244467  0.85122233  0.08138833  1
  O  O29  1  0.51788900  0.03577800  0.25194500  1
  O  O30  1  0.51788900  0.48211100  0.25194500  1
  O  O31  1  0.96422200  0.48211100  0.25194500  1
  O  O32  1  0.00000000  0.00000000  0.73002100  1
  O  O33  1  0.81544433  0.63088867  0.41472167  1
  O  O34  1  0.81544433  0.18455567  0.41472167  1
  O  O35  1  0.00000000  0.00000000  0.26997900  1
  O  O36  1  0.36911133  0.18455567  0.41472167  1
  O  O37  1  0.18455567  0.36911133  0.58527833  1
  O  O38  1  0.18455567  0.81544433  0.58527833  1
  O  O39  1  0.63088867  0.81544433  0.58527833  1
  O  O40  1  0.66666667  0.33333333  0.06335433  1
  O  O41  1  0.48211100  0.96422200  0.74805500  1
  O  O42  1  0.48211100  0.51788900  0.74805500  1
  O  O43  1  0.66666667  0.33333333  0.60331233  1
  O  O44  1  0.03577800  0.51788900  0.74805500  1
  O  O45  1  0.85122233  0.70244467  0.91861167  1
  O  O46  1  0.85122233  0.14877767  0.91861167  1
  O  O47  1  0.29755533  0.14877767  0.91861167  1
