# generated using pymatgen
data_VIO4
_symmetry_space_group_name_H-M   'P 1'
_cell_length_a   10.37955800
_cell_length_b   9.50841200
_cell_length_c   9.27971373
_cell_angle_alpha   90.00000000
_cell_angle_beta   103.21201366
_cell_angle_gamma   90.00000000
_symmetry_Int_Tables_number   1
_chemical_formula_structural   VIO4
_chemical_formula_sum   'V8 I8 O32'
_cell_volume   891.60237413
_cell_formula_units_Z   8
loop_
 _symmetry_equiv_pos_site_id
 _symmetry_equiv_pos_as_xyz
  1  'x, y, z'
loop_
 _atom_site_type_symbol
 _atom_site_label
 _atom_site_symmetry_multiplicity
 _atom_site_fract_x
 _atom_site_fract_y
 _atom_site_fract_z
 _atom_site_occupancy
  V  V0  1  0.77269900  0.50000000  0.41804900  1
  V  V1  1  0.00000000  0.24512900  0.00000000  1
  V  V2  1  0.00000000  0.75487100  0.00000000  1
  V  V3  1  0.22730100  0.50000000  0.58195100  1
  V  V4  1  0.27269900  0.00000000  0.41804900  1
  V  V5  1  0.50000000  0.74512900  0.00000000  1
  V  V6  1  0.50000000  0.25487100  0.00000000  1
  V  V7  1  0.72730100  0.00000000  0.58195100  1
  I  I8  1  0.73945600  0.50000000  0.89315000  1
  I  I9  1  0.00000000  0.80398300  0.50000000  1
  I  I10  1  0.00000000  0.19601700  0.50000000  1
  I  I11  1  0.26054400  0.50000000  0.10685000  1
  I  I12  1  0.23945600  0.00000000  0.89315000  1
  I  I13  1  0.50000000  0.30398300  0.50000000  1
  I  I14  1  0.50000000  0.69601700  0.50000000  1
  I  I15  1  0.76054400  0.00000000  0.10685000  1
  O  O16  1  0.63773900  0.50000000  0.50880100  1
  O  O17  1  0.71555400  0.50000000  0.23857400  1
  O  O18  1  0.88548350  0.34888250  0.87675600  1
  O  O19  1  0.88548350  0.65111750  0.87675600  1
  O  O20  1  0.86221500  0.65670500  0.48299500  1
  O  O21  1  0.86221500  0.34329500  0.48299500  1
  O  O22  1  0.08791800  0.84945700  0.89287900  1
  O  O23  1  0.08791800  0.15054300  0.89287900  1
  O  O24  1  0.91208200  0.15054300  0.10712100  1
  O  O25  1  0.91208200  0.84945700  0.10712100  1
  O  O26  1  0.13778500  0.34329500  0.51700500  1
  O  O27  1  0.13778500  0.65670500  0.51700500  1
  O  O28  1  0.11451650  0.34888250  0.12324400  1
  O  O29  1  0.11451650  0.65111750  0.12324400  1
  O  O30  1  0.28444600  0.50000000  0.76142600  1
  O  O31  1  0.36226100  0.50000000  0.49119900  1
  O  O32  1  0.13773900  0.00000000  0.50880100  1
  O  O33  1  0.21555400  0.00000000  0.23857400  1
  O  O34  1  0.38548350  0.84888250  0.87675600  1
  O  O35  1  0.38548350  0.15111750  0.87675600  1
  O  O36  1  0.36221500  0.15670500  0.48299500  1
  O  O37  1  0.36221500  0.84329500  0.48299500  1
  O  O38  1  0.58791800  0.34945700  0.89287900  1
  O  O39  1  0.58791800  0.65054300  0.89287900  1
  O  O40  1  0.41208200  0.65054300  0.10712100  1
  O  O41  1  0.41208200  0.34945700  0.10712100  1
  O  O42  1  0.63778500  0.84329500  0.51700500  1
  O  O43  1  0.63778500  0.15670500  0.51700500  1
  O  O44  1  0.61451650  0.84888250  0.12324400  1
  O  O45  1  0.61451650  0.15111750  0.12324400  1
  O  O46  1  0.78444600  0.00000000  0.76142600  1
  O  O47  1  0.86226100  0.00000000  0.49119900  1
