# generated using pymatgen
data_V4(OF3)3
_symmetry_space_group_name_H-M   'P 1'
_cell_length_a   5.49268879
_cell_length_b   5.28776900
_cell_length_c   7.20503413
_cell_angle_alpha   90.00000000
_cell_angle_beta   92.78757792
_cell_angle_gamma   90.00000000
_symmetry_Int_Tables_number   1
_chemical_formula_structural   V4(OF3)3
_chemical_formula_sum   'V4 O3 F9'
_cell_volume   209.01589151
_cell_formula_units_Z   1
loop_
 _symmetry_equiv_pos_site_id
 _symmetry_equiv_pos_as_xyz
  1  'x, y, z'
loop_
 _atom_site_type_symbol
 _atom_site_label
 _atom_site_symmetry_multiplicity
 _atom_site_fract_x
 _atom_site_fract_y
 _atom_site_fract_z
 _atom_site_occupancy
  V  V0  1  0.50007300  0.49900600  0.74951600  1
  V  V1  1  0.49992700  0.49900600  0.25048400  1
  V  V2  1  0.99978300  0.99511900  0.75995400  1
  V  V3  1  0.00021700  0.99511900  0.24004600  1
  O  O4  1  0.50000000  0.42822500  0.50000000  1
  O  O5  1  0.50000000  0.57187600  0.00000000  1
  O  O6  1  0.00000000  0.91255500  0.00000000  1
  F  F7  1  0.00000000  0.09955200  0.50000000  1
  F  F8  1  0.30496400  0.19706800  0.79502900  1
  F  F9  1  0.69503600  0.19706800  0.20497100  1
  F  F10  1  0.19648600  0.30190200  0.20369600  1
  F  F11  1  0.80351400  0.30190200  0.79630400  1
  F  F12  1  0.19699400  0.69884000  0.69798200  1
  F  F13  1  0.80300600  0.69884000  0.30201800  1
  F  F14  1  0.30397500  0.80196100  0.30025600  1
  F  F15  1  0.69602500  0.80196100  0.69974400  1
