# generated using pymatgen
data_Li2Mn3CrO8
_symmetry_space_group_name_H-M   'P 1'
_cell_length_a   5.93387216
_cell_length_b   5.93387216
_cell_length_c   14.47429560
_cell_angle_alpha   90.00000000
_cell_angle_beta   90.00000000
_cell_angle_gamma   120.00000000
_symmetry_Int_Tables_number   1
_chemical_formula_structural   Li2Mn3CrO8
_chemical_formula_sum   'Li6 Mn9 Cr3 O24'
_cell_volume   441.37165579
_cell_formula_units_Z   3
loop_
 _symmetry_equiv_pos_site_id
 _symmetry_equiv_pos_as_xyz
  1  'x, y, z'
loop_
 _atom_site_type_symbol
 _atom_site_label
 _atom_site_symmetry_multiplicity
 _atom_site_fract_x
 _atom_site_fract_y
 _atom_site_fract_z
 _atom_site_occupancy
  Li  Li0  1  0.33333333  0.66666667  0.78861667  1
  Li  Li1  1  0.33333333  0.66666667  0.54471667  1
  Li  Li2  1  0.00000000  0.00000000  0.12195000  1
  Li  Li3  1  0.00000000  0.00000000  0.87805000  1
  Li  Li4  1  0.66666667  0.33333333  0.45528333  1
  Li  Li5  1  0.66666667  0.33333333  0.21138333  1
  Mn  Mn6  1  0.00000000  0.50000000  0.00000000  1
  Mn  Mn7  1  0.16666667  0.33333333  0.33333333  1
  Mn  Mn8  1  0.50000000  0.50000000  0.00000000  1
  Mn  Mn9  1  0.66666667  0.83333333  0.33333333  1
  Mn  Mn10  1  0.83333333  0.66666667  0.66666667  1
  Mn  Mn11  1  0.16666667  0.83333333  0.33333333  1
  Mn  Mn12  1  0.33333333  0.16666667  0.66666667  1
  Mn  Mn13  1  0.50000000  0.00000000  0.00000000  1
  Mn  Mn14  1  0.83333333  0.16666667  0.66666667  1
  Cr  Cr15  1  0.33333333  0.66666667  0.16666667  1
  Cr  Cr16  1  1.00000000  1.00000000  0.50000000  1
  Cr  Cr17  1  0.66666667  0.33333333  0.83333333  1
  O  O18  1  0.33333333  0.66666667  0.92659667  1
  O  O19  1  0.63203067  0.81601533  0.07602533  1
  O  O20  1  0.18398467  0.36796933  0.07602533  1
  O  O21  1  0.18398467  0.81601533  0.07602533  1
  O  O22  1  0.48268200  0.51731800  0.25730800  1
  O  O23  1  0.48268200  0.96536400  0.25730800  1
  O  O24  1  0.33333333  0.66666667  0.40673667  1
  O  O25  1  0.03463600  0.51731800  0.25730800  1
  O  O26  1  0.00000000  0.00000000  0.25993000  1
  O  O27  1  0.29869733  0.14934867  0.40935867  1
  O  O28  1  0.85065133  0.70130267  0.40935867  1
  O  O29  1  0.85065133  0.14934867  0.40935867  1
  O  O30  1  0.14934867  0.85065133  0.59064133  1
  O  O31  1  0.14934867  0.29869733  0.59064133  1
  O  O32  1  0.00000000  0.00000000  0.74007000  1
  O  O33  1  0.70130267  0.85065133  0.59064133  1
  O  O34  1  0.66666667  0.33333333  0.59326333  1
  O  O35  1  0.96536400  0.48268200  0.74269200  1
  O  O36  1  0.51731800  0.03463600  0.74269200  1
  O  O37  1  0.51731800  0.48268200  0.74269200  1
  O  O38  1  0.81601533  0.18398467  0.92397467  1
  O  O39  1  0.81601533  0.63203067  0.92397467  1
  O  O40  1  0.66666667  0.33333333  0.07340333  1
  O  O41  1  0.36796933  0.18398467  0.92397467  1
