# generated using pymatgen
data_Li4Fe3Cu3(TeO8)2
_symmetry_space_group_name_H-M   'P 1'
_cell_length_a   10.47063292
_cell_length_b   5.91719349
_cell_length_c   9.86472506
_cell_angle_alpha   90.00000000
_cell_angle_beta   92.80242258
_cell_angle_gamma   90.00000000
_symmetry_Int_Tables_number   1
_chemical_formula_structural   Li4Fe3Cu3(TeO8)2
_chemical_formula_sum   'Li8 Fe6 Cu6 Te4 O32'
_cell_volume   610.45547634
_cell_formula_units_Z   2
loop_
 _symmetry_equiv_pos_site_id
 _symmetry_equiv_pos_as_xyz
  1  'x, y, z'
loop_
 _atom_site_type_symbol
 _atom_site_label
 _atom_site_symmetry_multiplicity
 _atom_site_fract_x
 _atom_site_fract_y
 _atom_site_fract_z
 _atom_site_occupancy
  Li  Li0  1  0.16337050  0.50000000  0.08455000  1
  Li  Li1  1  0.49892150  0.50000000  0.01615100  1
  Li  Li2  1  0.00274700  0.00000000  0.52074100  1
  Li  Li3  1  0.34158600  0.00000000  0.58663300  1
  Li  Li4  1  0.66337050  0.00000000  0.08455000  1
  Li  Li5  1  0.99892150  0.00000000  0.01615100  1
  Li  Li6  1  0.50274700  0.50000000  0.52074100  1
  Li  Li7  1  0.84158600  0.50000000  0.58663300  1
  Fe  Fe8  1  0.32949450  0.50000000  0.78556000  1
  Fe  Fe9  1  0.41144100  0.24645700  0.28705700  1
  Fe  Fe10  1  0.41144100  0.75354300  0.28705700  1
  Fe  Fe11  1  0.82949450  0.00000000  0.78556000  1
  Fe  Fe12  1  0.91144100  0.74645700  0.28705700  1
  Fe  Fe13  1  0.91144100  0.25354300  0.28705700  1
  Cu  Cu14  1  0.08630800  0.74620300  0.79047400  1
  Cu  Cu15  1  0.08630800  0.25379700  0.79047400  1
  Cu  Cu16  1  0.16909600  0.00000000  0.29197400  1
  Cu  Cu17  1  0.58630800  0.24620300  0.79047400  1
  Cu  Cu18  1  0.58630800  0.75379700  0.79047400  1
  Cu  Cu19  1  0.66909600  0.50000000  0.29197400  1
  Te  Te20  1  0.17110900  0.50000000  0.51699600  1
  Te  Te21  1  0.32778300  0.00000000  0.01667900  1
  Te  Te22  1  0.67110900  0.00000000  0.51699600  1
  Te  Te23  1  0.82778300  0.50000000  0.01667900  1
  O  O24  1  0.08180150  0.74234650  0.41339400  1
  O  O25  1  0.02927750  0.50000000  0.64996700  1
  O  O26  1  0.16637850  0.50000000  0.88142700  1
  O  O27  1  0.00245550  0.00000000  0.71091800  1
  O  O28  1  0.00065950  0.00000000  0.20620600  1
  O  O29  1  0.08180150  0.25765350  0.41339400  1
  O  O30  1  0.25764050  0.71939450  0.63845600  1
  O  O31  1  0.25764050  0.28060550  0.63845600  1
  O  O32  1  0.16013400  0.00000000  0.91248700  1
  O  O33  1  0.32555950  0.50000000  0.39977800  1
  O  O34  1  0.26093300  0.22697500  0.14414700  1
  O  O35  1  0.26093300  0.77302500  0.14414700  1
  O  O36  1  0.33443550  0.00000000  0.38704600  1
  O  O37  1  0.40226000  0.24378100  0.91284900  1
  O  O38  1  0.47834950  0.00000000  0.15224400  1
  O  O39  1  0.40226000  0.75621900  0.91284900  1
  O  O40  1  0.58180150  0.24234650  0.41339400  1
  O  O41  1  0.52927750  0.00000000  0.64996700  1
  O  O42  1  0.66637850  0.00000000  0.88142700  1
  O  O43  1  0.50245550  0.50000000  0.71091800  1
  O  O44  1  0.50065950  0.50000000  0.20620600  1
  O  O45  1  0.58180150  0.75765350  0.41339400  1
  O  O46  1  0.75764050  0.21939450  0.63845600  1
  O  O47  1  0.75764050  0.78060550  0.63845600  1
  O  O48  1  0.66013400  0.50000000  0.91248700  1
  O  O49  1  0.82555950  0.00000000  0.39977800  1
  O  O50  1  0.76093300  0.72697500  0.14414700  1
  O  O51  1  0.76093300  0.27302500  0.14414700  1
  O  O52  1  0.83443550  0.50000000  0.38704600  1
  O  O53  1  0.90226000  0.74378100  0.91284900  1
  O  O54  1  0.97834950  0.50000000  0.15224400  1
  O  O55  1  0.90226000  0.25621900  0.91284900  1
