# generated using pymatgen
data_V6O7F5
_symmetry_space_group_name_H-M   'P 1'
_cell_length_a   6.78702200
_cell_length_b   6.49355800
_cell_length_c   9.28552348
_cell_angle_alpha   90.00000000
_cell_angle_beta   90.09764111
_cell_angle_gamma   90.00000000
_symmetry_Int_Tables_number   1
_chemical_formula_structural   V6O7F5
_chemical_formula_sum   'V12 O14 F10'
_cell_volume   409.23026320
_cell_formula_units_Z   2
loop_
 _symmetry_equiv_pos_site_id
 _symmetry_equiv_pos_as_xyz
  1  'x, y, z'
loop_
 _atom_site_type_symbol
 _atom_site_label
 _atom_site_symmetry_multiplicity
 _atom_site_fract_x
 _atom_site_fract_y
 _atom_site_fract_z
 _atom_site_occupancy
  V  V0  1  0.99142950  0.99589050  0.67362400  1
  V  V1  1  0.50000000  0.52476700  0.00000000  1
  V  V2  1  0.00857050  0.99589050  0.32637600  1
  V  V3  1  0.52745200  0.99521100  0.82552700  1
  V  V4  1  0.50000000  0.99360000  0.50000000  1
  V  V5  1  0.47254800  0.99521100  0.17447300  1
  V  V6  1  0.49142950  0.49589050  0.67362400  1
  V  V7  1  0.00000000  0.02476700  0.00000000  1
  V  V8  1  0.50857050  0.49589050  0.32637600  1
  V  V9  1  0.02745200  0.49521100  0.82552700  1
  V  V10  1  0.00000000  0.49360000  0.50000000  1
  V  V11  1  0.97254800  0.49521100  0.17447300  1
  O  O12  1  0.18602750  0.99968150  0.16602800  1
  O  O13  1  0.50000000  0.81778100  0.00000000  1
  O  O14  1  0.50667850  0.79910850  0.65577400  1
  O  O15  1  0.49332150  0.79910850  0.34422600  1
  O  O16  1  0.50586900  0.18978700  0.65829400  1
  O  O17  1  0.49413100  0.18978700  0.34170600  1
  O  O18  1  0.81397250  0.99968150  0.83397200  1
  O  O19  1  0.68602750  0.49968150  0.16602800  1
  O  O20  1  0.00000000  0.31778100  0.00000000  1
  O  O21  1  0.00667850  0.29910850  0.65577400  1
  O  O22  1  0.99332150  0.29910850  0.34422600  1
  O  O23  1  0.00586900  0.68978700  0.65829400  1
  O  O24  1  0.99413100  0.68978700  0.34170600  1
  O  O25  1  0.31397250  0.49968150  0.83397200  1
  F  F26  1  0.20751950  0.00417950  0.83359200  1
  F  F27  1  0.19723600  0.99481300  0.50297000  1
  F  F28  1  0.50000000  0.20650700  0.00000000  1
  F  F29  1  0.80276400  0.99481300  0.49703000  1
  F  F30  1  0.79248050  0.00417950  0.16640800  1
  F  F31  1  0.70751950  0.50417950  0.83359200  1
  F  F32  1  0.69723600  0.49481300  0.50297000  1
  F  F33  1  0.00000000  0.70650700  0.00000000  1
  F  F34  1  0.30276400  0.49481300  0.49703000  1
  F  F35  1  0.29248050  0.50417950  0.16640800  1
