# generated using pymatgen
data_Ba4Y2Cu5O14
_symmetry_space_group_name_H-M   'P 1'
_cell_length_a   7.76115600
_cell_length_b   7.78533000
_cell_length_c   12.70226782
_cell_angle_alpha   90.00000000
_cell_angle_beta   107.70254088
_cell_angle_gamma   90.00000000
_symmetry_Int_Tables_number   1
_chemical_formula_structural   Ba4Y2Cu5O14
_chemical_formula_sum   'Ba8 Y4 Cu10 O28'
_cell_volume   731.16797806
_cell_formula_units_Z   2
loop_
 _symmetry_equiv_pos_site_id
 _symmetry_equiv_pos_as_xyz
  1  'x, y, z'
loop_
 _atom_site_type_symbol
 _atom_site_label
 _atom_site_symmetry_multiplicity
 _atom_site_fract_x
 _atom_site_fract_y
 _atom_site_fract_z
 _atom_site_occupancy
  Ba  Ba0  1  0.34831350  0.75016150  0.19844300  1
  Ba  Ba1  1  0.65369150  0.74999450  0.80998700  1
  Ba  Ba2  1  0.34831350  0.24983850  0.19844300  1
  Ba  Ba3  1  0.65369150  0.25000550  0.80998700  1
  Ba  Ba4  1  0.84831350  0.25016150  0.19844300  1
  Ba  Ba5  1  0.15369150  0.24999450  0.80998700  1
  Ba  Ba6  1  0.84831350  0.74983850  0.19844300  1
  Ba  Ba7  1  0.15369150  0.75000550  0.80998700  1
  Y  Y8  1  0.49463050  0.74995050  0.49001500  1
  Y  Y9  1  0.49463050  0.25004950  0.49001500  1
  Y  Y10  1  0.99463050  0.24995050  0.49001500  1
  Y  Y11  1  0.99463050  0.75004950  0.49001500  1
  Cu  Cu12  1  0.99530900  0.00000000  0.99398400  1
  Cu  Cu13  1  0.49742200  0.00000000  0.99800900  1
  Cu  Cu14  1  0.82049700  0.00000000  0.64223800  1
  Cu  Cu15  1  0.31986400  0.00000000  0.64091500  1
  Cu  Cu16  1  0.68801600  0.00000000  0.37680500  1
  Cu  Cu17  1  0.49530900  0.50000000  0.99398400  1
  Cu  Cu18  1  0.99742200  0.50000000  0.99800900  1
  Cu  Cu19  1  0.32049700  0.50000000  0.64223800  1
  Cu  Cu20  1  0.81986400  0.50000000  0.64091500  1
  Cu  Cu21  1  0.18801600  0.50000000  0.37680500  1
  O  O22  1  0.48641550  0.25042350  0.99974500  1
  O  O23  1  0.69066350  0.23637150  0.38215300  1
  O  O24  1  0.57526200  0.00000000  0.14969300  1
  O  O25  1  0.45352300  0.00000000  0.38178000  1
  O  O26  1  0.48641550  0.74957650  0.99974500  1
  O  O27  1  0.31005250  0.24878650  0.62168800  1
  O  O28  1  0.69066350  0.76362850  0.38215300  1
  O  O29  1  0.92023200  0.00000000  0.84050100  1
  O  O30  1  0.07256900  0.00000000  0.14425400  1
  O  O31  1  0.06152900  0.00000000  0.62238100  1
  O  O32  1  0.92746600  0.00000000  0.38180500  1
  O  O33  1  0.31005250  0.75121350  0.62168800  1
  O  O34  1  0.42249600  0.00000000  0.84447100  1
  O  O35  1  0.55971900  0.00000000  0.62238200  1
  O  O36  1  0.98641550  0.75042350  0.99974500  1
  O  O37  1  0.19066350  0.73637150  0.38215300  1
  O  O38  1  0.07526200  0.50000000  0.14969300  1
  O  O39  1  0.95352300  0.50000000  0.38178000  1
  O  O40  1  0.98641550  0.24957650  0.99974500  1
  O  O41  1  0.81005250  0.74878650  0.62168800  1
  O  O42  1  0.19066350  0.26362850  0.38215300  1
  O  O43  1  0.42023200  0.50000000  0.84050100  1
  O  O44  1  0.57256900  0.50000000  0.14425400  1
  O  O45  1  0.56152900  0.50000000  0.62238100  1
  O  O46  1  0.42746600  0.50000000  0.38180500  1
  O  O47  1  0.81005250  0.25121350  0.62168800  1
  O  O48  1  0.92249600  0.50000000  0.84447100  1
  O  O49  1  0.05971900  0.50000000  0.62238200  1
