# generated using pymatgen
data_Li2Mn(PO4)2
_symmetry_space_group_name_H-M   'P 1'
_cell_length_a   8.92276600
_cell_length_b   4.64764800
_cell_length_c   13.70943524
_cell_angle_alpha   90.00000000
_cell_angle_beta   97.17813401
_cell_angle_gamma   90.00000000
_symmetry_Int_Tables_number   1
_chemical_formula_structural   Li2Mn(PO4)2
_chemical_formula_sum   'Li8 Mn4 P8 O32'
_cell_volume   564.07270818
_cell_formula_units_Z   4
loop_
 _symmetry_equiv_pos_site_id
 _symmetry_equiv_pos_as_xyz
  1  'x, y, z'
loop_
 _atom_site_type_symbol
 _atom_site_label
 _atom_site_symmetry_multiplicity
 _atom_site_fract_x
 _atom_site_fract_y
 _atom_site_fract_z
 _atom_site_occupancy
  Li  Li0  1  0.66592950  0.97177450  0.66049600  1
  Li  Li1  1  0.66592950  0.02822550  0.16049600  1
  Li  Li2  1  0.99466200  0.04299600  0.25657400  1
  Li  Li3  1  0.99466200  0.95700400  0.75657400  1
  Li  Li4  1  0.16592950  0.47177450  0.66049600  1
  Li  Li5  1  0.16592950  0.52822550  0.16049600  1
  Li  Li6  1  0.49466200  0.54299600  0.25657400  1
  Li  Li7  1  0.49466200  0.45700400  0.75657400  1
  Mn  Mn8  1  0.50261650  0.50640550  0.99758300  1
  Mn  Mn9  1  0.50261650  0.49359450  0.49758300  1
  Mn  Mn10  1  0.00261650  0.00640550  0.99758300  1
  Mn  Mn11  1  0.00261650  0.99359450  0.49758300  1
  P  P12  1  0.66194400  0.98620800  0.88864500  1
  P  P13  1  0.66194400  0.01379200  0.38864500  1
  P  P14  1  0.84069300  0.49199700  0.61051700  1
  P  P15  1  0.84069300  0.50800300  0.11051700  1
  P  P16  1  0.16194400  0.48620800  0.88864500  1
  P  P17  1  0.16194400  0.51379200  0.38864500  1
  P  P18  1  0.34069300  0.99199700  0.61051700  1
  P  P19  1  0.34069300  0.00800300  0.11051700  1
  O  O20  1  0.55919850  0.70705350  0.88134100  1
  O  O21  1  0.64335400  0.86874000  0.28900300  1
  O  O22  1  0.61491150  0.82251850  0.47189300  1
  O  O23  1  0.82592850  0.87228050  0.91866300  1
  O  O24  1  0.82592850  0.12771950  0.41866300  1
  O  O25  1  0.61491150  0.17748150  0.97189300  1
  O  O26  1  0.64335400  0.13126000  0.78900300  1
  O  O27  1  0.55919850  0.29294650  0.38134100  1
  O  O28  1  0.95473350  0.22983250  0.62725800  1
  O  O29  1  0.83159450  0.31783150  0.19927800  1
  O  O30  1  0.89361900  0.33399400  0.02556600  1
  O  O31  1  0.68179800  0.34776300  0.57990500  1
  O  O32  1  0.68179800  0.65223700  0.07990500  1
  O  O33  1  0.89361900  0.66600600  0.52556600  1
  O  O34  1  0.83159450  0.68216850  0.69927800  1
  O  O35  1  0.95473350  0.77016750  0.12725800  1
  O  O36  1  0.05919850  0.20705350  0.88134100  1
  O  O37  1  0.14335400  0.36874000  0.28900300  1
  O  O38  1  0.11491150  0.32251850  0.47189300  1
  O  O39  1  0.32592850  0.37228050  0.91866300  1
  O  O40  1  0.32592850  0.62771950  0.41866300  1
  O  O41  1  0.11491150  0.67748150  0.97189300  1
  O  O42  1  0.14335400  0.63126000  0.78900300  1
  O  O43  1  0.05919850  0.79294650  0.38134100  1
  O  O44  1  0.45473350  0.72983250  0.62725800  1
  O  O45  1  0.33159450  0.81783150  0.19927800  1
  O  O46  1  0.39361900  0.83399400  0.02556600  1
  O  O47  1  0.18179800  0.84776300  0.57990500  1
  O  O48  1  0.18179800  0.15223700  0.07990500  1
  O  O49  1  0.39361900  0.16600600  0.52556600  1
  O  O50  1  0.33159450  0.18216850  0.69927800  1
  O  O51  1  0.45473350  0.27016750  0.12725800  1
