# generated using pymatgen
data_Li4Ti3Co5O16
_symmetry_space_group_name_H-M   'P 1'
_cell_length_a   9.87423200
_cell_length_b   5.80403600
_cell_length_c   9.31004518
_cell_angle_alpha   90.00000000
_cell_angle_beta   90.36332115
_cell_angle_gamma   90.00000000
_symmetry_Int_Tables_number   1
_chemical_formula_structural   Li4Ti3Co5O16
_chemical_formula_sum   'Li8 Ti6 Co10 O32'
_cell_volume   533.55166731
_cell_formula_units_Z   2
loop_
 _symmetry_equiv_pos_site_id
 _symmetry_equiv_pos_as_xyz
  1  'x, y, z'
loop_
 _atom_site_type_symbol
 _atom_site_label
 _atom_site_symmetry_multiplicity
 _atom_site_fract_x
 _atom_site_fract_y
 _atom_site_fract_z
 _atom_site_occupancy
  Li  Li0  1  0.32890000  0.00000000  0.88842700  1
  Li  Li1  1  0.01201500  0.00000000  0.99468900  1
  Li  Li2  1  0.00608600  0.00000000  0.49911000  1
  Li  Li3  1  0.66283200  0.00000000  0.39571500  1
  Li  Li4  1  0.82890000  0.50000000  0.88842700  1
  Li  Li5  1  0.51201500  0.50000000  0.99468900  1
  Li  Li6  1  0.50608600  0.50000000  0.49911000  1
  Li  Li7  1  0.16283200  0.50000000  0.39571500  1
  Ti  Ti8  1  0.41397700  0.75311500  0.21201100  1
  Ti  Ti9  1  0.41397700  0.24688500  0.21201100  1
  Ti  Ti10  1  0.82951700  0.00000000  0.71270100  1
  Ti  Ti11  1  0.91397700  0.25311500  0.21201100  1
  Ti  Ti12  1  0.91397700  0.74688500  0.21201100  1
  Ti  Ti13  1  0.32951700  0.50000000  0.71270100  1
  Co  Co14  1  0.33282600  0.00000000  0.48477700  1
  Co  Co15  1  0.17340400  0.00000000  0.21407100  1
  Co  Co16  1  0.66368100  0.00000000  0.97914300  1
  Co  Co17  1  0.58557950  0.75255050  0.70893100  1
  Co  Co18  1  0.58557950  0.24744950  0.70893100  1
  Co  Co19  1  0.83282600  0.50000000  0.48477700  1
  Co  Co20  1  0.67340400  0.50000000  0.21407100  1
  Co  Co21  1  0.16368100  0.50000000  0.97914300  1
  Co  Co22  1  0.08557950  0.25255050  0.70893100  1
  Co  Co23  1  0.08557950  0.74744950  0.70893100  1
  O  O24  1  0.41773200  0.75361400  0.60283300  1
  O  O25  1  0.47581100  0.00000000  0.34526800  1
  O  O26  1  0.33469700  0.00000000  0.09775700  1
  O  O27  1  0.00465900  0.00000000  0.31069200  1
  O  O28  1  0.00579900  0.00000000  0.80723900  1
  O  O29  1  0.41773200  0.24638600  0.60283300  1
  O  O30  1  0.25759600  0.78413600  0.34679900  1
  O  O31  1  0.25759600  0.21586400  0.34679900  1
  O  O32  1  0.82918900  0.00000000  0.10081500  1
  O  O33  1  0.16671100  0.00000000  0.60832900  1
  O  O34  1  0.73520850  0.78013150  0.84319500  1
  O  O35  1  0.73520850  0.21986850  0.84319500  1
  O  O36  1  0.66258500  0.00000000  0.60199600  1
  O  O37  1  0.58174950  0.75334250  0.10250500  1
  O  O38  1  0.52048100  0.00000000  0.83314400  1
  O  O39  1  0.58174950  0.24665750  0.10250500  1
  O  O40  1  0.91773200  0.25361400  0.60283300  1
  O  O41  1  0.97581100  0.50000000  0.34526800  1
  O  O42  1  0.83469700  0.50000000  0.09775700  1
  O  O43  1  0.50465900  0.50000000  0.31069200  1
  O  O44  1  0.50579900  0.50000000  0.80723900  1
  O  O45  1  0.91773200  0.74638600  0.60283300  1
  O  O46  1  0.75759600  0.28413600  0.34679900  1
  O  O47  1  0.75759600  0.71586400  0.34679900  1
  O  O48  1  0.32918900  0.50000000  0.10081500  1
  O  O49  1  0.66671100  0.50000000  0.60832900  1
  O  O50  1  0.23520850  0.28013150  0.84319500  1
  O  O51  1  0.23520850  0.71986850  0.84319500  1
  O  O52  1  0.16258500  0.50000000  0.60199600  1
  O  O53  1  0.08174950  0.25334250  0.10250500  1
  O  O54  1  0.02048100  0.50000000  0.83314400  1
  O  O55  1  0.08174950  0.74665750  0.10250500  1
