# generated using pymatgen
data_SnP6(WO8)3
_symmetry_space_group_name_H-M   'P 1'
_cell_length_a   8.85505785
_cell_length_b   8.85505785
_cell_length_c   21.59029380
_cell_angle_alpha   90.00000000
_cell_angle_beta   90.00000000
_cell_angle_gamma   120.00000000
_symmetry_Int_Tables_number   1
_chemical_formula_structural   SnP6(WO8)3
_chemical_formula_sum   'Sn3 P18 W9 O72'
_cell_volume   1466.12834221
_cell_formula_units_Z   3
loop_
 _symmetry_equiv_pos_site_id
 _symmetry_equiv_pos_as_xyz
  1  'x, y, z'
loop_
 _atom_site_type_symbol
 _atom_site_label
 _atom_site_symmetry_multiplicity
 _atom_site_fract_x
 _atom_site_fract_y
 _atom_site_fract_z
 _atom_site_occupancy
  Sn  Sn0  1  0.33333333  0.66666667  0.80566367  1
  Sn  Sn1  1  0.00000000  0.00000000  0.13899700  1
  Sn  Sn2  1  0.66666667  0.33333333  0.47233033  1
  P  P3  1  0.71264833  0.71194267  0.24963167  1
  P  P4  1  0.28805733  0.00070567  0.24963167  1
  P  P5  1  0.99929433  0.28735167  0.24963167  1
  P  P6  1  0.66822300  0.04627700  0.08375100  1
  P  P7  1  0.37805400  0.33177700  0.08375100  1
  P  P8  1  0.95372300  0.62194600  0.08375100  1
  P  P9  1  0.37931500  0.04527600  0.58296500  1
  P  P10  1  0.95472400  0.33403900  0.58296500  1
  P  P11  1  0.66596100  0.62068500  0.58296500  1
  P  P12  1  0.33488967  0.37961033  0.41708433  1
  P  P13  1  0.04472067  0.66511033  0.41708433  1
  P  P14  1  0.62038967  0.95527933  0.41708433  1
  P  P15  1  0.04598167  0.37860933  0.91629833  1
  P  P16  1  0.62139067  0.66737233  0.91629833  1
  P  P17  1  0.33262767  0.95401833  0.91629833  1
  P  P18  1  0.00155633  0.71294367  0.75041767  1
  P  P19  1  0.71138733  0.99844367  0.75041767  1
  P  P20  1  0.28705633  0.28861267  0.75041767  1
  W  W21  1  0.33333333  0.66666667  0.30717467  1
  W  W22  1  0.33333333  0.66666667  0.52672267  1
  W  W23  1  0.33333333  0.66666667  0.02753667  1
  W  W24  1  0.00000000  0.00000000  0.64050800  1
  W  W25  1  0.00000000  0.00000000  0.86005600  1
  W  W26  1  0.00000000  0.00000000  0.36087000  1
  W  W27  1  0.66666667  0.33333333  0.97384133  1
  W  W28  1  0.66666667  0.33333333  0.19338933  1
  W  W29  1  0.66666667  0.33333333  0.69420333  1
  O  O30  1  0.53464300  0.68462600  0.97483800  1
  O  O31  1  0.31537400  0.85001700  0.97483800  1
  O  O32  1  0.14998300  0.46535700  0.97483800  1
  O  O33  1  0.68993033  0.52639267  0.24666267  1
  O  O34  1  0.79670600  0.81415400  0.19046900  1
  O  O35  1  0.52636300  0.68676800  0.25404400  1
  O  O36  1  0.47360733  0.16353767  0.24666267  1
  O  O37  1  0.31323200  0.83959500  0.25404400  1
  O  O38  1  0.65663600  0.14062400  0.14269400  1
  O  O39  1  0.16040500  0.47363700  0.25404400  1
  O  O40  1  0.83441667  0.03451233  0.08296633  1
  O  O41  1  0.48398800  0.34336400  0.14269400  1
  O  O42  1  0.18584600  0.98255200  0.19046900  1
  O  O43  1  0.83646233  0.31006967  0.24666267  1
  O  O44  1  0.50392700  0.86691700  0.08316600  1
  O  O45  1  0.01744800  0.20329400  0.19046900  1
  O  O46  1  0.36299000  0.49607300  0.08316600  1
  O  O47  1  0.20009567  0.16558333  0.08296633  1
  O  O48  1  0.13308300  0.63701000  0.08316600  1
  O  O49  1  0.85937600  0.51601200  0.14269400  1
  O  O50  1  0.96548767  0.79990433  0.08296633  1
  O  O51  1  0.51552033  0.85816167  0.35829967  1
  O  O52  1  0.34264133  0.48447967  0.35829967  1
  O  O53  1  0.14183833  0.65735867  0.35829967  1
  O  O54  1  0.20130967  0.01795933  0.30817133  1
  O  O55  1  0.98204067  0.18335033  0.30817133  1
  O  O56  1  0.81664967  0.79869033  0.30817133  1
  O  O57  1  0.35659700  0.85972600  0.57999600  1
  O  O58  1  0.46337267  0.14748733  0.52380233  1
  O  O59  1  0.19302967  0.02010133  0.58737733  1
  O  O60  1  0.14027400  0.49687100  0.57999600  1
  O  O61  1  0.97989867  0.17292833  0.58737733  1
  O  O62  1  0.32330267  0.47395733  0.47602733  1
  O  O63  1  0.82707167  0.80697033  0.58737733  1
  O  O64  1  0.50108333  0.36784567  0.41629967  1
  O  O65  1  0.15065467  0.67669733  0.47602733  1
  O  O66  1  0.85251267  0.31588533  0.52380233  1
  O  O67  1  0.50312900  0.64340300  0.57999600  1
  O  O68  1  0.17059367  0.20025033  0.41649933  1
  O  O69  1  0.68411467  0.53662733  0.52380233  1
  O  O70  1  0.02965667  0.82940633  0.41649933  1
  O  O71  1  0.86676233  0.49891667  0.41629967  1
  O  O72  1  0.79974967  0.97034333  0.41649933  1
  O  O73  1  0.52604267  0.84934533  0.47602733  1
  O  O74  1  0.63215433  0.13323767  0.41629967  1
  O  O75  1  0.18218700  0.19149500  0.69163300  1
  O  O76  1  0.00930800  0.81781300  0.69163300  1
  O  O77  1  0.80850500  0.99069200  0.69163300  1
  O  O78  1  0.86797633  0.35129267  0.64150467  1
  O  O79  1  0.64870733  0.51668367  0.64150467  1
  O  O80  1  0.48331633  0.13202367  0.64150467  1
  O  O81  1  0.02326367  0.19305933  0.91332933  1
  O  O82  1  0.13003933  0.48082067  0.85713567  1
  O  O83  1  0.85969633  0.35343467  0.92071067  1
  O  O84  1  0.80694067  0.83020433  0.91332933  1
  O  O85  1  0.64656533  0.50626167  0.92071067  1
  O  O86  1  0.98996933  0.80729067  0.80936067  1
  O  O87  1  0.49373833  0.14030367  0.92071067  1
  O  O88  1  0.16775000  0.70117900  0.74963300  1
  O  O89  1  0.81732133  0.01003067  0.80936067  1
  O  O90  1  0.51917933  0.64921867  0.85713567  1
  O  O91  1  0.16979567  0.97673633  0.91332933  1
  O  O92  1  0.83726033  0.53358367  0.74983267  1
  O  O93  1  0.35078133  0.86996067  0.85713567  1
  O  O94  1  0.69632333  0.16273967  0.74983267  1
  O  O95  1  0.53342900  0.83225000  0.74963300  1
  O  O96  1  0.46641633  0.30367667  0.74983267  1
  O  O97  1  0.19270933  0.18267867  0.80936067  1
  O  O98  1  0.29882100  0.46657100  0.74963300  1
  O  O99  1  0.84885367  0.52482833  0.02496633  1
  O  O100  1  0.67597467  0.15114633  0.02496633  1
  O  O101  1  0.47517167  0.32402533  0.02496633  1
