# generated using pymatgen
data_Li5Mn2Cu5O12
_symmetry_space_group_name_H-M   'P 1'
_cell_length_a   5.49310400
_cell_length_b   8.47510600
_cell_length_c   9.62414019
_cell_angle_alpha   90.00000000
_cell_angle_beta   92.03675105
_cell_angle_gamma   90.00000000
_symmetry_Int_Tables_number   1
_chemical_formula_structural   Li5Mn2Cu5O12
_chemical_formula_sum   'Li10 Mn4 Cu10 O24'
_cell_volume   447.76530800
_cell_formula_units_Z   2
loop_
 _symmetry_equiv_pos_site_id
 _symmetry_equiv_pos_as_xyz
  1  'x, y, z'
loop_
 _atom_site_type_symbol
 _atom_site_label
 _atom_site_symmetry_multiplicity
 _atom_site_fract_x
 _atom_site_fract_y
 _atom_site_fract_z
 _atom_site_occupancy
  Li  Li0  1  0.24604050  0.91593250  0.25630700  1
  Li  Li1  1  0.23795950  0.08723350  0.74358200  1
  Li  Li2  1  0.75395950  0.91593250  0.74369300  1
  Li  Li3  1  0.76204050  0.08723350  0.25641800  1
  Li  Li4  1  0.50000000  0.41547500  0.50000000  1
  Li  Li5  1  0.74604050  0.41593250  0.25630700  1
  Li  Li6  1  0.73795950  0.58723350  0.74358200  1
  Li  Li7  1  0.25395950  0.41593250  0.74369300  1
  Li  Li8  1  0.26204050  0.58723350  0.25641800  1
  Li  Li9  1  0.00000000  0.91547500  0.50000000  1
  Mn  Mn10  1  0.50000000  0.74614100  0.50000000  1
  Mn  Mn11  1  0.50000000  0.24805500  0.00000000  1
  Mn  Mn12  1  0.00000000  0.24614100  0.50000000  1
  Mn  Mn13  1  0.00000000  0.74805500  0.00000000  1
  Cu  Cu14  1  0.50000000  0.58032900  0.00000000  1
  Cu  Cu15  1  0.74409950  0.25259750  0.74712000  1
  Cu  Cu16  1  0.25590050  0.25259750  0.25288000  1
  Cu  Cu17  1  0.50000000  0.91738600  0.00000000  1
  Cu  Cu18  1  0.50000000  0.08479300  0.50000000  1
  Cu  Cu19  1  0.00000000  0.08032900  0.00000000  1
  Cu  Cu20  1  0.24409950  0.75259750  0.74712000  1
  Cu  Cu21  1  0.75590050  0.75259750  0.25288000  1
  Cu  Cu22  1  0.00000000  0.41738600  0.00000000  1
  Cu  Cu23  1  0.00000000  0.58479300  0.50000000  1
  O  O24  1  0.89310750  0.09813350  0.63335600  1
  O  O25  1  0.10689250  0.09813350  0.36664400  1
  O  O26  1  0.32745000  0.74921000  0.09652000  1
  O  O27  1  0.67255000  0.74921000  0.90348000  1
  O  O28  1  0.39461000  0.91253200  0.62305800  1
  O  O29  1  0.60539000  0.91253200  0.37694200  1
  O  O30  1  0.39910850  0.08955150  0.12712000  1
  O  O31  1  0.60089150  0.08955150  0.87288000  1
  O  O32  1  0.32432450  0.24294550  0.59621300  1
  O  O33  1  0.67567550  0.24294550  0.40378700  1
  O  O34  1  0.90270350  0.90577350  0.12983800  1
  O  O35  1  0.09729650  0.90577350  0.87016200  1
  O  O36  1  0.39310750  0.59813350  0.63335600  1
  O  O37  1  0.60689250  0.59813350  0.36664400  1
  O  O38  1  0.82745000  0.24921000  0.09652000  1
  O  O39  1  0.17255000  0.24921000  0.90348000  1
  O  O40  1  0.89461000  0.41253200  0.62305800  1
  O  O41  1  0.10539000  0.41253200  0.37694200  1
  O  O42  1  0.89910850  0.58955150  0.12712000  1
  O  O43  1  0.10089150  0.58955150  0.87288000  1
  O  O44  1  0.82432450  0.74294550  0.59621300  1
  O  O45  1  0.17567550  0.74294550  0.40378700  1
  O  O46  1  0.40270350  0.40577350  0.12983800  1
  O  O47  1  0.59729650  0.40577350  0.87016200  1
