# generated using pymatgen
data_Li2Fe2Si2O7
_symmetry_space_group_name_H-M   'P 1'
_cell_length_a   5.37157984
_cell_length_b   5.37157984
_cell_length_c   8.10227738
_cell_angle_alpha   90.00000000
_cell_angle_beta   90.00000000
_cell_angle_gamma   120.00000000
_symmetry_Int_Tables_number   1
_chemical_formula_structural   Li2Fe2Si2O7
_chemical_formula_sum   'Li2 Fe2 Si2 O7'
_cell_volume   202.46120139
_cell_formula_units_Z   1
loop_
 _symmetry_equiv_pos_site_id
 _symmetry_equiv_pos_as_xyz
  1  'x, y, z'
loop_
 _atom_site_type_symbol
 _atom_site_label
 _atom_site_symmetry_multiplicity
 _atom_site_fract_x
 _atom_site_fract_y
 _atom_site_fract_z
 _atom_site_occupancy
  Li  Li0  1  0.66666667  0.33333333  0.77687300  1
  Li  Li1  1  0.33333333  0.66666667  0.22312700  1
  Fe  Fe2  1  0.66666667  0.33333333  0.22715700  1
  Fe  Fe3  1  0.33333333  0.66666667  0.77284300  1
  Si  Si4  1  0.00000000  0.00000000  0.70234000  1
  Si  Si5  1  0.00000000  0.00000000  0.29766000  1
  O  O6  1  0.00000000  0.00000000  0.50000000  1
  O  O7  1  0.00711667  0.28694583  0.23700100  1
  O  O8  1  0.27982917  0.99288333  0.23700100  1
  O  O9  1  0.28694583  0.27982917  0.76299900  1
  O  O10  1  0.71305417  0.72017083  0.23700100  1
  O  O11  1  0.72017083  0.00711667  0.76299900  1
  O  O12  1  0.99288333  0.71305417  0.76299900  1
