# generated using pymatgen
data_Na2CoO3
_symmetry_space_group_name_H-M   'P 1'
_cell_length_a   14.88662200
_cell_length_b   5.63970600
_cell_length_c   10.56049088
_cell_angle_alpha   90.00000000
_cell_angle_beta   101.46336507
_cell_angle_gamma   90.00000000
_symmetry_Int_Tables_number   1
_chemical_formula_structural   Na2CoO3
_chemical_formula_sum   'Na16 Co8 O24'
_cell_volume   868.93210158
_cell_formula_units_Z   8
loop_
 _symmetry_equiv_pos_site_id
 _symmetry_equiv_pos_as_xyz
  1  'x, y, z'
loop_
 _atom_site_type_symbol
 _atom_site_label
 _atom_site_symmetry_multiplicity
 _atom_site_fract_x
 _atom_site_fract_y
 _atom_site_fract_z
 _atom_site_occupancy
  Na  Na0  1  0.92862300  0.31872200  0.33835800  1
  Na  Na1  1  0.82505500  0.33794500  0.62288200  1
  Na  Na2  1  0.82505500  0.66205500  0.12288200  1
  Na  Na3  1  0.92862300  0.68127800  0.83835800  1
  Na  Na4  1  0.57137700  0.81872200  0.16164200  1
  Na  Na5  1  0.67494500  0.83794500  0.87711800  1
  Na  Na6  1  0.67494500  0.16205500  0.37711800  1
  Na  Na7  1  0.57137700  0.18127800  0.66164200  1
  Na  Na8  1  0.42862300  0.81872200  0.33835800  1
  Na  Na9  1  0.32505500  0.83794500  0.62288200  1
  Na  Na10  1  0.32505500  0.16205500  0.12288200  1
  Na  Na11  1  0.42862300  0.18127800  0.83835800  1
  Na  Na12  1  0.07137700  0.31872200  0.16164200  1
  Na  Na13  1  0.17494500  0.33794500  0.87711800  1
  Na  Na14  1  0.17494500  0.66205500  0.37711800  1
  Na  Na15  1  0.07137700  0.68127800  0.66164200  1
  Co  Co16  1  0.62357050  0.33944750  0.02626000  1
  Co  Co17  1  0.62357050  0.66055250  0.52626000  1
  Co  Co18  1  0.87642950  0.83944750  0.47374000  1
  Co  Co19  1  0.87642950  0.16055250  0.97374000  1
  Co  Co20  1  0.12357050  0.83944750  0.02626000  1
  Co  Co21  1  0.12357050  0.16055250  0.52626000  1
  Co  Co22  1  0.37642950  0.33944750  0.47374000  1
  Co  Co23  1  0.37642950  0.66055250  0.97374000  1
  O  O24  1  0.91134000  0.31725900  0.11172000  1
  O  O25  1  0.88751250  0.28348050  0.83475600  1
  O  O26  1  0.66817000  0.38644400  0.55729200  1
  O  O27  1  0.66817000  0.61355600  0.05729200  1
  O  O28  1  0.88751250  0.71651950  0.33475600  1
  O  O29  1  0.58866000  0.81725900  0.38828000  1
  O  O30  1  0.91134000  0.68274100  0.61172000  1
  O  O31  1  0.61248750  0.78348050  0.66524400  1
  O  O32  1  0.83183000  0.88644400  0.94270800  1
  O  O33  1  0.83183000  0.11355600  0.44270800  1
  O  O34  1  0.61248750  0.21651950  0.16524400  1
  O  O35  1  0.58866000  0.18274100  0.88828000  1
  O  O36  1  0.41134000  0.81725900  0.11172000  1
  O  O37  1  0.38751250  0.78348050  0.83475600  1
  O  O38  1  0.16817000  0.88644400  0.55729200  1
  O  O39  1  0.16817000  0.11355600  0.05729200  1
  O  O40  1  0.38751250  0.21651950  0.33475600  1
  O  O41  1  0.08866000  0.31725900  0.38828000  1
  O  O42  1  0.41134000  0.18274100  0.61172000  1
  O  O43  1  0.11248750  0.28348050  0.66524400  1
  O  O44  1  0.33183000  0.38644400  0.94270800  1
  O  O45  1  0.33183000  0.61355600  0.44270800  1
  O  O46  1  0.11248750  0.71651950  0.16524400  1
  O  O47  1  0.08866000  0.68274100  0.88828000  1
