# generated using pymatgen
data_LiFeF3
_symmetry_space_group_name_H-M   'P 1'
_cell_length_a   9.13481200
_cell_length_b   5.23596800
_cell_length_c   5.58662632
_cell_angle_alpha   90.00000000
_cell_angle_beta   122.11085686
_cell_angle_gamma   90.00000000
_symmetry_Int_Tables_number   1
_chemical_formula_structural   LiFeF3
_chemical_formula_sum   'Li4 Fe4 F12'
_cell_volume   226.32915779
_cell_formula_units_Z   4
loop_
 _symmetry_equiv_pos_site_id
 _symmetry_equiv_pos_as_xyz
  1  'x, y, z'
loop_
 _atom_site_type_symbol
 _atom_site_label
 _atom_site_symmetry_multiplicity
 _atom_site_fract_x
 _atom_site_fract_y
 _atom_site_fract_z
 _atom_site_occupancy
  Li  Li0  1  0.05025050  0.74513050  0.40129200  1
  Li  Li1  1  0.05025050  0.25486950  0.90129200  1
  Li  Li2  1  0.55025050  0.24513050  0.40129200  1
  Li  Li3  1  0.55025050  0.75486950  0.90129200  1
  Fe  Fe4  1  0.25925950  0.74994150  0.02739800  1
  Fe  Fe5  1  0.25925950  0.25005850  0.52739800  1
  Fe  Fe6  1  0.75925950  0.24994150  0.02739800  1
  Fe  Fe7  1  0.75925950  0.75005850  0.52739800  1
  F  F8  1  0.00973650  0.40499750  0.23256400  1
  F  F9  1  0.31922150  0.39535950  0.24401400  1
  F  F10  1  0.15948900  0.93083200  0.22996500  1
  F  F11  1  0.31922150  0.60464050  0.74401400  1
  F  F12  1  0.15948900  0.06916800  0.72996500  1
  F  F13  1  0.00973650  0.59500250  0.73256400  1
  F  F14  1  0.50973650  0.90499750  0.23256400  1
  F  F15  1  0.81922150  0.89535950  0.24401400  1
  F  F16  1  0.65948900  0.43083200  0.22996500  1
  F  F17  1  0.81922150  0.10464050  0.74401400  1
  F  F18  1  0.65948900  0.56916800  0.72996500  1
  F  F19  1  0.50973650  0.09500250  0.73256400  1
