# generated using pymatgen
data_Gd6WO12
_symmetry_space_group_name_H-M   'P 1'
_cell_length_a   9.98153307
_cell_length_b   9.98153307
_cell_length_c   9.54039936
_cell_angle_alpha   90.00000000
_cell_angle_beta   90.00000000
_cell_angle_gamma   120.00000000
_symmetry_Int_Tables_number   1
_chemical_formula_structural   Gd6WO12
_chemical_formula_sum   'Gd18 W3 O36'
_cell_volume   823.17407847
_cell_formula_units_Z   3
loop_
 _symmetry_equiv_pos_site_id
 _symmetry_equiv_pos_as_xyz
  1  'x, y, z'
loop_
 _atom_site_type_symbol
 _atom_site_label
 _atom_site_symmetry_multiplicity
 _atom_site_fract_x
 _atom_site_fract_y
 _atom_site_fract_z
 _atom_site_occupancy
  Gd  Gd0  1  0.74487300  0.78790600  0.64443500  1
  Gd  Gd1  1  0.95696700  0.74487300  0.35556500  1
  Gd  Gd2  1  0.78790600  0.04303300  0.35556500  1
  Gd  Gd3  1  0.21209400  0.95696700  0.64443500  1
  Gd  Gd4  1  0.04303300  0.25512700  0.64443500  1
  Gd  Gd5  1  0.25512700  0.21209400  0.35556500  1
  Gd  Gd6  1  0.41153967  0.12123933  0.97776833  1
  Gd  Gd7  1  0.62363367  0.07820633  0.68889833  1
  Gd  Gd8  1  0.45457267  0.37636633  0.68889833  1
  Gd  Gd9  1  0.87876067  0.29030033  0.97776833  1
  Gd  Gd10  1  0.70969967  0.58846033  0.97776833  1
  Gd  Gd11  1  0.92179367  0.54542733  0.68889833  1
  Gd  Gd12  1  0.07820633  0.45457267  0.31110167  1
  Gd  Gd13  1  0.29030033  0.41153967  0.02223167  1
  Gd  Gd14  1  0.12123933  0.70969967  0.02223167  1
  Gd  Gd15  1  0.54542733  0.62363367  0.31110167  1
  Gd  Gd16  1  0.37636633  0.92179367  0.31110167  1
  Gd  Gd17  1  0.58846033  0.87876067  0.02223167  1
  W  W18  1  0.00000000  0.00000000  0.00000000  1
  W  W19  1  0.66666667  0.33333333  0.33333333  1
  W  W20  1  0.33333333  0.66666667  0.66666667  1
  O  O21  1  0.47717567  0.62854433  0.55503833  1
  O  O22  1  0.84863133  0.47717567  0.44496167  1
  O  O23  1  0.77622767  0.80946133  0.40093933  1
  O  O24  1  0.96676633  0.77622767  0.59906067  1
  O  O25  1  0.62854433  0.15136867  0.44496167  1
  O  O26  1  0.80946133  0.03323367  0.59906067  1
  O  O27  1  0.19053867  0.96676633  0.40093933  1
  O  O28  1  0.37145567  0.84863133  0.55503833  1
  O  O29  1  0.03323367  0.22377233  0.40093933  1
  O  O30  1  0.22377233  0.19053867  0.59906067  1
  O  O31  1  0.15136867  0.52282433  0.55503833  1
  O  O32  1  0.52282433  0.37145567  0.44496167  1
  O  O33  1  0.14384233  0.96187767  0.88837167  1
  O  O34  1  0.51529800  0.81050900  0.77829500  1
  O  O35  1  0.44289433  0.14279467  0.73427267  1
  O  O36  1  0.63343300  0.10956100  0.93239400  1
  O  O37  1  0.29521100  0.48470200  0.77829500  1
  O  O38  1  0.47612800  0.36656700  0.93239400  1
  O  O39  1  0.85720533  0.30009967  0.73427267  1
  O  O40  1  0.03812233  0.18196467  0.88837167  1
  O  O41  1  0.69990033  0.55710567  0.73427267  1
  O  O42  1  0.89043900  0.52387200  0.93239400  1
  O  O43  1  0.81803533  0.85615767  0.88837167  1
  O  O44  1  0.18949100  0.70478900  0.77829500  1
  O  O45  1  0.81050900  0.29521100  0.22170500  1
  O  O46  1  0.18196467  0.14384233  0.11162833  1
  O  O47  1  0.10956100  0.47612800  0.06760600  1
  O  O48  1  0.30009967  0.44289433  0.26572733  1
  O  O49  1  0.96187767  0.81803533  0.11162833  1
  O  O50  1  0.14279467  0.69990033  0.26572733  1
  O  O51  1  0.52387200  0.63343300  0.06760600  1
  O  O52  1  0.70478900  0.51529800  0.22170500  1
  O  O53  1  0.36656700  0.89043900  0.06760600  1
  O  O54  1  0.55710567  0.85720533  0.26572733  1
  O  O55  1  0.48470200  0.18949100  0.22170500  1
  O  O56  1  0.85615767  0.03812233  0.11162833  1
