# generated using pymatgen
data_Li2CrCo3O8
_symmetry_space_group_name_H-M   'P 1'
_cell_length_a   9.96123294
_cell_length_b   5.77601884
_cell_length_c   5.93455783
_cell_angle_alpha   90.00000000
_cell_angle_beta   124.48666637
_cell_angle_gamma   90.00000000
_symmetry_Int_Tables_number   1
_chemical_formula_structural   Li2CrCo3O8
_chemical_formula_sum   'Li4 Cr2 Co6 O16'
_cell_volume   281.44479591
_cell_formula_units_Z   2
loop_
 _symmetry_equiv_pos_site_id
 _symmetry_equiv_pos_as_xyz
  1  'x, y, z'
loop_
 _atom_site_type_symbol
 _atom_site_label
 _atom_site_symmetry_multiplicity
 _atom_site_fract_x
 _atom_site_fract_y
 _atom_site_fract_z
 _atom_site_occupancy
  Li  Li0  1  0.00000000  0.00000000  0.50000000  1
  Li  Li1  1  0.00000000  0.50000000  0.50000000  1
  Li  Li2  1  0.50000000  0.50000000  0.50000000  1
  Li  Li3  1  0.50000000  0.00000000  0.50000000  1
  Cr  Cr4  1  0.50000000  0.50000000  0.00000000  1
  Cr  Cr5  1  0.00000000  0.00000000  0.00000000  1
  Co  Co6  1  0.00000000  0.50000000  0.00000000  1
  Co  Co7  1  0.75000000  0.75000000  0.00000000  1
  Co  Co8  1  0.25000000  0.75000000  0.00000000  1
  Co  Co9  1  0.50000000  0.00000000  0.00000000  1
  Co  Co10  1  0.25000000  0.25000000  0.00000000  1
  Co  Co11  1  0.75000000  0.25000000  0.00000000  1
  O  O12  1  0.76140300  0.50000000  0.80124600  1
  O  O13  1  0.73859700  0.00000000  0.19875400  1
  O  O14  1  0.25635200  0.50000000  0.79810400  1
  O  O15  1  0.24364800  0.00000000  0.20189600  1
  O  O16  1  0.47871850  0.24800850  0.21074900  1
  O  O17  1  0.47871850  0.75199150  0.21074900  1
  O  O18  1  0.02128150  0.74800850  0.78925100  1
  O  O19  1  0.02128150  0.25199150  0.78925100  1
  O  O20  1  0.26140300  0.00000000  0.80124600  1
  O  O21  1  0.23859700  0.50000000  0.19875400  1
  O  O22  1  0.75635200  0.00000000  0.79810400  1
  O  O23  1  0.74364800  0.50000000  0.20189600  1
  O  O24  1  0.97871850  0.74800850  0.21074900  1
  O  O25  1  0.97871850  0.25199150  0.21074900  1
  O  O26  1  0.52128150  0.24800850  0.78925100  1
  O  O27  1  0.52128150  0.75199150  0.78925100  1
