# generated using pymatgen
data_Li3Mn2V5O12
_symmetry_space_group_name_H-M   'P 1'
_cell_length_a   5.34063600
_cell_length_b   8.99679200
_cell_length_c   9.83734038
_cell_angle_alpha   90.00000000
_cell_angle_beta   99.03857922
_cell_angle_gamma   90.00000000
_symmetry_Int_Tables_number   1
_chemical_formula_structural   Li3Mn2V5O12
_chemical_formula_sum   'Li6 Mn4 V10 O24'
_cell_volume   466.80109703
_cell_formula_units_Z   2
loop_
 _symmetry_equiv_pos_site_id
 _symmetry_equiv_pos_as_xyz
  1  'x, y, z'
loop_
 _atom_site_type_symbol
 _atom_site_label
 _atom_site_symmetry_multiplicity
 _atom_site_fract_x
 _atom_site_fract_y
 _atom_site_fract_z
 _atom_site_occupancy
  Li  Li0  1  0.23354550  0.08447050  0.74686300  1
  Li  Li1  1  0.76645450  0.08447050  0.25313700  1
  Li  Li2  1  0.50000000  0.42245400  0.50000000  1
  Li  Li3  1  0.73354550  0.58447050  0.74686300  1
  Li  Li4  1  0.26645450  0.58447050  0.25313700  1
  Li  Li5  1  0.00000000  0.92245400  0.50000000  1
  Mn  Mn6  1  0.50000000  0.75418500  0.50000000  1
  Mn  Mn7  1  0.50000000  0.25956700  0.00000000  1
  Mn  Mn8  1  0.00000000  0.25418500  0.50000000  1
  Mn  Mn9  1  0.00000000  0.75956700  0.00000000  1
  V  V10  1  0.50000000  0.58352600  0.00000000  1
  V  V11  1  0.50000000  0.92298900  0.00000000  1
  V  V12  1  0.50000000  0.08129000  0.50000000  1
  V  V13  1  0.74899900  0.75014000  0.25328600  1
  V  V14  1  0.25100100  0.75014000  0.74671400  1
  V  V15  1  0.00000000  0.08352600  0.00000000  1
  V  V16  1  0.00000000  0.42298900  0.00000000  1
  V  V17  1  0.00000000  0.58129000  0.50000000  1
  V  V18  1  0.24899900  0.25014000  0.25328600  1
  V  V19  1  0.75100100  0.25014000  0.74671400  1
  O  O20  1  0.40857100  0.74943300  0.12321700  1
  O  O21  1  0.59142900  0.74943300  0.87678300  1
  O  O22  1  0.16010400  0.92154400  0.87969200  1
  O  O23  1  0.36119650  0.90578550  0.60685600  1
  O  O24  1  0.63880350  0.90578550  0.39314400  1
  O  O25  1  0.13989200  0.10049300  0.39034500  1
  O  O26  1  0.35092750  0.09188650  0.11458100  1
  O  O27  1  0.83989600  0.92154400  0.12030800  1
  O  O28  1  0.40650950  0.21707650  0.62595400  1
  O  O29  1  0.64907250  0.09188650  0.88541900  1
  O  O30  1  0.86010800  0.10049300  0.60965500  1
  O  O31  1  0.59349050  0.21707650  0.37404600  1
  O  O32  1  0.90857100  0.24943300  0.12321700  1
  O  O33  1  0.09142900  0.24943300  0.87678300  1
  O  O34  1  0.66010400  0.42154400  0.87969200  1
  O  O35  1  0.86119650  0.40578550  0.60685600  1
  O  O36  1  0.13880350  0.40578550  0.39314400  1
  O  O37  1  0.63989200  0.60049300  0.39034500  1
  O  O38  1  0.85092750  0.59188650  0.11458100  1
  O  O39  1  0.33989600  0.42154400  0.12030800  1
  O  O40  1  0.90650950  0.71707650  0.62595400  1
  O  O41  1  0.14907250  0.59188650  0.88541900  1
  O  O42  1  0.36010800  0.60049300  0.60965500  1
  O  O43  1  0.09349050  0.71707650  0.37404600  1
