# generated using pymatgen
data_Li(CoO2)4
_symmetry_space_group_name_H-M   'P 1'
_cell_length_a   5.71168634
_cell_length_b   5.71168634
_cell_length_c   28.08638629
_cell_angle_alpha   90.00000000
_cell_angle_beta   90.00000000
_cell_angle_gamma   120.00000000
_symmetry_Int_Tables_number   1
_chemical_formula_structural   Li(CoO2)4
_chemical_formula_sum   'Li6 Co24 O48'
_cell_volume   793.51510094
_cell_formula_units_Z   6
loop_
 _symmetry_equiv_pos_site_id
 _symmetry_equiv_pos_as_xyz
  1  'x, y, z'
loop_
 _atom_site_type_symbol
 _atom_site_label
 _atom_site_symmetry_multiplicity
 _atom_site_fract_x
 _atom_site_fract_y
 _atom_site_fract_z
 _atom_site_occupancy
  Li  Li0  1  0.66666667  0.33333333  0.57962533  1
  Li  Li1  1  0.33333333  0.66666667  0.42037467  1
  Li  Li2  1  0.33333333  0.66666667  0.91295867  1
  Li  Li3  1  0.00000000  0.00000000  0.75370800  1
  Li  Li4  1  0.00000000  0.00000000  0.24629200  1
  Li  Li5  1  0.66666667  0.33333333  0.08704133  1
  Co  Co6  1  0.00000000  0.00000000  0.50000000  1
  Co  Co7  1  0.33333333  0.66666667  0.66666667  1
  Co  Co8  1  0.16586633  0.33173267  0.57955167  1
  Co  Co9  1  0.83413367  0.66826733  0.42044833  1
  Co  Co10  1  0.16586633  0.83413367  0.57955167  1
  Co  Co11  1  0.83413367  0.16586633  0.42044833  1
  Co  Co12  1  0.66826733  0.83413367  0.57955167  1
  Co  Co13  1  0.33301733  0.16650867  0.41692167  1
  Co  Co14  1  0.66666667  0.33333333  0.83333333  1
  Co  Co15  1  1.00000000  1.00000000  0.00000000  1
  Co  Co16  1  0.83253300  0.66506600  0.91288500  1
  Co  Co17  1  0.50080033  0.00160067  0.75378167  1
  Co  Co18  1  0.83253300  0.16746700  0.91288500  1
  Co  Co19  1  0.50080033  0.49919967  0.75378167  1
  Co  Co20  1  0.33493400  0.16746700  0.91288500  1
  Co  Co21  1  0.99968400  0.49984200  0.75025500  1
  Co  Co22  1  0.33333333  0.66666667  0.16666667  1
  Co  Co23  1  0.66666667  0.33333333  0.33333333  1
  Co  Co24  1  0.49919967  0.99839933  0.24621833  1
  Co  Co25  1  0.16746700  0.33493400  0.08711500  1
  Co  Co26  1  0.49919967  0.50080033  0.24621833  1
  Co  Co27  1  0.16746700  0.83253300  0.08711500  1
  Co  Co28  1  0.00160067  0.50080033  0.24621833  1
  Co  Co29  1  0.66635067  0.83317533  0.08358833  1
  O  O30  1  0.33333333  0.66666667  0.54582567  1
  O  O31  1  0.00000000  0.00000000  0.38320433  1
  O  O32  1  0.00000000  0.00000000  0.61679567  1
  O  O33  1  0.66666667  0.33333333  0.45417433  1
  O  O34  1  0.29970133  0.14985067  0.54206167  1
  O  O35  1  0.96910633  0.48455317  0.37971367  1
  O  O36  1  0.48603317  0.97206633  0.61545333  1
  O  O37  1  0.14815100  0.29630200  0.45403100  1
  O  O38  1  0.85014933  0.14985067  0.54206167  1
  O  O39  1  0.51544683  0.48455317  0.37971367  1
  O  O40  1  0.48603317  0.51396683  0.61545333  1
  O  O41  1  0.14815100  0.85184900  0.45403100  1
  O  O42  1  0.85014933  0.70029867  0.54206167  1
  O  O43  1  0.51544683  0.03089367  0.37971367  1
  O  O44  1  0.03089367  0.51544683  0.62028633  1
  O  O45  1  0.70029867  0.85014933  0.45793833  1
  O  O46  1  0.00000000  0.00000000  0.87915900  1
  O  O47  1  0.66666667  0.33333333  0.71653767  1
  O  O48  1  0.66666667  0.33333333  0.95012900  1
  O  O49  1  0.33333333  0.66666667  0.78750767  1
  O  O50  1  0.96636800  0.48318400  0.87539500  1
  O  O51  1  0.63577300  0.81788650  0.71304700  1
  O  O52  1  0.15269983  0.30539967  0.94878667  1
  O  O53  1  0.81481767  0.62963533  0.78736433  1
  O  O54  1  0.51681600  0.48318400  0.87539500  1
  O  O55  1  0.18211350  0.81788650  0.71304700  1
  O  O56  1  0.15269983  0.84730017  0.94878667  1
  O  O57  1  0.81481767  0.18518233  0.78736433  1
  O  O58  1  0.51681600  0.03363200  0.87539500  1
  O  O59  1  0.18211350  0.36422700  0.71304700  1
  O  O60  1  0.69756033  0.84878017  0.95361967  1
  O  O61  1  0.36696533  0.18348267  0.79127167  1
  O  O62  1  0.66666667  0.33333333  0.21249233  1
  O  O63  1  0.33333333  0.66666667  0.04987100  1
  O  O64  1  0.33333333  0.66666667  0.28346233  1
  O  O65  1  0.00000000  0.00000000  0.12084100  1
  O  O66  1  0.63303467  0.81651733  0.20872833  1
  O  O67  1  0.30243967  0.15121983  0.04638033  1
  O  O68  1  0.81936650  0.63873300  0.28212000  1
  O  O69  1  0.48148433  0.96296867  0.12069767  1
  O  O70  1  0.18348267  0.81651733  0.20872833  1
  O  O71  1  0.84878017  0.15121983  0.04638033  1
  O  O72  1  0.81936650  0.18063350  0.28212000  1
  O  O73  1  0.48148433  0.51851567  0.12069767  1
  O  O74  1  0.18348267  0.36696533  0.20872833  1
  O  O75  1  0.84878017  0.69756033  0.04638033  1
  O  O76  1  0.36422700  0.18211350  0.28695300  1
  O  O77  1  0.03363200  0.51681600  0.12460500  1
