# generated using pymatgen
data_Li3V(SO4)3
_symmetry_space_group_name_H-M   'P 1'
_cell_length_a   13.07072565
_cell_length_b   13.07072565
_cell_length_c   9.10069266
_cell_angle_alpha   90.00000000
_cell_angle_beta   90.00000000
_cell_angle_gamma   120.00000000
_symmetry_Int_Tables_number   1
_chemical_formula_structural   Li3V(SO4)3
_chemical_formula_sum   'Li18 V6 S18 O72'
_cell_volume   1346.49417285
_cell_formula_units_Z   6
loop_
 _symmetry_equiv_pos_site_id
 _symmetry_equiv_pos_as_xyz
  1  'x, y, z'
loop_
 _atom_site_type_symbol
 _atom_site_label
 _atom_site_symmetry_multiplicity
 _atom_site_fract_x
 _atom_site_fract_y
 _atom_site_fract_z
 _atom_site_occupancy
  Li  Li0  1  0.73511033  0.64466267  0.49256867  1
  Li  Li1  1  0.64466267  0.90955233  0.50743133  1
  Li  Li2  1  0.09044767  0.73511033  0.50743133  1
  Li  Li3  1  0.90955233  0.26488967  0.49256867  1
  Li  Li4  1  0.35533733  0.09044767  0.49256867  1
  Li  Li5  1  0.26488967  0.35533733  0.50743133  1
  Li  Li6  1  0.40177700  0.97799600  0.82590200  1
  Li  Li7  1  0.31132933  0.24288567  0.84076467  1
  Li  Li8  1  0.75711433  0.06844367  0.84076467  1
  Li  Li9  1  0.57621900  0.59822300  0.82590200  1
  Li  Li10  1  0.02200400  0.42378100  0.82590200  1
  Li  Li11  1  0.93155633  0.68867067  0.84076467  1
  Li  Li12  1  0.06844367  0.31132933  0.15923533  1
  Li  Li13  1  0.97799600  0.57621900  0.17409800  1
  Li  Li14  1  0.42378100  0.40177700  0.17409800  1
  Li  Li15  1  0.24288567  0.93155633  0.15923533  1
  Li  Li16  1  0.68867067  0.75711433  0.15923533  1
  Li  Li17  1  0.59822300  0.02200400  0.17409800  1
  V  V18  1  0.00000000  0.00000000  0.00000000  1
  V  V19  1  0.00000000  0.00000000  0.50000000  1
  V  V20  1  0.66666667  0.33333333  0.33333333  1
  V  V21  1  0.66666667  0.33333333  0.83333333  1
  V  V22  1  0.33333333  0.66666667  0.66666667  1
  V  V23  1  0.33333333  0.66666667  0.16666667  1
  S  S24  1  0.80531000  0.83154900  0.73825900  1
  S  S25  1  0.97376100  0.80531000  0.26174100  1
  S  S26  1  0.83154900  0.02623900  0.26174100  1
  S  S27  1  0.16845100  0.97376100  0.73825900  1
  S  S28  1  0.02623900  0.19469000  0.73825900  1
  S  S29  1  0.19469000  0.16845100  0.26174100  1
  S  S30  1  0.47197667  0.16488233  0.07159233  1
  S  S31  1  0.64042767  0.13864333  0.59507433  1
  S  S32  1  0.49821567  0.35957233  0.59507433  1
  S  S33  1  0.83511767  0.30709433  0.07159233  1
  S  S34  1  0.69290567  0.52802333  0.07159233  1
  S  S35  1  0.86135667  0.50178433  0.59507433  1
  S  S36  1  0.13864333  0.49821567  0.40492567  1
  S  S37  1  0.30709433  0.47197667  0.92840767  1
  S  S38  1  0.16488233  0.69290567  0.92840767  1
  S  S39  1  0.50178433  0.64042767  0.40492567  1
  S  S40  1  0.35957233  0.86135667  0.40492567  1
  S  S41  1  0.52802333  0.83511767  0.92840767  1
  O  O42  1  0.47200000  0.67683700  0.54901300  1
  O  O43  1  0.79516300  0.47200000  0.45098700  1
  O  O44  1  0.63119633  0.69190267  0.40112567  1
  O  O45  1  0.93929367  0.63119633  0.59887433  1
  O  O46  1  0.84599100  0.74512100  0.28443100  1
  O  O47  1  0.74512100  0.89913000  0.71556900  1
  O  O48  1  0.89507367  0.85604633  0.61890733  1
  O  O49  1  0.69190267  0.06070633  0.59887433  1
  O  O50  1  0.85604633  0.96097267  0.38109267  1
  O  O51  1  0.67683700  0.20483700  0.45098700  1
  O  O52  1  0.03902733  0.89507367  0.38109267  1
  O  O53  1  0.10087000  0.84599100  0.71556900  1
  O  O54  1  0.89913000  0.15400900  0.28443100  1
  O  O55  1  0.96097267  0.10492633  0.61890733  1
  O  O56  1  0.32316300  0.79516300  0.54901300  1
  O  O57  1  0.14395367  0.03902733  0.61890733  1
  O  O58  1  0.30809733  0.93929367  0.40112567  1
  O  O59  1  0.10492633  0.14395367  0.38109267  1
  O  O60  1  0.25487900  0.10087000  0.28443100  1
  O  O61  1  0.15400900  0.25487900  0.71556900  1
  O  O62  1  0.06070633  0.36880367  0.40112567  1
  O  O63  1  0.36880367  0.30809733  0.59887433  1
  O  O64  1  0.20483700  0.52800000  0.54901300  1
  O  O65  1  0.52800000  0.32316300  0.45098700  1
  O  O66  1  0.13866667  0.01017033  0.88234633  1
  O  O67  1  0.46182967  0.80533333  0.78432033  1
  O  O68  1  0.29786300  0.02523600  0.73445900  1
  O  O69  1  0.60596033  0.96452967  0.93220767  1
  O  O70  1  0.51265767  0.07845433  0.61776433  1
  O  O71  1  0.41178767  0.23246333  0.04890233  1
  O  O72  1  0.56174033  0.18937967  0.95224067  1
  O  O73  1  0.35856933  0.39403967  0.93220767  1
  O  O74  1  0.52271300  0.29430600  0.71442600  1
  O  O75  1  0.34350367  0.53817033  0.78432033  1
  O  O76  1  0.70569400  0.22840700  0.71442600  1
  O  O77  1  0.76753667  0.17932433  0.04890233  1
  O  O78  1  0.56579667  0.48734233  0.61776433  1
  O  O79  1  0.62763933  0.43825967  0.95224067  1
  O  O80  1  0.98982967  0.12849633  0.88234633  1
  O  O81  1  0.81062033  0.37236067  0.95224067  1
  O  O82  1  0.97476400  0.27262700  0.73445900  1
  O  O83  1  0.77159300  0.47728700  0.71442600  1
  O  O84  1  0.92154567  0.43420333  0.61776433  1
  O  O85  1  0.82067567  0.58821233  0.04890233  1
  O  O86  1  0.72737300  0.70213700  0.73445900  1
  O  O87  1  0.03547033  0.64143067  0.93220767  1
  O  O88  1  0.87150367  0.86133333  0.88234633  1
  O  O89  1  0.19466667  0.65649633  0.78432033  1
  O  O90  1  0.80533333  0.34350367  0.21567967  1
  O  O91  1  0.12849633  0.13866667  0.11765367  1
  O  O92  1  0.96452967  0.35856933  0.06779233  1
  O  O93  1  0.27262700  0.29786300  0.26554100  1
  O  O94  1  0.17932433  0.41178767  0.95109767  1
  O  O95  1  0.07845433  0.56579667  0.38223567  1
  O  O96  1  0.22840700  0.52271300  0.28557400  1
  O  O97  1  0.02523600  0.72737300  0.26554100  1
  O  O98  1  0.18937967  0.62763933  0.04775933  1
  O  O99  1  0.01017033  0.87150367  0.11765367  1
  O  O100  1  0.37236067  0.56174033  0.04775933  1
  O  O101  1  0.43420333  0.51265767  0.38223567  1
  O  O102  1  0.23246333  0.82067567  0.95109767  1
  O  O103  1  0.29430600  0.77159300  0.28557400  1
  O  O104  1  0.65649633  0.46182967  0.21567967  1
  O  O105  1  0.47728700  0.70569400  0.28557400  1
  O  O106  1  0.64143067  0.60596033  0.06779233  1
  O  O107  1  0.43825967  0.81062033  0.04775933  1
  O  O108  1  0.58821233  0.76753667  0.95109767  1
  O  O109  1  0.48734233  0.92154567  0.38223567  1
  O  O110  1  0.39403967  0.03547033  0.06779233  1
  O  O111  1  0.70213700  0.97476400  0.26554100  1
  O  O112  1  0.53817033  0.19466667  0.21567967  1
  O  O113  1  0.86133333  0.98982967  0.11765367  1
