# generated using pymatgen
data_Zn2Fe7O12
_symmetry_space_group_name_H-M   'P 1'
_cell_length_a   6.06253000
_cell_length_b   6.06253000
_cell_length_c   25.71128400
_cell_angle_alpha   90.00000000
_cell_angle_beta   90.00000000
_cell_angle_gamma   90.00000000
_symmetry_Int_Tables_number   1
_chemical_formula_structural   Zn2Fe7O12
_chemical_formula_sum   'Zn8 Fe28 O48'
_cell_volume   944.99947421
_cell_formula_units_Z   4
loop_
 _symmetry_equiv_pos_site_id
 _symmetry_equiv_pos_as_xyz
  1  'x, y, z'
loop_
 _atom_site_type_symbol
 _atom_site_label
 _atom_site_symmetry_multiplicity
 _atom_site_fract_x
 _atom_site_fract_y
 _atom_site_fract_z
 _atom_site_occupancy
  Zn  Zn0  1  0.50000000  0.50000000  0.33356300  1
  Zn  Zn1  1  0.00000000  0.50000000  0.41643700  1
  Zn  Zn2  1  0.00000000  0.50000000  0.08356300  1
  Zn  Zn3  1  0.00000000  0.00000000  0.16643700  1
  Zn  Zn4  1  0.00000000  0.00000000  0.83356300  1
  Zn  Zn5  1  0.50000000  0.00000000  0.91643700  1
  Zn  Zn6  1  0.50000000  0.00000000  0.58356300  1
  Zn  Zn7  1  0.50000000  0.50000000  0.66643700  1
  Fe  Fe8  1  0.25000000  0.00000000  0.37500000  1
  Fe  Fe9  1  0.75000000  0.00000000  0.37500000  1
  Fe  Fe10  1  0.50000000  0.25009700  0.45815600  1
  Fe  Fe11  1  0.50000000  0.74990300  0.45815600  1
  Fe  Fe12  1  0.50000000  0.50000000  0.00000000  1
  Fe  Fe13  1  0.75009700  0.00000000  0.04184400  1
  Fe  Fe14  1  0.24990300  0.00000000  0.04184400  1
  Fe  Fe15  1  0.50000000  0.75000000  0.12500000  1
  Fe  Fe16  1  0.50000000  0.25000000  0.12500000  1
  Fe  Fe17  1  0.75009700  0.50000000  0.20815600  1
  Fe  Fe18  1  0.24990300  0.50000000  0.20815600  1
  Fe  Fe19  1  0.50000000  0.00000000  0.25000000  1
  Fe  Fe20  1  0.00000000  0.74990300  0.29184400  1
  Fe  Fe21  1  0.00000000  0.25009700  0.29184400  1
  Fe  Fe22  1  0.75000000  0.50000000  0.87500000  1
  Fe  Fe23  1  0.25000000  0.50000000  0.87500000  1
  Fe  Fe24  1  0.00000000  0.75009700  0.95815600  1
  Fe  Fe25  1  0.00000000  0.24990300  0.95815600  1
  Fe  Fe26  1  0.00000000  0.00000000  0.50000000  1
  Fe  Fe27  1  0.25009700  0.50000000  0.54184400  1
  Fe  Fe28  1  0.74990300  0.50000000  0.54184400  1
  Fe  Fe29  1  0.00000000  0.25000000  0.62500000  1
  Fe  Fe30  1  0.00000000  0.75000000  0.62500000  1
  Fe  Fe31  1  0.25009700  0.00000000  0.70815600  1
  Fe  Fe32  1  0.74990300  0.00000000  0.70815600  1
  Fe  Fe33  1  0.00000000  0.50000000  0.75000000  1
  Fe  Fe34  1  0.50000000  0.24990300  0.79184400  1
  Fe  Fe35  1  0.50000000  0.75009700  0.79184400  1
  O  O36  1  0.00000000  0.77078300  0.37166300  1
  O  O37  1  0.00000000  0.22921700  0.37166300  1
  O  O38  1  0.50000000  0.77078300  0.37833700  1
  O  O39  1  0.50000000  0.22921700  0.37833700  1
  O  O40  1  0.72541400  0.00000000  0.45412800  1
  O  O41  1  0.27458600  0.00000000  0.45412800  1
  O  O42  1  0.27078250  0.50000000  0.46183350  1
  O  O43  1  0.72921750  0.50000000  0.46183350  1
  O  O44  1  0.00000000  0.22921750  0.03816650  1
  O  O45  1  0.00000000  0.77078250  0.03816650  1
  O  O46  1  0.50000000  0.22541400  0.04587200  1
  O  O47  1  0.50000000  0.77458600  0.04587200  1
  O  O48  1  0.27078300  0.00000000  0.12166300  1
  O  O49  1  0.72921700  0.00000000  0.12166300  1
  O  O50  1  0.27078300  0.50000000  0.12833700  1
  O  O51  1  0.72921700  0.50000000  0.12833700  1
  O  O52  1  0.50000000  0.72541400  0.20412800  1
  O  O53  1  0.50000000  0.27458600  0.20412800  1
  O  O54  1  0.00000000  0.72921750  0.21183350  1
  O  O55  1  0.00000000  0.27078250  0.21183350  1
  O  O56  1  0.77078250  0.50000000  0.28816650  1
  O  O57  1  0.22921750  0.50000000  0.28816650  1
  O  O58  1  0.77458600  0.00000000  0.29587200  1
  O  O59  1  0.22541400  0.00000000  0.29587200  1
  O  O60  1  0.50000000  0.27078300  0.87166300  1
  O  O61  1  0.50000000  0.72921700  0.87166300  1
  O  O62  1  0.00000000  0.27078300  0.87833700  1
  O  O63  1  0.00000000  0.72921700  0.87833700  1
  O  O64  1  0.22541400  0.50000000  0.95412800  1
  O  O65  1  0.77458600  0.50000000  0.95412800  1
  O  O66  1  0.77078250  0.00000000  0.96183350  1
  O  O67  1  0.22921750  0.00000000  0.96183350  1
  O  O68  1  0.50000000  0.72921750  0.53816650  1
  O  O69  1  0.50000000  0.27078250  0.53816650  1
  O  O70  1  0.00000000  0.72541400  0.54587200  1
  O  O71  1  0.00000000  0.27458600  0.54587200  1
  O  O72  1  0.77078300  0.50000000  0.62166300  1
  O  O73  1  0.22921700  0.50000000  0.62166300  1
  O  O74  1  0.77078300  0.00000000  0.62833700  1
  O  O75  1  0.22921700  0.00000000  0.62833700  1
  O  O76  1  0.00000000  0.22541400  0.70412800  1
  O  O77  1  0.00000000  0.77458600  0.70412800  1
  O  O78  1  0.50000000  0.22921750  0.71183350  1
  O  O79  1  0.50000000  0.77078250  0.71183350  1
  O  O80  1  0.27078250  0.00000000  0.78816650  1
  O  O81  1  0.72921750  0.00000000  0.78816650  1
  O  O82  1  0.27458600  0.50000000  0.79587200  1
  O  O83  1  0.72541400  0.50000000  0.79587200  1
