# generated using pymatgen
data_NiSnO3
_symmetry_space_group_name_H-M   'P 1'
_cell_length_a   5.31701859
_cell_length_b   5.31701859
_cell_length_c   14.15665148
_cell_angle_alpha   90.00000000
_cell_angle_beta   90.00000000
_cell_angle_gamma   120.00000000
_symmetry_Int_Tables_number   1
_chemical_formula_structural   NiSnO3
_chemical_formula_sum   'Ni6 Sn6 O18'
_cell_volume   346.59917917
_cell_formula_units_Z   6
loop_
 _symmetry_equiv_pos_site_id
 _symmetry_equiv_pos_as_xyz
  1  'x, y, z'
loop_
 _atom_site_type_symbol
 _atom_site_label
 _atom_site_symmetry_multiplicity
 _atom_site_fract_x
 _atom_site_fract_y
 _atom_site_fract_z
 _atom_site_occupancy
  Ni  Ni0  1  0.33333333  0.66666667  0.31320117  1
  Ni  Ni1  1  0.33333333  0.66666667  0.02013217  1
  Ni  Ni2  1  0.00000000  0.00000000  0.64653450  1
  Ni  Ni3  1  0.00000000  0.00000000  0.35346550  1
  Ni  Ni4  1  0.66666667  0.33333333  0.97986783  1
  Ni  Ni5  1  0.66666667  0.33333333  0.68679883  1
  Sn  Sn6  1  0.66666667  0.33333333  0.18713950  1
  Sn  Sn7  1  0.00000000  0.00000000  0.14619383  1
  Sn  Sn8  1  0.33333333  0.66666667  0.52047283  1
  Sn  Sn9  1  0.66666667  0.33333333  0.47952717  1
  Sn  Sn10  1  0.00000000  0.00000000  0.85380617  1
  Sn  Sn11  1  0.33333333  0.66666667  0.81286050  1
  O  O12  1  0.70105833  0.00216467  0.24939917  1
  O  O13  1  0.30110633  0.29894167  0.24939917  1
  O  O14  1  0.66883133  0.63443967  0.08393417  1
  O  O15  1  0.99783533  0.69889367  0.24939917  1
  O  O16  1  0.36556033  0.03439167  0.08393417  1
  O  O17  1  0.96560833  0.33116867  0.08393417  1
  O  O18  1  0.36772500  0.33549800  0.58273250  1
  O  O19  1  0.96777300  0.63227500  0.58273250  1
  O  O20  1  0.33549800  0.96777300  0.41726750  1
  O  O21  1  0.66450200  0.03222700  0.58273250  1
  O  O22  1  0.03222700  0.36772500  0.41726750  1
  O  O23  1  0.63227500  0.66450200  0.41726750  1
  O  O24  1  0.03439167  0.66883133  0.91606583  1
  O  O25  1  0.63443967  0.96560833  0.91606583  1
  O  O26  1  0.00216467  0.30110633  0.75060083  1
  O  O27  1  0.33116867  0.36556033  0.91606583  1
  O  O28  1  0.69889367  0.70105833  0.75060083  1
  O  O29  1  0.29894167  0.99783533  0.75060083  1
