# generated using pymatgen
data_Li2VF6
_symmetry_space_group_name_H-M   'P 1'
_cell_length_a   10.31182200
_cell_length_b   5.38651000
_cell_length_c   4.74410763
_cell_angle_alpha   90.00000000
_cell_angle_beta   107.28899010
_cell_angle_gamma   90.00000000
_symmetry_Int_Tables_number   1
_chemical_formula_structural   Li2VF6
_chemical_formula_sum   'Li4 V2 F12'
_cell_volume   251.60425113
_cell_formula_units_Z   2
loop_
 _symmetry_equiv_pos_site_id
 _symmetry_equiv_pos_as_xyz
  1  'x, y, z'
loop_
 _atom_site_type_symbol
 _atom_site_label
 _atom_site_symmetry_multiplicity
 _atom_site_fract_x
 _atom_site_fract_y
 _atom_site_fract_z
 _atom_site_occupancy
  Li  Li0  1  0.34934700  0.00000000  0.35611100  1
  Li  Li1  1  0.15065300  0.50000000  0.64388900  1
  Li  Li2  1  0.84934700  0.50000000  0.35611100  1
  Li  Li3  1  0.65065300  0.00000000  0.64388900  1
  V  V4  1  0.00000000  0.00000000  0.00000000  1
  V  V5  1  0.50000000  0.50000000  0.00000000  1
  F  F6  1  0.43177700  0.25772600  0.19259600  1
  F  F7  1  0.16649300  0.00000000  0.31444600  1
  F  F8  1  0.06822300  0.75772600  0.80740400  1
  F  F9  1  0.43177700  0.74227400  0.19259600  1
  F  F10  1  0.33350700  0.50000000  0.68555400  1
  F  F11  1  0.06822300  0.24227400  0.80740400  1
  F  F12  1  0.93177700  0.75772600  0.19259600  1
  F  F13  1  0.66649300  0.50000000  0.31444600  1
  F  F14  1  0.56822300  0.25772600  0.80740400  1
  F  F15  1  0.93177700  0.24227400  0.19259600  1
  F  F16  1  0.83350700  0.00000000  0.68555400  1
  F  F17  1  0.56822300  0.74227400  0.80740400  1
