# generated using pymatgen
data_MnZnO3
_symmetry_space_group_name_H-M   'P 1'
_cell_length_a   5.05241399
_cell_length_b   5.05241399
_cell_length_c   13.96592795
_cell_angle_alpha   90.00000000
_cell_angle_beta   90.00000000
_cell_angle_gamma   120.00000000
_symmetry_Int_Tables_number   1
_chemical_formula_structural   MnZnO3
_chemical_formula_sum   'Mn6 Zn6 O18'
_cell_volume   308.74382954
_cell_formula_units_Z   6
loop_
 _symmetry_equiv_pos_site_id
 _symmetry_equiv_pos_as_xyz
  1  'x, y, z'
loop_
 _atom_site_type_symbol
 _atom_site_label
 _atom_site_symmetry_multiplicity
 _atom_site_fract_x
 _atom_site_fract_y
 _atom_site_fract_z
 _atom_site_occupancy
  Mn  Mn0  1  0.33333333  0.66666667  0.32564967  1
  Mn  Mn1  1  0.33333333  0.66666667  0.00768367  1
  Mn  Mn2  1  0.00000000  0.00000000  0.65898300  1
  Mn  Mn3  1  0.00000000  0.00000000  0.34101700  1
  Mn  Mn4  1  0.66666667  0.33333333  0.99231633  1
  Mn  Mn5  1  0.66666667  0.33333333  0.67435033  1
  Zn  Zn6  1  0.66666667  0.33333333  0.20020133  1
  Zn  Zn7  1  0.00000000  0.00000000  0.13313200  1
  Zn  Zn8  1  0.33333333  0.66666667  0.53353467  1
  Zn  Zn9  1  0.66666667  0.33333333  0.46646533  1
  Zn  Zn10  1  0.00000000  0.00000000  0.86686800  1
  Zn  Zn11  1  0.33333333  0.66666667  0.79979867  1
  O  O12  1  0.29131933  0.31736067  0.25586667  1
  O  O13  1  0.02604133  0.70868067  0.25586667  1
  O  O14  1  0.68263933  0.97395867  0.25586667  1
  O  O15  1  0.98402733  0.35937467  0.07746667  1
  O  O16  1  0.64062533  0.62465267  0.07746667  1
  O  O17  1  0.37534733  0.01597267  0.07746667  1
  O  O18  1  0.95798600  0.65069400  0.58920000  1
  O  O19  1  0.69270800  0.04201400  0.58920000  1
  O  O20  1  0.34930600  0.30729200  0.58920000  1
  O  O21  1  0.65069400  0.69270800  0.41080000  1
  O  O22  1  0.30729200  0.95798600  0.41080000  1
  O  O23  1  0.04201400  0.34930600  0.41080000  1
  O  O24  1  0.62465267  0.98402733  0.92253333  1
  O  O25  1  0.35937467  0.37534733  0.92253333  1
  O  O26  1  0.01597267  0.64062533  0.92253333  1
  O  O27  1  0.31736067  0.02604133  0.74413333  1
  O  O28  1  0.97395867  0.29131933  0.74413333  1
  O  O29  1  0.70868067  0.68263933  0.74413333  1
