# generated using pymatgen
data_LiVO2
_symmetry_space_group_name_H-M   'P 1'
_cell_length_a   5.94376385
_cell_length_b   6.27572777
_cell_length_c   8.33616704
_cell_angle_alpha   90.00000000
_cell_angle_beta   90.00000000
_cell_angle_gamma   90.00000000
_symmetry_Int_Tables_number   1
_chemical_formula_structural   LiVO2
_chemical_formula_sum   'Li8 V8 O16'
_cell_volume   310.95106655
_cell_formula_units_Z   8
loop_
 _symmetry_equiv_pos_site_id
 _symmetry_equiv_pos_as_xyz
  1  'x, y, z'
loop_
 _atom_site_type_symbol
 _atom_site_label
 _atom_site_symmetry_multiplicity
 _atom_site_fract_x
 _atom_site_fract_y
 _atom_site_fract_z
 _atom_site_occupancy
  Li  Li0  1  0.00000000  0.75000000  0.30544400  1
  Li  Li1  1  0.50000000  0.75000000  0.19455600  1
  Li  Li2  1  0.50000000  0.50000000  0.00000000  1
  Li  Li3  1  0.50000000  0.00000000  0.00000000  1
  Li  Li4  1  0.50000000  0.25000000  0.80544400  1
  Li  Li5  1  0.00000000  0.25000000  0.69455600  1
  Li  Li6  1  0.00000000  0.00000000  0.50000000  1
  Li  Li7  1  0.00000000  0.50000000  0.50000000  1
  V  V8  1  0.00000000  0.00000000  0.00000000  1
  V  V9  1  0.25000000  0.75000000  0.75000000  1
  V  V10  1  0.00000000  0.50000000  0.00000000  1
  V  V11  1  0.75000000  0.75000000  0.75000000  1
  V  V12  1  0.50000000  0.50000000  0.50000000  1
  V  V13  1  0.75000000  0.25000000  0.25000000  1
  V  V14  1  0.50000000  0.00000000  0.50000000  1
  V  V15  1  0.25000000  0.25000000  0.25000000  1
  O  O16  1  0.26282150  0.75000000  0.49749750  1
  O  O17  1  0.73717850  0.75000000  0.49749750  1
  O  O18  1  0.76282150  0.75000000  0.00250250  1
  O  O19  1  0.23717850  0.75000000  0.00250250  1
  O  O20  1  0.50000000  0.53172750  0.74332250  1
  O  O21  1  0.50000000  0.96827250  0.74332250  1
  O  O22  1  0.00000000  0.96827250  0.75667750  1
  O  O23  1  0.00000000  0.53172750  0.75667750  1
  O  O24  1  0.76282150  0.25000000  0.99749750  1
  O  O25  1  0.23717850  0.25000000  0.99749750  1
  O  O26  1  0.26282150  0.25000000  0.50250250  1
  O  O27  1  0.73717850  0.25000000  0.50250250  1
  O  O28  1  0.00000000  0.03172750  0.24332250  1
  O  O29  1  0.00000000  0.46827250  0.24332250  1
  O  O30  1  0.50000000  0.46827250  0.25667750  1
  O  O31  1  0.50000000  0.03172750  0.25667750  1
