# generated using pymatgen
data_SmCuO3
_symmetry_space_group_name_H-M   'P 1'
_cell_length_a   5.53013011
_cell_length_b   5.53013011
_cell_length_c   12.81960395
_cell_angle_alpha   90.00000000
_cell_angle_beta   90.00000000
_cell_angle_gamma   120.00000000
_symmetry_Int_Tables_number   1
_chemical_formula_structural   SmCuO3
_chemical_formula_sum   'Sm6 Cu6 O18'
_cell_volume   339.52826844
_cell_formula_units_Z   6
loop_
 _symmetry_equiv_pos_site_id
 _symmetry_equiv_pos_as_xyz
  1  'x, y, z'
loop_
 _atom_site_type_symbol
 _atom_site_label
 _atom_site_symmetry_multiplicity
 _atom_site_fract_x
 _atom_site_fract_y
 _atom_site_fract_z
 _atom_site_occupancy
  Sm  Sm0  1  0.33333333  0.66666667  0.91666667  1
  Sm  Sm1  1  0.33333333  0.66666667  0.41666667  1
  Sm  Sm2  1  0.00000000  0.00000000  0.25000000  1
  Sm  Sm3  1  0.00000000  0.00000000  0.75000000  1
  Sm  Sm4  1  0.66666667  0.33333333  0.58333333  1
  Sm  Sm5  1  0.66666667  0.33333333  0.08333333  1
  Cu  Cu6  1  0.00000000  0.00000000  0.00000000  1
  Cu  Cu7  1  0.33333333  0.66666667  0.16666667  1
  Cu  Cu8  1  0.66666667  0.33333333  0.33333333  1
  Cu  Cu9  1  0.00000000  0.00000000  0.50000000  1
  Cu  Cu10  1  0.33333333  0.66666667  0.66666667  1
  Cu  Cu11  1  0.66666667  0.33333333  0.83333333  1
  O  O12  1  0.66666667  0.75683133  0.08333333  1
  O  O13  1  0.42349800  0.42349800  0.25000000  1
  O  O14  1  0.57650200  0.00000000  0.25000000  1
  O  O15  1  0.09016467  0.33333333  0.08333333  1
  O  O16  1  0.24316867  0.90983533  0.08333333  1
  O  O17  1  0.00000000  0.57650200  0.25000000  1
  O  O18  1  0.33333333  0.09016467  0.41666667  1
  O  O19  1  0.09016467  0.75683133  0.58333333  1
  O  O20  1  0.24316867  0.33333333  0.58333333  1
  O  O21  1  0.75683133  0.66666667  0.41666667  1
  O  O22  1  0.90983533  0.24316867  0.41666667  1
  O  O23  1  0.66666667  0.90983533  0.58333333  1
  O  O24  1  0.00000000  0.42349800  0.75000000  1
  O  O25  1  0.75683133  0.09016467  0.91666667  1
  O  O26  1  0.90983533  0.66666667  0.91666667  1
  O  O27  1  0.42349800  0.00000000  0.75000000  1
  O  O28  1  0.57650200  0.57650200  0.75000000  1
  O  O29  1  0.33333333  0.24316867  0.91666667  1
