# generated using pymatgen
data_Y2CuO4
_symmetry_space_group_name_H-M   'P 1'
_cell_length_a   5.51300800
_cell_length_b   11.91410400
_cell_length_c   5.51005000
_cell_angle_alpha   90.00000000
_cell_angle_beta   90.00000000
_cell_angle_gamma   90.00000000
_symmetry_Int_Tables_number   1
_chemical_formula_structural   Y2CuO4
_chemical_formula_sum   'Y8 Cu4 O16'
_cell_volume   361.91413829
_cell_formula_units_Z   4
loop_
 _symmetry_equiv_pos_site_id
 _symmetry_equiv_pos_as_xyz
  1  'x, y, z'
loop_
 _atom_site_type_symbol
 _atom_site_label
 _atom_site_symmetry_multiplicity
 _atom_site_fract_x
 _atom_site_fract_y
 _atom_site_fract_z
 _atom_site_occupancy
  Y  Y0  1  0.00000000  0.34578100  0.00000000  1
  Y  Y1  1  0.50000000  0.15421900  0.00000000  1
  Y  Y2  1  0.00000000  0.15421900  0.50000000  1
  Y  Y3  1  0.50000000  0.34578100  0.50000000  1
  Y  Y4  1  0.50000000  0.84578100  0.00000000  1
  Y  Y5  1  0.00000000  0.65421900  0.00000000  1
  Y  Y6  1  0.50000000  0.65421900  0.50000000  1
  Y  Y7  1  0.00000000  0.84578100  0.50000000  1
  Cu  Cu8  1  0.00000000  0.00000000  0.00000000  1
  Cu  Cu9  1  0.50000000  0.00000000  0.50000000  1
  Cu  Cu10  1  0.50000000  0.50000000  0.00000000  1
  Cu  Cu11  1  0.00000000  0.50000000  0.50000000  1
  O  O12  1  0.29527300  0.00000000  0.20530200  1
  O  O13  1  0.24160400  0.25000000  0.25000000  1
  O  O14  1  0.74160400  0.25000000  0.25000000  1
  O  O15  1  0.79527300  0.00000000  0.29469800  1
  O  O16  1  0.20472700  0.00000000  0.70530200  1
  O  O17  1  0.75839600  0.25000000  0.75000000  1
  O  O18  1  0.25839600  0.25000000  0.75000000  1
  O  O19  1  0.70472700  0.00000000  0.79469800  1
  O  O20  1  0.79527300  0.50000000  0.20530200  1
  O  O21  1  0.74160400  0.75000000  0.25000000  1
  O  O22  1  0.24160400  0.75000000  0.25000000  1
  O  O23  1  0.29527300  0.50000000  0.29469800  1
  O  O24  1  0.70472700  0.50000000  0.70530200  1
  O  O25  1  0.25839600  0.75000000  0.75000000  1
  O  O26  1  0.75839600  0.75000000  0.75000000  1
  O  O27  1  0.20472700  0.50000000  0.79469800  1
