# generated using pymatgen
data_Li6MnVP2(CO7)2
_symmetry_space_group_name_H-M   'P 1'
_cell_length_a   5.00724427
_cell_length_b   6.60132903
_cell_length_c   8.56475771
_cell_angle_alpha   90.00000000
_cell_angle_beta   96.41794784
_cell_angle_gamma   90.00000000
_symmetry_Int_Tables_number   1
_chemical_formula_structural   Li6MnVP2(CO7)2
_chemical_formula_sum   'Li6 Mn1 V1 P2 C2 O14'
_cell_volume   281.32927787
_cell_formula_units_Z   1
loop_
 _symmetry_equiv_pos_site_id
 _symmetry_equiv_pos_as_xyz
  1  'x, y, z'
loop_
 _atom_site_type_symbol
 _atom_site_label
 _atom_site_symmetry_multiplicity
 _atom_site_fract_x
 _atom_site_fract_y
 _atom_site_fract_z
 _atom_site_occupancy
  Li  Li0  1  0.79429700  0.50000000  0.89560100  1
  Li  Li1  1  0.20287600  0.00000000  0.10409000  1
  Li  Li2  1  0.26729500  0.27416300  0.72537700  1
  Li  Li3  1  0.26729500  0.72583700  0.72537700  1
  Li  Li4  1  0.73372300  0.77329200  0.27513700  1
  Li  Li5  1  0.73372300  0.22670800  0.27513700  1
  Mn  Mn6  1  0.21828600  0.50000000  0.33687200  1
  V  V7  1  0.79194700  0.00000000  0.67286700  1
  P  P8  1  0.73262100  0.50000000  0.59096900  1
  P  P9  1  0.26705700  0.00000000  0.41033400  1
  C  C10  1  0.67123100  0.00000000  0.96231200  1
  C  C11  1  0.32707500  0.50000000  0.03505700  1
  O  O12  1  0.91981400  0.00000000  0.93249600  1
  O  O13  1  0.39450200  0.50000000  0.89270000  1
  O  O14  1  0.48769600  0.00000000  0.84090900  1
  O  O15  1  0.16876900  0.00000000  0.57440700  1
  O  O16  1  0.41811300  0.50000000  0.57435700  1
  O  O17  1  0.58160700  0.00000000  0.43069700  1
  O  O18  1  0.82156200  0.50000000  0.42420000  1
  O  O19  1  0.51280600  0.50000000  0.15529900  1
  O  O20  1  0.60616100  0.00000000  0.10452200  1
  O  O21  1  0.07856800  0.50000000  0.06199000  1
  O  O22  1  0.84274000  0.31645900  0.69254000  1
  O  O23  1  0.84274000  0.68354100  0.69254000  1
  O  O24  1  0.15880700  0.18373700  0.30717100  1
  O  O25  1  0.15880700  0.81626300  0.30717100  1
