# generated using pymatgen
data_Li4Fe2Co3Cu3O16
_symmetry_space_group_name_H-M   'P 1'
_cell_length_a   10.09289600
_cell_length_b   5.75496000
_cell_length_c   9.40385150
_cell_angle_alpha   90.00000000
_cell_angle_beta   91.83330101
_cell_angle_gamma   90.00000000
_symmetry_Int_Tables_number   1
_chemical_formula_structural   Li4Fe2Co3Cu3O16
_chemical_formula_sum   'Li8 Fe4 Co6 Cu6 O32'
_cell_volume   545.93572297
_cell_formula_units_Z   2
loop_
 _symmetry_equiv_pos_site_id
 _symmetry_equiv_pos_as_xyz
  1  'x, y, z'
loop_
 _atom_site_type_symbol
 _atom_site_label
 _atom_site_symmetry_multiplicity
 _atom_site_fract_x
 _atom_site_fract_y
 _atom_site_fract_z
 _atom_site_occupancy
  Li  Li0  1  0.66700000  0.00000000  0.10750300  1
  Li  Li1  1  0.99872500  0.00000000  0.00249900  1
  Li  Li2  1  0.50058600  0.50000000  0.50509800  1
  Li  Li3  1  0.83645100  0.50000000  0.60613300  1
  Li  Li4  1  0.16700000  0.50000000  0.10750300  1
  Li  Li5  1  0.49872500  0.50000000  0.00249900  1
  Li  Li6  1  0.00058600  0.00000000  0.50509800  1
  Li  Li7  1  0.33645100  0.00000000  0.60613300  1
  Fe  Fe8  1  0.66599700  0.00000000  0.50780400  1
  Fe  Fe9  1  0.83008300  0.50000000  0.00732200  1
  Fe  Fe10  1  0.16599700  0.50000000  0.50780400  1
  Fe  Fe11  1  0.33008300  0.00000000  0.00732200  1
  Co  Co12  1  0.83017600  0.00000000  0.78707000  1
  Co  Co13  1  0.91546900  0.25333500  0.28671000  1
  Co  Co14  1  0.91546900  0.74666500  0.28671000  1
  Co  Co15  1  0.33017600  0.50000000  0.78707000  1
  Co  Co16  1  0.41546900  0.75333500  0.28671000  1
  Co  Co17  1  0.41546900  0.24666500  0.28671000  1
  Cu  Cu18  1  0.58439550  0.75407150  0.78562400  1
  Cu  Cu19  1  0.58439550  0.24592850  0.78562400  1
  Cu  Cu20  1  0.66857000  0.50000000  0.28555200  1
  Cu  Cu21  1  0.08439550  0.25407150  0.78562400  1
  Cu  Cu22  1  0.08439550  0.74592850  0.78562400  1
  Cu  Cu23  1  0.16857000  0.00000000  0.28555200  1
  O  O24  1  0.57507800  0.74743700  0.39833100  1
  O  O25  1  0.52057900  0.00000000  0.65812100  1
  O  O26  1  0.67288600  0.00000000  0.89059600  1
  O  O27  1  0.99280500  0.00000000  0.69429900  1
  O  O28  1  0.99391700  0.00000000  0.19132400  1
  O  O29  1  0.57507800  0.25256300  0.39833100  1
  O  O30  1  0.74827900  0.78183900  0.66125700  1
  O  O31  1  0.74827900  0.21816100  0.66125700  1
  O  O32  1  0.65985700  0.50000000  0.90371700  1
  O  O33  1  0.84104300  0.00000000  0.39053300  1
  O  O34  1  0.76644800  0.27221600  0.16446600  1
  O  O35  1  0.76644800  0.72778400  0.16446600  1
  O  O36  1  0.83890200  0.50000000  0.39070400  1
  O  O37  1  0.91013200  0.24087400  0.89867600  1
  O  O38  1  0.98121900  0.50000000  0.17360900  1
  O  O39  1  0.91013200  0.75912600  0.89867600  1
  O  O40  1  0.07507800  0.24743700  0.39833100  1
  O  O41  1  0.02057900  0.50000000  0.65812100  1
  O  O42  1  0.17288600  0.50000000  0.89059600  1
  O  O43  1  0.49280500  0.50000000  0.69429900  1
  O  O44  1  0.49391700  0.50000000  0.19132400  1
  O  O45  1  0.07507800  0.75256300  0.39833100  1
  O  O46  1  0.24827900  0.28183900  0.66125700  1
  O  O47  1  0.24827900  0.71816100  0.66125700  1
  O  O48  1  0.15985700  0.00000000  0.90371700  1
  O  O49  1  0.34104300  0.50000000  0.39053300  1
  O  O50  1  0.26644800  0.77221600  0.16446600  1
  O  O51  1  0.26644800  0.22778400  0.16446600  1
  O  O52  1  0.33890200  0.00000000  0.39070400  1
  O  O53  1  0.41013200  0.74087400  0.89867600  1
  O  O54  1  0.48121900  0.00000000  0.17360900  1
  O  O55  1  0.41013200  0.25912600  0.89867600  1
