# generated using pymatgen
data_Li3Fe3OF7
_symmetry_space_group_name_H-M   'P 1'
_cell_length_a   10.75008800
_cell_length_b   5.89991200
_cell_length_c   6.25406965
_cell_angle_alpha   90.00000000
_cell_angle_beta   124.38943058
_cell_angle_gamma   90.00000000
_symmetry_Int_Tables_number   1
_chemical_formula_structural   Li3Fe3OF7
_chemical_formula_sum   'Li6 Fe6 O2 F14'
_cell_volume   327.33225608
_cell_formula_units_Z   2
loop_
 _symmetry_equiv_pos_site_id
 _symmetry_equiv_pos_as_xyz
  1  'x, y, z'
loop_
 _atom_site_type_symbol
 _atom_site_label
 _atom_site_symmetry_multiplicity
 _atom_site_fract_x
 _atom_site_fract_y
 _atom_site_fract_z
 _atom_site_occupancy
  Li  Li0  1  0.88216000  0.50000000  0.65099800  1
  Li  Li1  1  0.50372100  0.50000000  0.00652400  1
  Li  Li2  1  0.86994300  0.50000000  0.11047900  1
  Li  Li3  1  0.38216000  0.00000000  0.65099800  1
  Li  Li4  1  0.00372100  0.00000000  0.00652400  1
  Li  Li5  1  0.36994300  0.00000000  0.11047900  1
  Fe  Fe6  1  0.74953000  0.00000000  0.21311500  1
  Fe  Fe7  1  0.13026350  0.28207350  0.64045200  1
  Fe  Fe8  1  0.13026350  0.71792650  0.64045200  1
  Fe  Fe9  1  0.24953000  0.50000000  0.21311500  1
  Fe  Fe10  1  0.63026350  0.78207350  0.64045200  1
  Fe  Fe11  1  0.63026350  0.21792650  0.64045200  1
  O  O12  1  0.10492700  0.50000000  0.84667000  1
  O  O13  1  0.60492700  0.00000000  0.84667000  1
  F  F14  1  0.88899600  0.26821700  0.38629300  1
  F  F15  1  0.88899600  0.73178300  0.38629300  1
  F  F16  1  0.13681500  0.00000000  0.87962500  1
  F  F17  1  0.36251400  0.75751200  0.86546800  1
  F  F18  1  0.13018200  0.00000000  0.41483800  1
  F  F19  1  0.36251400  0.24248800  0.86546800  1
  F  F20  1  0.10917700  0.50000000  0.34332400  1
  F  F21  1  0.38899600  0.76821700  0.38629300  1
  F  F22  1  0.38899600  0.23178300  0.38629300  1
  F  F23  1  0.63681500  0.50000000  0.87962500  1
  F  F24  1  0.86251400  0.25751200  0.86546800  1
  F  F25  1  0.63018200  0.50000000  0.41483800  1
  F  F26  1  0.86251400  0.74248800  0.86546800  1
  F  F27  1  0.60917700  0.00000000  0.34332400  1
