# generated using pymatgen
data_Fe4O7F
_symmetry_space_group_name_H-M   'P 1'
_cell_length_a   6.02905800
_cell_length_b   12.83350400
_cell_length_c   6.63558400
_cell_angle_alpha   90.00000000
_cell_angle_beta   90.00000000
_cell_angle_gamma   90.00000000
_symmetry_Int_Tables_number   1
_chemical_formula_structural   Fe4O7F
_chemical_formula_sum   'Fe16 O28 F4'
_cell_volume   513.42127801
_cell_formula_units_Z   4
loop_
 _symmetry_equiv_pos_site_id
 _symmetry_equiv_pos_as_xyz
  1  'x, y, z'
loop_
 _atom_site_type_symbol
 _atom_site_label
 _atom_site_symmetry_multiplicity
 _atom_site_fract_x
 _atom_site_fract_y
 _atom_site_fract_z
 _atom_site_occupancy
  Fe  Fe0  1  0.00000000  0.62434300  0.02061900  1
  Fe  Fe1  1  0.50000000  0.62561100  0.99330100  1
  Fe  Fe2  1  0.25949550  0.62507950  0.49217200  1
  Fe  Fe3  1  0.74050450  0.62507950  0.49217200  1
  Fe  Fe4  1  0.24050450  0.87492050  0.99217200  1
  Fe  Fe5  1  0.75949550  0.87492050  0.99217200  1
  Fe  Fe6  1  0.50000000  0.87565700  0.52061900  1
  Fe  Fe7  1  0.00000000  0.87438900  0.49330100  1
  Fe  Fe8  1  0.50000000  0.12434300  0.02061900  1
  Fe  Fe9  1  0.00000000  0.12561100  0.99330100  1
  Fe  Fe10  1  0.75949550  0.12507950  0.49217200  1
  Fe  Fe11  1  0.24050450  0.12507950  0.49217200  1
  Fe  Fe12  1  0.74050450  0.37492050  0.99217200  1
  Fe  Fe13  1  0.25949550  0.37492050  0.99217200  1
  Fe  Fe14  1  0.00000000  0.37565700  0.52061900  1
  Fe  Fe15  1  0.50000000  0.37438900  0.49330100  1
  O  O16  1  0.74753800  0.52821000  0.99920800  1
  O  O17  1  0.25246200  0.52821000  0.99920800  1
  O  O18  1  0.00000000  0.62404300  0.31743200  1
  O  O19  1  0.50000000  0.62594300  0.29694200  1
  O  O20  1  0.00000000  0.87333300  0.18775900  1
  O  O21  1  0.50000000  0.62666700  0.68775900  1
  O  O22  1  0.25135300  0.72170900  0.99970400  1
  O  O23  1  0.74864700  0.72170900  0.99970400  1
  O  O24  1  0.24753800  0.97179000  0.49920800  1
  O  O25  1  0.75246200  0.97179000  0.49920800  1
  O  O26  1  0.75135300  0.77829100  0.49970400  1
  O  O27  1  0.24864700  0.77829100  0.49970400  1
  O  O28  1  0.50000000  0.87595700  0.81743200  1
  O  O29  1  0.00000000  0.87405700  0.79694200  1
  O  O30  1  0.24753800  0.02821000  0.99920800  1
  O  O31  1  0.75246200  0.02821000  0.99920800  1
  O  O32  1  0.50000000  0.12404300  0.31743200  1
  O  O33  1  0.00000000  0.12594300  0.29694200  1
  O  O34  1  0.50000000  0.37333300  0.18775900  1
  O  O35  1  0.00000000  0.12666700  0.68775900  1
  O  O36  1  0.75135300  0.22170900  0.99970400  1
  O  O37  1  0.24864700  0.22170900  0.99970400  1
  O  O38  1  0.74753800  0.47179000  0.49920800  1
  O  O39  1  0.25246200  0.47179000  0.49920800  1
  O  O40  1  0.25135300  0.27829100  0.49970400  1
  O  O41  1  0.74864700  0.27829100  0.49970400  1
  O  O42  1  0.00000000  0.37595700  0.81743200  1
  O  O43  1  0.50000000  0.37405700  0.79694200  1
  F  F44  1  0.00000000  0.62397100  0.70177900  1
  F  F45  1  0.50000000  0.87602900  0.20177900  1
  F  F46  1  0.50000000  0.12397100  0.70177900  1
  F  F47  1  0.00000000  0.37602900  0.20177900  1
