# generated using pymatgen
data_Li6CoNi9O20
_symmetry_space_group_name_H-M   'P 1'
_cell_length_a   22.95554600
_cell_length_b   2.83093600
_cell_length_c   11.71624065
_cell_angle_alpha   90.00000000
_cell_angle_beta   114.35299567
_cell_angle_gamma   90.00000000
_symmetry_Int_Tables_number   1
_chemical_formula_structural   Li6CoNi9O20
_chemical_formula_sum   'Li12 Co2 Ni18 O40'
_cell_volume   693.64130858
_cell_formula_units_Z   2
loop_
 _symmetry_equiv_pos_site_id
 _symmetry_equiv_pos_as_xyz
  1  'x, y, z'
loop_
 _atom_site_type_symbol
 _atom_site_label
 _atom_site_symmetry_multiplicity
 _atom_site_fract_x
 _atom_site_fract_y
 _atom_site_fract_z
 _atom_site_occupancy
  Li  Li0  1  0.20731600  0.50000000  0.16809800  1
  Li  Li1  1  0.09813300  0.00000000  0.44839100  1
  Li  Li2  1  0.29268400  0.00000000  0.83190200  1
  Li  Li3  1  0.09130600  0.00000000  0.93590700  1
  Li  Li4  1  0.40869400  0.50000000  0.06409300  1
  Li  Li5  1  0.40186700  0.50000000  0.55160900  1
  Li  Li6  1  0.70731600  0.00000000  0.16809800  1
  Li  Li7  1  0.59813300  0.50000000  0.44839100  1
  Li  Li8  1  0.79268400  0.50000000  0.83190200  1
  Li  Li9  1  0.59130600  0.50000000  0.93590700  1
  Li  Li10  1  0.90869400  0.00000000  0.06409300  1
  Li  Li11  1  0.90186700  0.00000000  0.55160900  1
  Co  Co12  1  0.00000000  0.50000000  0.50000000  1
  Co  Co13  1  0.50000000  0.00000000  0.50000000  1
  Ni  Ni14  1  0.20216900  0.50000000  0.40004800  1
  Ni  Ni15  1  0.20032500  0.50000000  0.90295500  1
  Ni  Ni16  1  0.00000000  0.50000000  0.00000000  1
  Ni  Ni17  1  0.40076700  0.50000000  0.29963500  1
  Ni  Ni18  1  0.29967500  0.00000000  0.09704500  1
  Ni  Ni19  1  0.09805800  0.00000000  0.20177800  1
  Ni  Ni20  1  0.40194200  0.50000000  0.79822200  1
  Ni  Ni21  1  0.29783100  0.00000000  0.59995200  1
  Ni  Ni22  1  0.09923300  0.00000000  0.70036500  1
  Ni  Ni23  1  0.70216900  0.00000000  0.40004800  1
  Ni  Ni24  1  0.70032500  0.00000000  0.90295500  1
  Ni  Ni25  1  0.50000000  0.00000000  0.00000000  1
  Ni  Ni26  1  0.90076700  0.00000000  0.29963500  1
  Ni  Ni27  1  0.79967500  0.50000000  0.09704500  1
  Ni  Ni28  1  0.59805800  0.50000000  0.20177800  1
  Ni  Ni29  1  0.90194200  0.00000000  0.79822200  1
  Ni  Ni30  1  0.79783100  0.50000000  0.59995200  1
  Ni  Ni31  1  0.59923300  0.50000000  0.70036500  1
  O  O32  1  0.40853900  0.00000000  0.92515300  1
  O  O33  1  0.38682600  0.00000000  0.66842500  1
  O  O34  1  0.29996100  0.50000000  0.20117700  1
  O  O35  1  0.30130800  0.50000000  0.71104900  1
  O  O36  1  0.29418600  0.50000000  0.49054400  1
  O  O37  1  0.08999800  0.50000000  0.57705400  1
  O  O38  1  0.41000200  0.00000000  0.42294600  1
  O  O39  1  0.29397800  0.50000000  0.98213200  1
  O  O40  1  0.11193100  0.50000000  0.82949300  1
  O  O41  1  0.11317400  0.50000000  0.33157500  1
  O  O42  1  0.09146100  0.50000000  0.07484700  1
  O  O43  1  0.38806900  0.00000000  0.17050700  1
  O  O44  1  0.20602200  0.00000000  0.01786800  1
  O  O45  1  0.49872900  0.50000000  0.89302800  1
  O  O46  1  0.20581400  0.00000000  0.50945600  1
  O  O47  1  0.19869200  0.00000000  0.28895100  1
  O  O48  1  0.20003900  0.00000000  0.79882300  1
  O  O49  1  0.49924500  0.50000000  0.39325700  1
  O  O50  1  0.00075500  0.00000000  0.60674300  1
  O  O51  1  0.00127100  0.00000000  0.10697200  1
  O  O52  1  0.90853900  0.50000000  0.92515300  1
  O  O53  1  0.88682600  0.50000000  0.66842500  1
  O  O54  1  0.79996100  0.00000000  0.20117700  1
  O  O55  1  0.80130800  0.00000000  0.71104900  1
  O  O56  1  0.79418600  0.00000000  0.49054400  1
  O  O57  1  0.58999800  0.00000000  0.57705400  1
  O  O58  1  0.91000200  0.50000000  0.42294600  1
  O  O59  1  0.79397800  0.00000000  0.98213200  1
  O  O60  1  0.61193100  0.00000000  0.82949300  1
  O  O61  1  0.61317400  0.00000000  0.33157500  1
  O  O62  1  0.59146100  0.00000000  0.07484700  1
  O  O63  1  0.88806900  0.50000000  0.17050700  1
  O  O64  1  0.70602200  0.50000000  0.01786800  1
  O  O65  1  0.99872900  0.00000000  0.89302800  1
  O  O66  1  0.70581400  0.50000000  0.50945600  1
  O  O67  1  0.69869200  0.50000000  0.28895100  1
  O  O68  1  0.70003900  0.50000000  0.79882300  1
  O  O69  1  0.99924500  0.00000000  0.39325700  1
  O  O70  1  0.50075500  0.50000000  0.60674300  1
  O  O71  1  0.50127100  0.50000000  0.10697200  1
