# generated using pymatgen
data_Li4AlCr3O8
_symmetry_space_group_name_H-M   'P 1'
_cell_length_a   10.15999884
_cell_length_b   5.85118028
_cell_length_c   5.14259135
_cell_angle_alpha   90.00000000
_cell_angle_beta   109.17703526
_cell_angle_gamma   90.00000000
_symmetry_Int_Tables_number   1
_chemical_formula_structural   Li4AlCr3O8
_chemical_formula_sum   'Li8 Al2 Cr6 O16'
_cell_volume   288.75189509
_cell_formula_units_Z   2
loop_
 _symmetry_equiv_pos_site_id
 _symmetry_equiv_pos_as_xyz
  1  'x, y, z'
loop_
 _atom_site_type_symbol
 _atom_site_label
 _atom_site_symmetry_multiplicity
 _atom_site_fract_x
 _atom_site_fract_y
 _atom_site_fract_z
 _atom_site_occupancy
  Li  Li0  1  0.25093800  0.50000000  0.50089150  1
  Li  Li1  1  0.74906200  0.50000000  0.49910850  1
  Li  Li2  1  0.50000000  0.74876100  0.50000000  1
  Li  Li3  1  0.50000000  0.25123900  0.50000000  1
  Li  Li4  1  0.75093800  0.00000000  0.50089150  1
  Li  Li5  1  0.24906200  0.00000000  0.49910850  1
  Li  Li6  1  0.00000000  0.24876100  0.50000000  1
  Li  Li7  1  0.00000000  0.75123900  0.50000000  1
  Al  Al8  1  0.50000000  0.50000000  0.00000000  1
  Al  Al9  1  0.00000000  0.00000000  0.00000000  1
  Cr  Cr10  1  0.50000000  0.00000000  0.00000000  1
  Cr  Cr11  1  0.25000000  0.75000000  0.00000000  1
  Cr  Cr12  1  0.75000000  0.75000000  0.00000000  1
  Cr  Cr13  1  0.00000000  0.50000000  0.00000000  1
  Cr  Cr14  1  0.75000000  0.25000000  0.00000000  1
  Cr  Cr15  1  0.25000000  0.25000000  0.00000000  1
  O  O16  1  0.62834900  0.00000000  0.77018350  1
  O  O17  1  0.37165100  0.00000000  0.22981650  1
  O  O18  1  0.62365950  0.50000000  0.77963550  1
  O  O19  1  0.37634050  0.50000000  0.22036450  1
  O  O20  1  0.61768200  0.25901350  0.21955650  1
  O  O21  1  0.61768200  0.74098650  0.21955650  1
  O  O22  1  0.38231800  0.74098650  0.78044350  1
  O  O23  1  0.38231800  0.25901350  0.78044350  1
  O  O24  1  0.12834900  0.50000000  0.77018350  1
  O  O25  1  0.87165100  0.50000000  0.22981650  1
  O  O26  1  0.12365950  0.00000000  0.77963550  1
  O  O27  1  0.87634050  0.00000000  0.22036450  1
  O  O28  1  0.11768200  0.75901350  0.21955650  1
  O  O29  1  0.11768200  0.24098650  0.21955650  1
  O  O30  1  0.88231800  0.24098650  0.78044350  1
  O  O31  1  0.88231800  0.75901350  0.78044350  1
