# generated using pymatgen
data_Li2MnO2F
_symmetry_space_group_name_H-M   'P 1'
_cell_length_a   5.18114062
_cell_length_b   8.89194100
_cell_length_c   9.83955493
_cell_angle_alpha   90.00000000
_cell_angle_beta   100.12237320
_cell_angle_gamma   90.00000000
_symmetry_Int_Tables_number   1
_chemical_formula_structural   Li2MnO2F
_chemical_formula_sum   'Li16 Mn8 O16 F8'
_cell_volume   446.25622550
_cell_formula_units_Z   8
loop_
 _symmetry_equiv_pos_site_id
 _symmetry_equiv_pos_as_xyz
  1  'x, y, z'
loop_
 _atom_site_type_symbol
 _atom_site_label
 _atom_site_symmetry_multiplicity
 _atom_site_fract_x
 _atom_site_fract_y
 _atom_site_fract_z
 _atom_site_occupancy
  Li  Li0  1  0.00000000  0.04266500  0.00000000  1
  Li  Li1  1  0.50000000  0.89596100  0.00000000  1
  Li  Li2  1  0.50000000  0.04051600  0.50000000  1
  Li  Li3  1  0.50000000  0.36246750  0.50000000  1
  Li  Li4  1  0.28158750  0.20114550  0.24827100  1
  Li  Li5  1  0.71841250  0.20114550  0.75172900  1
  Li  Li6  1  0.24632850  0.87731750  0.25601300  1
  Li  Li7  1  0.25367150  0.37731750  0.74398700  1
  Li  Li8  1  0.50000000  0.54266500  0.00000000  1
  Li  Li9  1  0.00000000  0.39596100  0.00000000  1
  Li  Li10  1  0.00000000  0.54051600  0.50000000  1
  Li  Li11  1  0.00000000  0.86246750  0.50000000  1
  Li  Li12  1  0.78158750  0.70114550  0.24827100  1
  Li  Li13  1  0.21841250  0.70114550  0.75172900  1
  Li  Li14  1  0.74632850  0.37731750  0.25601300  1
  Li  Li15  1  0.75367150  0.87731750  0.74398700  1
  Mn  Mn16  1  0.50000000  0.22754100  0.00000000  1
  Mn  Mn17  1  0.00000000  0.18051500  0.50000000  1
  Mn  Mn18  1  0.77335350  0.03782550  0.24528100  1
  Mn  Mn19  1  0.22664650  0.03782550  0.75471900  1
  Mn  Mn20  1  0.00000000  0.72754100  0.00000000  1
  Mn  Mn21  1  0.50000000  0.68051500  0.50000000  1
  Mn  Mn22  1  0.27335350  0.53782550  0.24528100  1
  Mn  Mn23  1  0.72664650  0.53782550  0.75471900  1
  O  O24  1  0.43363450  0.06651550  0.12575500  1
  O  O25  1  0.56636550  0.06651550  0.87424500  1
  O  O26  1  0.60633050  0.38356750  0.87563500  1
  O  O27  1  0.39366950  0.38356750  0.12436500  1
  O  O28  1  0.11204100  0.03501500  0.36571600  1
  O  O29  1  0.38795900  0.53501500  0.63428400  1
  O  O30  1  0.66918300  0.18574500  0.37684600  1
  O  O31  1  0.33081700  0.18574500  0.62315400  1
  O  O32  1  0.93363450  0.56651550  0.12575500  1
  O  O33  1  0.06636550  0.56651550  0.87424500  1
  O  O34  1  0.10633050  0.88356750  0.87563500  1
  O  O35  1  0.89366950  0.88356750  0.12436500  1
  O  O36  1  0.61204100  0.53501500  0.36571600  1
  O  O37  1  0.88795900  0.03501500  0.63428400  1
  O  O38  1  0.16918300  0.68574500  0.37684600  1
  O  O39  1  0.83081700  0.68574500  0.62315400  1
  F  F40  1  0.08949200  0.22418900  0.87683000  1
  F  F41  1  0.41050800  0.72418900  0.12317000  1
  F  F42  1  0.13147350  0.36280950  0.38153400  1
  F  F43  1  0.36852650  0.86280950  0.61846600  1
  F  F44  1  0.58949200  0.72418900  0.87683000  1
  F  F45  1  0.91050800  0.22418900  0.12317000  1
  F  F46  1  0.63147350  0.86280950  0.38153400  1
  F  F47  1  0.86852650  0.36280950  0.61846600  1
