# generated using pymatgen
data_Hf(MoO4)2
_symmetry_space_group_name_H-M   'P 1'
_cell_length_a   11.47542600
_cell_length_b   8.09010400
_cell_length_c   7.55903949
_cell_angle_alpha   90.00000000
_cell_angle_beta   122.30819197
_cell_angle_gamma   90.00000000
_symmetry_Int_Tables_number   1
_chemical_formula_structural   Hf(MoO4)2
_chemical_formula_sum   'Hf4 Mo8 O32'
_cell_volume   593.11858748
_cell_formula_units_Z   4
loop_
 _symmetry_equiv_pos_site_id
 _symmetry_equiv_pos_as_xyz
  1  'x, y, z'
loop_
 _atom_site_type_symbol
 _atom_site_label
 _atom_site_symmetry_multiplicity
 _atom_site_fract_x
 _atom_site_fract_y
 _atom_site_fract_z
 _atom_site_occupancy
  Hf  Hf0  1  0.00000000  0.02049800  0.25000000  1
  Hf  Hf1  1  0.00000000  0.97950200  0.75000000  1
  Hf  Hf2  1  0.50000000  0.52049800  0.25000000  1
  Hf  Hf3  1  0.50000000  0.47950200  0.75000000  1
  Mo  Mo4  1  0.78464850  0.72226150  0.24179900  1
  Mo  Mo5  1  0.78464850  0.27773850  0.74179900  1
  Mo  Mo6  1  0.21535150  0.27773850  0.75820100  1
  Mo  Mo7  1  0.21535150  0.72226150  0.25820100  1
  Mo  Mo8  1  0.28464850  0.22226150  0.24179900  1
  Mo  Mo9  1  0.28464850  0.77773850  0.74179900  1
  Mo  Mo10  1  0.71535150  0.77773850  0.75820100  1
  Mo  Mo11  1  0.71535150  0.22226150  0.25820100  1
  O  O12  1  0.85391900  0.80140400  0.71220200  1
  O  O13  1  0.84516600  0.84116300  0.06226400  1
  O  O14  1  0.85391900  0.19859600  0.21220200  1
  O  O15  1  0.87466400  0.45861300  0.83461100  1
  O  O16  1  0.90790250  0.11193950  0.92228800  1
  O  O17  1  0.14608100  0.80140400  0.78779800  1
  O  O18  1  0.09209750  0.88806050  0.07771200  1
  O  O19  1  0.09209750  0.11193950  0.57771200  1
  O  O20  1  0.87466400  0.54138700  0.33461100  1
  O  O21  1  0.14608100  0.19859600  0.28779800  1
  O  O22  1  0.90790250  0.88806050  0.42228800  1
  O  O23  1  0.15483400  0.84116300  0.43773600  1
  O  O24  1  0.15483400  0.15883700  0.93773600  1
  O  O25  1  0.12533600  0.45861300  0.66538900  1
  O  O26  1  0.12533600  0.54138700  0.16538900  1
  O  O27  1  0.84516600  0.15883700  0.56226400  1
  O  O28  1  0.35391900  0.30140400  0.71220200  1
  O  O29  1  0.34516600  0.34116300  0.06226400  1
  O  O30  1  0.35391900  0.69859600  0.21220200  1
  O  O31  1  0.37466400  0.95861300  0.83461100  1
  O  O32  1  0.40790250  0.61193950  0.92228800  1
  O  O33  1  0.64608100  0.30140400  0.78779800  1
  O  O34  1  0.59209750  0.38806050  0.07771200  1
  O  O35  1  0.59209750  0.61193950  0.57771200  1
  O  O36  1  0.37466400  0.04138700  0.33461100  1
  O  O37  1  0.64608100  0.69859600  0.28779800  1
  O  O38  1  0.40790250  0.38806050  0.42228800  1
  O  O39  1  0.65483400  0.34116300  0.43773600  1
  O  O40  1  0.65483400  0.65883700  0.93773600  1
  O  O41  1  0.62533600  0.95861300  0.66538900  1
  O  O42  1  0.62533600  0.04138700  0.16538900  1
  O  O43  1  0.34516600  0.65883700  0.56226400  1
