# generated using pymatgen
data_Ti2Fe4O9
_symmetry_space_group_name_H-M   'P 1'
_cell_length_a   9.75535400
_cell_length_b   5.16230200
_cell_length_c   12.90578530
_cell_angle_alpha   90.00000000
_cell_angle_beta   93.52806030
_cell_angle_gamma   90.00000000
_symmetry_Int_Tables_number   1
_chemical_formula_structural   Ti2Fe4O9
_chemical_formula_sum   'Ti8 Fe16 O36'
_cell_volume   648.70465250
_cell_formula_units_Z   4
loop_
 _symmetry_equiv_pos_site_id
 _symmetry_equiv_pos_as_xyz
  1  'x, y, z'
loop_
 _atom_site_type_symbol
 _atom_site_label
 _atom_site_symmetry_multiplicity
 _atom_site_fract_x
 _atom_site_fract_y
 _atom_site_fract_z
 _atom_site_occupancy
  Ti  Ti0  1  0.69256250  0.49529150  0.45514300  1
  Ti  Ti1  1  0.69256250  0.50470850  0.95514300  1
  Ti  Ti2  1  0.86059400  0.00493700  0.27835300  1
  Ti  Ti3  1  0.86059400  0.99506300  0.77835300  1
  Ti  Ti4  1  0.19256250  0.99529150  0.45514300  1
  Ti  Ti5  1  0.19256250  0.00470850  0.95514300  1
  Ti  Ti6  1  0.36059400  0.50493700  0.27835300  1
  Ti  Ti7  1  0.36059400  0.49506300  0.77835300  1
  Fe  Fe8  1  0.64125500  0.50502000  0.21713800  1
  Fe  Fe9  1  0.97209150  0.49999350  0.38218600  1
  Fe  Fe10  1  0.64125500  0.49498000  0.71713800  1
  Fe  Fe11  1  0.97209150  0.50000650  0.88218600  1
  Fe  Fe12  1  0.52970600  0.00181300  0.11886300  1
  Fe  Fe13  1  0.81139800  0.99971700  0.04652200  1
  Fe  Fe14  1  0.52970600  0.99818700  0.61886300  1
  Fe  Fe15  1  0.81139800  0.00028300  0.54652200  1
  Fe  Fe16  1  0.14125500  0.00502000  0.21713800  1
  Fe  Fe17  1  0.47209150  0.99999350  0.38218600  1
  Fe  Fe18  1  0.14125500  0.99498000  0.71713800  1
  Fe  Fe19  1  0.47209150  0.00000650  0.88218600  1
  Fe  Fe20  1  0.02970600  0.50181300  0.11886300  1
  Fe  Fe21  1  0.31139800  0.49971700  0.04652200  1
  Fe  Fe22  1  0.02970600  0.49818700  0.61886300  1
  Fe  Fe23  1  0.31139800  0.50028300  0.54652200  1
  O  O24  1  0.94995600  0.16255500  0.65682700  1
  O  O25  1  0.83088200  0.20037400  0.40336100  1
  O  O26  1  0.99387900  0.30916500  0.24862900  1
  O  O27  1  0.88227100  0.37486000  0.01716600  1
  O  O28  1  0.78846150  0.32242250  0.82024800  1
  O  O29  1  0.78846150  0.67757750  0.32024800  1
  O  O30  1  0.88227100  0.62514000  0.51716600  1
  O  O31  1  0.55524400  0.64823500  0.86129500  1
  O  O32  1  0.65975850  0.69134150  0.07184400  1
  O  O33  1  0.99387900  0.69083500  0.74862900  1
  O  O34  1  0.83088200  0.79962600  0.90336100  1
  O  O35  1  0.94995600  0.83744500  0.15682700  1
  O  O36  1  0.61312700  0.82224100  0.48037600  1
  O  O37  1  0.71881350  0.87058350  0.69204800  1
  O  O38  1  0.71881350  0.12941650  0.19204800  1
  O  O39  1  0.61312700  0.17775900  0.98037600  1
  O  O40  1  0.65975850  0.30865850  0.57184400  1
  O  O41  1  0.55524400  0.35176500  0.36129500  1
  O  O42  1  0.44995600  0.66255500  0.65682700  1
  O  O43  1  0.33088200  0.70037400  0.40336100  1
  O  O44  1  0.49387900  0.80916500  0.24862900  1
  O  O45  1  0.38227100  0.87486000  0.01716600  1
  O  O46  1  0.28846150  0.82242250  0.82024800  1
  O  O47  1  0.28846150  0.17757750  0.32024800  1
  O  O48  1  0.38227100  0.12514000  0.51716600  1
  O  O49  1  0.05524400  0.14823500  0.86129500  1
  O  O50  1  0.15975850  0.19134150  0.07184400  1
  O  O51  1  0.49387900  0.19083500  0.74862900  1
  O  O52  1  0.33088200  0.29962600  0.90336100  1
  O  O53  1  0.44995600  0.33744500  0.15682700  1
  O  O54  1  0.11312700  0.32224100  0.48037600  1
  O  O55  1  0.21881350  0.37058350  0.69204800  1
  O  O56  1  0.21881350  0.62941650  0.19204800  1
  O  O57  1  0.11312700  0.67775900  0.98037600  1
  O  O58  1  0.15975850  0.80865850  0.57184400  1
  O  O59  1  0.05524400  0.85176500  0.36129500  1
