# generated using pymatgen
data_LiMn2(PO4)2
_symmetry_space_group_name_H-M   'P 1'
_cell_length_a   5.08679025
_cell_length_b   7.22784080
_cell_length_c   9.71376982
_cell_angle_alpha   90.00000000
_cell_angle_beta   94.27930162
_cell_angle_gamma   90.00000000
_symmetry_Int_Tables_number   1
_chemical_formula_structural   LiMn2(PO4)2
_chemical_formula_sum   'Li2 Mn4 P4 O16'
_cell_volume   356.14576093
_cell_formula_units_Z   2
loop_
 _symmetry_equiv_pos_site_id
 _symmetry_equiv_pos_as_xyz
  1  'x, y, z'
loop_
 _atom_site_type_symbol
 _atom_site_label
 _atom_site_symmetry_multiplicity
 _atom_site_fract_x
 _atom_site_fract_y
 _atom_site_fract_z
 _atom_site_occupancy
  Li  Li0  1  0.73755000  0.76808450  0.34843700  1
  Li  Li1  1  0.73755000  0.23191550  0.84843700  1
  Mn  Mn2  1  0.74922500  0.27218650  0.31943700  1
  Mn  Mn3  1  0.74922500  0.72781350  0.81943700  1
  Mn  Mn4  1  0.19495800  0.70956050  0.12844100  1
  Mn  Mn5  1  0.19495800  0.29043950  0.62844100  1
  P  P6  1  0.73620100  0.97535750  0.08459500  1
  P  P7  1  0.73620100  0.02464250  0.58459500  1
  P  P8  1  0.27281200  0.51578450  0.42119600  1
  P  P9  1  0.27281200  0.48421550  0.92119600  1
  O  O10  1  0.26274000  0.44914050  0.07913600  1
  O  O11  1  0.26274000  0.55085950  0.57913600  1
  O  O12  1  0.03396700  0.94246750  0.13754200  1
  O  O13  1  0.03396700  0.05753250  0.63754200  1
  O  O14  1  0.58100800  0.81356250  0.14820000  1
  O  O15  1  0.58100800  0.18643750  0.64820000  1
  O  O16  1  0.66655300  0.17041850  0.12970400  1
  O  O17  1  0.66655300  0.82958150  0.62970400  1
  O  O18  1  0.10267900  0.64882950  0.32569500  1
  O  O19  1  0.10267900  0.35117050  0.82569500  1
  O  O20  1  0.14594700  0.31350050  0.41558000  1
  O  O21  1  0.14594700  0.68649950  0.91558000  1
  O  O22  1  0.55530500  0.51432150  0.37516000  1
  O  O23  1  0.55530500  0.48567850  0.87516000  1
  O  O24  1  0.70164700  0.02864850  0.42513500  1
  O  O25  1  0.70164700  0.97135150  0.92513500  1
