# generated using pymatgen
data_Na3Li3Mn2P2(CO7)2
_symmetry_space_group_name_H-M   'P 1'
_cell_length_a   5.16105478
_cell_length_b   6.75749956
_cell_length_c   8.82284515
_cell_angle_alpha   94.34021400
_cell_angle_beta   91.17891023
_cell_angle_gamma   90.86539843
_symmetry_Int_Tables_number   1
_chemical_formula_structural   Na3Li3Mn2P2(CO7)2
_chemical_formula_sum   'Na3 Li3 Mn2 P2 C2 O14'
_cell_volume   306.71380611
_cell_formula_units_Z   1
loop_
 _symmetry_equiv_pos_site_id
 _symmetry_equiv_pos_as_xyz
  1  'x, y, z'
loop_
 _atom_site_type_symbol
 _atom_site_label
 _atom_site_symmetry_multiplicity
 _atom_site_fract_x
 _atom_site_fract_y
 _atom_site_fract_z
 _atom_site_occupancy
  Na  Na0  1  0.74345500  0.21011900  0.91561300  1
  Na  Na1  1  0.24796400  0.51755500  0.75477400  1
  Na  Na2  1  0.75423700  0.49152700  0.24865000  1
  Li  Li3  1  0.21562700  0.05478600  0.70496300  1
  Li  Li4  1  0.77834100  0.95125100  0.28561300  1
  Li  Li5  1  0.26238800  0.80599200  0.09319900  1
  Mn  Mn6  1  0.77854700  0.75823000  0.64051800  1
  Mn  Mn7  1  0.22320500  0.23534500  0.34990900  1
  P  P8  1  0.71274000  0.24458200  0.57790000  1
  P  P9  1  0.28913500  0.75079900  0.41504900  1
  C  C10  1  0.73773900  0.76229200  0.96409900  1
  C  C11  1  0.26051900  0.23714700  0.04558500  1
  O  O12  1  0.28150800  0.23671800  0.89903100  1
  O  O13  1  0.98343600  0.75280200  0.93742400  1
  O  O14  1  0.56978300  0.76655000  0.85145800  1
  O  O15  1  0.82323900  0.07823300  0.67303400  1
  O  O16  1  0.80000600  0.44479000  0.66198800  1
  O  O17  1  0.40939500  0.23009800  0.57124600  1
  O  O18  1  0.18766200  0.78094600  0.58056800  1
  O  O19  1  0.81105300  0.22133500  0.41229400  1
  O  O20  1  0.59186300  0.76860700  0.42414200  1
  O  O21  1  0.20439900  0.54794000  0.33734900  1
  O  O22  1  0.18075800  0.91054900  0.31140300  1
  O  O23  1  0.46669000  0.23659700  0.13343800  1
  O  O24  1  0.03569500  0.23504700  0.10871000  1
  O  O25  1  0.65061500  0.77016200  0.10204400  1
