# generated using pymatgen
data_LiCoPO4
_symmetry_space_group_name_H-M   'P 1'
_cell_length_a   5.16400786
_cell_length_b   9.41971100
_cell_length_c   8.65552756
_cell_angle_alpha   90.00000000
_cell_angle_beta   90.00573171
_cell_angle_gamma   90.00000000
_symmetry_Int_Tables_number   1
_chemical_formula_structural   LiCoPO4
_chemical_formula_sum   'Li4 Co4 P4 O16'
_cell_volume   421.03482053
_cell_formula_units_Z   4
loop_
 _symmetry_equiv_pos_site_id
 _symmetry_equiv_pos_as_xyz
  1  'x, y, z'
loop_
 _atom_site_type_symbol
 _atom_site_label
 _atom_site_symmetry_multiplicity
 _atom_site_fract_x
 _atom_site_fract_y
 _atom_site_fract_z
 _atom_site_occupancy
  Li  Li0  1  0.04435350  0.82491550  0.99151800  1
  Li  Li1  1  0.54435350  0.67508450  0.49151800  1
  Li  Li2  1  0.54435350  0.32491550  0.99151800  1
  Li  Li3  1  0.04435350  0.17508450  0.49151800  1
  Co  Co4  1  0.03673600  0.66641200  0.68227400  1
  Co  Co5  1  0.53673600  0.83358800  0.18227400  1
  Co  Co6  1  0.53673600  0.16641200  0.68227400  1
  Co  Co7  1  0.03673600  0.33358800  0.18227400  1
  P  P8  1  0.03386750  0.67401950  0.30620800  1
  P  P9  1  0.53386750  0.82598050  0.80620800  1
  P  P10  1  0.53386750  0.17401950  0.30620800  1
  P  P11  1  0.03386750  0.32598050  0.80620800  1
  O  O12  1  0.33068450  0.70243950  0.31680000  1
  O  O13  1  0.90783150  0.69855650  0.46834100  1
  O  O14  1  0.91202600  0.78293500  0.19085800  1
  O  O15  1  0.97674750  0.52293050  0.25259700  1
  O  O16  1  0.83068450  0.79756050  0.81680000  1
  O  O17  1  0.40783150  0.80144350  0.96834100  1
  O  O18  1  0.41202600  0.71706500  0.69085800  1
  O  O19  1  0.47674750  0.97706950  0.75259700  1
  O  O20  1  0.83068450  0.20243950  0.31680000  1
  O  O21  1  0.40783150  0.19855650  0.46834100  1
  O  O22  1  0.41202600  0.28293500  0.19085800  1
  O  O23  1  0.47674750  0.02293050  0.25259700  1
  O  O24  1  0.33068450  0.29756050  0.81680000  1
  O  O25  1  0.90783150  0.30144350  0.96834100  1
  O  O26  1  0.91202600  0.21706500  0.69085800  1
  O  O27  1  0.97674750  0.47706950  0.75259700  1
