# generated using pymatgen
data_CrCu3(PO4)4
_symmetry_space_group_name_H-M   'P 1'
_cell_length_a   4.85516600
_cell_length_b   5.90004100
_cell_length_c   9.81500161
_cell_angle_alpha   90.00000000
_cell_angle_beta   91.70542998
_cell_angle_gamma   90.00000000
_symmetry_Int_Tables_number   1
_chemical_formula_structural   CrCu3(PO4)4
_chemical_formula_sum   'Cr1 Cu3 P4 O16'
_cell_volume   281.03283998
_cell_formula_units_Z   1
loop_
 _symmetry_equiv_pos_site_id
 _symmetry_equiv_pos_as_xyz
  1  'x, y, z'
loop_
 _atom_site_type_symbol
 _atom_site_label
 _atom_site_symmetry_multiplicity
 _atom_site_fract_x
 _atom_site_fract_y
 _atom_site_fract_z
 _atom_site_occupancy
  Cr  Cr0  1  0.03838200  0.00000000  0.27898500  1
  Cu  Cu1  1  0.94032000  0.50000000  0.71725400  1
  Cu  Cu2  1  0.60602900  0.50000000  0.20896200  1
  Cu  Cu3  1  0.42851100  0.00000000  0.78231300  1
  P  P4  1  0.90298500  0.00000000  0.59825600  1
  P  P5  1  0.58693500  0.00000000  0.09566300  1
  P  P6  1  0.42523800  0.50000000  0.90015600  1
  P  P7  1  0.08004800  0.50000000  0.40417100  1
  O  O8  1  0.83221100  0.00000000  0.44498800  1
  O  O9  1  0.75961800  0.79566700  0.67053800  1
  O  O10  1  0.75961800  0.20433300  0.67053800  1
  O  O11  1  0.76048200  0.50000000  0.38412000  1
  O  O12  1  0.73882200  0.50000000  0.88309000  1
  O  O13  1  0.75295400  0.80161800  0.17153200  1
  O  O14  1  0.75295400  0.19838200  0.17153200  1
  O  O15  1  0.65316900  0.00000000  0.94383700  1
  O  O16  1  0.37216300  0.50000000  0.05516200  1
  O  O17  1  0.26519400  0.29765400  0.82908700  1
  O  O18  1  0.26519400  0.70234600  0.82908700  1
  O  O19  1  0.28184900  0.00000000  0.12089100  1
  O  O20  1  0.22142800  0.00000000  0.61555200  1
  O  O21  1  0.21112200  0.28999300  0.33302300  1
  O  O22  1  0.21112200  0.71000700  0.33302300  1
  O  O23  1  0.15364800  0.50000000  0.55824100  1
