# generated using pymatgen
data_BaYb2O4
_symmetry_space_group_name_H-M   'P 1'
_cell_length_a   7.00383400
_cell_length_b   7.00383400
_cell_length_c   10.33869400
_cell_angle_alpha   90.00000000
_cell_angle_beta   90.00000000
_cell_angle_gamma   90.00000000
_symmetry_Int_Tables_number   1
_chemical_formula_structural   BaYb2O4
_chemical_formula_sum   'Ba4 Yb8 O16'
_cell_volume   507.15109771
_cell_formula_units_Z   4
loop_
 _symmetry_equiv_pos_site_id
 _symmetry_equiv_pos_as_xyz
  1  'x, y, z'
loop_
 _atom_site_type_symbol
 _atom_site_label
 _atom_site_symmetry_multiplicity
 _atom_site_fract_x
 _atom_site_fract_y
 _atom_site_fract_z
 _atom_site_occupancy
  Ba  Ba0  1  0.00000000  0.50000000  0.25000000  1
  Ba  Ba1  1  0.00000000  0.00000000  0.00000000  1
  Ba  Ba2  1  0.50000000  0.00000000  0.75000000  1
  Ba  Ba3  1  0.50000000  0.50000000  0.50000000  1
  Yb  Yb4  1  0.50000000  0.75000000  0.12500000  1
  Yb  Yb5  1  0.75000000  0.00000000  0.37500000  1
  Yb  Yb6  1  0.25000000  0.00000000  0.37500000  1
  Yb  Yb7  1  0.50000000  0.25000000  0.12500000  1
  Yb  Yb8  1  0.00000000  0.25000000  0.62500000  1
  Yb  Yb9  1  0.25000000  0.50000000  0.87500000  1
  Yb  Yb10  1  0.75000000  0.50000000  0.87500000  1
  Yb  Yb11  1  0.00000000  0.75000000  0.62500000  1
  O  O12  1  0.28306700  0.00000000  0.15051400  1
  O  O13  1  0.00000000  0.78306700  0.40051400  1
  O  O14  1  0.00000000  0.21693300  0.40051400  1
  O  O15  1  0.28306700  0.50000000  0.09948600  1
  O  O16  1  0.71693300  0.00000000  0.15051400  1
  O  O17  1  0.50000000  0.78306700  0.34948600  1
  O  O18  1  0.50000000  0.21693300  0.34948600  1
  O  O19  1  0.71693300  0.50000000  0.09948600  1
  O  O20  1  0.78306700  0.50000000  0.65051400  1
  O  O21  1  0.50000000  0.28306700  0.90051400  1
  O  O22  1  0.50000000  0.71693300  0.90051400  1
  O  O23  1  0.78306700  0.00000000  0.59948600  1
  O  O24  1  0.21693300  0.50000000  0.65051400  1
  O  O25  1  0.00000000  0.28306700  0.84948600  1
  O  O26  1  0.00000000  0.71693300  0.84948600  1
  O  O27  1  0.21693300  0.00000000  0.59948600  1
