# generated using pymatgen
data_Li2V3SnO8
_symmetry_space_group_name_H-M   'P 1'
_cell_length_a   6.04421589
_cell_length_b   6.04421589
_cell_length_c   14.81663467
_cell_angle_alpha   90.00000000
_cell_angle_beta   90.00000000
_cell_angle_gamma   120.00000000
_symmetry_Int_Tables_number   1
_chemical_formula_structural   Li2V3SnO8
_chemical_formula_sum   'Li6 V9 Sn3 O24'
_cell_volume   468.77035653
_cell_formula_units_Z   3
loop_
 _symmetry_equiv_pos_site_id
 _symmetry_equiv_pos_as_xyz
  1  'x, y, z'
loop_
 _atom_site_type_symbol
 _atom_site_label
 _atom_site_symmetry_multiplicity
 _atom_site_fract_x
 _atom_site_fract_y
 _atom_site_fract_z
 _atom_site_occupancy
  Li  Li0  1  0.66666667  0.33333333  0.21299133  1
  Li  Li1  1  0.33333333  0.66666667  0.16721867  1
  Li  Li2  1  0.33333333  0.66666667  0.54632467  1
  Li  Li3  1  0.00000000  0.00000000  0.50055200  1
  Li  Li4  1  0.00000000  0.00000000  0.87965800  1
  Li  Li5  1  0.66666667  0.33333333  0.83388533  1
  V  V6  1  0.64648133  0.82324067  0.33014167  1
  V  V7  1  0.17675933  0.82324067  0.33014167  1
  V  V8  1  0.17675933  0.35351867  0.33014167  1
  V  V9  1  0.31314800  0.15657400  0.66347500  1
  V  V10  1  0.84342600  0.15657400  0.66347500  1
  V  V11  1  0.84342600  0.68685200  0.66347500  1
  V  V12  1  0.97981467  0.48990733  0.99680833  1
  V  V13  1  0.51009267  0.48990733  0.99680833  1
  V  V14  1  0.51009267  0.02018533  0.99680833  1
  Sn  Sn15  1  0.00000000  0.00000000  0.12052700  1
  Sn  Sn16  1  0.66666667  0.33333333  0.45386033  1
  Sn  Sn17  1  0.33333333  0.66666667  0.78719367  1
  O  O18  1  0.66666667  0.33333333  0.07602733  1
  O  O19  1  0.48741700  0.97483400  0.26107600  1
  O  O20  1  0.48741700  0.51258300  0.26107600  1
  O  O21  1  0.02516600  0.51258300  0.26107600  1
  O  O22  1  0.64035800  0.82017900  0.07513700  1
  O  O23  1  0.17982100  0.82017900  0.07513700  1
  O  O24  1  0.17982100  0.35964200  0.07513700  1
  O  O25  1  0.00000000  0.00000000  0.25750600  1
  O  O26  1  0.33333333  0.66666667  0.40936067  1
  O  O27  1  0.15408367  0.30816733  0.59440933  1
  O  O28  1  0.15408367  0.84591633  0.59440933  1
  O  O29  1  0.69183267  0.84591633  0.59440933  1
  O  O30  1  0.30702467  0.15351233  0.40847033  1
  O  O31  1  0.84648767  0.15351233  0.40847033  1
  O  O32  1  0.84648767  0.69297533  0.40847033  1
  O  O33  1  0.66666667  0.33333333  0.59083933  1
  O  O34  1  0.00000000  0.00000000  0.74269400  1
  O  O35  1  0.82075033  0.64150067  0.92774267  1
  O  O36  1  0.82075033  0.17924967  0.92774267  1
  O  O37  1  0.35849933  0.17924967  0.92774267  1
  O  O38  1  0.97369133  0.48684567  0.74180367  1
  O  O39  1  0.51315433  0.48684567  0.74180367  1
  O  O40  1  0.51315433  0.02630867  0.74180367  1
  O  O41  1  0.33333333  0.66666667  0.92417267  1
