# generated using pymatgen
data_Li2MnV(P2O7)2
_symmetry_space_group_name_H-M   'P 1'
_cell_length_a   7.06888400
_cell_length_b   8.33652600
_cell_length_c   9.70222665
_cell_angle_alpha   90.00000000
_cell_angle_beta   108.76028071
_cell_angle_gamma   90.00000000
_symmetry_Int_Tables_number   1
_chemical_formula_structural   Li2MnV(P2O7)2
_chemical_formula_sum   'Li4 Mn2 V2 P8 O28'
_cell_volume   541.37582025
_cell_formula_units_Z   2
loop_
 _symmetry_equiv_pos_site_id
 _symmetry_equiv_pos_as_xyz
  1  'x, y, z'
loop_
 _atom_site_type_symbol
 _atom_site_label
 _atom_site_symmetry_multiplicity
 _atom_site_fract_x
 _atom_site_fract_y
 _atom_site_fract_z
 _atom_site_occupancy
  Li  Li0  1  0.66895600  0.14113200  0.08529400  1
  Li  Li1  1  0.32692200  0.64240900  0.40938100  1
  Li  Li2  1  0.67307800  0.14240900  0.59061900  1
  Li  Li3  1  0.33104400  0.64113200  0.91470600  1
  Mn  Mn4  1  0.73068700  0.49933100  0.10806600  1
  Mn  Mn5  1  0.26931300  0.99933100  0.89193400  1
  V  V6  1  0.27344900  0.00188300  0.39482900  1
  V  V7  1  0.72655100  0.50188300  0.60517100  1
  P  P8  1  0.51798800  0.82137300  0.19905300  1
  P  P9  1  0.08882000  0.21081700  0.10527300  1
  P  P10  1  0.91175900  0.71714600  0.39039300  1
  P  P11  1  0.47703300  0.32035700  0.29903600  1
  P  P12  1  0.52296700  0.82035700  0.70096400  1
  P  P13  1  0.08824100  0.21714600  0.60960700  1
  P  P14  1  0.91118000  0.71081700  0.89472700  1
  P  P15  1  0.48201200  0.32137300  0.80094700  1
  O  O16  1  0.85206300  0.67046500  0.02931900  1
  O  O17  1  0.88816900  0.29319400  0.06716300  1
  O  O18  1  0.47869400  0.96433600  0.09264400  1
  O  O19  1  0.49572500  0.65953300  0.12438600  1
  O  O20  1  0.60845500  0.32316400  0.19970400  1
  O  O21  1  0.91329100  0.56690400  0.29789400  1
  O  O22  1  0.75020200  0.84625500  0.29572300  1
  O  O23  1  0.24789400  0.34433100  0.19855700  1
  O  O24  1  0.09527300  0.06229300  0.20058100  1
  O  O25  1  0.39862100  0.82845400  0.30646700  1
  O  O26  1  0.49290800  0.15981400  0.37821400  1
  O  O27  1  0.51462900  0.46253400  0.40516600  1
  O  O28  1  0.85190500  0.67390800  0.52323800  1
  O  O29  1  0.88896500  0.30478900  0.56901900  1
  O  O30  1  0.11103500  0.80478900  0.43098100  1
  O  O31  1  0.14809500  0.17390800  0.47676200  1
  O  O32  1  0.48537100  0.96253400  0.59483400  1
  O  O33  1  0.50709200  0.65981400  0.62178600  1
  O  O34  1  0.60137900  0.32845400  0.69353300  1
  O  O35  1  0.90472700  0.56229300  0.79941900  1
  O  O36  1  0.75210600  0.84433100  0.80144300  1
  O  O37  1  0.24979800  0.34625500  0.70427700  1
  O  O38  1  0.08670900  0.06690400  0.70210600  1
  O  O39  1  0.39154500  0.82316400  0.80029600  1
  O  O40  1  0.50427500  0.15953300  0.87561400  1
  O  O41  1  0.52130600  0.46433600  0.90735600  1
  O  O42  1  0.11183100  0.79319400  0.93283700  1
  O  O43  1  0.14793700  0.17046500  0.97068100  1
