# generated using pymatgen
data_LiVF4
_symmetry_space_group_name_H-M   'P 1'
_cell_length_a   5.64801400
_cell_length_b   6.18466800
_cell_length_c   8.97518600
_cell_angle_alpha   90.00000000
_cell_angle_beta   90.00000000
_cell_angle_gamma   90.00000000
_symmetry_Int_Tables_number   1
_chemical_formula_structural   LiVF4
_chemical_formula_sum   'Li4 V4 F16'
_cell_volume   313.51304294
_cell_formula_units_Z   4
loop_
 _symmetry_equiv_pos_site_id
 _symmetry_equiv_pos_as_xyz
  1  'x, y, z'
loop_
 _atom_site_type_symbol
 _atom_site_label
 _atom_site_symmetry_multiplicity
 _atom_site_fract_x
 _atom_site_fract_y
 _atom_site_fract_z
 _atom_site_occupancy
  Li  Li0  1  0.50000000  0.50000000  0.00000000  1
  Li  Li1  1  0.00000000  0.00000000  0.00000000  1
  Li  Li2  1  0.00000000  0.00000000  0.50000000  1
  Li  Li3  1  0.50000000  0.50000000  0.50000000  1
  V  V4  1  0.75000000  0.25000000  0.25000000  1
  V  V5  1  0.25000000  0.25000000  0.75000000  1
  V  V6  1  0.25000000  0.75000000  0.75000000  1
  V  V7  1  0.75000000  0.75000000  0.25000000  1
  F  F8  1  0.75000000  0.25000000  0.03667500  1
  F  F9  1  0.25000000  0.25000000  0.96332500  1
  F  F10  1  0.03253400  0.50000000  0.75000000  1
  F  F11  1  0.48750500  0.50000000  0.75000000  1
  F  F12  1  0.51249500  0.50000000  0.25000000  1
  F  F13  1  0.96746600  0.50000000  0.25000000  1
  F  F14  1  0.75000000  0.75000000  0.03667500  1
  F  F15  1  0.25000000  0.75000000  0.96332500  1
  F  F16  1  0.25000000  0.75000000  0.53667500  1
  F  F17  1  0.75000000  0.75000000  0.46332500  1
  F  F18  1  0.53253400  0.00000000  0.25000000  1
  F  F19  1  0.98750500  0.00000000  0.25000000  1
  F  F20  1  0.01249500  0.00000000  0.75000000  1
  F  F21  1  0.46746600  0.00000000  0.75000000  1
  F  F22  1  0.25000000  0.25000000  0.53667500  1
  F  F23  1  0.75000000  0.25000000  0.46332500  1
