# generated using pymatgen
data_Li2TiV3O8
_symmetry_space_group_name_H-M   'P 1'
_cell_length_a   6.00339396
_cell_length_b   6.00339396
_cell_length_c   14.51748312
_cell_angle_alpha   90.00000000
_cell_angle_beta   90.00000000
_cell_angle_gamma   120.00000000
_symmetry_Int_Tables_number   1
_chemical_formula_structural   Li2TiV3O8
_chemical_formula_sum   'Li6 Ti3 V9 O24'
_cell_volume   453.12252196
_cell_formula_units_Z   3
loop_
 _symmetry_equiv_pos_site_id
 _symmetry_equiv_pos_as_xyz
  1  'x, y, z'
loop_
 _atom_site_type_symbol
 _atom_site_label
 _atom_site_symmetry_multiplicity
 _atom_site_fract_x
 _atom_site_fract_y
 _atom_site_fract_z
 _atom_site_occupancy
  Li  Li0  1  0.33333333  0.66666667  0.54050667  1
  Li  Li1  1  0.33333333  0.66666667  0.79282667  1
  Li  Li2  1  0.00000000  0.00000000  0.87384000  1
  Li  Li3  1  0.00000000  0.00000000  0.12616000  1
  Li  Li4  1  0.66666667  0.33333333  0.20717333  1
  Li  Li5  1  0.66666667  0.33333333  0.45949333  1
  Ti  Ti6  1  0.33333333  0.66666667  0.16666667  1
  Ti  Ti7  1  1.00000000  1.00000000  0.50000000  1
  Ti  Ti8  1  0.66666667  0.33333333  0.83333333  1
  V  V9  1  0.00000000  0.50000000  0.00000000  1
  V  V10  1  0.50000000  0.50000000  0.00000000  1
  V  V11  1  0.16666667  0.33333333  0.33333333  1
  V  V12  1  0.66666667  0.83333333  0.33333333  1
  V  V13  1  0.16666667  0.83333333  0.33333333  1
  V  V14  1  0.83333333  0.66666667  0.66666667  1
  V  V15  1  0.33333333  0.16666667  0.66666667  1
  V  V16  1  0.83333333  0.16666667  0.66666667  1
  V  V17  1  0.50000000  0.00000000  0.00000000  1
  O  O18  1  0.33333333  0.66666667  0.40425067  1
  O  O19  1  0.48294167  0.96588333  0.25230333  1
  O  O20  1  0.48294167  0.51705833  0.25230333  1
  O  O21  1  0.03411667  0.51705833  0.25230333  1
  O  O22  1  0.63255000  0.81627500  0.08103000  1
  O  O23  1  0.18372500  0.81627500  0.08103000  1
  O  O24  1  0.18372500  0.36745000  0.08103000  1
  O  O25  1  0.33333333  0.66666667  0.92908267  1
  O  O26  1  0.00000000  0.00000000  0.73758400  1
  O  O27  1  0.14960833  0.29921667  0.58563667  1
  O  O28  1  0.14960833  0.85039167  0.58563667  1
  O  O29  1  0.70078333  0.85039167  0.58563667  1
  O  O30  1  0.29921667  0.14960833  0.41436333  1
  O  O31  1  0.85039167  0.14960833  0.41436333  1
  O  O32  1  0.85039167  0.70078333  0.41436333  1
  O  O33  1  0.00000000  0.00000000  0.26241600  1
  O  O34  1  0.66666667  0.33333333  0.07091733  1
  O  O35  1  0.81627500  0.63255000  0.91897000  1
  O  O36  1  0.81627500  0.18372500  0.91897000  1
  O  O37  1  0.36745000  0.18372500  0.91897000  1
  O  O38  1  0.96588333  0.48294167  0.74769667  1
  O  O39  1  0.51705833  0.48294167  0.74769667  1
  O  O40  1  0.51705833  0.03411667  0.74769667  1
  O  O41  1  0.66666667  0.33333333  0.59574933  1
