# generated using pymatgen
data_Li2Mn3NbO8
_symmetry_space_group_name_H-M   'P 1'
_cell_length_a   6.02835909
_cell_length_b   6.02835909
_cell_length_c   15.28975701
_cell_angle_alpha   90.00000000
_cell_angle_beta   90.00000000
_cell_angle_gamma   120.00000000
_symmetry_Int_Tables_number   1
_chemical_formula_structural   Li2Mn3NbO8
_chemical_formula_sum   'Li6 Mn9 Nb3 O24'
_cell_volume   481.20423782
_cell_formula_units_Z   3
loop_
 _symmetry_equiv_pos_site_id
 _symmetry_equiv_pos_as_xyz
  1  'x, y, z'
loop_
 _atom_site_type_symbol
 _atom_site_label
 _atom_site_symmetry_multiplicity
 _atom_site_fract_x
 _atom_site_fract_y
 _atom_site_fract_z
 _atom_site_occupancy
  Li  Li0  1  0.00000000  0.00000000  0.12582783  1
  Li  Li1  1  0.66666667  0.33333333  0.20750550  1
  Li  Li2  1  0.66666667  0.33333333  0.45916117  1
  Li  Li3  1  0.33333333  0.66666667  0.54083883  1
  Li  Li4  1  0.33333333  0.66666667  0.79249450  1
  Li  Li5  1  0.00000000  1.00000000  0.87417217  1
  Mn  Mn6  1  0.50000000  0.00000000  0.00000000  1
  Mn  Mn7  1  0.66666667  0.83333333  0.33333333  1
  Mn  Mn8  1  0.16666667  0.83333333  0.33333333  1
  Mn  Mn9  1  0.16666667  0.33333333  0.33333333  1
  Mn  Mn10  1  0.33333333  0.16666667  0.66666667  1
  Mn  Mn11  1  0.83333333  0.16666667  0.66666667  1
  Mn  Mn12  1  0.83333333  0.66666667  0.66666667  1
  Mn  Mn13  1  0.00000000  0.50000000  0.00000000  1
  Mn  Mn14  1  0.50000000  0.50000000  0.00000000  1
  Nb  Nb15  1  0.33333333  0.66666667  0.16666667  1
  Nb  Nb16  1  1.00000000  1.00000000  0.50000000  1
  Nb  Nb17  1  0.66666667  0.33333333  0.83333333  1
  O  O18  1  0.00000000  0.00000000  0.27389717  1
  O  O19  1  0.66666667  0.33333333  0.05943617  1
  O  O20  1  0.18011308  0.81988692  0.08541017  1
  O  O21  1  0.63977383  0.81988692  0.08541017  1
  O  O22  1  0.18011308  0.36022617  0.08541017  1
  O  O23  1  0.48655358  0.97310717  0.24792317  1
  O  O24  1  0.02689283  0.51344642  0.24792317  1
  O  O25  1  0.48655358  0.51344642  0.24792317  1
  O  O26  1  0.66666667  0.33333333  0.60723050  1
  O  O27  1  0.33333333  0.66666667  0.39276950  1
  O  O28  1  0.84677975  0.15322025  0.41874350  1
  O  O29  1  0.30644050  0.15322025  0.41874350  1
  O  O30  1  0.84677975  0.69355950  0.41874350  1
  O  O31  1  0.15322025  0.30644050  0.58125650  1
  O  O32  1  0.69355950  0.84677975  0.58125650  1
  O  O33  1  0.15322025  0.84677975  0.58125650  1
  O  O34  1  0.33333333  0.66666667  0.94056383  1
  O  O35  1  0.00000000  0.00000000  0.72610283  1
  O  O36  1  0.51344642  0.48655358  0.75207683  1
  O  O37  1  0.97310717  0.48655358  0.75207683  1
  O  O38  1  0.51344642  0.02689283  0.75207683  1
  O  O39  1  0.81988692  0.63977383  0.91458983  1
  O  O40  1  0.36022617  0.18011308  0.91458983  1
  O  O41  1  0.81988692  0.18011308  0.91458983  1
