# generated using pymatgen
data_LiVP2(HO4)2
_symmetry_space_group_name_H-M   'P 1'
_cell_length_a   5.38461100
_cell_length_b   6.93609600
_cell_length_c   7.96638700
_cell_angle_alpha   90.00000000
_cell_angle_beta   90.00000000
_cell_angle_gamma   90.00000000
_symmetry_Int_Tables_number   1
_chemical_formula_structural   LiVP2(HO4)2
_chemical_formula_sum   'Li2 V2 P4 H4 O16'
_cell_volume   297.53004627
_cell_formula_units_Z   2
loop_
 _symmetry_equiv_pos_site_id
 _symmetry_equiv_pos_as_xyz
  1  'x, y, z'
loop_
 _atom_site_type_symbol
 _atom_site_label
 _atom_site_symmetry_multiplicity
 _atom_site_fract_x
 _atom_site_fract_y
 _atom_site_fract_z
 _atom_site_occupancy
  Li  Li0  1  0.08346050  0.50000000  0.00000000  1
  Li  Li1  1  0.91653950  0.00000000  0.50000000  1
  V  V2  1  0.75786950  0.50000000  0.50000000  1
  V  V3  1  0.24213050  0.00000000  0.00000000  1
  P  P4  1  0.73725050  0.21829800  0.84597600  1
  P  P5  1  0.73725050  0.78170200  0.15402400  1
  P  P6  1  0.26274950  0.28170200  0.34597600  1
  P  P7  1  0.26274950  0.71829800  0.65402400  1
  H  H8  1  0.56261450  0.01444200  0.28712300  1
  H  H9  1  0.56261450  0.98555800  0.71287700  1
  H  H10  1  0.43738550  0.51444200  0.21287700  1
  H  H11  1  0.43738550  0.48555800  0.78712300  1
  O  O12  1  0.73473050  0.95479500  0.28642700  1
  O  O13  1  0.72708750  0.41446800  0.75382500  1
  O  O14  1  0.72708750  0.58553200  0.24617500  1
  O  O15  1  0.73473050  0.04520500  0.71357300  1
  O  O16  1  0.50472250  0.80129700  0.04468500  1
  O  O17  1  0.50472250  0.19870300  0.95531500  1
  O  O18  1  0.49527750  0.30129700  0.45531500  1
  O  O19  1  0.49527750  0.69870300  0.54468500  1
  O  O20  1  0.27291250  0.08553200  0.25382500  1
  O  O21  1  0.26526950  0.45479500  0.21357300  1
  O  O22  1  0.26526950  0.54520500  0.78642700  1
  O  O23  1  0.27291250  0.91446800  0.74617500  1
  O  O24  1  0.01997450  0.29251000  0.44807800  1
  O  O25  1  0.01997450  0.70749000  0.55192200  1
  O  O26  1  0.98002550  0.79251000  0.05192200  1
  O  O27  1  0.98002550  0.20749000  0.94807800  1
