# generated using pymatgen
data_Li2BiO3
_symmetry_space_group_name_H-M   'P 1'
_cell_length_a   5.59024600
_cell_length_b   9.54602200
_cell_length_c   5.66549313
_cell_angle_alpha   90.00000000
_cell_angle_beta   111.06789091
_cell_angle_gamma   90.00000000
_symmetry_Int_Tables_number   1
_chemical_formula_structural   Li2BiO3
_chemical_formula_sum   'Li8 Bi4 O12'
_cell_volume   282.12717319
_cell_formula_units_Z   4
loop_
 _symmetry_equiv_pos_site_id
 _symmetry_equiv_pos_as_xyz
  1  'x, y, z'
loop_
 _atom_site_type_symbol
 _atom_site_label
 _atom_site_symmetry_multiplicity
 _atom_site_fract_x
 _atom_site_fract_y
 _atom_site_fract_z
 _atom_site_occupancy
  Li  Li0  1  0.50096050  0.75576050  0.49430800  1
  Li  Li1  1  0.48881050  0.07623250  0.49619200  1
  Li  Li2  1  0.48881050  0.92376750  0.99619200  1
  Li  Li3  1  0.50096050  0.24423950  0.99430800  1
  Li  Li4  1  0.00096050  0.25576050  0.49430800  1
  Li  Li5  1  0.98881050  0.57623250  0.49619200  1
  Li  Li6  1  0.98881050  0.42376750  0.99619200  1
  Li  Li7  1  0.00096050  0.74423950  0.99430800  1
  Bi  Bi8  1  0.49070400  0.40959700  0.48948700  1
  Bi  Bi9  1  0.49070400  0.59040300  0.98948700  1
  Bi  Bi10  1  0.99070400  0.90959700  0.48948700  1
  Bi  Bi11  1  0.99070400  0.09040300  0.98948700  1
  O  O12  1  0.23371050  0.07846250  0.74063500  1
  O  O13  1  0.23371050  0.92153750  0.24063500  1
  O  O14  1  0.73897000  0.25033100  0.74256300  1
  O  O15  1  0.74564400  0.92344400  0.73461500  1
  O  O16  1  0.73897000  0.74966900  0.24256300  1
  O  O17  1  0.74564400  0.07655600  0.23461500  1
  O  O18  1  0.73371050  0.57846250  0.74063500  1
  O  O19  1  0.73371050  0.42153750  0.24063500  1
  O  O20  1  0.23897000  0.75033100  0.74256300  1
  O  O21  1  0.24564400  0.42344400  0.73461500  1
  O  O22  1  0.23897000  0.24966900  0.24256300  1
  O  O23  1  0.24564400  0.57655600  0.23461500  1
