# generated using pymatgen
data_Li2Ti2V3O10
_symmetry_space_group_name_H-M   'P 1'
_cell_length_a   5.14849813
_cell_length_b   7.73748258
_cell_length_c   10.46219472
_cell_angle_alpha   75.60405249
_cell_angle_beta   76.53829747
_cell_angle_gamma   78.20151557
_symmetry_Int_Tables_number   1
_chemical_formula_structural   Li2Ti2V3O10
_chemical_formula_sum   'Li4 Ti4 V6 O20'
_cell_volume   387.81575540
_cell_formula_units_Z   2
loop_
 _symmetry_equiv_pos_site_id
 _symmetry_equiv_pos_as_xyz
  1  'x, y, z'
loop_
 _atom_site_type_symbol
 _atom_site_label
 _atom_site_symmetry_multiplicity
 _atom_site_fract_x
 _atom_site_fract_y
 _atom_site_fract_z
 _atom_site_occupancy
  Li  Li0  1  0.44329900  0.60095100  0.11091400  1
  Li  Li1  1  0.45350400  0.60749000  0.60487700  1
  Li  Li2  1  0.54649600  0.39251000  0.39512300  1
  Li  Li3  1  0.55670100  0.39904900  0.88908600  1
  Ti  Ti4  1  0.97835700  0.31712000  0.06901500  1
  Ti  Ti5  1  0.99782300  0.31232700  0.55872500  1
  Ti  Ti6  1  0.00217700  0.68767300  0.44127500  1
  Ti  Ti7  1  0.02164300  0.68288000  0.93098500  1
  V  V8  1  0.50000000  0.00000000  0.50000000  1
  V  V9  1  0.04211000  0.11196900  0.84206300  1
  V  V10  1  0.95789000  0.88803100  0.15793700  1
  V  V11  1  0.50000000  0.00000000  0.00000000  1
  V  V12  1  0.03750800  0.10582800  0.34558400  1
  V  V13  1  0.96249200  0.89417200  0.65441600  1
  O  O14  1  0.78479700  0.14210300  0.01917600  1
  O  O15  1  0.78558500  0.13397500  0.53054400  1
  O  O16  1  0.21441500  0.86602500  0.46945600  1
  O  O17  1  0.21520300  0.85789700  0.98082400  1
  O  O18  1  0.23151400  0.48188500  0.02639200  1
  O  O19  1  0.22541800  0.49412500  0.52881100  1
  O  O20  1  0.77458200  0.50587500  0.47118900  1
  O  O21  1  0.76848600  0.51811500  0.97360800  1
  O  O22  1  0.20108100  0.06709600  0.15245500  1
  O  O23  1  0.21570500  0.06274000  0.66242300  1
  O  O24  1  0.78429500  0.93726000  0.33757700  1
  O  O25  1  0.79891900  0.93290400  0.84754500  1
  O  O26  1  0.71566900  0.79025700  0.10991100  1
  O  O27  1  0.72045400  0.77920000  0.59262700  1
  O  O28  1  0.27954600  0.22080000  0.40737300  1
  O  O29  1  0.28433100  0.20974300  0.89008900  1
  O  O30  1  0.82632500  0.31991200  0.24067000  1
  O  O31  1  0.84340900  0.30854200  0.74321800  1
  O  O32  1  0.15659100  0.69145800  0.25678200  1
  O  O33  1  0.17367500  0.68008800  0.75933000  1
