# generated using pymatgen
data_MnNi3O4
_symmetry_space_group_name_H-M   'P 1'
_cell_length_a   6.05006600
_cell_length_b   8.57357600
_cell_length_c   3.04906200
_cell_angle_alpha   90.00000000
_cell_angle_beta   90.00000000
_cell_angle_gamma   90.00000000
_symmetry_Int_Tables_number   1
_chemical_formula_structural   MnNi3O4
_chemical_formula_sum   'Mn2 Ni6 O8'
_cell_volume   158.15698228
_cell_formula_units_Z   2
loop_
 _symmetry_equiv_pos_site_id
 _symmetry_equiv_pos_as_xyz
  1  'x, y, z'
loop_
 _atom_site_type_symbol
 _atom_site_label
 _atom_site_symmetry_multiplicity
 _atom_site_fract_x
 _atom_site_fract_y
 _atom_site_fract_z
 _atom_site_occupancy
  Mn  Mn0  1  0.50000000  0.00000000  0.00000000  1
  Mn  Mn1  1  0.00000000  0.50000000  0.00000000  1
  Ni  Ni2  1  0.25000000  0.25000000  0.50000000  1
  Ni  Ni3  1  0.25000000  0.75000000  0.50000000  1
  Ni  Ni4  1  0.00000000  0.00000000  0.00000000  1
  Ni  Ni5  1  0.75000000  0.75000000  0.50000000  1
  Ni  Ni6  1  0.75000000  0.25000000  0.50000000  1
  Ni  Ni7  1  0.50000000  0.50000000  0.00000000  1
  O  O8  1  0.50000000  0.25557400  0.00000000  1
  O  O9  1  0.75990800  0.00000000  0.50000000  1
  O  O10  1  0.24009200  0.00000000  0.50000000  1
  O  O11  1  0.50000000  0.74442600  0.00000000  1
  O  O12  1  0.00000000  0.75557400  0.00000000  1
  O  O13  1  0.25990800  0.50000000  0.50000000  1
  O  O14  1  0.74009200  0.50000000  0.50000000  1
  O  O15  1  0.00000000  0.24442600  0.00000000  1
