# generated using pymatgen
data_LiCoSiO4
_symmetry_space_group_name_H-M   'P 1'
_cell_length_a   5.50274500
_cell_length_b   8.09632200
_cell_length_c   6.26268100
_cell_angle_alpha   90.00000000
_cell_angle_beta   90.00000000
_cell_angle_gamma   90.00000000
_symmetry_Int_Tables_number   1
_chemical_formula_structural   LiCoSiO4
_chemical_formula_sum   'Li4 Co4 Si4 O16'
_cell_volume   279.01493513
_cell_formula_units_Z   4
loop_
 _symmetry_equiv_pos_site_id
 _symmetry_equiv_pos_as_xyz
  1  'x, y, z'
loop_
 _atom_site_type_symbol
 _atom_site_label
 _atom_site_symmetry_multiplicity
 _atom_site_fract_x
 _atom_site_fract_y
 _atom_site_fract_z
 _atom_site_occupancy
  Li  Li0  1  0.50000000  0.82657250  0.25000000  1
  Li  Li1  1  0.50000000  0.17342750  0.75000000  1
  Li  Li2  1  0.00000000  0.32657250  0.25000000  1
  Li  Li3  1  0.00000000  0.67342750  0.75000000  1
  Co  Co4  1  0.00000000  0.00000000  0.50000000  1
  Co  Co5  1  0.00000000  0.00000000  0.00000000  1
  Co  Co6  1  0.50000000  0.50000000  0.50000000  1
  Co  Co7  1  0.50000000  0.50000000  0.00000000  1
  Si  Si8  1  0.50000000  0.84779100  0.75000000  1
  Si  Si9  1  0.50000000  0.15220900  0.25000000  1
  Si  Si10  1  0.00000000  0.34779100  0.75000000  1
  Si  Si11  1  0.00000000  0.65220900  0.25000000  1
  O  O12  1  0.25990500  0.02763550  0.25000000  1
  O  O13  1  0.25990500  0.97236450  0.75000000  1
  O  O14  1  0.74009500  0.97236450  0.75000000  1
  O  O15  1  0.74009500  0.02763550  0.25000000  1
  O  O16  1  0.50000000  0.73061400  0.53669150  1
  O  O17  1  0.50000000  0.73061400  0.96330850  1
  O  O18  1  0.50000000  0.26938600  0.03669150  1
  O  O19  1  0.50000000  0.26938600  0.46330850  1
  O  O20  1  0.75990500  0.52763550  0.25000000  1
  O  O21  1  0.75990500  0.47236450  0.75000000  1
  O  O22  1  0.24009500  0.47236450  0.75000000  1
  O  O23  1  0.24009500  0.52763550  0.25000000  1
  O  O24  1  0.00000000  0.23061400  0.53669150  1
  O  O25  1  0.00000000  0.23061400  0.96330850  1
  O  O26  1  0.00000000  0.76938600  0.03669150  1
  O  O27  1  0.00000000  0.76938600  0.46330850  1
