# generated using pymatgen
data_Li5Fe2P2(CO7)2
_symmetry_space_group_name_H-M   'P 1'
_cell_length_a   9.41605800
_cell_length_b   6.50010600
_cell_length_c   10.11673623
_cell_angle_alpha   90.00000000
_cell_angle_beta   116.97460241
_cell_angle_gamma   90.00000000
_symmetry_Int_Tables_number   1
_chemical_formula_structural   Li5Fe2P2(CO7)2
_chemical_formula_sum   'Li10 Fe4 P4 C4 O28'
_cell_volume   551.83457813
_cell_formula_units_Z   2
loop_
 _symmetry_equiv_pos_site_id
 _symmetry_equiv_pos_as_xyz
  1  'x, y, z'
loop_
 _atom_site_type_symbol
 _atom_site_label
 _atom_site_symmetry_multiplicity
 _atom_site_fract_x
 _atom_site_fract_y
 _atom_site_fract_z
 _atom_site_occupancy
  Li  Li0  1  0.89360600  0.75506300  0.55922100  1
  Li  Li1  1  0.91156400  0.75267600  0.07487800  1
  Li  Li2  1  0.72007000  0.54103200  0.72684300  1
  Li  Li3  1  0.73018200  0.51342800  0.23977800  1
  Li  Li4  1  0.73043200  0.98792100  0.24311300  1
  Li  Li5  1  0.26956800  0.48792100  0.75688700  1
  Li  Li6  1  0.26981800  0.01342800  0.76022200  1
  Li  Li7  1  0.27993000  0.04103200  0.27315700  1
  Li  Li8  1  0.08843600  0.25267600  0.92512200  1
  Li  Li9  1  0.10639400  0.25506300  0.44077900  1
  Fe  Fe10  1  0.66947200  0.24337500  0.92966200  1
  Fe  Fe11  1  0.66818200  0.24747300  0.44623700  1
  Fe  Fe12  1  0.33181800  0.74747300  0.55376300  1
  Fe  Fe13  1  0.33052800  0.74337500  0.07033800  1
  P  P14  1  0.58404500  0.74699400  0.93613400  1
  P  P15  1  0.58539900  0.74728300  0.42514700  1
  P  P16  1  0.41460100  0.24728300  0.57485300  1
  P  P17  1  0.41595500  0.24699400  0.06386600  1
  C  C18  1  0.96953900  0.26140800  0.63355800  1
  C  C19  1  0.95428900  0.24243200  0.13319700  1
  C  C20  1  0.04571100  0.74243200  0.86680300  1
  C  C21  1  0.03046100  0.76140800  0.36644200  1
  O  O22  1  0.92008700  0.24577800  0.99224400  1
  O  O23  1  0.93340800  0.24710000  0.49343000  1
  O  O24  1  0.90667300  0.72252300  0.76229200  1
  O  O25  1  0.85567300  0.28192000  0.67066000  1
  O  O26  1  0.88292800  0.75352700  0.26378700  1
  O  O27  1  0.82877200  0.25789300  0.15863100  1
  O  O28  1  0.69031200  0.93783600  0.95377700  1
  O  O29  1  0.69413500  0.56393400  0.94196300  1
  O  O30  1  0.69635000  0.93261600  0.43760700  1
  O  O31  1  0.68122500  0.56049600  0.41164400  1
  O  O32  1  0.57875000  0.27544600  0.71397900  1
  O  O33  1  0.55826200  0.72147600  0.56308300  1
  O  O34  1  0.57590700  0.24468700  0.20447500  1
  O  O35  1  0.54923600  0.73767000  0.07456000  1
  O  O36  1  0.45076400  0.23767000  0.92544000  1
  O  O37  1  0.42409300  0.74468700  0.79552500  1
  O  O38  1  0.44173800  0.22147600  0.43691700  1
  O  O39  1  0.42125000  0.77544600  0.28602100  1
  O  O40  1  0.30365000  0.43261600  0.56239300  1
  O  O41  1  0.31877500  0.06049600  0.58835600  1
  O  O42  1  0.30586500  0.06393400  0.05803700  1
  O  O43  1  0.30968800  0.43783600  0.04622300  1
  O  O44  1  0.17122800  0.75789300  0.84136900  1
  O  O45  1  0.11707200  0.25352700  0.73621300  1
  O  O46  1  0.14432700  0.78192000  0.32934000  1
  O  O47  1  0.09332700  0.22252300  0.23770800  1
  O  O48  1  0.06659200  0.74710000  0.50657000  1
  O  O49  1  0.07991300  0.74577800  0.00775600  1
