# generated using pymatgen
data_Na4MnO3
_symmetry_space_group_name_H-M   'P 1'
_cell_length_a   5.49871200
_cell_length_b   10.56111600
_cell_length_c   15.81852400
_cell_angle_alpha   90.00000000
_cell_angle_beta   90.00000000
_cell_angle_gamma   90.00000000
_symmetry_Int_Tables_number   1
_chemical_formula_structural   Na4MnO3
_chemical_formula_sum   'Na32 Mn8 O24'
_cell_volume   918.62179311
_cell_formula_units_Z   8
loop_
 _symmetry_equiv_pos_site_id
 _symmetry_equiv_pos_as_xyz
  1  'x, y, z'
loop_
 _atom_site_type_symbol
 _atom_site_label
 _atom_site_symmetry_multiplicity
 _atom_site_fract_x
 _atom_site_fract_y
 _atom_site_fract_z
 _atom_site_occupancy
  Na  Na0  1  0.46391650  0.54259650  0.91945650  1
  Na  Na1  1  0.50000000  0.75000000  0.77735600  1
  Na  Na2  1  0.53608350  0.54259650  0.41945650  1
  Na  Na3  1  0.59828100  0.50000000  0.25000000  1
  Na  Na4  1  0.90171900  0.50000000  0.75000000  1
  Na  Na5  1  0.96391650  0.45740350  0.91945650  1
  Na  Na6  1  0.96391650  0.54259650  0.58054350  1
  Na  Na7  1  0.00000000  0.25000000  0.77735600  1
  Na  Na8  1  0.00000000  0.75000000  0.22264400  1
  Na  Na9  1  0.03608350  0.45740350  0.41945650  1
  Na  Na10  1  0.03608350  0.54259650  0.08054350  1
  Na  Na11  1  0.09828100  0.50000000  0.25000000  1
  Na  Na12  1  0.40171900  0.50000000  0.75000000  1
  Na  Na13  1  0.46391650  0.45740350  0.58054350  1
  Na  Na14  1  0.50000000  0.25000000  0.22264400  1
  Na  Na15  1  0.53608350  0.45740350  0.08054350  1
  Na  Na16  1  0.96391650  0.04259650  0.41945650  1
  Na  Na17  1  0.00000000  0.25000000  0.27735600  1
  Na  Na18  1  0.03608350  0.04259650  0.91945650  1
  Na  Na19  1  0.09828100  0.00000000  0.75000000  1
  Na  Na20  1  0.40171900  0.00000000  0.25000000  1
  Na  Na21  1  0.46391650  0.95740350  0.41945650  1
  Na  Na22  1  0.46391650  0.04259650  0.08054350  1
  Na  Na23  1  0.50000000  0.75000000  0.27735600  1
  Na  Na24  1  0.50000000  0.25000000  0.72264400  1
  Na  Na25  1  0.53608350  0.95740350  0.91945650  1
  Na  Na26  1  0.53608350  0.04259650  0.58054350  1
  Na  Na27  1  0.59828100  0.00000000  0.75000000  1
  Na  Na28  1  0.90171900  0.00000000  0.25000000  1
  Na  Na29  1  0.96391650  0.95740350  0.08054350  1
  Na  Na30  1  0.00000000  0.75000000  0.72264400  1
  Na  Na31  1  0.03608350  0.95740350  0.58054350  1
  Mn  Mn32  1  0.50000000  0.75000000  0.07848800  1
  Mn  Mn33  1  0.00000000  0.25000000  0.07848800  1
  Mn  Mn34  1  0.00000000  0.75000000  0.92151200  1
  Mn  Mn35  1  0.50000000  0.25000000  0.92151200  1
  Mn  Mn36  1  0.00000000  0.25000000  0.57848800  1
  Mn  Mn37  1  0.50000000  0.75000000  0.57848800  1
  Mn  Mn38  1  0.50000000  0.25000000  0.42151200  1
  Mn  Mn39  1  0.00000000  0.75000000  0.42151200  1
  O  O40  1  0.25000000  0.85829400  0.00000000  1
  O  O41  1  0.66588100  0.62327500  0.66484800  1
  O  O42  1  0.66588100  0.37672500  0.83515200  1
  O  O43  1  0.75000000  0.64170600  0.00000000  1
  O  O44  1  0.83411900  0.37672500  0.16484800  1
  O  O45  1  0.83411900  0.62327500  0.33515200  1
  O  O46  1  0.16588100  0.62327500  0.83515200  1
  O  O47  1  0.16588100  0.37672500  0.66484800  1
  O  O48  1  0.25000000  0.35829400  0.00000000  1
  O  O49  1  0.33411900  0.37672500  0.33515200  1
  O  O50  1  0.33411900  0.62327500  0.16484800  1
  O  O51  1  0.75000000  0.14170600  0.00000000  1
  O  O52  1  0.75000000  0.35829400  0.50000000  1
  O  O53  1  0.16588100  0.12327500  0.16484800  1
  O  O54  1  0.16588100  0.87672500  0.33515200  1
  O  O55  1  0.25000000  0.14170600  0.50000000  1
  O  O56  1  0.33411900  0.87672500  0.66484800  1
  O  O57  1  0.33411900  0.12327500  0.83515200  1
  O  O58  1  0.66588100  0.12327500  0.33515200  1
  O  O59  1  0.66588100  0.87672500  0.16484800  1
  O  O60  1  0.75000000  0.85829400  0.50000000  1
  O  O61  1  0.83411900  0.87672500  0.83515200  1
  O  O62  1  0.83411900  0.12327500  0.66484800  1
  O  O63  1  0.25000000  0.64170600  0.50000000  1
