# generated using pymatgen
data_Li4NbO4
_symmetry_space_group_name_H-M   'P 1'
_cell_length_a   7.05716800
_cell_length_b   8.47889600
_cell_length_c   6.54048900
_cell_angle_alpha   90.00000000
_cell_angle_beta   90.00000000
_cell_angle_gamma   90.00000000
_symmetry_Int_Tables_number   1
_chemical_formula_structural   Li4NbO4
_chemical_formula_sum   'Li16 Nb4 O16'
_cell_volume   391.36319795
_cell_formula_units_Z   4
loop_
 _symmetry_equiv_pos_site_id
 _symmetry_equiv_pos_as_xyz
  1  'x, y, z'
loop_
 _atom_site_type_symbol
 _atom_site_label
 _atom_site_symmetry_multiplicity
 _atom_site_fract_x
 _atom_site_fract_y
 _atom_site_fract_z
 _atom_site_occupancy
  Li  Li0  1  0.50000000  0.34396900  0.00000000  1
  Li  Li1  1  0.50000000  0.34396900  0.50000000  1
  Li  Li2  1  0.72209800  0.14195900  0.25000000  1
  Li  Li3  1  0.27790200  0.14195900  0.75000000  1
  Li  Li4  1  0.72209800  0.85804100  0.25000000  1
  Li  Li5  1  0.27790200  0.85804100  0.75000000  1
  Li  Li6  1  0.50000000  0.65603100  0.00000000  1
  Li  Li7  1  0.50000000  0.65603100  0.50000000  1
  Li  Li8  1  0.00000000  0.84396900  0.00000000  1
  Li  Li9  1  0.00000000  0.84396900  0.50000000  1
  Li  Li10  1  0.22209800  0.64195900  0.25000000  1
  Li  Li11  1  0.77790200  0.64195900  0.75000000  1
  Li  Li12  1  0.22209800  0.35804100  0.25000000  1
  Li  Li13  1  0.77790200  0.35804100  0.75000000  1
  Li  Li14  1  0.00000000  0.15603100  0.00000000  1
  Li  Li15  1  0.00000000  0.15603100  0.50000000  1
  Nb  Nb16  1  0.65201000  0.00000000  0.75000000  1
  Nb  Nb17  1  0.34799000  0.00000000  0.25000000  1
  Nb  Nb18  1  0.15201000  0.50000000  0.75000000  1
  Nb  Nb19  1  0.84799000  0.50000000  0.25000000  1
  O  O20  1  0.44982000  0.21609200  0.25000000  1
  O  O21  1  0.55018000  0.21609200  0.75000000  1
  O  O22  1  0.21914200  0.00000000  0.51097900  1
  O  O23  1  0.21914200  0.00000000  0.98902100  1
  O  O24  1  0.78085800  0.00000000  0.01097900  1
  O  O25  1  0.78085800  0.00000000  0.48902100  1
  O  O26  1  0.44982000  0.78390800  0.25000000  1
  O  O27  1  0.55018000  0.78390800  0.75000000  1
  O  O28  1  0.94982000  0.71609200  0.25000000  1
  O  O29  1  0.05018000  0.71609200  0.75000000  1
  O  O30  1  0.71914200  0.50000000  0.51097900  1
  O  O31  1  0.71914200  0.50000000  0.98902100  1
  O  O32  1  0.28085800  0.50000000  0.01097900  1
  O  O33  1  0.28085800  0.50000000  0.48902100  1
  O  O34  1  0.94982000  0.28390800  0.25000000  1
  O  O35  1  0.05018000  0.28390800  0.75000000  1
