# generated using pymatgen
data_Li3Cr3FeO8
_symmetry_space_group_name_H-M   'P 1'
_cell_length_a   5.14531155
_cell_length_b   7.75117187
_cell_length_c   7.79461858
_cell_angle_alpha   81.86831959
_cell_angle_beta   84.04967228
_cell_angle_gamma   70.76188175
_symmetry_Int_Tables_number   1
_chemical_formula_structural   Li3Cr3FeO8
_chemical_formula_sum   'Li6 Cr6 Fe2 O16'
_cell_volume   290.01391295
_cell_formula_units_Z   2
loop_
 _symmetry_equiv_pos_site_id
 _symmetry_equiv_pos_as_xyz
  1  'x, y, z'
loop_
 _atom_site_type_symbol
 _atom_site_label
 _atom_site_symmetry_multiplicity
 _atom_site_fract_x
 _atom_site_fract_y
 _atom_site_fract_z
 _atom_site_occupancy
  Li  Li0  1  0.99963000  0.87481350  0.86869950  1
  Li  Li1  1  0.99951600  0.75300050  0.25342850  1
  Li  Li2  1  0.00532800  0.37062150  0.36540050  1
  Li  Li3  1  0.99467200  0.62937850  0.63459950  1
  Li  Li4  1  0.00048400  0.24699950  0.74657150  1
  Li  Li5  1  0.00037000  0.12518650  0.13130050  1
  Cr  Cr6  1  0.50795100  0.80784350  0.06098350  1
  Cr  Cr7  1  0.49008300  0.68894150  0.43928150  1
  Cr  Cr8  1  0.50991700  0.31105850  0.56071850  1
  Cr  Cr9  1  0.49669700  0.93905750  0.68566350  1
  Cr  Cr10  1  0.50330300  0.06094250  0.31433650  1
  Cr  Cr11  1  0.49204900  0.19215650  0.93901650  1
  Fe  Fe12  1  0.50317300  0.56093450  0.81545050  1
  Fe  Fe13  1  0.49682700  0.43906550  0.18454950  1
  O  O14  1  0.71567200  0.71806950  0.83861050  1
  O  O15  1  0.71575000  0.84280850  0.46996850  1
  O  O16  1  0.71133200  0.58975150  0.22582850  1
  O  O17  1  0.72471600  0.47701150  0.60529450  1
  O  O18  1  0.70902900  0.35630550  0.97365450  1
  O  O19  1  0.71852100  0.23836850  0.33185450  1
  O  O20  1  0.71684200  0.10139050  0.72764150  1
  O  O21  1  0.28147900  0.76163150  0.66814550  1
  O  O22  1  0.72755500  0.97278750  0.09339150  1
  O  O23  1  0.27528400  0.52298850  0.39470550  1
  O  O24  1  0.28866800  0.41024850  0.77417150  1
  O  O25  1  0.29097100  0.64369450  0.02634550  1
  O  O26  1  0.28425000  0.15719150  0.53003150  1
  O  O27  1  0.28432800  0.28193050  0.16138950  1
  O  O28  1  0.27244500  0.02721250  0.90660850  1
  O  O29  1  0.28315800  0.89860950  0.27235850  1
