# generated using pymatgen
data_Fe2O3F
_symmetry_space_group_name_H-M   'P 1'
_cell_length_a   6.02281000
_cell_length_b   6.40146600
_cell_length_c   6.90539400
_cell_angle_alpha   90.00000000
_cell_angle_beta   90.00000000
_cell_angle_gamma   90.00000000
_symmetry_Int_Tables_number   1
_chemical_formula_structural   Fe2O3F
_chemical_formula_sum   'Fe8 O12 F4'
_cell_volume   266.23617740
_cell_formula_units_Z   4
loop_
 _symmetry_equiv_pos_site_id
 _symmetry_equiv_pos_as_xyz
  1  'x, y, z'
loop_
 _atom_site_type_symbol
 _atom_site_label
 _atom_site_symmetry_multiplicity
 _atom_site_fract_x
 _atom_site_fract_y
 _atom_site_fract_z
 _atom_site_occupancy
  Fe  Fe0  1  0.50000000  0.25000000  0.21536100  1
  Fe  Fe1  1  0.00000000  0.25000000  0.28463900  1
  Fe  Fe2  1  0.25000000  0.75000000  0.25000000  1
  Fe  Fe3  1  0.25000000  0.25000000  0.75000000  1
  Fe  Fe4  1  0.00000000  0.75000000  0.71536100  1
  Fe  Fe5  1  0.50000000  0.75000000  0.78463900  1
  Fe  Fe6  1  0.75000000  0.25000000  0.75000000  1
  Fe  Fe7  1  0.75000000  0.75000000  0.25000000  1
  O  O8  1  0.50000000  0.25000000  0.92827200  1
  O  O9  1  0.25000000  0.44311000  0.25000000  1
  O  O10  1  0.75000000  0.44311000  0.25000000  1
  O  O11  1  0.25000000  0.05689000  0.25000000  1
  O  O12  1  0.25000000  0.55689000  0.75000000  1
  O  O13  1  0.00000000  0.25000000  0.57172800  1
  O  O14  1  0.00000000  0.75000000  0.42827200  1
  O  O15  1  0.75000000  0.94311000  0.75000000  1
  O  O16  1  0.25000000  0.94311000  0.75000000  1
  O  O17  1  0.75000000  0.55689000  0.75000000  1
  O  O18  1  0.75000000  0.05689000  0.25000000  1
  O  O19  1  0.50000000  0.75000000  0.07172800  1
  F  F20  1  0.50000000  0.75000000  0.45248900  1
  F  F21  1  0.00000000  0.75000000  0.04751100  1
  F  F22  1  0.00000000  0.25000000  0.95248900  1
  F  F23  1  0.50000000  0.25000000  0.54751100  1
