# generated using pymatgen
data_NaV2O5
_symmetry_space_group_name_H-M   'P 1'
_cell_length_a   3.69130800
_cell_length_b   11.20600000
_cell_length_c   11.42386300
_cell_angle_alpha   90.00000000
_cell_angle_beta   90.00000000
_cell_angle_gamma   90.00000000
_symmetry_Int_Tables_number   1
_chemical_formula_structural   NaV2O5
_chemical_formula_sum   'Na4 V8 O20'
_cell_volume   472.54577907
_cell_formula_units_Z   4
loop_
 _symmetry_equiv_pos_site_id
 _symmetry_equiv_pos_as_xyz
  1  'x, y, z'
loop_
 _atom_site_type_symbol
 _atom_site_label
 _atom_site_symmetry_multiplicity
 _atom_site_fract_x
 _atom_site_fract_y
 _atom_site_fract_z
 _atom_site_occupancy
  Na  Na0  1  0.00000000  0.09654800  0.25000000  1
  Na  Na1  1  0.50000000  0.40345200  0.75000000  1
  Na  Na2  1  0.50000000  0.59654800  0.25000000  1
  Na  Na3  1  0.00000000  0.90345200  0.75000000  1
  V  V4  1  0.00000000  0.20416000  0.90033000  1
  V  V5  1  0.00000000  0.20416000  0.59967000  1
  V  V6  1  0.50000000  0.29584000  0.09967000  1
  V  V7  1  0.50000000  0.29584000  0.40033000  1
  V  V8  1  0.50000000  0.70416000  0.90033000  1
  V  V9  1  0.50000000  0.70416000  0.59967000  1
  V  V10  1  0.00000000  0.79584000  0.09967000  1
  V  V11  1  0.00000000  0.79584000  0.40033000  1
  O  O12  1  0.00000000  0.05909700  0.61650200  1
  O  O13  1  0.00000000  0.05909700  0.88349800  1
  O  O14  1  0.00000000  0.26803000  0.75000000  1
  O  O15  1  0.00000000  0.24320200  0.07086100  1
  O  O16  1  0.00000000  0.24320200  0.42913900  1
  O  O17  1  0.50000000  0.23197000  0.25000000  1
  O  O18  1  0.50000000  0.25679800  0.57086100  1
  O  O19  1  0.50000000  0.25679800  0.92913900  1
  O  O20  1  0.50000000  0.44090300  0.11650200  1
  O  O21  1  0.50000000  0.44090300  0.38349800  1
  O  O22  1  0.50000000  0.55909700  0.61650200  1
  O  O23  1  0.50000000  0.55909700  0.88349800  1
  O  O24  1  0.50000000  0.76803000  0.75000000  1
  O  O25  1  0.50000000  0.74320200  0.07086100  1
  O  O26  1  0.50000000  0.74320200  0.42913900  1
  O  O27  1  0.00000000  0.73197000  0.25000000  1
  O  O28  1  0.00000000  0.75679800  0.57086100  1
  O  O29  1  0.00000000  0.75679800  0.92913900  1
  O  O30  1  0.00000000  0.94090300  0.11650200  1
  O  O31  1  0.00000000  0.94090300  0.38349800  1
