# generated using pymatgen
data_Li3Fe5(NiO6)2
_symmetry_space_group_name_H-M   'P 1'
_cell_length_a   5.22056800
_cell_length_b   8.81807600
_cell_length_c   9.69906190
_cell_angle_alpha   90.00000000
_cell_angle_beta   98.63010354
_cell_angle_gamma   90.00000000
_symmetry_Int_Tables_number   1
_chemical_formula_structural   Li3Fe5(NiO6)2
_chemical_formula_sum   'Li6 Fe10 Ni4 O24'
_cell_volume   441.44444340
_cell_formula_units_Z   2
loop_
 _symmetry_equiv_pos_site_id
 _symmetry_equiv_pos_as_xyz
  1  'x, y, z'
loop_
 _atom_site_type_symbol
 _atom_site_label
 _atom_site_symmetry_multiplicity
 _atom_site_fract_x
 _atom_site_fract_y
 _atom_site_fract_z
 _atom_site_occupancy
  Li  Li0  1  0.23960850  0.09023850  0.74641300  1
  Li  Li1  1  0.76039150  0.09023850  0.25358700  1
  Li  Li2  1  0.50000000  0.41733300  0.50000000  1
  Li  Li3  1  0.73960850  0.59023850  0.74641300  1
  Li  Li4  1  0.26039150  0.59023850  0.25358700  1
  Li  Li5  1  0.00000000  0.91733300  0.50000000  1
  Fe  Fe6  1  0.50000000  0.57887600  0.00000000  1
  Fe  Fe7  1  0.50000000  0.92006000  0.00000000  1
  Fe  Fe8  1  0.50000000  0.07315500  0.50000000  1
  Fe  Fe9  1  0.25357800  0.24991900  0.25431000  1
  Fe  Fe10  1  0.74642200  0.24991900  0.74569000  1
  Fe  Fe11  1  0.00000000  0.07887600  0.00000000  1
  Fe  Fe12  1  0.00000000  0.42006000  0.00000000  1
  Fe  Fe13  1  0.00000000  0.57315500  0.50000000  1
  Fe  Fe14  1  0.75357800  0.74991900  0.25431000  1
  Fe  Fe15  1  0.24642200  0.74991900  0.74569000  1
  Ni  Ni16  1  0.50000000  0.75331500  0.50000000  1
  Ni  Ni17  1  0.50000000  0.25532400  0.00000000  1
  Ni  Ni18  1  0.00000000  0.25331500  0.50000000  1
  Ni  Ni19  1  0.00000000  0.75532400  0.00000000  1
  O  O20  1  0.39793750  0.74680750  0.12186200  1
  O  O21  1  0.60206250  0.74680750  0.87813800  1
  O  O22  1  0.15117750  0.91698550  0.88006400  1
  O  O23  1  0.37121750  0.90817750  0.60802200  1
  O  O24  1  0.62878250  0.90817750  0.39197800  1
  O  O25  1  0.12221750  0.10579650  0.38587500  1
  O  O26  1  0.36011400  0.09192200  0.11604000  1
  O  O27  1  0.84882250  0.91698550  0.11993600  1
  O  O28  1  0.40437100  0.22596100  0.62203000  1
  O  O29  1  0.63988600  0.09192200  0.88396000  1
  O  O30  1  0.87778250  0.10579650  0.61412500  1
  O  O31  1  0.59562900  0.22596100  0.37797000  1
  O  O32  1  0.89793750  0.24680750  0.12186200  1
  O  O33  1  0.10206250  0.24680750  0.87813800  1
  O  O34  1  0.65117750  0.41698550  0.88006400  1
  O  O35  1  0.87121750  0.40817750  0.60802200  1
  O  O36  1  0.12878250  0.40817750  0.39197800  1
  O  O37  1  0.62221750  0.60579650  0.38587500  1
  O  O38  1  0.86011400  0.59192200  0.11604000  1
  O  O39  1  0.34882250  0.41698550  0.11993600  1
  O  O40  1  0.90437100  0.72596100  0.62203000  1
  O  O41  1  0.13988600  0.59192200  0.88396000  1
  O  O42  1  0.37778250  0.60579650  0.61412500  1
  O  O43  1  0.09562900  0.72596100  0.37797000  1
