# generated using pymatgen
data_Tm6WO12
_symmetry_space_group_name_H-M   'P 1'
_cell_length_a   9.70295505
_cell_length_b   9.70295505
_cell_length_c   9.24561042
_cell_angle_alpha   90.00000000
_cell_angle_beta   90.00000000
_cell_angle_gamma   120.00000000
_symmetry_Int_Tables_number   1
_chemical_formula_structural   Tm6WO12
_chemical_formula_sum   'Tm18 W3 O36'
_cell_volume   753.83146397
_cell_formula_units_Z   3
loop_
 _symmetry_equiv_pos_site_id
 _symmetry_equiv_pos_as_xyz
  1  'x, y, z'
loop_
 _atom_site_type_symbol
 _atom_site_label
 _atom_site_symmetry_multiplicity
 _atom_site_fract_x
 _atom_site_fract_y
 _atom_site_fract_z
 _atom_site_occupancy
  Tm  Tm0  1  0.74698700  0.78630400  0.64189500  1
  Tm  Tm1  1  0.96068300  0.74698700  0.35810500  1
  Tm  Tm2  1  0.78630400  0.03931700  0.35810500  1
  Tm  Tm3  1  0.21369600  0.96068300  0.64189500  1
  Tm  Tm4  1  0.03931700  0.25301300  0.64189500  1
  Tm  Tm5  1  0.25301300  0.21369600  0.35810500  1
  Tm  Tm6  1  0.41365367  0.11963733  0.97522833  1
  Tm  Tm7  1  0.62734967  0.08032033  0.69143833  1
  Tm  Tm8  1  0.45297067  0.37265033  0.69143833  1
  Tm  Tm9  1  0.88036267  0.29401633  0.97522833  1
  Tm  Tm10  1  0.70598367  0.58634633  0.97522833  1
  Tm  Tm11  1  0.91967967  0.54702933  0.69143833  1
  Tm  Tm12  1  0.08032033  0.45297067  0.30856167  1
  Tm  Tm13  1  0.29401633  0.41365367  0.02477167  1
  Tm  Tm14  1  0.11963733  0.70598367  0.02477167  1
  Tm  Tm15  1  0.54702933  0.62734967  0.30856167  1
  Tm  Tm16  1  0.37265033  0.91967967  0.30856167  1
  Tm  Tm17  1  0.58634633  0.88036267  0.02477167  1
  W  W18  1  0.00000000  0.00000000  0.00000000  1
  W  W19  1  0.66666667  0.33333333  0.33333333  1
  W  W20  1  0.33333333  0.66666667  0.66666667  1
  O  O21  1  0.48364733  0.63135067  0.55207967  1
  O  O22  1  0.85229667  0.48364733  0.44792033  1
  O  O23  1  0.77825667  0.80896833  0.39911333  1
  O  O24  1  0.96928833  0.77825667  0.60088667  1
  O  O25  1  0.63135067  0.14770333  0.44792033  1
  O  O26  1  0.80896833  0.03071167  0.60088667  1
  O  O27  1  0.19103167  0.96928833  0.39911333  1
  O  O28  1  0.36864933  0.85229667  0.55207967  1
  O  O29  1  0.03071167  0.22174333  0.39911333  1
  O  O30  1  0.22174333  0.19103167  0.60088667  1
  O  O31  1  0.14770333  0.51635267  0.55207967  1
  O  O32  1  0.51635267  0.36864933  0.44792033  1
  O  O33  1  0.15031400  0.96468400  0.88541300  1
  O  O34  1  0.51896333  0.81698067  0.78125367  1
  O  O35  1  0.44492333  0.14230167  0.73244667  1
  O  O36  1  0.63595500  0.11159000  0.93422000  1
  O  O37  1  0.29801733  0.48103667  0.78125367  1
  O  O38  1  0.47563500  0.36404500  0.93422000  1
  O  O39  1  0.85769833  0.30262167  0.73244667  1
  O  O40  1  0.03531600  0.18563000  0.88541300  1
  O  O41  1  0.69737833  0.55507667  0.73244667  1
  O  O42  1  0.88841000  0.52436500  0.93422000  1
  O  O43  1  0.81437000  0.84968600  0.88541300  1
  O  O44  1  0.18301933  0.70198267  0.78125367  1
  O  O45  1  0.81698067  0.29801733  0.21874633  1
  O  O46  1  0.18563000  0.15031400  0.11458700  1
  O  O47  1  0.11159000  0.47563500  0.06578000  1
  O  O48  1  0.30262167  0.44492333  0.26755333  1
  O  O49  1  0.96468400  0.81437000  0.11458700  1
  O  O50  1  0.14230167  0.69737833  0.26755333  1
  O  O51  1  0.52436500  0.63595500  0.06578000  1
  O  O52  1  0.70198267  0.51896333  0.21874633  1
  O  O53  1  0.36404500  0.88841000  0.06578000  1
  O  O54  1  0.55507667  0.85769833  0.26755333  1
  O  O55  1  0.48103667  0.18301933  0.21874633  1
  O  O56  1  0.84968600  0.03531600  0.11458700  1
