# generated using pymatgen
data_LiCoSiO4
_symmetry_space_group_name_H-M   'P 1'
_cell_length_a   5.51301929
_cell_length_b   5.51301929
_cell_length_c   11.24488347
_cell_angle_alpha   90.00000000
_cell_angle_beta   90.00000000
_cell_angle_gamma   120.00000000
_symmetry_Int_Tables_number   1
_chemical_formula_structural   LiCoSiO4
_chemical_formula_sum   'Li3 Co3 Si3 O12'
_cell_volume   295.98153339
_cell_formula_units_Z   3
loop_
 _symmetry_equiv_pos_site_id
 _symmetry_equiv_pos_as_xyz
  1  'x, y, z'
loop_
 _atom_site_type_symbol
 _atom_site_label
 _atom_site_symmetry_multiplicity
 _atom_site_fract_x
 _atom_site_fract_y
 _atom_site_fract_z
 _atom_site_occupancy
  Li  Li0  1  0.00000000  0.00000000  0.66666667  1
  Li  Li1  1  0.00000000  0.00000000  0.00000000  1
  Li  Li2  1  0.00000000  0.00000000  0.33333333  1
  Co  Co3  1  0.00000000  0.50000000  0.66666667  1
  Co  Co4  1  0.50000000  0.50000000  0.33333333  1
  Co  Co5  1  0.50000000  0.00000000  0.00000000  1
  Si  Si6  1  0.00000000  0.50000000  0.16666667  1
  Si  Si7  1  0.50000000  0.50000000  0.83333333  1
  Si  Si8  1  0.50000000  0.00000000  0.50000000  1
  O  O9  1  0.22372050  0.82889100  0.58568150  1
  O  O10  1  0.17110900  0.77627950  0.08098517  1
  O  O11  1  0.22372050  0.39482950  0.74765183  1
  O  O12  1  0.17110900  0.39482950  0.25234817  1
  O  O13  1  0.60517050  0.77627950  0.91901483  1
  O  O14  1  0.60517050  0.82889100  0.41431850  1
  O  O15  1  0.39482950  0.22372050  0.91901483  1
  O  O16  1  0.39482950  0.17110900  0.41431850  1
  O  O17  1  0.77627950  0.60517050  0.74765183  1
  O  O18  1  0.82889100  0.60517050  0.25234817  1
  O  O19  1  0.77627950  0.17110900  0.58568150  1
  O  O20  1  0.82889100  0.22372050  0.08098517  1
