# generated using pymatgen
data_Li4NbV3O8
_symmetry_space_group_name_H-M   'P 1'
_cell_length_a   10.38260346
_cell_length_b   6.02166375
_cell_length_c   6.08660883
_cell_angle_alpha   90.00000000
_cell_angle_beta   124.79143429
_cell_angle_gamma   90.00000000
_symmetry_Int_Tables_number   1
_chemical_formula_structural   Li4NbV3O8
_chemical_formula_sum   'Li8 Nb2 V6 O16'
_cell_volume   312.51103496
_cell_formula_units_Z   2
loop_
 _symmetry_equiv_pos_site_id
 _symmetry_equiv_pos_as_xyz
  1  'x, y, z'
loop_
 _atom_site_type_symbol
 _atom_site_label
 _atom_site_symmetry_multiplicity
 _atom_site_fract_x
 _atom_site_fract_y
 _atom_site_fract_z
 _atom_site_occupancy
  Li  Li0  1  0.00000000  0.50000000  0.00000000  1
  Li  Li1  1  0.75000000  0.25000000  0.00000000  1
  Li  Li2  1  0.75000000  0.75000000  0.00000000  1
  Li  Li3  1  0.00000000  0.00000000  0.00000000  1
  Li  Li4  1  0.50000000  0.00000000  0.00000000  1
  Li  Li5  1  0.25000000  0.75000000  0.00000000  1
  Li  Li6  1  0.25000000  0.25000000  0.00000000  1
  Li  Li7  1  0.50000000  0.50000000  0.00000000  1
  Nb  Nb8  1  0.50000000  0.50000000  0.50000000  1
  Nb  Nb9  1  0.00000000  0.00000000  0.50000000  1
  V  V10  1  0.25000000  0.25000000  0.50000000  1
  V  V11  1  0.25000000  0.75000000  0.50000000  1
  V  V12  1  0.00000000  0.50000000  0.50000000  1
  V  V13  1  0.75000000  0.75000000  0.50000000  1
  V  V14  1  0.75000000  0.25000000  0.50000000  1
  V  V15  1  0.50000000  0.00000000  0.50000000  1
  O  O16  1  0.75131750  0.50000000  0.27469700  1
  O  O17  1  0.00669250  0.75651550  0.26108400  1
  O  O18  1  0.50669250  0.74348450  0.26108400  1
  O  O19  1  0.74868250  0.00000000  0.72530300  1
  O  O20  1  0.25290200  0.50000000  0.25887400  1
  O  O21  1  0.49330750  0.74348450  0.73891600  1
  O  O22  1  0.99330750  0.75651550  0.73891600  1
  O  O23  1  0.24709800  0.00000000  0.74112600  1
  O  O24  1  0.25131750  0.00000000  0.27469700  1
  O  O25  1  0.50669250  0.25651550  0.26108400  1
  O  O26  1  0.00669250  0.24348450  0.26108400  1
  O  O27  1  0.24868250  0.50000000  0.72530300  1
  O  O28  1  0.75290200  0.00000000  0.25887400  1
  O  O29  1  0.99330750  0.24348450  0.73891600  1
  O  O30  1  0.49330750  0.25651550  0.73891600  1
  O  O31  1  0.74709800  0.50000000  0.74112600  1
