# generated using pymatgen
data_La4CuO8
_symmetry_space_group_name_H-M   'P 1'
_cell_length_a   5.28760600
_cell_length_b   13.06178600
_cell_length_c   5.27671700
_cell_angle_alpha   90.00000000
_cell_angle_beta   90.00000000
_cell_angle_gamma   90.00000000
_symmetry_Int_Tables_number   1
_chemical_formula_structural   La4CuO8
_chemical_formula_sum   'La8 Cu2 O16'
_cell_volume   364.43950968
_cell_formula_units_Z   2
loop_
 _symmetry_equiv_pos_site_id
 _symmetry_equiv_pos_as_xyz
  1  'x, y, z'
loop_
 _atom_site_type_symbol
 _atom_site_label
 _atom_site_symmetry_multiplicity
 _atom_site_fract_x
 _atom_site_fract_y
 _atom_site_fract_z
 _atom_site_occupancy
  La  La0  1  0.00000000  0.13439700  0.00000000  1
  La  La1  1  0.50000000  0.36560300  0.00000000  1
  La  La2  1  0.50000000  0.13643900  0.50000000  1
  La  La3  1  0.00000000  0.36356100  0.50000000  1
  La  La4  1  0.50000000  0.63439700  0.00000000  1
  La  La5  1  0.00000000  0.86560300  0.00000000  1
  La  La6  1  0.00000000  0.63643900  0.50000000  1
  La  La7  1  0.50000000  0.86356100  0.50000000  1
  Cu  Cu8  1  0.50000000  0.00000000  0.00000000  1
  Cu  Cu9  1  0.00000000  0.50000000  0.00000000  1
  O  O10  1  0.50000000  0.18147300  0.00000000  1
  O  O11  1  0.00000000  0.31852700  0.00000000  1
  O  O12  1  0.25430800  0.00000000  0.75618300  1
  O  O13  1  0.74569200  0.00000000  0.75618300  1
  O  O14  1  0.00000000  0.18594500  0.50000000  1
  O  O15  1  0.50000000  0.31405500  0.50000000  1
  O  O16  1  0.25430800  0.00000000  0.24381700  1
  O  O17  1  0.74569200  0.00000000  0.24381700  1
  O  O18  1  0.00000000  0.68147300  0.00000000  1
  O  O19  1  0.50000000  0.81852700  0.00000000  1
  O  O20  1  0.75430800  0.50000000  0.75618300  1
  O  O21  1  0.24569200  0.50000000  0.75618300  1
  O  O22  1  0.50000000  0.68594500  0.50000000  1
  O  O23  1  0.00000000  0.81405500  0.50000000  1
  O  O24  1  0.75430800  0.50000000  0.24381700  1
  O  O25  1  0.24569200  0.50000000  0.24381700  1
