# generated using pymatgen
data_Li2Ti3FeO8
_symmetry_space_group_name_H-M   'P 1'
_cell_length_a   5.95514600
_cell_length_b   5.95514600
_cell_length_c   9.87048131
_cell_angle_alpha   90.00000000
_cell_angle_beta   90.00000000
_cell_angle_gamma   120.00000000
_symmetry_Int_Tables_number   1
_chemical_formula_structural   Li2Ti3FeO8
_chemical_formula_sum   'Li4 Ti6 Fe2 O16'
_cell_volume   303.14735926
_cell_formula_units_Z   2
loop_
 _symmetry_equiv_pos_site_id
 _symmetry_equiv_pos_as_xyz
  1  'x, y, z'
loop_
 _atom_site_type_symbol
 _atom_site_label
 _atom_site_symmetry_multiplicity
 _atom_site_fract_x
 _atom_site_fract_y
 _atom_site_fract_z
 _atom_site_occupancy
  Li  Li0  1  0.33333333  0.66666667  0.39026600  1
  Li  Li1  1  0.66666667  0.33333333  0.89026600  1
  Li  Li2  1  0.00000000  0.00000000  0.49902150  1
  Li  Li3  1  0.00000000  0.00000000  0.99902150  1
  Ti  Ti4  1  0.16788000  0.83212000  0.71476800  1
  Ti  Ti5  1  0.16788000  0.33576000  0.71476800  1
  Ti  Ti6  1  0.66424000  0.83212000  0.71476800  1
  Ti  Ti7  1  0.33576000  0.16788000  0.21476800  1
  Ti  Ti8  1  0.83212000  0.66424000  0.21476800  1
  Ti  Ti9  1  0.83212000  0.16788000  0.21476800  1
  Fe  Fe10  1  0.33333333  0.66666667  0.99266050  1
  Fe  Fe11  1  0.66666667  0.33333333  0.49266050  1
  O  O12  1  0.33333333  0.66666667  0.60579700  1
  O  O13  1  0.66666667  0.33333333  0.10579700  1
  O  O14  1  0.00000000  0.00000000  0.81566250  1
  O  O15  1  0.00000000  0.00000000  0.31566250  1
  O  O16  1  0.15463675  0.84536325  0.10877650  1
  O  O17  1  0.15463675  0.30927350  0.10877650  1
  O  O18  1  0.30927350  0.15463675  0.60877650  1
  O  O19  1  0.69072650  0.84536325  0.10877650  1
  O  O20  1  0.84536325  0.69072650  0.60877650  1
  O  O21  1  0.84536325  0.15463675  0.60877650  1
  O  O22  1  0.03766700  0.51883350  0.82769250  1
  O  O23  1  0.48116650  0.96233300  0.82769250  1
  O  O24  1  0.48116650  0.51883350  0.82769250  1
  O  O25  1  0.51883350  0.48116650  0.32769250  1
  O  O26  1  0.51883350  0.03766700  0.32769250  1
  O  O27  1  0.96233300  0.48116650  0.32769250  1
