# generated using pymatgen
data_Li3Ti2(PO4)3
_symmetry_space_group_name_H-M   'P 1'
_cell_length_a   14.73678000
_cell_length_b   8.94216000
_cell_length_c   8.59478918
_cell_angle_alpha   90.00000000
_cell_angle_beta   122.68033485
_cell_angle_gamma   90.00000000
_symmetry_Int_Tables_number   1
_chemical_formula_structural   Li3Ti2(PO4)3
_chemical_formula_sum   'Li12 Ti8 P12 O48'
_cell_volume   953.31320287
_cell_formula_units_Z   4
loop_
 _symmetry_equiv_pos_site_id
 _symmetry_equiv_pos_as_xyz
  1  'x, y, z'
loop_
 _atom_site_type_symbol
 _atom_site_label
 _atom_site_symmetry_multiplicity
 _atom_site_fract_x
 _atom_site_fract_y
 _atom_site_fract_z
 _atom_site_occupancy
  Li  Li0  1  0.24946000  0.75479600  0.77714700  1
  Li  Li1  1  0.50000000  0.15335200  0.50000000  1
  Li  Li2  1  0.75054000  0.75479600  0.22285300  1
  Li  Li3  1  0.50000000  0.84145600  0.00000000  1
  Li  Li4  1  0.20495900  0.95558800  0.41118300  1
  Li  Li5  1  0.79504100  0.95558800  0.58881700  1
  Li  Li6  1  0.74946000  0.25479600  0.77714700  1
  Li  Li7  1  0.00000000  0.65335200  0.50000000  1
  Li  Li8  1  0.25054000  0.25479600  0.22285300  1
  Li  Li9  1  0.00000000  0.34145600  0.00000000  1
  Li  Li10  1  0.70495900  0.45558800  0.41118300  1
  Li  Li11  1  0.29504100  0.45558800  0.58881700  1
  Ti  Ti12  1  0.60809650  0.25394750  0.89592700  1
  Ti  Ti13  1  0.39190350  0.25394750  0.10407300  1
  Ti  Ti14  1  0.60153500  0.75015700  0.39673900  1
  Ti  Ti15  1  0.39846500  0.75015700  0.60326100  1
  Ti  Ti16  1  0.10809650  0.75394750  0.89592700  1
  Ti  Ti17  1  0.89190350  0.75394750  0.10407300  1
  Ti  Ti18  1  0.10153500  0.25015700  0.39673900  1
  Ti  Ti19  1  0.89846500  0.25015700  0.60326100  1
  P  P20  1  0.65102750  0.90221850  0.80191000  1
  P  P21  1  0.34897250  0.90221850  0.19809000  1
  P  P22  1  0.50000000  0.44988300  0.50000000  1
  P  P23  1  0.50000000  0.54426600  0.00000000  1
  P  P24  1  0.64510900  0.10462000  0.29624200  1
  P  P25  1  0.35489100  0.10462000  0.70375800  1
  P  P26  1  0.15102750  0.40221850  0.80191000  1
  P  P27  1  0.84897250  0.40221850  0.19809000  1
  P  P28  1  0.00000000  0.94988300  0.50000000  1
  P  P29  1  0.00000000  0.04426600  0.00000000  1
  P  P30  1  0.14510900  0.60462000  0.29624200  1
  P  P31  1  0.85489100  0.60462000  0.70375800  1
  O  O32  1  0.35259200  0.15081600  0.87297500  1
  O  O33  1  0.93824650  0.94621450  0.05826100  1
  O  O34  1  0.65797050  0.07593750  0.80249500  1
  O  O35  1  0.54057350  0.15828250  0.27858500  1
  O  O36  1  0.73862600  0.83399700  0.98923900  1
  O  O37  1  0.54107900  0.84949100  0.76788600  1
  O  O38  1  0.26137400  0.83399700  0.01076100  1
  O  O39  1  0.34202950  0.07593750  0.19750500  1
  O  O40  1  0.41518500  0.34312600  0.34632900  1
  O  O41  1  0.06175350  0.94621450  0.94173900  1
  O  O42  1  0.41571150  0.65126150  0.84274400  1
  O  O43  1  0.64740800  0.15081600  0.12702500  1
  O  O44  1  0.33709800  0.85287100  0.35937500  1
  O  O45  1  0.58481500  0.34312600  0.65367100  1
  O  O46  1  0.93746300  0.04597200  0.56054200  1
  O  O47  1  0.58428850  0.65126150  0.15725600  1
  O  O48  1  0.66082850  0.93046850  0.31526200  1
  O  O49  1  0.73950950  0.17025450  0.48436200  1
  O  O50  1  0.45942650  0.15828250  0.72141500  1
  O  O51  1  0.26049050  0.17025450  0.51563800  1
  O  O52  1  0.45892100  0.84949100  0.23211400  1
  O  O53  1  0.33917150  0.93046850  0.68473800  1
  O  O54  1  0.06253700  0.04597200  0.43945800  1
  O  O55  1  0.66290200  0.85287100  0.64062500  1
  O  O56  1  0.85259200  0.65081600  0.87297500  1
  O  O57  1  0.43824650  0.44621450  0.05826100  1
  O  O58  1  0.15797050  0.57593750  0.80249500  1
  O  O59  1  0.04057350  0.65828250  0.27858500  1
  O  O60  1  0.23862600  0.33399700  0.98923900  1
  O  O61  1  0.04107900  0.34949100  0.76788600  1
  O  O62  1  0.76137400  0.33399700  0.01076100  1
  O  O63  1  0.84202950  0.57593750  0.19750500  1
  O  O64  1  0.91518500  0.84312600  0.34632900  1
  O  O65  1  0.56175350  0.44621450  0.94173900  1
  O  O66  1  0.91571150  0.15126150  0.84274400  1
  O  O67  1  0.14740800  0.65081600  0.12702500  1
  O  O68  1  0.83709800  0.35287100  0.35937500  1
  O  O69  1  0.08481500  0.84312600  0.65367100  1
  O  O70  1  0.43746300  0.54597200  0.56054200  1
  O  O71  1  0.08428850  0.15126150  0.15725600  1
  O  O72  1  0.16082850  0.43046850  0.31526200  1
  O  O73  1  0.23950950  0.67025450  0.48436200  1
  O  O74  1  0.95942650  0.65828250  0.72141500  1
  O  O75  1  0.76049050  0.67025450  0.51563800  1
  O  O76  1  0.95892100  0.34949100  0.23211400  1
  O  O77  1  0.83917150  0.43046850  0.68473800  1
  O  O78  1  0.56253700  0.54597200  0.43945800  1
  O  O79  1  0.16290200  0.35287100  0.64062500  1
