# generated using pymatgen
data_Li5Fe2P2(CO7)2
_symmetry_space_group_name_H-M   'P 1'
_cell_length_a   5.04697900
_cell_length_b   6.49638800
_cell_length_c   8.43464852
_cell_angle_alpha   90.00000000
_cell_angle_beta   94.77941900
_cell_angle_gamma   90.00000000
_symmetry_Int_Tables_number   1
_chemical_formula_structural   Li5Fe2P2(CO7)2
_chemical_formula_sum   'Li5 Fe2 P2 C2 O14'
_cell_volume   275.58635157
_cell_formula_units_Z   1
loop_
 _symmetry_equiv_pos_site_id
 _symmetry_equiv_pos_as_xyz
  1  'x, y, z'
loop_
 _atom_site_type_symbol
 _atom_site_label
 _atom_site_symmetry_multiplicity
 _atom_site_fract_x
 _atom_site_fract_y
 _atom_site_fract_z
 _atom_site_occupancy
  Li  Li0  1  0.24939800  0.73301100  0.74043000  1
  Li  Li1  1  0.24939800  0.26698900  0.74043000  1
  Li  Li2  1  0.74624800  0.23538200  0.25893400  1
  Li  Li3  1  0.74624800  0.76461800  0.25893400  1
  Li  Li4  1  0.23563800  0.00000000  0.08993500  1
  Fe  Fe5  1  0.78794100  0.00000000  0.66287800  1
  Fe  Fe6  1  0.21089500  0.50000000  0.33643700  1
  P  P7  1  0.73681200  0.50000000  0.58230800  1
  P  P8  1  0.28609300  0.00000000  0.41484800  1
  C  C9  1  0.69819300  0.00000000  0.96309100  1
  C  C10  1  0.28498800  0.50000000  0.04627400  1
  O  O11  1  0.94149800  0.00000000  0.92649200  1
  O  O12  1  0.32816100  0.50000000  0.90102800  1
  O  O13  1  0.50768600  0.00000000  0.84900900  1
  O  O14  1  0.83702500  0.69023300  0.67480800  1
  O  O15  1  0.83702500  0.30976700  0.67480800  1
  O  O16  1  0.18660400  0.00000000  0.58181000  1
  O  O17  1  0.42214900  0.50000000  0.55256900  1
  O  O18  1  0.59467100  0.00000000  0.42570900  1
  O  O19  1  0.83860200  0.50000000  0.41010200  1
  O  O20  1  0.17723900  0.18771800  0.31217700  1
  O  O21  1  0.17723900  0.81228200  0.31217700  1
  O  O22  1  0.48150100  0.50000000  0.16292800  1
  O  O23  1  0.63835900  0.00000000  0.10956600  1
  O  O24  1  0.04964500  0.50000000  0.09924800  1
