# generated using pymatgen
data_LiFe23O32
_symmetry_space_group_name_H-M   'P 1'
_cell_length_a   12.12064153
_cell_length_b   12.12064153
_cell_length_c   14.85088374
_cell_angle_alpha   90.00000000
_cell_angle_beta   90.00000000
_cell_angle_gamma   120.00000000
_symmetry_Int_Tables_number   1
_chemical_formula_structural   LiFe23O32
_chemical_formula_sum   'Li3 Fe69 O96'
_cell_volume   1889.44451896
_cell_formula_units_Z   3
loop_
 _symmetry_equiv_pos_site_id
 _symmetry_equiv_pos_as_xyz
  1  'x, y, z'
loop_
 _atom_site_type_symbol
 _atom_site_label
 _atom_site_symmetry_multiplicity
 _atom_site_fract_x
 _atom_site_fract_y
 _atom_site_fract_z
 _atom_site_occupancy
  Li  Li0  1  0.00000000  0.00000000  0.00000000  1
  Li  Li1  1  0.66666667  0.33333333  0.33333333  1
  Li  Li2  1  0.33333333  0.66666667  0.66666667  1
  Fe  Fe3  1  0.33361200  0.16680600  0.28987500  1
  Fe  Fe4  1  0.24948600  0.49897200  0.50424000  1
  Fe  Fe5  1  0.16666667  0.33333333  0.33333333  1
  Fe  Fe6  1  0.75051400  0.50102800  0.49576000  1
  Fe  Fe7  1  0.16680600  0.83319400  0.71012500  1
  Fe  Fe8  1  0.66638800  0.83319400  0.71012500  1
  Fe  Fe9  1  0.50102800  0.75051400  0.50424000  1
  Fe  Fe10  1  0.75140200  0.75140200  0.50000000  1
  Fe  Fe11  1  0.24948600  0.75051400  0.50424000  1
  Fe  Fe12  1  0.00000000  0.75140200  0.50000000  1
  Fe  Fe13  1  0.00000000  0.00000000  0.62984600  1
  Fe  Fe14  1  0.83319400  0.66638800  0.28987500  1
  Fe  Fe15  1  0.66666667  0.83333333  0.33333333  1
  Fe  Fe16  1  0.75140200  0.00000000  0.50000000  1
  Fe  Fe17  1  0.24859800  0.00000000  0.50000000  1
  Fe  Fe18  1  0.16666667  0.83333333  0.33333333  1
  Fe  Fe19  1  0.16680600  0.33361200  0.71012500  1
  Fe  Fe20  1  0.00000000  0.00000000  0.37015400  1
  Fe  Fe21  1  0.24859800  0.24859800  0.50000000  1
  Fe  Fe22  1  0.00000000  0.24859800  0.50000000  1
  Fe  Fe23  1  0.49897200  0.24948600  0.49576000  1
  Fe  Fe24  1  0.75051400  0.24948600  0.49576000  1
  Fe  Fe25  1  0.83319400  0.16680600  0.28987500  1
  Fe  Fe26  1  0.00027867  0.50013933  0.62320833  1
  Fe  Fe27  1  0.91615267  0.83230533  0.83757333  1
  Fe  Fe28  1  0.83333333  0.66666667  0.66666667  1
  Fe  Fe29  1  0.41718067  0.83436133  0.82909333  1
  Fe  Fe30  1  0.83347267  0.16652733  0.04345833  1
  Fe  Fe31  1  0.33305467  0.16652733  0.04345833  1
  Fe  Fe32  1  0.16769467  0.08384733  0.83757333  1
  Fe  Fe33  1  0.41806867  0.08473533  0.83333333  1
  Fe  Fe34  1  0.91615267  0.08384733  0.83757333  1
  Fe  Fe35  1  0.66666667  0.08473533  0.83333333  1
  Fe  Fe36  1  0.66666667  0.33333333  0.96317933  1
  Fe  Fe37  1  0.49986067  0.99972133  0.62320833  1
  Fe  Fe38  1  0.33333333  0.16666667  0.66666667  1
  Fe  Fe39  1  0.41806867  0.33333333  0.83333333  1
  Fe  Fe40  1  0.91526467  0.33333333  0.83333333  1
  Fe  Fe41  1  0.83333333  0.16666667  0.66666667  1
  Fe  Fe42  1  0.83347267  0.66694533  0.04345833  1
  Fe  Fe43  1  0.66666667  0.33333333  0.70348733  1
  Fe  Fe44  1  0.91526467  0.58193133  0.83333333  1
  Fe  Fe45  1  0.66666667  0.58193133  0.83333333  1
  Fe  Fe46  1  0.16563867  0.58281933  0.82909333  1
  Fe  Fe47  1  0.41718067  0.58281933  0.82909333  1
  Fe  Fe48  1  0.49986067  0.50013933  0.62320833  1
  Fe  Fe49  1  0.66694533  0.83347267  0.95654167  1
  Fe  Fe50  1  0.58281933  0.16563867  0.17090667  1
  Fe  Fe51  1  0.50000000  0.00000000  0.00000000  1
  Fe  Fe52  1  0.08384733  0.16769467  0.16242667  1
  Fe  Fe53  1  0.50013933  0.49986067  0.37679167  1
  Fe  Fe54  1  0.99972133  0.49986067  0.37679167  1
  Fe  Fe55  1  0.83436133  0.41718067  0.17090667  1
  Fe  Fe56  1  0.08473533  0.41806867  0.16666667  1
  Fe  Fe57  1  0.58281933  0.41718067  0.17090667  1
  Fe  Fe58  1  0.33333333  0.41806867  0.16666667  1
  Fe  Fe59  1  0.33333333  0.66666667  0.29651267  1
  Fe  Fe60  1  0.16652733  0.33305467  0.95654167  1
  Fe  Fe61  1  0.00000000  0.50000000  0.00000000  1
  Fe  Fe62  1  0.08473533  0.66666667  0.16666667  1
  Fe  Fe63  1  0.58193133  0.66666667  0.16666667  1
  Fe  Fe64  1  0.50000000  0.50000000  0.00000000  1
  Fe  Fe65  1  0.50013933  0.00027867  0.37679167  1
  Fe  Fe66  1  0.33333333  0.66666667  0.03682067  1
  Fe  Fe67  1  0.58193133  0.91526467  0.16666667  1
  Fe  Fe68  1  0.33333333  0.91526467  0.16666667  1
  Fe  Fe69  1  0.83230533  0.91615267  0.16242667  1
  Fe  Fe70  1  0.08384733  0.91615267  0.16242667  1
  Fe  Fe71  1  0.16652733  0.83347267  0.95654167  1
  O  O72  1  0.32207833  0.41614867  0.41696667  1
  O  O73  1  0.91890433  0.08109567  0.09132967  1
  O  O74  1  0.16219133  0.08109567  0.09132967  1
  O  O75  1  0.67792167  0.58385133  0.58303333  1
  O  O76  1  0.09407033  0.41614867  0.41696667  1
  O  O77  1  0.08109567  0.91890433  0.90867033  1
  O  O78  1  0.83780867  0.91890433  0.90867033  1
  O  O79  1  0.90592967  0.58385133  0.58303333  1
  O  O80  1  0.00000000  0.00000000  0.76173500  1
  O  O81  1  0.91343333  0.82686667  0.58674467  1
  O  O82  1  0.82908033  0.65816067  0.41828067  1
  O  O83  1  0.17091967  0.82908033  0.58171933  1
  O  O84  1  0.08109567  0.16219133  0.90867033  1
  O  O85  1  0.58385133  0.67792167  0.41696667  1
  O  O86  1  0.65816067  0.82908033  0.58171933  1
  O  O87  1  0.09407033  0.67792167  0.41696667  1
  O  O88  1  0.58385133  0.90592967  0.41696667  1
  O  O89  1  0.32207833  0.90592967  0.41696667  1
  O  O90  1  0.08656667  0.91343333  0.41325533  1
  O  O91  1  0.91343333  0.08656667  0.58674467  1
  O  O92  1  0.82686667  0.91343333  0.41325533  1
  O  O93  1  0.17313333  0.08656667  0.58674467  1
  O  O94  1  0.41614867  0.09407033  0.58303333  1
  O  O95  1  0.67792167  0.09407033  0.58303333  1
  O  O96  1  0.41614867  0.32207833  0.58303333  1
  O  O97  1  0.82908033  0.17091967  0.41828067  1
  O  O98  1  0.90592967  0.32207833  0.58303333  1
  O  O99  1  0.91890433  0.83780867  0.09132967  1
  O  O100  1  0.34183933  0.17091967  0.41828067  1
  O  O101  1  0.17091967  0.34183933  0.58171933  1
  O  O102  1  0.08656667  0.17313333  0.41325533  1
  O  O103  1  0.00000000  0.00000000  0.23826500  1
  O  O104  1  0.98874500  0.74948200  0.75030000  1
  O  O105  1  0.58557100  0.41442900  0.42466300  1
  O  O106  1  0.82885800  0.41442900  0.42466300  1
  O  O107  1  0.34458833  0.91718467  0.91636667  1
  O  O108  1  0.76073700  0.74948200  0.75030000  1
  O  O109  1  0.74776233  0.25223767  0.24200367  1
  O  O110  1  0.50447533  0.25223767  0.24200367  1
  O  O111  1  0.57259633  0.91718467  0.91636667  1
  O  O112  1  0.66666667  0.33333333  0.09506833  1
  O  O113  1  0.58010000  0.16020000  0.92007800  1
  O  O114  1  0.49574700  0.99149400  0.75161400  1
  O  O115  1  0.83758633  0.16241367  0.91505267  1
  O  O116  1  0.74776233  0.49552467  0.24200367  1
  O  O117  1  0.25051800  0.01125500  0.75030000  1
  O  O118  1  0.32482733  0.16241367  0.91505267  1
  O  O119  1  0.76073700  0.01125500  0.75030000  1
  O  O120  1  0.25051800  0.23926300  0.75030000  1
  O  O121  1  0.98874500  0.23926300  0.75030000  1
  O  O122  1  0.75323333  0.24676667  0.74658867  1
  O  O123  1  0.58010000  0.41990000  0.92007800  1
  O  O124  1  0.49353333  0.24676667  0.74658867  1
  O  O125  1  0.83980000  0.41990000  0.92007800  1
  O  O126  1  0.08281533  0.42740367  0.91636667  1
  O  O127  1  0.34458833  0.42740367  0.91636667  1
  O  O128  1  0.08281533  0.65541167  0.91636667  1
  O  O129  1  0.49574700  0.50425300  0.75161400  1
  O  O130  1  0.57259633  0.65541167  0.91636667  1
  O  O131  1  0.58557100  0.17114200  0.42466300  1
  O  O132  1  0.00850600  0.50425300  0.75161400  1
  O  O133  1  0.83758633  0.67517267  0.91505267  1
  O  O134  1  0.75323333  0.50646667  0.74658867  1
  O  O135  1  0.66666667  0.33333333  0.57159833  1
  O  O136  1  0.65541167  0.08281533  0.08363333  1
  O  O137  1  0.25223767  0.74776233  0.75799633  1
  O  O138  1  0.49552467  0.74776233  0.75799633  1
  O  O139  1  0.01125500  0.25051800  0.24970000  1
  O  O140  1  0.42740367  0.08281533  0.08363333  1
  O  O141  1  0.41442900  0.58557100  0.57533700  1
  O  O142  1  0.17114200  0.58557100  0.57533700  1
  O  O143  1  0.23926300  0.25051800  0.24970000  1
  O  O144  1  0.33333333  0.66666667  0.42840167  1
  O  O145  1  0.24676667  0.49353333  0.25341133  1
  O  O146  1  0.16241367  0.32482733  0.08494733  1
  O  O147  1  0.50425300  0.49574700  0.24838600  1
  O  O148  1  0.41442900  0.82885800  0.57533700  1
  O  O149  1  0.91718467  0.34458833  0.08363333  1
  O  O150  1  0.99149400  0.49574700  0.24838600  1
  O  O151  1  0.42740367  0.34458833  0.08363333  1
  O  O152  1  0.91718467  0.57259633  0.08363333  1
  O  O153  1  0.65541167  0.57259633  0.08363333  1
  O  O154  1  0.41990000  0.58010000  0.07992200  1
  O  O155  1  0.24676667  0.75323333  0.25341133  1
  O  O156  1  0.16020000  0.58010000  0.07992200  1
  O  O157  1  0.50646667  0.75323333  0.25341133  1
  O  O158  1  0.74948200  0.76073700  0.24970000  1
  O  O159  1  0.01125500  0.76073700  0.24970000  1
  O  O160  1  0.74948200  0.98874500  0.24970000  1
  O  O161  1  0.16241367  0.83758633  0.08494733  1
  O  O162  1  0.23926300  0.98874500  0.24970000  1
  O  O163  1  0.25223767  0.50447533  0.75799633  1
  O  O164  1  0.67517267  0.83758633  0.08494733  1
  O  O165  1  0.50425300  0.00850600  0.24838600  1
  O  O166  1  0.41990000  0.83980000  0.07992200  1
  O  O167  1  0.33333333  0.66666667  0.90493167  1
