# generated using pymatgen
data_VOF
_symmetry_space_group_name_H-M   'P 1'
_cell_length_a   9.24028781
_cell_length_b   9.24028781
_cell_length_c   8.35949006
_cell_angle_alpha   90.00000000
_cell_angle_beta   90.00000000
_cell_angle_gamma   120.00000000
_symmetry_Int_Tables_number   1
_chemical_formula_structural   VOF
_chemical_formula_sum   'V18 O18 F18'
_cell_volume   618.13226643
_cell_formula_units_Z   18
loop_
 _symmetry_equiv_pos_site_id
 _symmetry_equiv_pos_as_xyz
  1  'x, y, z'
loop_
 _atom_site_type_symbol
 _atom_site_label
 _atom_site_symmetry_multiplicity
 _atom_site_fract_x
 _atom_site_fract_y
 _atom_site_fract_z
 _atom_site_occupancy
  V  V0  1  0.97044600  0.21294300  0.36004700  1
  V  V1  1  0.24249700  0.02955400  0.36004700  1
  V  V2  1  0.78705700  0.75750300  0.36004700  1
  V  V3  1  0.21294300  0.24249700  0.63995300  1
  V  V4  1  0.75750300  0.97044600  0.63995300  1
  V  V5  1  0.02955400  0.78705700  0.63995300  1
  V  V6  1  0.63711267  0.54627633  0.69338033  1
  V  V7  1  0.90916367  0.36288733  0.69338033  1
  V  V8  1  0.45372367  0.09083633  0.69338033  1
  V  V9  1  0.87960967  0.57583033  0.97328633  1
  V  V10  1  0.42416967  0.30377933  0.97328633  1
  V  V11  1  0.69622067  0.12039033  0.97328633  1
  V  V12  1  0.30377933  0.87960967  0.02671367  1
  V  V13  1  0.57583033  0.69622067  0.02671367  1
  V  V14  1  0.12039033  0.42416967  0.02671367  1
  V  V15  1  0.54627633  0.90916367  0.30661967  1
  V  V16  1  0.09083633  0.63711267  0.30661967  1
  V  V17  1  0.36288733  0.45372367  0.30661967  1
  O  O18  1  0.18520833  0.21200767  0.38907067  1
  O  O19  1  0.97320067  0.18520833  0.61092933  1
  O  O20  1  0.21200767  0.02679933  0.61092933  1
  O  O21  1  0.78799233  0.97320067  0.38907067  1
  O  O22  1  0.02679933  0.81479167  0.38907067  1
  O  O23  1  0.81479167  0.78799233  0.61092933  1
  O  O24  1  0.85187500  0.54534100  0.72240400  1
  O  O25  1  0.63986733  0.51854167  0.94426267  1
  O  O26  1  0.87867433  0.36013267  0.94426267  1
  O  O27  1  0.45465900  0.30653400  0.72240400  1
  O  O28  1  0.69346600  0.14812500  0.72240400  1
  O  O29  1  0.48145833  0.12132567  0.94426267  1
  O  O30  1  0.51854167  0.87867433  0.05573733  1
  O  O31  1  0.30653400  0.85187500  0.27759600  1
  O  O32  1  0.54534100  0.69346600  0.27759600  1
  O  O33  1  0.12132567  0.63986733  0.05573733  1
  O  O34  1  0.36013267  0.48145833  0.05573733  1
  O  O35  1  0.14812500  0.45465900  0.27759600  1
  F  F36  1  0.64219767  0.52360133  0.45060133  1
  F  F37  1  0.11859633  0.64219767  0.54939867  1
  F  F38  1  0.52360133  0.88140367  0.54939867  1
  F  F39  1  0.47639867  0.11859633  0.45060133  1
  F  F40  1  0.88140367  0.35780233  0.45060133  1
  F  F41  1  0.35780233  0.47639867  0.54939867  1
  F  F42  1  0.30886433  0.85693467  0.78393467  1
  F  F43  1  0.78526300  0.97553100  0.88273200  1
  F  F44  1  0.19026800  0.21473700  0.88273200  1
  F  F45  1  0.14306533  0.45192967  0.78393467  1
  F  F46  1  0.54807033  0.69113567  0.78393467  1
  F  F47  1  0.02446900  0.80973200  0.88273200  1
  F  F48  1  0.97553100  0.19026800  0.11726800  1
  F  F49  1  0.45192967  0.30886433  0.21606533  1
  F  F50  1  0.85693467  0.54807033  0.21606533  1
  F  F51  1  0.80973200  0.78526300  0.11726800  1
  F  F52  1  0.21473700  0.02446900  0.11726800  1
  F  F53  1  0.69113567  0.14306533  0.21606533  1
