# generated using pymatgen
data_Fe13O14
_symmetry_space_group_name_H-M   'P 1'
_cell_length_a   8.11207816
_cell_length_b   8.11207816
_cell_length_c   15.18185412
_cell_angle_alpha   90.00000000
_cell_angle_beta   90.00000000
_cell_angle_gamma   120.00000000
_symmetry_Int_Tables_number   1
_chemical_formula_structural   Fe13O14
_chemical_formula_sum   'Fe39 O42'
_cell_volume   865.20635054
_cell_formula_units_Z   3
loop_
 _symmetry_equiv_pos_site_id
 _symmetry_equiv_pos_as_xyz
  1  'x, y, z'
loop_
 _atom_site_type_symbol
 _atom_site_label
 _atom_site_symmetry_multiplicity
 _atom_site_fract_x
 _atom_site_fract_y
 _atom_site_fract_z
 _atom_site_occupancy
  Fe  Fe0  1  0.33333333  0.66666667  0.16666667  1
  Fe  Fe1  1  0.08170067  0.46998933  0.33162533  1
  Fe  Fe2  1  0.53001067  0.61171133  0.33162533  1
  Fe  Fe3  1  0.77310733  0.81786967  0.16081167  1
  Fe  Fe4  1  0.89355933  0.51546367  0.17252167  1
  Fe  Fe5  1  0.27837800  0.41503400  0.00170800  1
  Fe  Fe6  1  0.18213033  0.95523767  0.16081167  1
  Fe  Fe7  1  0.38828867  0.91829933  0.33162533  1
  Fe  Fe8  1  0.62190433  0.10644067  0.17252167  1
  Fe  Fe9  1  0.13665600  0.72162200  0.00170800  1
  Fe  Fe10  1  0.04476233  0.22689267  0.16081167  1
  Fe  Fe11  1  0.58496600  0.86334400  0.00170800  1
  Fe  Fe12  1  0.48453633  0.37809567  0.17252167  1
  Fe  Fe13  1  1.00000000  0.00000000  0.50000000  1
  Fe  Fe14  1  0.74836733  0.80332267  0.66495867  1
  Fe  Fe15  1  0.19667733  0.94504467  0.66495867  1
  Fe  Fe16  1  0.43977400  0.15120300  0.49414500  1
  Fe  Fe17  1  0.56022600  0.84879700  0.50585500  1
  Fe  Fe18  1  0.94504467  0.74836733  0.33504133  1
  Fe  Fe19  1  0.84879700  0.28857100  0.49414500  1
  Fe  Fe20  1  0.05495533  0.25163267  0.66495867  1
  Fe  Fe21  1  0.28857100  0.43977400  0.50585500  1
  Fe  Fe22  1  0.80332267  0.05495533  0.33504133  1
  Fe  Fe23  1  0.71142900  0.56022600  0.49414500  1
  Fe  Fe24  1  0.25163267  0.19667733  0.33504133  1
  Fe  Fe25  1  0.15120300  0.71142900  0.50585500  1
  Fe  Fe26  1  0.66666667  0.33333333  0.83333333  1
  Fe  Fe27  1  0.41503400  0.13665600  0.99829200  1
  Fe  Fe28  1  0.86334400  0.27837800  0.99829200  1
  Fe  Fe29  1  0.10644067  0.48453633  0.82747833  1
  Fe  Fe30  1  0.22689267  0.18213033  0.83918833  1
  Fe  Fe31  1  0.61171133  0.08170067  0.66837467  1
  Fe  Fe32  1  0.51546367  0.62190433  0.82747833  1
  Fe  Fe33  1  0.72162200  0.58496600  0.99829200  1
  Fe  Fe34  1  0.95523767  0.77310733  0.83918833  1
  Fe  Fe35  1  0.46998933  0.38828867  0.66837467  1
  Fe  Fe36  1  0.37809567  0.89355933  0.82747833  1
  Fe  Fe37  1  0.91829933  0.53001067  0.66837467  1
  Fe  Fe38  1  0.81786967  0.04476233  0.83918833  1
  O  O39  1  0.33333333  0.66666667  0.92300367  1
  O  O40  1  0.41586833  0.13364667  0.24608167  1
  O  O41  1  0.33333333  0.66666667  0.41032967  1
  O  O42  1  0.86635333  0.28222167  0.24608167  1
  O  O43  1  0.10122533  0.48557067  0.08889767  1
  O  O44  1  0.28232133  0.43455867  0.24443567  1
  O  O45  1  0.51442933  0.61565467  0.08889767  1
  O  O46  1  0.71777833  0.58413167  0.24608167  1
  O  O47  1  0.94888833  0.74920167  0.08725167  1
  O  O48  1  0.15223733  0.71767867  0.24443567  1
  O  O49  1  0.38434533  0.89877467  0.08889767  1
  O  O50  1  0.56544133  0.84776267  0.24443567  1
  O  O51  1  0.80031333  0.05111167  0.08725167  1
  O  O52  1  0.25079833  0.19968667  0.08725167  1
  O  O53  1  0.00000000  0.00000000  0.25633700  1
  O  O54  1  0.08253500  0.46698000  0.57941500  1
  O  O55  1  0.00000000  0.00000000  0.74366300  1
  O  O56  1  0.53302000  0.61555500  0.57941500  1
  O  O57  1  0.76789200  0.81890400  0.42223100  1
  O  O58  1  0.94898800  0.76789200  0.57776900  1
  O  O59  1  0.18109600  0.94898800  0.42223100  1
  O  O60  1  0.38444500  0.91746500  0.57941500  1
  O  O61  1  0.61555500  0.08253500  0.42058500  1
  O  O62  1  0.81890400  0.05101200  0.57776900  1
  O  O63  1  0.05101200  0.23210800  0.42223100  1
  O  O64  1  0.23210800  0.18109600  0.57776900  1
  O  O65  1  0.46698000  0.38444500  0.42058500  1
  O  O66  1  0.91746500  0.53302000  0.42058500  1
  O  O67  1  0.66666667  0.33333333  0.58967033  1
  O  O68  1  0.74920167  0.80031333  0.91274833  1
  O  O69  1  0.66666667  0.33333333  0.07699633  1
  O  O70  1  0.19968667  0.94888833  0.91274833  1
  O  O71  1  0.43455867  0.15223733  0.75556433  1
  O  O72  1  0.61565467  0.10122533  0.91110233  1
  O  O73  1  0.84776267  0.28232133  0.75556433  1
  O  O74  1  0.05111167  0.25079833  0.91274833  1
  O  O75  1  0.28222167  0.41586833  0.75391833  1
  O  O76  1  0.48557067  0.38434533  0.91110233  1
  O  O77  1  0.71767867  0.56544133  0.75556433  1
  O  O78  1  0.89877467  0.51442933  0.91110233  1
  O  O79  1  0.13364667  0.71777833  0.75391833  1
  O  O80  1  0.58413167  0.86635333  0.75391833  1
