# generated using pymatgen
data_Mn5O3F5
_symmetry_space_group_name_H-M   'P 1'
_cell_length_a   6.43050255
_cell_length_b   6.43050255
_cell_length_c   15.50979794
_cell_angle_alpha   90.00000000
_cell_angle_beta   90.00000000
_cell_angle_gamma   120.00000000
_symmetry_Int_Tables_number   1
_chemical_formula_structural   Mn5O3F5
_chemical_formula_sum   'Mn15 O9 F15'
_cell_volume   555.42650634
_cell_formula_units_Z   3
loop_
 _symmetry_equiv_pos_site_id
 _symmetry_equiv_pos_as_xyz
  1  'x, y, z'
loop_
 _atom_site_type_symbol
 _atom_site_label
 _atom_site_symmetry_multiplicity
 _atom_site_fract_x
 _atom_site_fract_y
 _atom_site_fract_z
 _atom_site_occupancy
  Mn  Mn0  1  0.66666667  0.33333333  0.35339383  1
  Mn  Mn1  1  0.83483550  0.66967100  0.78399950  1
  Mn  Mn2  1  0.33032900  0.16516450  0.78399950  1
  Mn  Mn3  1  0.83483550  0.16516450  0.78399950  1
  Mn  Mn4  1  0.66666667  0.33333333  0.96248417  1
  Mn  Mn5  1  0.33333333  0.66666667  0.68672717  1
  Mn  Mn6  1  0.50150217  0.00300433  0.11733283  1
  Mn  Mn7  1  0.99699567  0.49849783  0.11733283  1
  Mn  Mn8  1  0.50150217  0.49849783  0.11733283  1
  Mn  Mn9  1  0.33333333  0.66666667  0.29581750  1
  Mn  Mn10  1  0.00000000  0.00000000  0.02006050  1
  Mn  Mn11  1  0.16816883  0.33633767  0.45066617  1
  Mn  Mn12  1  0.66366233  0.83183117  0.45066617  1
  Mn  Mn13  1  0.16816883  0.83183117  0.45066617  1
  Mn  Mn14  1  0.00000000  0.00000000  0.62915083  1
  O  O15  1  0.36221900  0.18110950  0.05051650  1
  O  O16  1  0.81889050  0.63778100  0.05051650  1
  O  O17  1  0.81889050  0.18110950  0.05051650  1
  O  O18  1  0.02888567  0.51444283  0.38384983  1
  O  O19  1  0.48555717  0.97111433  0.38384983  1
  O  O20  1  0.48555717  0.51444283  0.38384983  1
  O  O21  1  0.69555233  0.84777617  0.71718317  1
  O  O22  1  0.15222383  0.30444767  0.71718317  1
  O  O23  1  0.15222383  0.84777617  0.71718317  1
  F  F24  1  0.66666667  0.33333333  0.20986217  1
  F  F25  1  0.66666667  0.33333333  0.71567383  1
  F  F26  1  0.52509542  0.47490458  0.86273183  1
  F  F27  1  0.52509542  0.05019083  0.86273183  1
  F  F28  1  0.94980917  0.47490458  0.86273183  1
  F  F29  1  0.33333333  0.66666667  0.54319550  1
  F  F30  1  0.33333333  0.66666667  0.04900717  1
  F  F31  1  0.19176208  0.80823792  0.19606517  1
  F  F32  1  0.19176208  0.38352417  0.19606517  1
  F  F33  1  0.61647583  0.80823792  0.19606517  1
  F  F34  1  0.00000000  0.00000000  0.87652883  1
  F  F35  1  0.00000000  0.00000000  0.38234050  1
  F  F36  1  0.85842875  0.14157125  0.52939850  1
  F  F37  1  0.85842875  0.71685750  0.52939850  1
  F  F38  1  0.28314250  0.14157125  0.52939850  1
