# generated using pymatgen
data_Li4Nb3Co3(TeO8)2
_symmetry_space_group_name_H-M   'P 1'
_cell_length_a   10.69897646
_cell_length_b   6.10443966
_cell_length_c   10.51591643
_cell_angle_alpha   90.00000000
_cell_angle_beta   90.89790475
_cell_angle_gamma   90.00000000
_symmetry_Int_Tables_number   1
_chemical_formula_structural   Li4Nb3Co3(TeO8)2
_chemical_formula_sum   'Li8 Nb6 Co6 Te4 O32'
_cell_volume   686.72337670
_cell_formula_units_Z   2
loop_
 _symmetry_equiv_pos_site_id
 _symmetry_equiv_pos_as_xyz
  1  'x, y, z'
loop_
 _atom_site_type_symbol
 _atom_site_label
 _atom_site_symmetry_multiplicity
 _atom_site_fract_x
 _atom_site_fract_y
 _atom_site_fract_z
 _atom_site_occupancy
  Li  Li0  1  0.66428700  0.00000000  0.90652500  1
  Li  Li1  1  0.50012425  0.50000000  0.99594550  1
  Li  Li2  1  0.50608500  0.50000000  0.48415300  1
  Li  Li3  1  0.83688350  0.50000000  0.40052300  1
  Li  Li4  1  0.16428700  0.50000000  0.90652500  1
  Li  Li5  1  0.00012425  0.00000000  0.99594550  1
  Li  Li6  1  0.00608500  0.00000000  0.48415300  1
  Li  Li7  1  0.33688350  0.00000000  0.40052300  1
  Nb  Nb8  1  0.81891400  0.00000000  0.23474300  1
  Nb  Nb9  1  0.90214600  0.25305450  0.71854000  1
  Nb  Nb10  1  0.90214600  0.74694550  0.71854000  1
  Nb  Nb11  1  0.31891400  0.50000000  0.23474300  1
  Nb  Nb12  1  0.40214600  0.75305450  0.71854000  1
  Nb  Nb13  1  0.40214600  0.24694550  0.71854000  1
  Co  Co14  1  0.68663275  0.50000000  0.71041950  1
  Co  Co15  1  0.58611800  0.75638500  0.21459300  1
  Co  Co16  1  0.58611800  0.24361500  0.21459300  1
  Co  Co17  1  0.18663275  0.00000000  0.71041950  1
  Co  Co18  1  0.08611800  0.25638500  0.21459300  1
  Co  Co19  1  0.08611800  0.74361500  0.21459300  1
  Te  Te20  1  0.63613150  0.00000000  0.49561300  1
  Te  Te21  1  0.82752625  0.50000000  0.01834150  1
  Te  Te22  1  0.13613150  0.50000000  0.49561300  1
  Te  Te23  1  0.32752625  0.00000000  0.01834150  1
  O  O24  1  0.51689125  0.00000000  0.35156150  1
  O  O25  1  0.67685750  0.00000000  0.10769200  1
  O  O26  1  0.99403375  0.00000000  0.29958250  1
  O  O27  1  0.99892800  0.00000000  0.80855800  1
  O  O28  1  0.66481525  0.50000000  0.10078550  1
  O  O29  1  0.85521200  0.00000000  0.60431900  1
  O  O30  1  0.84825900  0.50000000  0.59740400  1
  O  O31  1  0.98718275  0.50000000  0.81852550  1
  O  O32  1  0.56789050  0.75055650  0.58984900  1
  O  O33  1  0.56789050  0.24944350  0.58984900  1
  O  O34  1  0.75438200  0.76728600  0.33316500  1
  O  O35  1  0.75438200  0.23271400  0.33316500  1
  O  O36  1  0.76360500  0.23961250  0.82697800  1
  O  O37  1  0.76360500  0.76038750  0.82697800  1
  O  O38  1  0.91293225  0.25183025  0.10260250  1
  O  O39  1  0.91293225  0.74816975  0.10260250  1
  O  O40  1  0.01689125  0.50000000  0.35156150  1
  O  O41  1  0.17685750  0.50000000  0.10769200  1
  O  O42  1  0.49403375  0.50000000  0.29958250  1
  O  O43  1  0.49892800  0.50000000  0.80855800  1
  O  O44  1  0.16481525  0.00000000  0.10078550  1
  O  O45  1  0.35521200  0.50000000  0.60431900  1
  O  O46  1  0.34825900  0.00000000  0.59740400  1
  O  O47  1  0.48718275  0.00000000  0.81852550  1
  O  O48  1  0.06789050  0.25055650  0.58984900  1
  O  O49  1  0.06789050  0.74944350  0.58984900  1
  O  O50  1  0.25438200  0.26728600  0.33316500  1
  O  O51  1  0.25438200  0.73271400  0.33316500  1
  O  O52  1  0.26360500  0.73961250  0.82697800  1
  O  O53  1  0.26360500  0.26038750  0.82697800  1
  O  O54  1  0.41293225  0.75183025  0.10260250  1
  O  O55  1  0.41293225  0.24816975  0.10260250  1
