# generated using pymatgen
data_FeCo3(PO4)4
_symmetry_space_group_name_H-M   'P 1'
_cell_length_a   4.83882700
_cell_length_b   5.90717300
_cell_length_c   9.82476135
_cell_angle_alpha   90.00000000
_cell_angle_beta   90.43973168
_cell_angle_gamma   90.00000000
_symmetry_Int_Tables_number   1
_chemical_formula_structural   FeCo3(PO4)4
_chemical_formula_sum   'Fe1 Co3 P4 O16'
_cell_volume   280.82062688
_cell_formula_units_Z   1
loop_
 _symmetry_equiv_pos_site_id
 _symmetry_equiv_pos_as_xyz
  1  'x, y, z'
loop_
 _atom_site_type_symbol
 _atom_site_label
 _atom_site_symmetry_multiplicity
 _atom_site_fract_x
 _atom_site_fract_y
 _atom_site_fract_z
 _atom_site_occupancy
  Fe  Fe0  1  0.04344800  0.00000000  0.27689600  1
  Co  Co1  1  0.96974900  0.50000000  0.72982800  1
  Co  Co2  1  0.57073900  0.50000000  0.21459400  1
  Co  Co3  1  0.46809700  0.00000000  0.77019600  1
  P  P4  1  0.90433500  0.00000000  0.59975100  1
  P  P5  1  0.58053000  0.00000000  0.09352800  1
  P  P6  1  0.41077400  0.50000000  0.90397300  1
  P  P7  1  0.09066400  0.50000000  0.40019000  1
  O  O8  1  0.84738500  0.00000000  0.44696200  1
  O  O9  1  0.75937700  0.79581300  0.67154100  1
  O  O10  1  0.75937700  0.20418700  0.67154100  1
  O  O11  1  0.77377800  0.50000000  0.37984200  1
  O  O12  1  0.72572600  0.50000000  0.88114800  1
  O  O13  1  0.73325700  0.79765800  0.16979700  1
  O  O14  1  0.73325700  0.20234200  0.16979700  1
  O  O15  1  0.65449100  0.00000000  0.94214300  1
  O  O16  1  0.34697400  0.50000000  0.05737700  1
  O  O17  1  0.26043700  0.29612600  0.83281600  1
  O  O18  1  0.26043700  0.70387400  0.83281600  1
  O  O19  1  0.27117000  0.00000000  0.11515100  1
  O  O20  1  0.22144100  0.00000000  0.62379000  1
  O  O21  1  0.23627700  0.29452600  0.33023200  1
  O  O22  1  0.23627700  0.70547400  0.33023200  1
  O  O23  1  0.14200200  0.50000000  0.55585800  1
