# generated using pymatgen
data_Mn3(O2F)2
_symmetry_space_group_name_H-M   'P 1'
_cell_length_a   5.56706900
_cell_length_b   4.59980300
_cell_length_c   7.69462830
_cell_angle_alpha   90.00000000
_cell_angle_beta   93.14246642
_cell_angle_gamma   90.00000000
_symmetry_Int_Tables_number   1
_chemical_formula_structural   Mn3(O2F)2
_chemical_formula_sum   'Mn6 O8 F4'
_cell_volume   196.74329837
_cell_formula_units_Z   2
loop_
 _symmetry_equiv_pos_site_id
 _symmetry_equiv_pos_as_xyz
  1  'x, y, z'
loop_
 _atom_site_type_symbol
 _atom_site_label
 _atom_site_symmetry_multiplicity
 _atom_site_fract_x
 _atom_site_fract_y
 _atom_site_fract_z
 _atom_site_occupancy
  Mn  Mn0  1  0.56942500  0.97048600  0.34210300  1
  Mn  Mn1  1  0.23273200  0.00687000  0.99746000  1
  Mn  Mn2  1  0.90881400  0.00925900  0.68013300  1
  Mn  Mn3  1  0.76726800  0.50687000  0.00254000  1
  Mn  Mn4  1  0.43057500  0.47048600  0.65789700  1
  Mn  Mn5  1  0.09118600  0.50925900  0.31986700  1
  O  O6  1  0.72131600  0.30576900  0.77884400  1
  O  O7  1  0.04635500  0.30733100  0.10110800  1
  O  O8  1  0.37857200  0.30592200  0.42570400  1
  O  O9  1  0.21079200  0.19368500  0.76752400  1
  O  O10  1  0.95364500  0.80733100  0.89889200  1
  O  O11  1  0.62142800  0.80592200  0.57429600  1
  O  O12  1  0.27868400  0.80576900  0.22115600  1
  O  O13  1  0.78920800  0.69368500  0.23247600  1
  F  F14  1  0.88777300  0.20769800  0.43877200  1
  F  F15  1  0.54458800  0.19298000  0.09891400  1
  F  F16  1  0.45541200  0.69298000  0.90108600  1
  F  F17  1  0.11222700  0.70769800  0.56122800  1
