# generated using pymatgen
data_Li2Ti3FeO8
_symmetry_space_group_name_H-M   'P 1'
_cell_length_a   5.98506810
_cell_length_b   5.98506810
_cell_length_c   14.30445149
_cell_angle_alpha   90.00000000
_cell_angle_beta   90.00000000
_cell_angle_gamma   120.00000000
_symmetry_Int_Tables_number   1
_chemical_formula_structural   Li2Ti3FeO8
_chemical_formula_sum   'Li6 Ti9 Fe3 O24'
_cell_volume   443.75170336
_cell_formula_units_Z   3
loop_
 _symmetry_equiv_pos_site_id
 _symmetry_equiv_pos_as_xyz
  1  'x, y, z'
loop_
 _atom_site_type_symbol
 _atom_site_label
 _atom_site_symmetry_multiplicity
 _atom_site_fract_x
 _atom_site_fract_y
 _atom_site_fract_z
 _atom_site_occupancy
  Li  Li0  1  0.33333333  0.66666667  0.54623467  1
  Li  Li1  1  0.33333333  0.66666667  0.78709867  1
  Li  Li2  1  0.00000000  0.00000000  0.87956800  1
  Li  Li3  1  0.00000000  0.00000000  0.12043200  1
  Li  Li4  1  0.66666667  0.33333333  0.21290133  1
  Li  Li5  1  0.66666667  0.33333333  0.45376533  1
  Ti  Ti6  1  0.00000000  0.50000000  0.00000000  1
  Ti  Ti7  1  0.50000000  0.50000000  0.00000000  1
  Ti  Ti8  1  0.16666667  0.33333333  0.33333333  1
  Ti  Ti9  1  0.66666667  0.83333333  0.33333333  1
  Ti  Ti10  1  0.16666667  0.83333333  0.33333333  1
  Ti  Ti11  1  0.83333333  0.66666667  0.66666667  1
  Ti  Ti12  1  0.33333333  0.16666667  0.66666667  1
  Ti  Ti13  1  0.83333333  0.16666667  0.66666667  1
  Ti  Ti14  1  0.50000000  0.00000000  0.00000000  1
  Fe  Fe15  1  0.33333333  0.66666667  0.16666667  1
  Fe  Fe16  1  1.00000000  1.00000000  0.50000000  1
  Fe  Fe17  1  0.66666667  0.33333333  0.83333333  1
  O  O18  1  0.33333333  0.66666667  0.40699967  1
  O  O19  1  0.48491867  0.96983733  0.25867133  1
  O  O20  1  0.48491867  0.51508133  0.25867133  1
  O  O21  1  0.03016267  0.51508133  0.25867133  1
  O  O22  1  0.63650400  0.81825200  0.07466200  1
  O  O23  1  0.18174800  0.81825200  0.07466200  1
  O  O24  1  0.18174800  0.36349600  0.07466200  1
  O  O25  1  0.33333333  0.66666667  0.92633367  1
  O  O26  1  0.00000000  0.00000000  0.74033300  1
  O  O27  1  0.15158533  0.30317067  0.59200467  1
  O  O28  1  0.15158533  0.84841467  0.59200467  1
  O  O29  1  0.69682933  0.84841467  0.59200467  1
  O  O30  1  0.30317067  0.15158533  0.40799533  1
  O  O31  1  0.84841467  0.15158533  0.40799533  1
  O  O32  1  0.84841467  0.69682933  0.40799533  1
  O  O33  1  0.00000000  0.00000000  0.25966700  1
  O  O34  1  0.66666667  0.33333333  0.07366633  1
  O  O35  1  0.81825200  0.63650400  0.92533800  1
  O  O36  1  0.81825200  0.18174800  0.92533800  1
  O  O37  1  0.36349600  0.18174800  0.92533800  1
  O  O38  1  0.96983733  0.48491867  0.74132867  1
  O  O39  1  0.51508133  0.48491867  0.74132867  1
  O  O40  1  0.51508133  0.03016267  0.74132867  1
  O  O41  1  0.66666667  0.33333333  0.59300033  1
