# generated using pymatgen
data_LiNi5O3F5
_symmetry_space_group_name_H-M   'P 1'
_cell_length_a   6.04797886
_cell_length_b   6.04797886
_cell_length_c   15.00082879
_cell_angle_alpha   90.00000000
_cell_angle_beta   90.00000000
_cell_angle_gamma   120.00000000
_symmetry_Int_Tables_number   1
_chemical_formula_structural   LiNi5O3F5
_chemical_formula_sum   'Li3 Ni15 O9 F15'
_cell_volume   475.18904015
_cell_formula_units_Z   3
loop_
 _symmetry_equiv_pos_site_id
 _symmetry_equiv_pos_as_xyz
  1  'x, y, z'
loop_
 _atom_site_type_symbol
 _atom_site_label
 _atom_site_symmetry_multiplicity
 _atom_site_fract_x
 _atom_site_fract_y
 _atom_site_fract_z
 _atom_site_occupancy
  Li  Li0  1  0.00000000  0.00000000  0.24576450  1
  Li  Li1  1  0.66666667  0.33333333  0.57909783  1
  Li  Li2  1  0.33333333  0.66666667  0.91243117  1
  Ni  Ni3  1  0.00000000  0.00000000  0.01648117  1
  Ni  Ni4  1  0.33333333  0.66666667  0.29916017  1
  Ni  Ni5  1  0.50328367  0.49671633  0.11888483  1
  Ni  Ni6  1  0.99343267  0.49671633  0.11888483  1
  Ni  Ni7  1  0.50328367  0.00656733  0.11888483  1
  Ni  Ni8  1  0.66666667  0.33333333  0.34981450  1
  Ni  Ni9  1  0.00000000  0.00000000  0.63249350  1
  Ni  Ni10  1  0.16995033  0.83004967  0.45221817  1
  Ni  Ni11  1  0.66009933  0.83004967  0.45221817  1
  Ni  Ni12  1  0.16995033  0.33990067  0.45221817  1
  Ni  Ni13  1  0.33333333  0.66666667  0.68314783  1
  Ni  Ni14  1  0.66666667  0.33333333  0.96582683  1
  Ni  Ni15  1  0.83661700  0.16338300  0.78555150  1
  Ni  Ni16  1  0.32676600  0.16338300  0.78555150  1
  Ni  Ni17  1  0.83661700  0.67323400  0.78555150  1
  O  O18  1  0.82163317  0.17836683  0.04754083  1
  O  O19  1  0.35673367  0.17836683  0.04754083  1
  O  O20  1  0.82163317  0.64326633  0.04754083  1
  O  O21  1  0.48829983  0.51170017  0.38087417  1
  O  O22  1  0.02340033  0.51170017  0.38087417  1
  O  O23  1  0.48829983  0.97659967  0.38087417  1
  O  O24  1  0.15496650  0.84503350  0.71420750  1
  O  O25  1  0.69006700  0.84503350  0.71420750  1
  O  O26  1  0.15496650  0.30993300  0.71420750  1
  F  F27  1  0.33333333  0.66666667  0.04555550  1
  F  F28  1  0.66666667  0.33333333  0.20153750  1
  F  F29  1  0.18039167  0.81960833  0.20357883  1
  F  F30  1  0.18039167  0.36078333  0.20357883  1
  F  F31  1  0.63921667  0.81960833  0.20357883  1
  F  F32  1  0.00000000  0.00000000  0.37888883  1
  F  F33  1  0.33333333  0.66666667  0.53487083  1
  F  F34  1  0.84705833  0.15294167  0.53691217  1
  F  F35  1  0.84705833  0.69411667  0.53691217  1
  F  F36  1  0.30588333  0.15294167  0.53691217  1
  F  F37  1  0.66666667  0.33333333  0.71222217  1
  F  F38  1  0.00000000  0.00000000  0.86820417  1
  F  F39  1  0.51372500  0.48627500  0.87024550  1
  F  F40  1  0.51372500  0.02745000  0.87024550  1
  F  F41  1  0.97255000  0.48627500  0.87024550  1
