# generated using pymatgen
data_Li6Fe(O2F)2
_symmetry_space_group_name_H-M   'P 1'
_cell_length_a   5.49937936
_cell_length_b   5.52731531
_cell_length_c   5.66142451
_cell_angle_alpha   61.78214153
_cell_angle_beta   63.56619018
_cell_angle_gamma   62.75741650
_symmetry_Int_Tables_number   1
_chemical_formula_structural   Li6Fe(O2F)2
_chemical_formula_sum   'Li6 Fe1 O4 F2'
_cell_volume   128.94348776
_cell_formula_units_Z   1
loop_
 _symmetry_equiv_pos_site_id
 _symmetry_equiv_pos_as_xyz
  1  'x, y, z'
loop_
 _atom_site_type_symbol
 _atom_site_label
 _atom_site_symmetry_multiplicity
 _atom_site_fract_x
 _atom_site_fract_y
 _atom_site_fract_z
 _atom_site_occupancy
  Li  Li0  1  0.72104500  0.49573600  0.06663850  1
  Li  Li1  1  0.27895500  0.50426400  0.93336150  1
  Li  Li2  1  0.49579450  0.08828900  0.74889900  1
  Li  Li3  1  0.50420550  0.91171100  0.25110100  1
  Li  Li4  1  0.91581700  0.30397500  0.51837650  1
  Li  Li5  1  0.08418300  0.69602500  0.48162350  1
  Fe  Fe6  1  0.00000000  0.00000000  0.00000000  1
  O  O7  1  0.34570500  0.79173300  0.08492350  1
  O  O8  1  0.65429500  0.20826700  0.91507650  1
  O  O9  1  0.89804100  0.66035000  0.20407700  1
  O  O10  1  0.10195900  0.33965000  0.79592300  1
  F  F11  1  0.77932050  0.11317200  0.39166600  1
  F  F12  1  0.22067950  0.88682800  0.60833400  1
