# generated using pymatgen
data_Li2V(OF)2
_symmetry_space_group_name_H-M   'P 1'
_cell_length_a   5.75186112
_cell_length_b   5.91736229
_cell_length_c   8.64958400
_cell_angle_alpha   90.00000000
_cell_angle_beta   90.00000000
_cell_angle_gamma   90.00000000
_symmetry_Int_Tables_number   1
_chemical_formula_structural   Li2V(OF)2
_chemical_formula_sum   'Li8 V4 O8 F8'
_cell_volume   294.39590944
_cell_formula_units_Z   4
loop_
 _symmetry_equiv_pos_site_id
 _symmetry_equiv_pos_as_xyz
  1  'x, y, z'
loop_
 _atom_site_type_symbol
 _atom_site_label
 _atom_site_symmetry_multiplicity
 _atom_site_fract_x
 _atom_site_fract_y
 _atom_site_fract_z
 _atom_site_occupancy
  Li  Li0  1  0.50000000  0.75000000  0.37069450  1
  Li  Li1  1  0.00000000  0.75000000  0.12930550  1
  Li  Li2  1  0.50000000  0.00000000  0.00000000  1
  Li  Li3  1  0.50000000  0.50000000  0.00000000  1
  Li  Li4  1  0.00000000  0.25000000  0.87069450  1
  Li  Li5  1  0.50000000  0.25000000  0.62930550  1
  Li  Li6  1  0.00000000  0.50000000  0.50000000  1
  Li  Li7  1  0.00000000  0.00000000  0.50000000  1
  V  V8  1  0.25000000  0.25000000  0.25000000  1
  V  V9  1  0.75000000  0.25000000  0.25000000  1
  V  V10  1  0.75000000  0.75000000  0.75000000  1
  V  V11  1  0.25000000  0.75000000  0.75000000  1
  O  O12  1  0.00000000  0.03631450  0.25346750  1
  O  O13  1  0.00000000  0.46368550  0.25346750  1
  O  O14  1  0.50000000  0.46368550  0.24653250  1
  O  O15  1  0.50000000  0.03631450  0.24653250  1
  O  O16  1  0.50000000  0.53631450  0.75346750  1
  O  O17  1  0.50000000  0.96368550  0.75346750  1
  O  O18  1  0.00000000  0.96368550  0.74653250  1
  O  O19  1  0.00000000  0.53631450  0.74653250  1
  F  F20  1  0.75870700  0.25000000  0.48458400  1
  F  F21  1  0.24129300  0.25000000  0.48458400  1
  F  F22  1  0.25870700  0.25000000  0.01541600  1
  F  F23  1  0.74129300  0.25000000  0.01541600  1
  F  F24  1  0.25870700  0.75000000  0.98458400  1
  F  F25  1  0.74129300  0.75000000  0.98458400  1
  F  F26  1  0.75870700  0.75000000  0.51541600  1
  F  F27  1  0.24129300  0.75000000  0.51541600  1
