# generated using pymatgen
data_Li5Fe3Sb2(PO4)6
_symmetry_space_group_name_H-M   'P 1'
_cell_length_a   8.82099344
_cell_length_b   8.91803612
_cell_length_c   8.93619892
_cell_angle_alpha   119.86411430
_cell_angle_beta   118.78352471
_cell_angle_gamma   90.37057339
_symmetry_Int_Tables_number   1
_chemical_formula_structural   Li5Fe3Sb2(PO4)6
_chemical_formula_sum   'Li5 Fe3 Sb2 P6 O24'
_cell_volume   505.48899513
_cell_formula_units_Z   1
loop_
 _symmetry_equiv_pos_site_id
 _symmetry_equiv_pos_as_xyz
  1  'x, y, z'
loop_
 _atom_site_type_symbol
 _atom_site_label
 _atom_site_symmetry_multiplicity
 _atom_site_fract_x
 _atom_site_fract_y
 _atom_site_fract_z
 _atom_site_occupancy
  Li  Li0  1  0.77220584  0.12209658  0.54038928  1
  Li  Li1  1  0.31374468  0.83746154  0.49752490  1
  Li  Li2  1  0.32052277  0.16264156  0.99623159  1
  Li  Li3  1  0.31224348  0.68124198  0.14655782  1
  Li  Li4  1  0.53279238  0.81423661  0.36611790  1
  Fe  Fe5  1  0.53591487  0.16354110  0.68605449  1
  Fe  Fe6  1  0.96724575  0.33352179  0.31969419  1
  Fe  Fe7  1  0.05060883  0.65289515  0.68913536  1
  Sb  Sb8  1  0.01210602  0.99127740  0.02961909  1
  Sb  Sb9  1  0.55396754  0.48919051  0.02481700  1
  P  P10  1  0.74567266  0.75322661  0.79227872  1
  P  P11  1  0.73737054  0.05197380  0.18394997  1
  P  P12  1  0.73471147  0.45522099  0.48990381  1
  P  P13  1  0.23217673  0.54914479  0.48601360  1
  P  P14  1  0.21573563  0.97021821  0.77746652  1
  P  P15  1  0.25527138  0.24631226  0.21069744  1
  O  O16  1  0.09119541  0.33128709  0.18632787  1
  O  O17  1  0.06080102  0.50128095  0.40097972  1
  O  O18  1  0.74902922  0.92914528  0.79653310  1
  O  O19  1  0.02301138  0.09095807  0.58307656  1
  O  O20  1  0.56389395  0.78903241  0.60509803  1
  O  O21  1  0.75307763  0.59891638  0.99423968  1
  O  O22  1  0.72114356  0.08124107  0.98789609  1
  O  O23  1  0.74026457  0.24454004  0.16000695  1
  O  O24  1  0.40830044  0.39923764  0.59799746  1
  O  O25  1  0.73284892  0.41032348  0.33285314  1
  O  O26  1  0.21881030  0.72959665  0.29181535  1
  O  O27  1  0.36814664  0.03688600  0.75179530  1
  O  O28  1  0.56818507  0.01947893  0.18479661  1
  O  O29  1  0.73749184  0.26468771  0.65171220  1
  O  O30  1  0.25474454  0.60759361  0.63127413  1
  O  O31  1  0.55859927  0.60791383  0.35711567  1
  O  O32  1  0.25176577  0.76607255  0.85579530  1
  O  O33  1  0.22130060  0.97604855  0.95670912  1
  O  O34  1  0.27112091  0.36381040  0.02210585  1
  O  O35  1  0.43792912  0.19540660  0.41265262  1
  O  O36  1  0.92008117  0.90901605  0.37575809  1
  O  O37  1  0.23309664  0.06235960  0.21975782  1
  O  O38  1  0.90929085  0.48939407  0.60469535  1
  O  O39  1  0.91357766  0.69857416  0.80255135  1
