# generated using pymatgen
data_Ti5NbO12
_symmetry_space_group_name_H-M   'P 1'
_cell_length_a   8.93049800
_cell_length_b   6.66854600
_cell_length_c   7.27697450
_cell_angle_alpha   90.00000000
_cell_angle_beta   113.69328693
_cell_angle_gamma   90.00000000
_symmetry_Int_Tables_number   1
_chemical_formula_structural   Ti5NbO12
_chemical_formula_sum   'Ti10 Nb2 O24'
_cell_volume   396.84004269
_cell_formula_units_Z   2
loop_
 _symmetry_equiv_pos_site_id
 _symmetry_equiv_pos_as_xyz
  1  'x, y, z'
loop_
 _atom_site_type_symbol
 _atom_site_label
 _atom_site_symmetry_multiplicity
 _atom_site_fract_x
 _atom_site_fract_y
 _atom_site_fract_z
 _atom_site_occupancy
  Ti  Ti0  1  0.83777200  0.50000000  0.83956700  1
  Ti  Ti1  1  0.16219300  0.50000000  0.67080900  1
  Ti  Ti2  1  0.83780700  0.50000000  0.32919100  1
  Ti  Ti3  1  0.16222800  0.50000000  0.16043300  1
  Ti  Ti4  1  0.00000000  0.00000000  0.00000000  1
  Ti  Ti5  1  0.33777200  0.00000000  0.83956700  1
  Ti  Ti6  1  0.66219300  0.00000000  0.67080900  1
  Ti  Ti7  1  0.33780700  0.00000000  0.32919100  1
  Ti  Ti8  1  0.66222800  0.00000000  0.16043300  1
  Ti  Ti9  1  0.50000000  0.50000000  0.00000000  1
  Nb  Nb10  1  0.00000000  0.00000000  0.50000000  1
  Nb  Nb11  1  0.50000000  0.50000000  0.50000000  1
  O  O12  1  0.16969100  0.19798400  0.66929400  1
  O  O13  1  0.83030900  0.19798400  0.33070600  1
  O  O14  1  0.26886000  0.50000000  0.96478200  1
  O  O15  1  0.60200800  0.50000000  0.29500300  1
  O  O16  1  0.93466200  0.50000000  0.62919100  1
  O  O17  1  0.39799200  0.50000000  0.70499700  1
  O  O18  1  0.73114000  0.50000000  0.03521800  1
  O  O19  1  0.06533800  0.50000000  0.37080900  1
  O  O20  1  0.00000000  0.30428800  0.00000000  1
  O  O21  1  0.16969100  0.80201600  0.66929400  1
  O  O22  1  0.83030900  0.80201600  0.33070600  1
  O  O23  1  0.00000000  0.69571200  0.00000000  1
  O  O24  1  0.66969100  0.69798400  0.66929400  1
  O  O25  1  0.33030900  0.69798400  0.33070600  1
  O  O26  1  0.76886000  0.00000000  0.96478200  1
  O  O27  1  0.10200800  0.00000000  0.29500300  1
  O  O28  1  0.43466200  0.00000000  0.62919100  1
  O  O29  1  0.89799200  0.00000000  0.70499700  1
  O  O30  1  0.23114000  0.00000000  0.03521800  1
  O  O31  1  0.56533800  0.00000000  0.37080900  1
  O  O32  1  0.50000000  0.80428800  0.00000000  1
  O  O33  1  0.66969100  0.30201600  0.66929400  1
  O  O34  1  0.33030900  0.30201600  0.33070600  1
  O  O35  1  0.50000000  0.19571200  0.00000000  1
