# generated using pymatgen
data_LiV5O7F
_symmetry_space_group_name_H-M   'P 1'
_cell_length_a   6.14590160
_cell_length_b   6.14590160
_cell_length_c   14.58781770
_cell_angle_alpha   90.00000000
_cell_angle_beta   90.00000000
_cell_angle_gamma   120.00000000
_symmetry_Int_Tables_number   1
_chemical_formula_structural   LiV5O7F
_chemical_formula_sum   'Li3 V15 O21 F3'
_cell_volume   477.19091184
_cell_formula_units_Z   3
loop_
 _symmetry_equiv_pos_site_id
 _symmetry_equiv_pos_as_xyz
  1  'x, y, z'
loop_
 _atom_site_type_symbol
 _atom_site_label
 _atom_site_symmetry_multiplicity
 _atom_site_fract_x
 _atom_site_fract_y
 _atom_site_fract_z
 _atom_site_occupancy
  Li  Li0  1  0.33333333  0.66666667  0.90821167  1
  Li  Li1  1  0.00000000  0.00000000  0.24154500  1
  Li  Li2  1  0.66666667  0.33333333  0.57487833  1
  V  V3  1  0.33333333  0.66666667  0.67590767  1
  V  V4  1  0.33333333  0.66666667  0.28672767  1
  V  V5  1  0.50108667  0.49891333  0.13101333  1
  V  V6  1  0.99782667  0.49891333  0.13101333  1
  V  V7  1  0.50108667  0.00217333  0.13101333  1
  V  V8  1  0.00000000  0.00000000  0.00924100  1
  V  V9  1  0.00000000  0.00000000  0.62006100  1
  V  V10  1  0.16775333  0.83224667  0.46434667  1
  V  V11  1  0.66449333  0.83224667  0.46434667  1
  V  V12  1  0.16775333  0.33550667  0.46434667  1
  V  V13  1  0.66666667  0.33333333  0.34257433  1
  V  V14  1  0.66666667  0.33333333  0.95339433  1
  V  V15  1  0.83442000  0.16558000  0.79768000  1
  V  V16  1  0.33116000  0.16558000  0.79768000  1
  V  V17  1  0.83442000  0.66884000  0.79768000  1
  O  O18  1  0.64563000  0.82281500  0.19767800  1
  O  O19  1  0.17718500  0.35437000  0.19767800  1
  O  O20  1  0.17718500  0.82281500  0.19767800  1
  O  O21  1  0.33333333  0.66666667  0.53976167  1
  O  O22  1  0.48806733  0.51193267  0.38027867  1
  O  O23  1  0.02386533  0.51193267  0.38027867  1
  O  O24  1  0.48806733  0.97613467  0.38027867  1
  O  O25  1  0.31229667  0.15614833  0.53101133  1
  O  O26  1  0.84385167  0.68770333  0.53101133  1
  O  O27  1  0.84385167  0.15614833  0.53101133  1
  O  O28  1  0.00000000  0.00000000  0.87309500  1
  O  O29  1  0.15473400  0.84526600  0.71361200  1
  O  O30  1  0.69053200  0.84526600  0.71361200  1
  O  O31  1  0.15473400  0.30946800  0.71361200  1
  O  O32  1  0.97896333  0.48948167  0.86434467  1
  O  O33  1  0.51051833  0.02103667  0.86434467  1
  O  O34  1  0.51051833  0.48948167  0.86434467  1
  O  O35  1  0.66666667  0.33333333  0.20642833  1
  O  O36  1  0.82140067  0.17859933  0.04694533  1
  O  O37  1  0.35719867  0.17859933  0.04694533  1
  O  O38  1  0.82140067  0.64280133  0.04694533  1
  F  F39  1  0.33333333  0.66666667  0.04580467  1
  F  F40  1  0.00000000  0.00000000  0.37913800  1
  F  F41  1  0.66666667  0.33333333  0.71247133  1
