# generated using pymatgen
data_CeCoSi2
_symmetry_space_group_name_H-M   'P 1'
_cell_length_a   4.05891800
_cell_length_b   16.48646000
_cell_length_c   4.01804200
_cell_angle_alpha   90.00000000
_cell_angle_beta   90.00000000
_cell_angle_gamma   90.00000000
_symmetry_Int_Tables_number   1
_chemical_formula_structural   CeCoSi2
_chemical_formula_sum   'Ce4 Co4 Si8'
_cell_volume   268.87607693
_cell_formula_units_Z   4
loop_
 _symmetry_equiv_pos_site_id
 _symmetry_equiv_pos_as_xyz
  1  'x, y, z'
loop_
 _atom_site_type_symbol
 _atom_site_label
 _atom_site_symmetry_multiplicity
 _atom_site_fract_x
 _atom_site_fract_y
 _atom_site_fract_z
 _atom_site_occupancy
  Ce  Ce0  1  0.50000000  0.39090600  0.75000000  1
  Ce  Ce1  1  0.00000000  0.10909400  0.25000000  1
  Ce  Ce2  1  0.00000000  0.89090600  0.75000000  1
  Ce  Ce3  1  0.50000000  0.60909400  0.25000000  1
  Co  Co4  1  0.00000000  0.32174300  0.25000000  1
  Co  Co5  1  0.50000000  0.17825700  0.75000000  1
  Co  Co6  1  0.50000000  0.82174300  0.25000000  1
  Co  Co7  1  0.00000000  0.67825700  0.75000000  1
  Si  Si8  1  0.00000000  0.24974300  0.75000000  1
  Si  Si9  1  0.50000000  0.25025700  0.25000000  1
  Si  Si10  1  0.00000000  0.45916200  0.25000000  1
  Si  Si11  1  0.50000000  0.04083800  0.75000000  1
  Si  Si12  1  0.50000000  0.74974300  0.75000000  1
  Si  Si13  1  0.00000000  0.75025700  0.25000000  1
  Si  Si14  1  0.50000000  0.95916200  0.25000000  1
  Si  Si15  1  0.00000000  0.54083800  0.75000000  1
