# generated using pymatgen
data_Co3(OF2)2
_symmetry_space_group_name_H-M   'P 1'
_cell_length_a   6.62857400
_cell_length_b   6.60778600
_cell_length_c   9.38380445
_cell_angle_alpha   90.00000000
_cell_angle_beta   90.38735589
_cell_angle_gamma   90.00000000
_symmetry_Int_Tables_number   1
_chemical_formula_structural   Co3(OF2)2
_chemical_formula_sum   'Co12 O8 F16'
_cell_volume   411.00310443
_cell_formula_units_Z   4
loop_
 _symmetry_equiv_pos_site_id
 _symmetry_equiv_pos_as_xyz
  1  'x, y, z'
loop_
 _atom_site_type_symbol
 _atom_site_label
 _atom_site_symmetry_multiplicity
 _atom_site_fract_x
 _atom_site_fract_y
 _atom_site_fract_z
 _atom_site_occupancy
  Co  Co0  1  0.96303000  0.00698500  0.17299800  1
  Co  Co1  1  0.03697000  0.00698500  0.82700200  1
  Co  Co2  1  0.50000000  0.51718700  0.50000000  1
  Co  Co3  1  0.50000000  0.00811500  0.00000000  1
  Co  Co4  1  0.49930850  0.97459150  0.32778300  1
  Co  Co5  1  0.50069150  0.97459150  0.67221700  1
  Co  Co6  1  0.46303000  0.50698500  0.17299800  1
  Co  Co7  1  0.53697000  0.50698500  0.82700200  1
  Co  Co8  1  0.00000000  0.01718700  0.50000000  1
  Co  Co9  1  0.00000000  0.50811500  0.00000000  1
  Co  Co10  1  0.99930850  0.47459150  0.32778300  1
  Co  Co11  1  0.00069150  0.47459150  0.67221700  1
  O  O12  1  0.49515750  0.70046050  0.33413700  1
  O  O13  1  0.50484250  0.70046050  0.66586300  1
  O  O14  1  0.30775850  0.00353250  0.83305800  1
  O  O15  1  0.69224150  0.00353250  0.16694200  1
  O  O16  1  0.99515750  0.20046050  0.33413700  1
  O  O17  1  0.00484250  0.20046050  0.66586300  1
  O  O18  1  0.80775850  0.50353250  0.83305800  1
  O  O19  1  0.19224150  0.50353250  0.16694200  1
  F  F20  1  0.50000000  0.69819100  0.00000000  1
  F  F21  1  0.28364400  0.00333300  0.17029400  1
  F  F22  1  0.30812250  0.99804350  0.50066500  1
  F  F23  1  0.69187750  0.99804350  0.49933500  1
  F  F24  1  0.71635600  0.00333300  0.82970600  1
  F  F25  1  0.50000000  0.31475000  0.00000000  1
  F  F26  1  0.49414750  0.29393150  0.33422600  1
  F  F27  1  0.50585250  0.29393150  0.66577400  1
  F  F28  1  0.00000000  0.19819100  0.00000000  1
  F  F29  1  0.78364400  0.50333300  0.17029400  1
  F  F30  1  0.80812250  0.49804350  0.50066500  1
  F  F31  1  0.19187750  0.49804350  0.49933500  1
  F  F32  1  0.21635600  0.50333300  0.82970600  1
  F  F33  1  0.00000000  0.81475000  0.00000000  1
  F  F34  1  0.99414750  0.79393150  0.33422600  1
  F  F35  1  0.00585250  0.79393150  0.66577400  1
