# generated using pymatgen
data_FeOF
_symmetry_space_group_name_H-M   'P 1'
_cell_length_a   4.76317300
_cell_length_b   4.76624700
_cell_length_c   9.23102724
_cell_angle_alpha   90.00000000
_cell_angle_beta   90.04798531
_cell_angle_gamma   90.00000000
_symmetry_Int_Tables_number   1
_chemical_formula_structural   FeOF
_chemical_formula_sum   'Fe6 O6 F6'
_cell_volume   209.56694409
_cell_formula_units_Z   6
loop_
 _symmetry_equiv_pos_site_id
 _symmetry_equiv_pos_as_xyz
  1  'x, y, z'
loop_
 _atom_site_type_symbol
 _atom_site_label
 _atom_site_symmetry_multiplicity
 _atom_site_fract_x
 _atom_site_fract_y
 _atom_site_fract_z
 _atom_site_occupancy
  Fe  Fe0  1  0.28720500  0.03765700  0.41661300  1
  Fe  Fe1  1  0.22103200  0.97338500  0.74933700  1
  Fe  Fe2  1  0.20263500  0.99340000  0.08416100  1
  Fe  Fe3  1  0.77896800  0.47338500  0.25066300  1
  Fe  Fe4  1  0.71279500  0.53765700  0.58338700  1
  Fe  Fe5  1  0.79736500  0.49340000  0.91583900  1
  O  O6  1  0.05524600  0.17708800  0.91341600  1
  O  O7  1  0.06815600  0.18821400  0.25391600  1
  O  O8  1  0.94475400  0.67708800  0.08658400  1
  O  O9  1  0.93184400  0.68821400  0.74608400  1
  O  O10  1  0.57061000  0.32644000  0.41729800  1
  O  O11  1  0.42939000  0.82644000  0.58270200  1
  F  F12  1  0.04987700  0.21054300  0.58299900  1
  F  F13  1  0.95012300  0.71054300  0.41700100  1
  F  F14  1  0.55715800  0.28838100  0.08135700  1
  F  F15  1  0.54323000  0.30489000  0.75134600  1
  F  F16  1  0.45677000  0.80489000  0.24865400  1
  F  F17  1  0.44284200  0.78838100  0.91864300  1
