# generated using pymatgen
data_Li2Fe12P7
_symmetry_space_group_name_H-M   'P 1'
_cell_length_a   8.87054807
_cell_length_b   8.87054807
_cell_length_c   3.55244600
_cell_angle_alpha   90.00000000
_cell_angle_beta   90.00000000
_cell_angle_gamma   120.00000000
_symmetry_Int_Tables_number   1
_chemical_formula_structural   Li2Fe12P7
_chemical_formula_sum   'Li2 Fe12 P7'
_cell_volume   242.08006351
_cell_formula_units_Z   1
loop_
 _symmetry_equiv_pos_site_id
 _symmetry_equiv_pos_as_xyz
  1  'x, y, z'
loop_
 _atom_site_type_symbol
 _atom_site_label
 _atom_site_symmetry_multiplicity
 _atom_site_fract_x
 _atom_site_fract_y
 _atom_site_fract_z
 _atom_site_occupancy
  Li  Li0  1  0.66666667  0.33333333  0.00000000  1
  Li  Li1  1  0.00000000  0.00000000  0.50000000  1
  Fe  Fe2  1  0.44942667  0.50631533  0.00000000  1
  Fe  Fe3  1  0.37611167  0.27693833  0.50000000  1
  Fe  Fe4  1  0.49368467  0.94311133  0.00000000  1
  Fe  Fe5  1  0.90082667  0.62388833  0.50000000  1
  Fe  Fe6  1  0.72306167  0.09917333  0.50000000  1
  Fe  Fe7  1  0.55363867  0.76081733  0.50000000  1
  Fe  Fe8  1  0.05688867  0.55057333  0.00000000  1
  Fe  Fe9  1  0.95099467  0.23503033  0.00000000  1
  Fe  Fe10  1  0.76496967  0.71596433  0.00000000  1
  Fe  Fe11  1  0.20717867  0.44636133  0.50000000  1
  Fe  Fe12  1  0.28403567  0.04900533  0.00000000  1
  Fe  Fe13  1  0.23918267  0.79282133  0.50000000  1
  P  P14  1  0.61858967  0.54512233  0.50000000  1
  P  P15  1  0.45487767  0.07346733  0.50000000  1
  P  P16  1  0.33333333  0.66666667  0.00000000  1
  P  P17  1  0.92653267  0.38141033  0.50000000  1
  P  P18  1  0.74776067  0.95325533  0.00000000  1
  P  P19  1  0.20549467  0.25223933  0.00000000  1
  P  P20  1  0.04674467  0.79450533  0.00000000  1
