# generated using pymatgen
data_CrF4
_symmetry_space_group_name_H-M   'P 1'
_cell_length_a   15.14918000
_cell_length_b   10.10947800
_cell_length_c   7.36946219
_cell_angle_alpha   90.00000000
_cell_angle_beta   102.67270279
_cell_angle_gamma   90.00000000
_symmetry_Int_Tables_number   1
_chemical_formula_structural   CrF4
_chemical_formula_sum   'Cr16 F64'
_cell_volume   1101.14086924
_cell_formula_units_Z   16
loop_
 _symmetry_equiv_pos_site_id
 _symmetry_equiv_pos_as_xyz
  1  'x, y, z'
loop_
 _atom_site_type_symbol
 _atom_site_label
 _atom_site_symmetry_multiplicity
 _atom_site_fract_x
 _atom_site_fract_y
 _atom_site_fract_z
 _atom_site_occupancy
  Cr  Cr0  1  0.49776300  0.24514500  0.50208300  1
  Cr  Cr1  1  0.18400100  0.99826400  0.10544300  1
  Cr  Cr2  1  0.81599900  0.99826400  0.39455700  1
  Cr  Cr3  1  0.18400100  0.00173600  0.60544300  1
  Cr  Cr4  1  0.81599900  0.00173600  0.89455700  1
  Cr  Cr5  1  0.49776300  0.75485500  0.00208300  1
  Cr  Cr6  1  0.50223700  0.75485500  0.49791700  1
  Cr  Cr7  1  0.50223700  0.24514500  0.99791700  1
  Cr  Cr8  1  0.99776300  0.74514500  0.50208300  1
  Cr  Cr9  1  0.68400100  0.49826400  0.10544300  1
  Cr  Cr10  1  0.31599900  0.49826400  0.39455700  1
  Cr  Cr11  1  0.68400100  0.50173600  0.60544300  1
  Cr  Cr12  1  0.31599900  0.50173600  0.89455700  1
  Cr  Cr13  1  0.99776300  0.25485500  0.00208300  1
  Cr  Cr14  1  0.00223700  0.25485500  0.49791700  1
  Cr  Cr15  1  0.00223700  0.74514500  0.99791700  1
  F  F16  1  0.39846550  0.35803550  0.00056700  1
  F  F17  1  0.56849700  0.40659100  0.09634100  1
  F  F18  1  0.43150300  0.40659100  0.40365900  1
  F  F19  1  0.17816050  0.06069450  0.35184300  1
  F  F20  1  0.82183950  0.06069450  0.14815700  1
  F  F21  1  0.27605100  0.10085700  0.10301100  1
  F  F22  1  0.56841250  0.88658850  0.09132200  1
  F  F23  1  0.82183950  0.93930550  0.64815700  1
  F  F24  1  0.43158750  0.11341150  0.90867800  1
  F  F25  1  0.39846550  0.64196450  0.50056700  1
  F  F26  1  0.75928650  0.14570150  0.80681900  1
  F  F27  1  0.50000000  0.68843500  0.25000000  1
  F  F28  1  0.60628350  0.16735250  0.01236700  1
  F  F29  1  0.39371650  0.83264750  0.98763300  1
  F  F30  1  0.24071350  0.85429850  0.19318100  1
  F  F31  1  0.50000000  0.80821200  0.75000000  1
  F  F32  1  0.50000000  0.31156500  0.75000000  1
  F  F33  1  0.72394900  0.10085700  0.39698900  1
  F  F34  1  0.60153450  0.35803550  0.49943300  1
  F  F35  1  0.43150300  0.59340900  0.90365900  1
  F  F36  1  0.56849700  0.59340900  0.59634100  1
  F  F37  1  0.39371650  0.16735250  0.48763300  1
  F  F38  1  0.27605100  0.89914300  0.60301100  1
  F  F39  1  0.75928650  0.85429850  0.30681900  1
  F  F40  1  0.72394900  0.89914300  0.89698900  1
  F  F41  1  0.50000000  0.19178800  0.25000000  1
  F  F42  1  0.17816050  0.93930550  0.85184300  1
  F  F43  1  0.60153450  0.64196450  0.99943300  1
  F  F44  1  0.60628350  0.83264750  0.51236700  1
  F  F45  1  0.56841250  0.11341150  0.59132200  1
  F  F46  1  0.24071350  0.14570150  0.69318100  1
  F  F47  1  0.43158750  0.88658850  0.40867800  1
  F  F48  1  0.89846550  0.85803550  0.00056700  1
  F  F49  1  0.06849700  0.90659100  0.09634100  1
  F  F50  1  0.93150300  0.90659100  0.40365900  1
  F  F51  1  0.67816050  0.56069450  0.35184300  1
  F  F52  1  0.32183950  0.56069450  0.14815700  1
  F  F53  1  0.77605100  0.60085700  0.10301100  1
  F  F54  1  0.06841250  0.38658850  0.09132200  1
  F  F55  1  0.32183950  0.43930550  0.64815700  1
  F  F56  1  0.93158750  0.61341150  0.90867800  1
  F  F57  1  0.89846550  0.14196450  0.50056700  1
  F  F58  1  0.25928650  0.64570150  0.80681900  1
  F  F59  1  0.00000000  0.18843500  0.25000000  1
  F  F60  1  0.10628350  0.66735250  0.01236700  1
  F  F61  1  0.89371650  0.33264750  0.98763300  1
  F  F62  1  0.74071350  0.35429850  0.19318100  1
  F  F63  1  0.00000000  0.30821200  0.75000000  1
  F  F64  1  0.00000000  0.81156500  0.75000000  1
  F  F65  1  0.22394900  0.60085700  0.39698900  1
  F  F66  1  0.10153450  0.85803550  0.49943300  1
  F  F67  1  0.93150300  0.09340900  0.90365900  1
  F  F68  1  0.06849700  0.09340900  0.59634100  1
  F  F69  1  0.89371650  0.66735250  0.48763300  1
  F  F70  1  0.77605100  0.39914300  0.60301100  1
  F  F71  1  0.25928650  0.35429850  0.30681900  1
  F  F72  1  0.22394900  0.39914300  0.89698900  1
  F  F73  1  0.00000000  0.69178800  0.25000000  1
  F  F74  1  0.67816050  0.43930550  0.85184300  1
  F  F75  1  0.10153450  0.14196450  0.99943300  1
  F  F76  1  0.10628350  0.33264750  0.51236700  1
  F  F77  1  0.06841250  0.61341150  0.59132200  1
  F  F78  1  0.74071350  0.64570150  0.69318100  1
  F  F79  1  0.93158750  0.38658850  0.40867800  1
