# generated using pymatgen
data_Li5NiO4
_symmetry_space_group_name_H-M   'P 1'
_cell_length_a   8.68584373
_cell_length_b   9.43203230
_cell_length_c   4.77978400
_cell_angle_alpha   90.00000000
_cell_angle_beta   90.00000000
_cell_angle_gamma   90.00000000
_symmetry_Int_Tables_number   1
_chemical_formula_structural   Li5NiO4
_chemical_formula_sum   'Li20 Ni4 O16'
_cell_volume   391.58456228
_cell_formula_units_Z   4
loop_
 _symmetry_equiv_pos_site_id
 _symmetry_equiv_pos_as_xyz
  1  'x, y, z'
loop_
 _atom_site_type_symbol
 _atom_site_label
 _atom_site_symmetry_multiplicity
 _atom_site_fract_x
 _atom_site_fract_y
 _atom_site_fract_z
 _atom_site_occupancy
  Li  Li0  1  0.00000000  0.51781050  0.00000000  1
  Li  Li1  1  0.50000000  0.51781050  0.50000000  1
  Li  Li2  1  0.79552050  0.75399000  0.97434250  1
  Li  Li3  1  0.20447950  0.75399000  0.02565750  1
  Li  Li4  1  0.29552050  0.75399000  0.52565750  1
  Li  Li5  1  0.70447950  0.75399000  0.47434250  1
  Li  Li6  1  0.21426950  0.00196650  0.05594900  1
  Li  Li7  1  0.28573050  0.00196650  0.55594900  1
  Li  Li8  1  0.21426950  0.50196650  0.44405100  1
  Li  Li9  1  0.28573050  0.50196650  0.94405100  1
  Li  Li10  1  0.50000000  0.01781050  0.00000000  1
  Li  Li11  1  0.00000000  0.01781050  0.50000000  1
  Li  Li12  1  0.29552050  0.25399000  0.97434250  1
  Li  Li13  1  0.70447950  0.25399000  0.02565750  1
  Li  Li14  1  0.79552050  0.25399000  0.52565750  1
  Li  Li15  1  0.20447950  0.25399000  0.47434250  1
  Li  Li16  1  0.71426950  0.50196650  0.05594900  1
  Li  Li17  1  0.78573050  0.50196650  0.55594900  1
  Li  Li18  1  0.71426950  0.00196650  0.44405100  1
  Li  Li19  1  0.78573050  0.00196650  0.94405100  1
  Ni  Ni20  1  0.00000000  0.74430600  0.50000000  1
  Ni  Ni21  1  0.50000000  0.74430600  0.00000000  1
  Ni  Ni22  1  0.50000000  0.24430600  0.50000000  1
  Ni  Ni23  1  0.00000000  0.24430600  0.00000000  1
  O  O24  1  0.62835450  0.63191350  0.77296300  1
  O  O25  1  0.87164550  0.63191350  0.27296300  1
  O  O26  1  0.12835450  0.63191350  0.72703700  1
  O  O27  1  0.37164550  0.63191350  0.22703700  1
  O  O28  1  0.13880750  0.87311050  0.33435200  1
  O  O29  1  0.36119250  0.87311050  0.83435200  1
  O  O30  1  0.13880750  0.37311050  0.16564800  1
  O  O31  1  0.36119250  0.37311050  0.66564800  1
  O  O32  1  0.12835450  0.13191350  0.77296300  1
  O  O33  1  0.37164550  0.13191350  0.27296300  1
  O  O34  1  0.62835450  0.13191350  0.72703700  1
  O  O35  1  0.87164550  0.13191350  0.22703700  1
  O  O36  1  0.63880750  0.37311050  0.33435200  1
  O  O37  1  0.86119250  0.37311050  0.83435200  1
  O  O38  1  0.63880750  0.87311050  0.16564800  1
  O  O39  1  0.86119250  0.87311050  0.66564800  1
