# generated using pymatgen
data_Li3FePCO7
_symmetry_space_group_name_H-M   'P 1'
_cell_length_a   5.02356611
_cell_length_b   6.44755087
_cell_length_c   8.64997524
_cell_angle_alpha   90.00000000
_cell_angle_beta   97.47935723
_cell_angle_gamma   90.00000000
_symmetry_Int_Tables_number   1
_chemical_formula_structural   Li3FePCO7
_chemical_formula_sum   'Li6 Fe2 P2 C2 O14'
_cell_volume   277.78634985
_cell_formula_units_Z   2
loop_
 _symmetry_equiv_pos_site_id
 _symmetry_equiv_pos_as_xyz
  1  'x, y, z'
loop_
 _atom_site_type_symbol
 _atom_site_label
 _atom_site_symmetry_multiplicity
 _atom_site_fract_x
 _atom_site_fract_y
 _atom_site_fract_z
 _atom_site_occupancy
  Li  Li0  1  0.32920750  0.11292700  0.92620750  1
  Li  Li1  1  0.67079250  0.61292700  0.07379250  1
  Li  Li2  1  0.76472650  0.49401700  0.70250150  1
  Li  Li3  1  0.76942550  0.01846300  0.71746350  1
  Li  Li4  1  0.23527350  0.99401700  0.29749850  1
  Li  Li5  1  0.23057450  0.51846300  0.28253650  1
  Fe  Fe6  1  0.28347350  0.75274600  0.66574250  1
  Fe  Fe7  1  0.71652650  0.25274600  0.33425750  1
  P  P8  1  0.24178250  0.25951400  0.59627650  1
  P  P9  1  0.75821750  0.75951400  0.40372350  1
  C  C10  1  0.85340950  0.21415600  0.04266450  1
  C  C11  1  0.14659050  0.71415600  0.95733550  1
  O  O12  1  0.39066150  0.77943000  0.94875850  1
  O  O13  1  0.98260650  0.70644200  0.82660250  1
  O  O14  1  0.93272650  0.16056200  0.91339150  1
  O  O15  1  0.34594850  0.06499500  0.69419650  1
  O  O16  1  0.36494950  0.44674800  0.69214750  1
  O  O17  1  0.66669450  0.75728700  0.56682150  1
  O  O18  1  0.92717650  0.26358200  0.57719650  1
  O  O19  1  0.07282350  0.76358200  0.42280350  1
  O  O20  1  0.33330550  0.25728700  0.43317850  1
  O  O21  1  0.65405150  0.56499500  0.30580350  1
  O  O22  1  0.63505050  0.94674800  0.30785250  1
  O  O23  1  0.06727350  0.66056200  0.08660850  1
  O  O24  1  0.01739350  0.20644200  0.17339750  1
  O  O25  1  0.60933850  0.27943000  0.05124150  1
