# generated using pymatgen
data_Li2Co2SiO6
_symmetry_space_group_name_H-M   'P 1'
_cell_length_a   5.07476400
_cell_length_b   8.54868600
_cell_length_c   9.96890000
_cell_angle_alpha   90.00000000
_cell_angle_beta   90.00000000
_cell_angle_gamma   90.00000000
_symmetry_Int_Tables_number   1
_chemical_formula_structural   Li2Co2SiO6
_chemical_formula_sum   'Li8 Co8 Si4 O24'
_cell_volume   432.47644186
_cell_formula_units_Z   4
loop_
 _symmetry_equiv_pos_site_id
 _symmetry_equiv_pos_as_xyz
  1  'x, y, z'
loop_
 _atom_site_type_symbol
 _atom_site_label
 _atom_site_symmetry_multiplicity
 _atom_site_fract_x
 _atom_site_fract_y
 _atom_site_fract_z
 _atom_site_occupancy
  Li  Li0  1  0.37203600  0.25000000  0.75000000  1
  Li  Li1  1  0.62796400  0.25000000  0.25000000  1
  Li  Li2  1  0.37203600  0.75000000  0.75000000  1
  Li  Li3  1  0.62796400  0.75000000  0.25000000  1
  Li  Li4  1  0.87203600  0.75000000  0.75000000  1
  Li  Li5  1  0.12796400  0.75000000  0.25000000  1
  Li  Li6  1  0.87203600  0.25000000  0.75000000  1
  Li  Li7  1  0.12796400  0.25000000  0.25000000  1
  Co  Co8  1  0.50000000  0.83600900  0.00000000  1
  Co  Co9  1  0.50000000  0.33600900  0.50000000  1
  Co  Co10  1  0.50000000  0.16399100  0.00000000  1
  Co  Co11  1  0.50000000  0.66399100  0.50000000  1
  Co  Co12  1  0.00000000  0.33600900  0.00000000  1
  Co  Co13  1  0.00000000  0.83600900  0.50000000  1
  Co  Co14  1  0.00000000  0.66399100  0.00000000  1
  Co  Co15  1  0.00000000  0.16399100  0.50000000  1
  Si  Si16  1  0.50000000  0.00000000  0.50000000  1
  Si  Si17  1  0.00000000  0.00000000  0.00000000  1
  Si  Si18  1  0.00000000  0.50000000  0.50000000  1
  Si  Si19  1  0.50000000  0.50000000  0.00000000  1
  O  O20  1  0.36217350  0.84330150  0.39389900  1
  O  O21  1  0.63782650  0.34330150  0.89389900  1
  O  O22  1  0.63782650  0.84330150  0.60610100  1
  O  O23  1  0.36217350  0.34330150  0.10610100  1
  O  O24  1  0.36217350  0.65669850  0.10610100  1
  O  O25  1  0.63782650  0.15669850  0.60610100  1
  O  O26  1  0.63782650  0.65669850  0.89389900  1
  O  O27  1  0.36217350  0.15669850  0.39389900  1
  O  O28  1  0.30057300  0.00000000  0.09199300  1
  O  O29  1  0.19942700  0.00000000  0.59199300  1
  O  O30  1  0.69942700  0.00000000  0.90800700  1
  O  O31  1  0.80057300  0.00000000  0.40800700  1
  O  O32  1  0.86217350  0.34330150  0.39389900  1
  O  O33  1  0.13782650  0.84330150  0.89389900  1
  O  O34  1  0.13782650  0.34330150  0.60610100  1
  O  O35  1  0.86217350  0.84330150  0.10610100  1
  O  O36  1  0.86217350  0.15669850  0.10610100  1
  O  O37  1  0.13782650  0.65669850  0.60610100  1
  O  O38  1  0.13782650  0.15669850  0.89389900  1
  O  O39  1  0.86217350  0.65669850  0.39389900  1
  O  O40  1  0.80057300  0.50000000  0.09199300  1
  O  O41  1  0.69942700  0.50000000  0.59199300  1
  O  O42  1  0.19942700  0.50000000  0.90800700  1
  O  O43  1  0.30057300  0.50000000  0.40800700  1
