# generated using pymatgen
data_MnOF
_symmetry_space_group_name_H-M   'P 1'
_cell_length_a   4.61918500
_cell_length_b   10.26853800
_cell_length_c   7.08885857
_cell_angle_alpha   90.00000000
_cell_angle_beta   126.83433136
_cell_angle_gamma   90.00000000
_symmetry_Int_Tables_number   1
_chemical_formula_structural   MnOF
_chemical_formula_sum   'Mn8 O8 F8'
_cell_volume   269.11774156
_cell_formula_units_Z   8
loop_
 _symmetry_equiv_pos_site_id
 _symmetry_equiv_pos_as_xyz
  1  'x, y, z'
loop_
 _atom_site_type_symbol
 _atom_site_label
 _atom_site_symmetry_multiplicity
 _atom_site_fract_x
 _atom_site_fract_y
 _atom_site_fract_z
 _atom_site_occupancy
  Mn  Mn0  1  0.85306900  0.25111200  0.85049800  1
  Mn  Mn1  1  0.09381300  0.50998000  0.14341900  1
  Mn  Mn2  1  0.84999900  0.75238100  0.85005800  1
  Mn  Mn3  1  0.17870600  0.01297700  0.15857600  1
  Mn  Mn4  1  0.17870600  0.98702300  0.65857600  1
  Mn  Mn5  1  0.09381300  0.49002000  0.64341900  1
  Mn  Mn6  1  0.85306900  0.74888800  0.35049800  1
  Mn  Mn7  1  0.84999900  0.24761900  0.35005800  1
  O  O8  1  0.69348700  0.92117000  0.88748300  1
  O  O9  1  0.85549000  0.67147500  0.10793000  1
  O  O10  1  0.91451200  0.17028000  0.11858600  1
  O  O11  1  0.07943400  0.41695900  0.38210900  1
  O  O12  1  0.91451200  0.82972000  0.61858600  1
  O  O13  1  0.85549000  0.32852500  0.60793000  1
  O  O14  1  0.69348700  0.07883000  0.38748300  1
  O  O15  1  0.07943400  0.58304100  0.88210900  1
  F  F16  1  0.61677500  0.40163300  0.87940600  1
  F  F17  1  0.32460000  0.64688200  0.61409200  1
  F  F18  1  0.37505800  0.14889100  0.61930700  1
  F  F19  1  0.16505700  0.89433700  0.38853500  1
  F  F20  1  0.61677500  0.59836700  0.37940600  1
  F  F21  1  0.37505800  0.85110900  0.11930700  1
  F  F22  1  0.16505700  0.10566300  0.88853500  1
  F  F23  1  0.32460000  0.35311800  0.11409200  1
