# generated using pymatgen
data_Li2AlVO4
_symmetry_space_group_name_H-M   'P 1'
_cell_length_a   4.98139400
_cell_length_b   5.58265400
_cell_length_c   6.36160900
_cell_angle_alpha   90.00000000
_cell_angle_beta   90.00000000
_cell_angle_gamma   90.00000000
_symmetry_Int_Tables_number   1
_chemical_formula_structural   Li2AlVO4
_chemical_formula_sum   'Li4 Al2 V2 O8'
_cell_volume   176.91252385
_cell_formula_units_Z   2
loop_
 _symmetry_equiv_pos_site_id
 _symmetry_equiv_pos_as_xyz
  1  'x, y, z'
loop_
 _atom_site_type_symbol
 _atom_site_label
 _atom_site_symmetry_multiplicity
 _atom_site_fract_x
 _atom_site_fract_y
 _atom_site_fract_z
 _atom_site_occupancy
  Li  Li0  1  0.99070200  0.83379950  0.25052700  1
  Li  Li1  1  0.49070200  0.16620050  0.24947300  1
  Li  Li2  1  0.99070200  0.83379950  0.74947300  1
  Li  Li3  1  0.49070200  0.16620050  0.75052700  1
  Al  Al4  1  0.49781000  0.67119850  0.00000000  1
  Al  Al5  1  0.99781000  0.32880150  0.50000000  1
  V  V6  1  0.99079900  0.33335650  0.00000000  1
  V  V7  1  0.49079900  0.66664350  0.50000000  1
  O  O8  1  0.85751300  0.65834050  0.00000000  1
  O  O9  1  0.38340900  0.36644550  0.00000000  1
  O  O10  1  0.89453500  0.17974050  0.26521700  1
  O  O11  1  0.39453500  0.82025950  0.23478300  1
  O  O12  1  0.88340900  0.63355450  0.50000000  1
  O  O13  1  0.35751300  0.34165950  0.50000000  1
  O  O14  1  0.39453500  0.82025950  0.76521700  1
  O  O15  1  0.89453500  0.17974050  0.73478300  1
