# generated using pymatgen
data_FeP3H5NO10
_symmetry_space_group_name_H-M   'P 1'
_cell_length_a   12.21365800
_cell_length_b   8.55086200
_cell_length_c   9.46556866
_cell_angle_alpha   90.00000000
_cell_angle_beta   112.30183625
_cell_angle_gamma   90.00000000
_symmetry_Int_Tables_number   1
_chemical_formula_structural   FeP3H5NO10
_chemical_formula_sum   'Fe4 P12 H20 N4 O40'
_cell_volume   914.61188360
_cell_formula_units_Z   4
loop_
 _symmetry_equiv_pos_site_id
 _symmetry_equiv_pos_as_xyz
  1  'x, y, z'
loop_
 _atom_site_type_symbol
 _atom_site_label
 _atom_site_symmetry_multiplicity
 _atom_site_fract_x
 _atom_site_fract_y
 _atom_site_fract_z
 _atom_site_occupancy
  Fe  Fe0  1  0.25000000  0.75000000  0.50000000  1
  Fe  Fe1  1  0.75000000  0.75000000  0.00000000  1
  Fe  Fe2  1  0.75000000  0.25000000  0.50000000  1
  Fe  Fe3  1  0.25000000  0.25000000  0.00000000  1
  P  P4  1  0.28978450  0.43269150  0.70463800  1
  P  P5  1  0.71021550  0.43269150  0.79536200  1
  P  P6  1  0.71021550  0.56730850  0.29536200  1
  P  P7  1  0.28978450  0.56730850  0.20463800  1
  P  P8  1  0.00000000  0.12402300  0.75000000  1
  P  P9  1  0.00000000  0.87597700  0.25000000  1
  P  P10  1  0.78978450  0.93269150  0.70463800  1
  P  P11  1  0.21021550  0.93269150  0.79536200  1
  P  P12  1  0.21021550  0.06730850  0.29536200  1
  P  P13  1  0.78978450  0.06730850  0.20463800  1
  P  P14  1  0.50000000  0.62402300  0.75000000  1
  P  P15  1  0.50000000  0.37597700  0.25000000  1
  H  H16  1  0.93405800  0.38678600  0.25949900  1
  H  H17  1  0.06594200  0.38678600  0.24050100  1
  H  H18  1  0.06594200  0.61321400  0.74050100  1
  H  H19  1  0.93405800  0.61321400  0.75949900  1
  H  H20  1  0.96218350  0.47227350  0.65614500  1
  H  H21  1  0.03781650  0.47227350  0.84385500  1
  H  H22  1  0.03781650  0.52772650  0.34385500  1
  H  H23  1  0.96218350  0.52772650  0.15614500  1
  H  H24  1  0.25000000  0.75000000  0.00000000  1
  H  H25  1  0.75000000  0.75000000  0.50000000  1
  H  H26  1  0.43405800  0.88678600  0.25949900  1
  H  H27  1  0.56594200  0.88678600  0.24050100  1
  H  H28  1  0.56594200  0.11321400  0.74050100  1
  H  H29  1  0.43405800  0.11321400  0.75949900  1
  H  H30  1  0.46218350  0.97227350  0.65614500  1
  H  H31  1  0.53781650  0.97227350  0.84385500  1
  H  H32  1  0.53781650  0.02772650  0.34385500  1
  H  H33  1  0.46218350  0.02772650  0.15614500  1
  H  H34  1  0.75000000  0.25000000  0.00000000  1
  H  H35  1  0.25000000  0.25000000  0.50000000  1
  N  N36  1  0.00000000  0.54359900  0.75000000  1
  N  N37  1  0.00000000  0.45640100  0.25000000  1
  N  N38  1  0.50000000  0.04359900  0.75000000  1
  N  N39  1  0.50000000  0.95640100  0.25000000  1
  O  O40  1  0.41824200  0.51269500  0.80284200  1
  O  O41  1  0.58175800  0.51269500  0.69715800  1
  O  O42  1  0.58175800  0.48730500  0.19715800  1
  O  O43  1  0.41824200  0.48730500  0.30284200  1
  O  O44  1  0.21166450  0.55757750  0.59759100  1
  O  O45  1  0.78833550  0.55757750  0.90240900  1
  O  O46  1  0.78833550  0.44242250  0.40240900  1
  O  O47  1  0.21166450  0.44242250  0.09759100  1
  O  O48  1  0.81975900  0.79404300  0.62202200  1
  O  O49  1  0.18024100  0.79404300  0.87797800  1
  O  O50  1  0.18024100  0.20595700  0.37797800  1
  O  O51  1  0.81975900  0.20595700  0.12202200  1
  O  O52  1  0.24154900  0.38559000  0.82413000  1
  O  O53  1  0.75845100  0.38559000  0.67587000  1
  O  O54  1  0.75845100  0.61441000  0.17587000  1
  O  O55  1  0.24154900  0.61441000  0.32413000  1
  O  O56  1  0.92711600  0.21826200  0.61029200  1
  O  O57  1  0.07288400  0.21826200  0.88970800  1
  O  O58  1  0.07288400  0.78173800  0.38970800  1
  O  O59  1  0.92711600  0.78173800  0.11029200  1
  O  O60  1  0.91824200  0.01269500  0.80284200  1
  O  O61  1  0.08175800  0.01269500  0.69715800  1
  O  O62  1  0.08175800  0.98730500  0.19715800  1
  O  O63  1  0.91824200  0.98730500  0.30284200  1
  O  O64  1  0.71166450  0.05757750  0.59759100  1
  O  O65  1  0.28833550  0.05757750  0.90240900  1
  O  O66  1  0.28833550  0.94242250  0.40240900  1
  O  O67  1  0.71166450  0.94242250  0.09759100  1
  O  O68  1  0.31975900  0.29404300  0.62202200  1
  O  O69  1  0.68024100  0.29404300  0.87797800  1
  O  O70  1  0.68024100  0.70595700  0.37797800  1
  O  O71  1  0.31975900  0.70595700  0.12202200  1
  O  O72  1  0.74154900  0.88559000  0.82413000  1
  O  O73  1  0.25845100  0.88559000  0.67587000  1
  O  O74  1  0.25845100  0.11441000  0.17587000  1
  O  O75  1  0.74154900  0.11441000  0.32413000  1
  O  O76  1  0.42711600  0.71826200  0.61029200  1
  O  O77  1  0.57288400  0.71826200  0.88970800  1
  O  O78  1  0.57288400  0.28173800  0.38970800  1
  O  O79  1  0.42711600  0.28173800  0.11029200  1
