# generated using pymatgen
data_Li5Mn2P2(CO7)2
_symmetry_space_group_name_H-M   'P 1'
_cell_length_a   5.02636300
_cell_length_b   6.63206800
_cell_length_c   8.46242836
_cell_angle_alpha   90.00000000
_cell_angle_beta   94.49797289
_cell_angle_gamma   90.00000000
_symmetry_Int_Tables_number   1
_chemical_formula_structural   Li5Mn2P2(CO7)2
_chemical_formula_sum   'Li5 Mn2 P2 C2 O14'
_cell_volume   281.22775602
_cell_formula_units_Z   1
loop_
 _symmetry_equiv_pos_site_id
 _symmetry_equiv_pos_as_xyz
  1  'x, y, z'
loop_
 _atom_site_type_symbol
 _atom_site_label
 _atom_site_symmetry_multiplicity
 _atom_site_fract_x
 _atom_site_fract_y
 _atom_site_fract_z
 _atom_site_occupancy
  Li  Li0  1  0.24606000  0.72294900  0.73680000  1
  Li  Li1  1  0.24606000  0.27705100  0.73680000  1
  Li  Li2  1  0.75226200  0.22398400  0.26603200  1
  Li  Li3  1  0.75226200  0.77601600  0.26603200  1
  Li  Li4  1  0.23438700  0.00000000  0.09696000  1
  Mn  Mn5  1  0.78450300  0.00000000  0.65784100  1
  Mn  Mn6  1  0.21283500  0.50000000  0.33524300  1
  P  P7  1  0.73468100  0.50000000  0.58098400  1
  P  P8  1  0.27707200  0.00000000  0.41185300  1
  C  C9  1  0.70413700  0.00000000  0.96324600  1
  C  C10  1  0.28998500  0.50000000  0.04655800  1
  O  O11  1  0.95038200  0.00000000  0.93064400  1
  O  O12  1  0.32655200  0.50000000  0.90091200  1
  O  O13  1  0.51621000  0.00000000  0.84782200  1
  O  O14  1  0.83762800  0.68766700  0.67279500  1
  O  O15  1  0.83762800  0.31233300  0.67279500  1
  O  O16  1  0.18743900  0.00000000  0.58238700  1
  O  O17  1  0.41820900  0.50000000  0.55752800  1
  O  O18  1  0.58896200  0.00000000  0.42334700  1
  O  O19  1  0.83169300  0.50000000  0.40923900  1
  O  O20  1  0.16928500  0.81754500  0.31112100  1
  O  O21  1  0.16928500  0.18245500  0.31112100  1
  O  O22  1  0.48582400  0.50000000  0.16002700  1
  O  O23  1  0.63651700  0.00000000  0.10856100  1
  O  O24  1  0.05457400  0.50000000  0.10251100  1
