# generated using pymatgen
data_TiFe3(PO4)6
_symmetry_space_group_name_H-M   'P 1'
_cell_length_a   8.74120195
_cell_length_b   8.74120195
_cell_length_c   22.13139393
_cell_angle_alpha   90.00000000
_cell_angle_beta   90.00000000
_cell_angle_gamma   120.00000000
_symmetry_Int_Tables_number   1
_chemical_formula_structural   TiFe3(PO4)6
_chemical_formula_sum   'Ti3 Fe9 P18 O72'
_cell_volume   1464.47414350
_cell_formula_units_Z   3
loop_
 _symmetry_equiv_pos_site_id
 _symmetry_equiv_pos_as_xyz
  1  'x, y, z'
loop_
 _atom_site_type_symbol
 _atom_site_label
 _atom_site_symmetry_multiplicity
 _atom_site_fract_x
 _atom_site_fract_y
 _atom_site_fract_z
 _atom_site_occupancy
  Ti  Ti0  1  0.00000000  0.00000000  0.14013000  1
  Ti  Ti1  1  0.66666667  0.33333333  0.47346333  1
  Ti  Ti2  1  0.33333333  0.66666667  0.80679667  1
  Fe  Fe3  1  0.66666667  0.33333333  0.19030933  1
  Fe  Fe4  1  0.33333333  0.66666667  0.30856867  1
  Fe  Fe5  1  0.33333333  0.66666667  0.02409667  1
  Fe  Fe6  1  0.33333333  0.66666667  0.52364267  1
  Fe  Fe7  1  0.00000000  0.00000000  0.64190200  1
  Fe  Fe8  1  0.00000000  0.00000000  0.35743000  1
  Fe  Fe9  1  0.00000000  0.00000000  0.85697600  1
  Fe  Fe10  1  0.66666667  0.33333333  0.97523533  1
  Fe  Fe11  1  0.66666667  0.33333333  0.69076333  1
  P  P12  1  0.99926967  0.28351833  0.24995233  1
  P  P13  1  0.71648167  0.71575133  0.24995233  1
  P  P14  1  0.28424867  0.00073033  0.24995233  1
  P  P15  1  0.38444567  0.33571333  0.08320933  1
  P  P16  1  0.95126767  0.61555433  0.08320933  1
  P  P17  1  0.66428667  0.04873233  0.08320933  1
  P  P18  1  0.66593633  0.61685167  0.58328567  1
  P  P19  1  0.38314833  0.04908467  0.58328567  1
  P  P20  1  0.95091533  0.33406367  0.58328567  1
  P  P21  1  0.05111233  0.66904667  0.41654267  1
  P  P22  1  0.61793433  0.94888767  0.41654267  1
  P  P23  1  0.33095333  0.38206567  0.41654267  1
  P  P24  1  0.33260300  0.95018500  0.91661900  1
  P  P25  1  0.04981500  0.38241800  0.91661900  1
  P  P26  1  0.61758200  0.66739700  0.91661900  1
  P  P27  1  0.71777900  0.00238000  0.74987600  1
  P  P28  1  0.28460100  0.28222100  0.74987600  1
  P  P29  1  0.99762000  0.71539900  0.74987600  1
  O  O30  1  0.70119900  0.16358500  0.02664000  1
  O  O31  1  0.46238600  0.29880100  0.02664000  1
  O  O32  1  0.83645500  0.30514300  0.24261200  1
  O  O33  1  0.83641500  0.53761400  0.02664000  1
  O  O34  1  0.16726000  0.46473800  0.25539400  1
  O  O35  1  0.01885667  0.18785033  0.19418033  1
  O  O36  1  0.69485700  0.53131200  0.24261200  1
  O  O37  1  0.53526200  0.70252200  0.25539400  1
  O  O38  1  0.29747800  0.83274000  0.25539400  1
  O  O39  1  0.49962667  0.36771033  0.13933533  1
  O  O40  1  0.19791667  0.17317333  0.09413233  1
  O  O41  1  0.86808367  0.50037333  0.13933533  1
  O  O42  1  0.81214967  0.83100633  0.19418033  1
  O  O43  1  0.46868800  0.16354500  0.24261200  1
  O  O44  1  0.16899367  0.98114333  0.19418033  1
  O  O45  1  0.36674733  0.50014867  0.07569067  1
  O  O46  1  0.13340133  0.63325267  0.07569067  1
  O  O47  1  0.97525667  0.80208333  0.09413233  1
  O  O48  1  0.63228967  0.13191633  0.13933533  1
  O  O49  1  0.49985133  0.86659867  0.07569067  1
  O  O50  1  0.82999200  0.79795100  0.30670800  1
  O  O51  1  0.82682667  0.02474333  0.09413233  1
  O  O52  1  0.20204900  0.03204100  0.30670800  1
  O  O53  1  0.96795900  0.17000800  0.30670800  1
  O  O54  1  0.36786567  0.49691833  0.35997333  1
  O  O55  1  0.12905267  0.63213433  0.35997333  1
  O  O56  1  0.50312167  0.63847633  0.57594533  1
  O  O57  1  0.50308167  0.87094733  0.35997333  1
  O  O58  1  0.83392667  0.79807133  0.58872733  1
  O  O59  1  0.68552333  0.52118367  0.52751367  1
  O  O60  1  0.36152367  0.86464533  0.57594533  1
  O  O61  1  0.20192867  0.03585533  0.58872733  1
  O  O62  1  0.96414467  0.16607333  0.58872733  1
  O  O63  1  0.16629333  0.70104367  0.47266867  1
  O  O64  1  0.86458333  0.50650667  0.42746567  1
  O  O65  1  0.53475033  0.83370667  0.47266867  1
  O  O66  1  0.47881633  0.16433967  0.52751367  1
  O  O67  1  0.13535467  0.49687833  0.57594533  1
  O  O68  1  0.83566033  0.31447667  0.52751367  1
  O  O69  1  0.03341400  0.83348200  0.40902400  1
  O  O70  1  0.80006800  0.96658600  0.40902400  1
  O  O71  1  0.64192333  0.13541667  0.42746567  1
  O  O72  1  0.29895633  0.46524967  0.47266867  1
  O  O73  1  0.16651800  0.19993200  0.40902400  1
  O  O74  1  0.49665867  0.13128433  0.64004133  1
  O  O75  1  0.49349333  0.35807667  0.42746567  1
  O  O76  1  0.86871567  0.36537433  0.64004133  1
  O  O77  1  0.63462567  0.50334133  0.64004133  1
  O  O78  1  0.03453233  0.83025167  0.69330667  1
  O  O79  1  0.79571933  0.96546767  0.69330667  1
  O  O80  1  0.16978833  0.97180967  0.90927867  1
  O  O81  1  0.16974833  0.20428067  0.69330667  1
  O  O82  1  0.50059333  0.13140467  0.92206067  1
  O  O83  1  0.35219000  0.85451700  0.86084700  1
  O  O84  1  0.02819033  0.19797867  0.90927867  1
  O  O85  1  0.86859533  0.36918867  0.92206067  1
  O  O86  1  0.63081133  0.49940667  0.92206067  1
  O  O87  1  0.83296000  0.03437700  0.80600200  1
  O  O88  1  0.53125000  0.83984000  0.76079900  1
  O  O89  1  0.20141700  0.16704000  0.80600200  1
  O  O90  1  0.14548300  0.49767300  0.86084700  1
  O  O91  1  0.80202133  0.83021167  0.90927867  1
  O  O92  1  0.50232700  0.64781000  0.86084700  1
  O  O93  1  0.70008067  0.16681533  0.74235733  1
  O  O94  1  0.46673467  0.29991933  0.74235733  1
  O  O95  1  0.30859000  0.46875000  0.76079900  1
  O  O96  1  0.96562300  0.79858300  0.80600200  1
  O  O97  1  0.83318467  0.53326533  0.74235733  1
  O  O98  1  0.16332533  0.46461767  0.97337467  1
  O  O99  1  0.16016000  0.69141000  0.76079900  1
  O  O100  1  0.53538233  0.69870767  0.97337467  1
  O  O101  1  0.30129233  0.83667467  0.97337467  1
