# generated using pymatgen
data_LiMn2P2HO8
_symmetry_space_group_name_H-M   'P 1'
_cell_length_a   5.07731793
_cell_length_b   8.71515835
_cell_length_c   7.77096015
_cell_angle_alpha   90.00000000
_cell_angle_beta   105.14695916
_cell_angle_gamma   90.00000000
_symmetry_Int_Tables_number   1
_chemical_formula_structural   LiMn2P2HO8
_chemical_formula_sum   'Li2 Mn4 P4 H2 O16'
_cell_volume   331.91592713
_cell_formula_units_Z   2
loop_
 _symmetry_equiv_pos_site_id
 _symmetry_equiv_pos_as_xyz
  1  'x, y, z'
loop_
 _atom_site_type_symbol
 _atom_site_label
 _atom_site_symmetry_multiplicity
 _atom_site_fract_x
 _atom_site_fract_y
 _atom_site_fract_z
 _atom_site_occupancy
  Li  Li0  1  0.24188950  0.00128100  0.75520350  1
  Li  Li1  1  0.75811050  0.50128100  0.24479650  1
  Mn  Mn2  1  0.63559250  0.83823000  0.07568450  1
  Mn  Mn3  1  0.36440750  0.33823000  0.92431550  1
  Mn  Mn4  1  0.12735050  0.66235100  0.58701250  1
  Mn  Mn5  1  0.87264950  0.16235100  0.41298750  1
  P  P6  1  0.12386950  0.63539400  0.97366750  1
  P  P7  1  0.87613050  0.13539400  0.02633250  1
  P  P8  1  0.61459550  0.86205600  0.47652550  1
  P  P9  1  0.38540450  0.36205600  0.52347450  1
  H  H10  1  0.73011550  0.48649500  0.74529950  1
  H  H11  1  0.26988450  0.98649500  0.25470050  1
  O  O12  1  0.15729250  0.47135400  0.42671450  1
  O  O13  1  0.84270750  0.97135400  0.57328550  1
  O  O14  1  0.23747250  0.78681200  0.91427350  1
  O  O15  1  0.76252750  0.28681200  0.08572650  1
  O  O16  1  0.09436350  0.16339400  0.92480550  1
  O  O17  1  0.90563650  0.66339400  0.07519450  1
  O  O18  1  0.99709450  0.54312600  0.79383050  1
  O  O19  1  0.00290550  0.04312600  0.20616950  1
  O  O20  1  0.73628250  0.71300700  0.42154450  1
  O  O21  1  0.26371750  0.21300700  0.57845550  1
  O  O22  1  0.60486650  0.33671600  0.42403950  1
  O  O23  1  0.39513350  0.83671600  0.57596050  1
  O  O24  1  0.47696750  0.94480600  0.28642550  1
  O  O25  1  0.52303250  0.44480600  0.71357450  1
  O  O26  1  0.63854150  0.03549000  0.91888350  1
  O  O27  1  0.36145850  0.53549000  0.08111650  1
