# generated using pymatgen
data_LiMnCo3O8
_symmetry_space_group_name_H-M   'P 1'
_cell_length_a   5.67495512
_cell_length_b   5.67495512
_cell_length_c   15.01432296
_cell_angle_alpha   90.00000000
_cell_angle_beta   90.00000000
_cell_angle_gamma   120.00000000
_symmetry_Int_Tables_number   1
_chemical_formula_structural   LiMnCo3O8
_chemical_formula_sum   'Li3 Mn3 Co9 O24'
_cell_volume   418.75619688
_cell_formula_units_Z   3
loop_
 _symmetry_equiv_pos_site_id
 _symmetry_equiv_pos_as_xyz
  1  'x, y, z'
loop_
 _atom_site_type_symbol
 _atom_site_label
 _atom_site_symmetry_multiplicity
 _atom_site_fract_x
 _atom_site_fract_y
 _atom_site_fract_z
 _atom_site_occupancy
  Li  Li0  1  0.33333333  0.66666667  0.16666667  1
  Li  Li1  1  1.00000000  1.00000000  0.50000000  1
  Li  Li2  1  0.66666667  0.33333333  0.83333333  1
  Mn  Mn3  1  0.00000000  0.00000000  0.00000000  1
  Mn  Mn4  1  0.66666667  0.33333333  0.33333333  1
  Mn  Mn5  1  0.33333333  0.66666667  0.66666667  1
  Co  Co6  1  0.50000000  0.50000000  0.00000000  1
  Co  Co7  1  0.16666667  0.33333333  0.33333333  1
  Co  Co8  1  0.00000000  0.50000000  0.00000000  1
  Co  Co9  1  0.16666667  0.83333333  0.33333333  1
  Co  Co10  1  0.83333333  0.66666667  0.66666667  1
  Co  Co11  1  0.66666667  0.83333333  0.33333333  1
  Co  Co12  1  0.83333333  0.16666667  0.66666667  1
  Co  Co13  1  0.50000000  0.00000000  1.00000000  1
  Co  Co14  1  0.33333333  0.16666667  0.66666667  1
  O  O15  1  0.66666667  0.33333333  0.06221933  1
  O  O16  1  0.00000000  0.00000000  0.27111400  1
  O  O17  1  0.00563183  0.50281592  0.26758417  1
  O  O18  1  0.49718408  0.99436817  0.26758417  1
  O  O19  1  0.49718408  0.50281592  0.26758417  1
  O  O20  1  0.16948258  0.83051742  0.06574917  1
  O  O21  1  0.16948258  0.33896517  0.06574917  1
  O  O22  1  0.66103483  0.83051742  0.06574917  1
  O  O23  1  0.33333333  0.66666667  0.39555267  1
  O  O24  1  0.66666667  0.33333333  0.60444733  1
  O  O25  1  0.67229850  0.83614925  0.60091750  1
  O  O26  1  0.16385075  0.32770150  0.60091750  1
  O  O27  1  0.16385075  0.83614925  0.60091750  1
  O  O28  1  0.83614925  0.16385075  0.39908250  1
  O  O29  1  0.83614925  0.67229850  0.39908250  1
  O  O30  1  0.32770150  0.16385075  0.39908250  1
  O  O31  1  0.00000000  0.00000000  0.72888600  1
  O  O32  1  0.33333333  0.66666667  0.93778067  1
  O  O33  1  0.33896517  0.16948258  0.93425083  1
  O  O34  1  0.83051742  0.66103483  0.93425083  1
  O  O35  1  0.83051742  0.16948258  0.93425083  1
  O  O36  1  0.50281592  0.49718408  0.73241583  1
  O  O37  1  0.50281592  0.00563183  0.73241583  1
  O  O38  1  0.99436817  0.49718408  0.73241583  1
