# generated using pymatgen
data_Ti3CrFe2(PO4)6
_symmetry_space_group_name_H-M   'P 1'
_cell_length_a   8.66746901
_cell_length_b   8.66746901
_cell_length_c   20.77583737
_cell_angle_alpha   90.00000000
_cell_angle_beta   90.00000000
_cell_angle_gamma   120.00000000
_symmetry_Int_Tables_number   1
_chemical_formula_structural   Ti3CrFe2(PO4)6
_chemical_formula_sum   'Ti9 Cr3 Fe6 P18 O72'
_cell_volume   1351.67961428
_cell_formula_units_Z   3
loop_
 _symmetry_equiv_pos_site_id
 _symmetry_equiv_pos_as_xyz
  1  'x, y, z'
loop_
 _atom_site_type_symbol
 _atom_site_label
 _atom_site_symmetry_multiplicity
 _atom_site_fract_x
 _atom_site_fract_y
 _atom_site_fract_z
 _atom_site_occupancy
  Ti  Ti0  1  0.33333333  0.66666667  0.80996167  1
  Ti  Ti1  1  0.33333333  0.66666667  0.02224167  1
  Ti  Ti2  1  0.33333333  0.66666667  0.31055767  1
  Ti  Ti3  1  0.00000000  0.00000000  0.14329500  1
  Ti  Ti4  1  0.00000000  0.00000000  0.35557500  1
  Ti  Ti5  1  0.00000000  0.00000000  0.64389100  1
  Ti  Ti6  1  0.66666667  0.33333333  0.47662833  1
  Ti  Ti7  1  0.66666667  0.33333333  0.68890833  1
  Ti  Ti8  1  0.66666667  0.33333333  0.97722433  1
  Cr  Cr9  1  0.33333333  0.66666667  0.52589867  1
  Cr  Cr10  1  0.00000000  0.00000000  0.85923200  1
  Cr  Cr11  1  0.66666667  0.33333333  0.19256533  1
  Fe  Fe12  1  0.33333333  0.66666667  0.66682167  1
  Fe  Fe13  1  0.33333333  0.66666667  0.16574767  1
  Fe  Fe14  1  0.00000000  0.00000000  0.00015500  1
  Fe  Fe15  1  0.00000000  0.00000000  0.49908100  1
  Fe  Fe16  1  0.66666667  0.33333333  0.33348833  1
  Fe  Fe17  1  0.66666667  0.33333333  0.83241433  1
  P  P18  1  0.95794533  0.33416267  0.08442667  1
  P  P19  1  0.37621733  0.04205467  0.08442667  1
  P  P20  1  0.99901733  0.70586967  0.24950667  1
  P  P21  1  0.29413033  0.29314767  0.24950667  1
  P  P22  1  0.70685233  0.00098267  0.24950667  1
  P  P23  1  0.66583733  0.62378267  0.08442667  1
  P  P24  1  0.62461200  0.66749600  0.41776000  1
  P  P25  1  0.04288400  0.37538800  0.41776000  1
  P  P26  1  0.66568400  0.03920300  0.58284000  1
  P  P27  1  0.96079700  0.62648100  0.58284000  1
  P  P28  1  0.37351900  0.33431600  0.58284000  1
  P  P29  1  0.33250400  0.95711600  0.41776000  1
  P  P30  1  0.29127867  0.00082933  0.75109333  1
  P  P31  1  0.70955067  0.70872133  0.75109333  1
  P  P32  1  0.33235067  0.37253633  0.91617333  1
  P  P33  1  0.62746367  0.95981433  0.91617333  1
  P  P34  1  0.04018567  0.66764933  0.91617333  1
  P  P35  1  0.99917067  0.29044933  0.75109333  1
  O  O36  1  0.13922533  0.66164767  0.97678767  1
  O  O37  1  0.33835233  0.47757767  0.97678767  1
  O  O38  1  0.97889267  0.16615133  0.07613233  1
  O  O39  1  0.52242233  0.86077467  0.97678767  1
  O  O40  1  0.86203900  0.33347500  0.14499100  1
  O  O41  1  0.14928767  0.50082933  0.08899233  1
  O  O42  1  0.18725867  0.02110733  0.07613233  1
  O  O43  1  0.35154167  0.85071233  0.08899233  1
  O  O44  1  0.99572533  0.80567867  0.18881167  1
  O  O45  1  0.49917067  0.64845833  0.08899233  1
  O  O46  1  0.83279700  0.51939700  0.25770000  1
  O  O47  1  0.19432133  0.19004667  0.18881167  1
  O  O48  1  0.47143600  0.13796100  0.14499100  1
  O  O49  1  0.83384867  0.81274133  0.07613233  1
  O  O50  1  0.16749267  0.68657033  0.24282933  1
  O  O51  1  0.66652500  0.52856400  0.14499100  1
  O  O52  1  0.31342967  0.48092233  0.24282933  1
  O  O53  1  0.48060300  0.31340000  0.25770000  1
  O  O54  1  0.51907767  0.83250733  0.24282933  1
  O  O55  1  0.80995333  0.00427467  0.18881167  1
  O  O56  1  0.14668167  0.47505333  0.35607833  1
  O  O57  1  0.68660000  0.16720300  0.25770000  1
  O  O58  1  0.32837167  0.85331833  0.35607833  1
  O  O59  1  0.52494667  0.67162833  0.35607833  1
  O  O60  1  0.80589200  0.99498100  0.31012100  1
  O  O61  1  0.00501900  0.81091100  0.31012100  1
  O  O62  1  0.64555933  0.49948467  0.40946567  1
  O  O63  1  0.18908900  0.19410800  0.31012100  1
  O  O64  1  0.52870567  0.66680833  0.47832433  1
  O  O65  1  0.81595433  0.83416267  0.42232567  1
  O  O66  1  0.85392533  0.35444067  0.40946567  1
  O  O67  1  0.01820833  0.18404567  0.42232567  1
  O  O68  1  0.66239200  0.13901200  0.52214500  1
  O  O69  1  0.16583733  0.98179167  0.42232567  1
  O  O70  1  0.49946367  0.85273033  0.59103333  1
  O  O71  1  0.86098800  0.52338000  0.52214500  1
  O  O72  1  0.13810267  0.47129433  0.47832433  1
  O  O73  1  0.50051533  0.14607467  0.40946567  1
  O  O74  1  0.83415933  0.01990367  0.57616267  1
  O  O75  1  0.33319167  0.86189733  0.47832433  1
  O  O76  1  0.98009633  0.81425567  0.57616267  1
  O  O77  1  0.14726967  0.64673333  0.59103333  1
  O  O78  1  0.18574433  0.16584067  0.57616267  1
  O  O79  1  0.47662000  0.33760800  0.52214500  1
  O  O80  1  0.81334833  0.80838667  0.68941167  1
  O  O81  1  0.35326667  0.50053633  0.59103333  1
  O  O82  1  0.99503833  0.18665167  0.68941167  1
  O  O83  1  0.19161333  0.00496167  0.68941167  1
  O  O84  1  0.47255867  0.32831433  0.64345433  1
  O  O85  1  0.67168567  0.14424433  0.64345433  1
  O  O86  1  0.31222600  0.83281800  0.74279900  1
  O  O87  1  0.85575567  0.52744133  0.64345433  1
  O  O88  1  0.19537233  0.00014167  0.81165767  1
  O  O89  1  0.48262100  0.16749600  0.75565900  1
  O  O90  1  0.52059200  0.68777400  0.74279900  1
  O  O91  1  0.68487500  0.51737900  0.75565900  1
  O  O92  1  0.32905867  0.47234533  0.85547833  1
  O  O93  1  0.83250400  0.31512500  0.75565900  1
  O  O94  1  0.16613033  0.18606367  0.92436667  1
  O  O95  1  0.52765467  0.85671333  0.85547833  1
  O  O96  1  0.80476933  0.80462767  0.81165767  1
  O  O97  1  0.16718200  0.47940800  0.74279900  1
  O  O98  1  0.50082600  0.35323700  0.90949600  1
  O  O99  1  0.99985833  0.19523067  0.81165767  1
  O  O100  1  0.64676300  0.14758900  0.90949600  1
  O  O101  1  0.81393633  0.98006667  0.92436667  1
  O  O102  1  0.85241100  0.49917400  0.90949600  1
  O  O103  1  0.14328667  0.67094133  0.85547833  1
  O  O104  1  0.48001500  0.14172000  0.02274500  1
  O  O105  1  0.01993333  0.83386967  0.92436667  1
  O  O106  1  0.66170500  0.51998500  0.02274500  1
  O  O107  1  0.85828000  0.33829500  0.02274500  1
