# generated using pymatgen
data_Mn3CrCo2(PO4)6
_symmetry_space_group_name_H-M   'P 1'
_cell_length_a   8.57747230
_cell_length_b   8.57747230
_cell_length_c   20.68022404
_cell_angle_alpha   90.00000000
_cell_angle_beta   90.00000000
_cell_angle_gamma   120.00000000
_symmetry_Int_Tables_number   1
_chemical_formula_structural   Mn3CrCo2(PO4)6
_chemical_formula_sum   'Mn9 Cr3 Co6 P18 O72'
_cell_volume   1317.66351229
_cell_formula_units_Z   3
loop_
 _symmetry_equiv_pos_site_id
 _symmetry_equiv_pos_as_xyz
  1  'x, y, z'
loop_
 _atom_site_type_symbol
 _atom_site_label
 _atom_site_symmetry_multiplicity
 _atom_site_fract_x
 _atom_site_fract_y
 _atom_site_fract_z
 _atom_site_occupancy
  Mn  Mn0  1  0.33333333  0.66666667  0.30879867  1
  Mn  Mn1  1  0.33333333  0.66666667  0.52435767  1
  Mn  Mn2  1  0.33333333  0.66666667  0.02405867  1
  Mn  Mn3  1  0.00000000  0.00000000  0.64213200  1
  Mn  Mn4  1  0.00000000  0.00000000  0.85769100  1
  Mn  Mn5  1  0.00000000  0.00000000  0.35739200  1
  Mn  Mn6  1  0.66666667  0.33333333  0.97546533  1
  Mn  Mn7  1  0.66666667  0.33333333  0.19102433  1
  Mn  Mn8  1  0.66666667  0.33333333  0.69072533  1
  Cr  Cr9  1  0.33333333  0.66666667  0.80749567  1
  Cr  Cr10  1  0.00000000  0.00000000  0.14082900  1
  Cr  Cr11  1  0.66666667  0.33333333  0.47416233  1
  Co  Co12  1  0.33333333  0.66666667  0.66678467  1
  Co  Co13  1  0.33333333  0.66666667  0.16601967  1
  Co  Co14  1  0.00000000  0.00000000  0.00011800  1
  Co  Co15  1  0.00000000  0.00000000  0.49935300  1
  Co  Co16  1  0.66666667  0.33333333  0.33345133  1
  Co  Co17  1  0.66666667  0.33333333  0.83268633  1
  P  P18  1  0.70837300  0.70799500  0.25037800  1
  P  P19  1  0.29200500  0.00037800  0.25037800  1
  P  P20  1  0.99962200  0.29162700  0.25037800  1
  P  P21  1  0.66692500  0.04316300  0.08278400  1
  P  P22  1  0.37623800  0.33307500  0.08278400  1
  P  P23  1  0.95683700  0.62376200  0.08278400  1
  P  P24  1  0.37503967  0.04132833  0.58371133  1
  P  P25  1  0.95867167  0.33371133  0.58371133  1
  P  P26  1  0.66628867  0.62496033  0.58371133  1
  P  P27  1  0.33359167  0.37649633  0.41611733  1
  P  P28  1  0.04290467  0.66640833  0.41611733  1
  P  P29  1  0.62350367  0.95709533  0.41611733  1
  P  P30  1  0.04170633  0.37466167  0.91704467  1
  P  P31  1  0.62533833  0.66704467  0.91704467  1
  P  P32  1  0.33295533  0.95829367  0.91704467  1
  P  P33  1  0.00025833  0.70982967  0.74945067  1
  P  P34  1  0.70957133  0.99974167  0.74945067  1
  P  P35  1  0.29017033  0.29042867  0.74945067  1
  O  O36  1  0.53273633  0.67145767  0.97948067  1
  O  O37  1  0.32854233  0.86127867  0.97948067  1
  O  O38  1  0.13872133  0.46726367  0.97948067  1
  O  O39  1  0.68232800  0.51474700  0.25739400  1
  O  O40  1  0.80236233  0.80339067  0.18885667  1
  O  O41  1  0.51548600  0.68849400  0.24413500  1
  O  O42  1  0.48525300  0.16758100  0.25739400  1
  O  O43  1  0.31150600  0.82699200  0.24413500  1
  O  O44  1  0.66287233  0.13565167  0.14520367  1
  O  O45  1  0.17300800  0.48451400  0.24413500  1
  O  O46  1  0.83508933  0.02056167  0.07554567  1
  O  O47  1  0.47277933  0.33712767  0.14520367  1
  O  O48  1  0.19660933  0.99897167  0.18885667  1
  O  O49  1  0.83241900  0.31767200  0.25739400  1
  O  O50  1  0.49614567  0.85131133  0.08960333  1
  O  O51  1  0.00102833  0.19763767  0.18885667  1
  O  O52  1  0.35516567  0.50385433  0.08960333  1
  O  O53  1  0.18547233  0.16491067  0.07554567  1
  O  O54  1  0.14868867  0.64483433  0.08960333  1
  O  O55  1  0.86434833  0.52722067  0.14520367  1
  O  O56  1  0.97943833  0.81452767  0.07554567  1
  O  O57  1  0.52560467  0.85869333  0.35411833  1
  O  O58  1  0.33308867  0.47439533  0.35411833  1
  O  O59  1  0.14130667  0.66691133  0.35411833  1
  O  O60  1  0.19940300  0.00479100  0.31281400  1
  O  O61  1  0.99520900  0.19461200  0.31281400  1
  O  O62  1  0.80538800  0.80059700  0.31281400  1
  O  O63  1  0.34899467  0.84808033  0.59072733  1
  O  O64  1  0.46902900  0.13672400  0.52219000  1
  O  O65  1  0.18215267  0.02182733  0.57746833  1
  O  O66  1  0.15191967  0.50091433  0.59072733  1
  O  O67  1  0.97817267  0.16032533  0.57746833  1
  O  O68  1  0.32953900  0.46898500  0.47853700  1
  O  O69  1  0.83967467  0.81784733  0.57746833  1
  O  O70  1  0.50175600  0.35389500  0.40887900  1
  O  O71  1  0.13944600  0.67046100  0.47853700  1
  O  O72  1  0.86327600  0.33230500  0.52219000  1
  O  O73  1  0.49908567  0.65100533  0.59072733  1
  O  O74  1  0.16281233  0.18464467  0.42293667  1
  O  O75  1  0.66769500  0.53097100  0.52219000  1
  O  O76  1  0.02183233  0.83718767  0.42293667  1
  O  O77  1  0.85213900  0.49824400  0.40887900  1
  O  O78  1  0.81535533  0.97816767  0.42293667  1
  O  O79  1  0.53101500  0.86055400  0.47853700  1
  O  O80  1  0.64610500  0.14786100  0.40887900  1
  O  O81  1  0.19227133  0.19202667  0.68745167  1
  O  O82  1  0.99975533  0.80772867  0.68745167  1
  O  O83  1  0.80797333  0.00024467  0.68745167  1
  O  O84  1  0.86606967  0.33812433  0.64614733  1
  O  O85  1  0.66187567  0.52794533  0.64614733  1
  O  O86  1  0.47205467  0.13393033  0.64614733  1
  O  O87  1  0.01566133  0.18141367  0.92406067  1
  O  O88  1  0.13569567  0.47005733  0.85552333  1
  O  O89  1  0.84881933  0.35516067  0.91080167  1
  O  O90  1  0.81858633  0.83424767  0.92406067  1
  O  O91  1  0.64483933  0.49365867  0.91080167  1
  O  O92  1  0.99620567  0.80231833  0.81187033  1
  O  O93  1  0.50634133  0.15118067  0.91080167  1
  O  O94  1  0.16842267  0.68722833  0.74221233  1
  O  O95  1  0.80611267  0.00379433  0.81187033  1
  O  O96  1  0.52994267  0.66563833  0.85552333  1
  O  O97  1  0.16575233  0.98433867  0.92406067  1
  O  O98  1  0.82947900  0.51797800  0.75627000  1
  O  O99  1  0.33436167  0.86430433  0.85552333  1
  O  O100  1  0.68849900  0.17052100  0.75627000  1
  O  O101  1  0.51880567  0.83157733  0.74221233  1
  O  O102  1  0.48202200  0.31150100  0.75627000  1
  O  O103  1  0.19768167  0.19388733  0.81187033  1
  O  O104  1  0.31277167  0.48119433  0.74221233  1
  O  O105  1  0.85893800  0.52536000  0.02078500  1
  O  O106  1  0.66642200  0.14106200  0.02078500  1
  O  O107  1  0.47464000  0.33357800  0.02078500  1
