# generated using pymatgen
data_LiTiV3O10
_symmetry_space_group_name_H-M   'P 1'
_cell_length_a   9.32646200
_cell_length_b   9.44510800
_cell_length_c   4.65273292
_cell_angle_alpha   90.00000000
_cell_angle_beta   92.08486298
_cell_angle_gamma   90.00000000
_symmetry_Int_Tables_number   1
_chemical_formula_structural   LiTiV3O10
_chemical_formula_sum   'Li2 Ti2 V6 O20'
_cell_volume   409.58533291
_cell_formula_units_Z   2
loop_
 _symmetry_equiv_pos_site_id
 _symmetry_equiv_pos_as_xyz
  1  'x, y, z'
loop_
 _atom_site_type_symbol
 _atom_site_label
 _atom_site_symmetry_multiplicity
 _atom_site_fract_x
 _atom_site_fract_y
 _atom_site_fract_z
 _atom_site_occupancy
  Li  Li0  1  0.50000000  0.50024500  0.00000000  1
  Li  Li1  1  0.00000000  0.00024500  0.00000000  1
  Ti  Ti2  1  0.50000000  0.24995800  0.50000000  1
  Ti  Ti3  1  0.00000000  0.74995800  0.50000000  1
  V  V4  1  0.50000000  0.74923200  0.50000000  1
  V  V5  1  0.25012850  0.99990450  0.62116000  1
  V  V6  1  0.74987150  0.99990450  0.37884000  1
  V  V7  1  0.00000000  0.24923200  0.50000000  1
  V  V8  1  0.75012850  0.49990450  0.62116000  1
  V  V9  1  0.24987150  0.49990450  0.37884000  1
  O  O10  1  0.61136900  0.85426400  0.29833300  1
  O  O11  1  0.23494150  0.99993350  0.26950200  1
  O  O12  1  0.38863100  0.85426400  0.70166700  1
  O  O13  1  0.60146500  0.63838300  0.73071900  1
  O  O14  1  0.39853500  0.63838300  0.26928100  1
  O  O15  1  0.60664050  0.37073850  0.73259200  1
  O  O16  1  0.39335950  0.37073850  0.26740800  1
  O  O17  1  0.61769800  0.13705800  0.29216700  1
  O  O18  1  0.76505850  0.99993350  0.73049800  1
  O  O19  1  0.38230200  0.13705800  0.70783300  1
  O  O20  1  0.11136900  0.35426400  0.29833300  1
  O  O21  1  0.73494150  0.49993350  0.26950200  1
  O  O22  1  0.88863100  0.35426400  0.70166700  1
  O  O23  1  0.10146500  0.13838300  0.73071900  1
  O  O24  1  0.89853500  0.13838300  0.26928100  1
  O  O25  1  0.10664050  0.87073850  0.73259200  1
  O  O26  1  0.89335950  0.87073850  0.26740800  1
  O  O27  1  0.11769800  0.63705800  0.29216700  1
  O  O28  1  0.26505850  0.49993350  0.73049800  1
  O  O29  1  0.88230200  0.63705800  0.70783300  1
