# generated using pymatgen
data_Li2Mn(SiO3)2
_symmetry_space_group_name_H-M   'P 1'
_cell_length_a   10.61496600
_cell_length_b   9.67111600
_cell_length_c   5.41005102
_cell_angle_alpha   90.00000000
_cell_angle_beta   115.14585859
_cell_angle_gamma   90.00000000
_symmetry_Int_Tables_number   1
_chemical_formula_structural   Li2Mn(SiO3)2
_chemical_formula_sum   'Li8 Mn4 Si8 O24'
_cell_volume   502.75339578
_cell_formula_units_Z   4
loop_
 _symmetry_equiv_pos_site_id
 _symmetry_equiv_pos_as_xyz
  1  'x, y, z'
loop_
 _atom_site_type_symbol
 _atom_site_label
 _atom_site_symmetry_multiplicity
 _atom_site_fract_x
 _atom_site_fract_y
 _atom_site_fract_z
 _atom_site_occupancy
  Li  Li0  1  0.16548650  0.31999850  0.89014600  1
  Li  Li1  1  0.00000000  0.19575000  0.00000000  1
  Li  Li2  1  0.83451350  0.31999850  0.10985400  1
  Li  Li3  1  0.00000000  0.78777700  0.50000000  1
  Li  Li4  1  0.66548650  0.81999850  0.89014600  1
  Li  Li5  1  0.50000000  0.69575000  0.00000000  1
  Li  Li6  1  0.33451350  0.81999850  0.10985400  1
  Li  Li7  1  0.50000000  0.28777700  0.50000000  1
  Mn  Mn8  1  0.00000000  0.10378000  0.50000000  1
  Mn  Mn9  1  0.00000000  0.86970000  0.00000000  1
  Mn  Mn10  1  0.50000000  0.60378000  0.50000000  1
  Mn  Mn11  1  0.50000000  0.36970000  0.00000000  1
  Si  Si12  1  0.20508300  0.41298900  0.44812800  1
  Si  Si13  1  0.20167700  0.59002600  0.94865600  1
  Si  Si14  1  0.79491700  0.41298900  0.55187200  1
  Si  Si15  1  0.79832300  0.59002600  0.05134400  1
  Si  Si16  1  0.70508300  0.91298900  0.44812800  1
  Si  Si17  1  0.70167700  0.09002600  0.94865600  1
  Si  Si18  1  0.29491700  0.91298900  0.55187200  1
  Si  Si19  1  0.29832300  0.09002600  0.05134400  1
  O  O20  1  0.37581000  0.41366300  0.58918200  1
  O  O21  1  0.11930950  0.26900250  0.38389800  1
  O  O22  1  0.36967850  0.60904250  0.09069700  1
  O  O23  1  0.15660550  0.49502450  0.66850800  1
  O  O24  1  0.88069050  0.26900250  0.61610200  1
  O  O25  1  0.15461100  0.49013100  0.14488900  1
  O  O26  1  0.84339450  0.49502450  0.33149200  1
  O  O27  1  0.13067850  0.74129450  0.89188700  1
  O  O28  1  0.84538900  0.49013100  0.85511100  1
  O  O29  1  0.62419000  0.41366300  0.41081800  1
  O  O30  1  0.86932150  0.74129450  0.10811300  1
  O  O31  1  0.63032150  0.60904250  0.90930300  1
  O  O32  1  0.87581000  0.91366300  0.58918200  1
  O  O33  1  0.61930950  0.76900250  0.38389800  1
  O  O34  1  0.86967850  0.10904250  0.09069700  1
  O  O35  1  0.65660550  0.99502450  0.66850800  1
  O  O36  1  0.38069050  0.76900250  0.61610200  1
  O  O37  1  0.65461100  0.99013100  0.14488900  1
  O  O38  1  0.34339450  0.99502450  0.33149200  1
  O  O39  1  0.63067850  0.24129450  0.89188700  1
  O  O40  1  0.34538900  0.99013100  0.85511100  1
  O  O41  1  0.12419000  0.91366300  0.41081800  1
  O  O42  1  0.36932150  0.24129450  0.10811300  1
  O  O43  1  0.13032150  0.10904250  0.90930300  1
