# generated using pymatgen
data_LiV2O3F
_symmetry_space_group_name_H-M   'P 1'
_cell_length_a   6.09900600
_cell_length_b   8.54469000
_cell_length_c   12.08431000
_cell_angle_alpha   90.00000000
_cell_angle_beta   90.00000000
_cell_angle_gamma   90.00000000
_symmetry_Int_Tables_number   1
_chemical_formula_structural   LiV2O3F
_chemical_formula_sum   'Li8 V16 O24 F8'
_cell_volume   629.76312802
_cell_formula_units_Z   8
loop_
 _symmetry_equiv_pos_site_id
 _symmetry_equiv_pos_as_xyz
  1  'x, y, z'
loop_
 _atom_site_type_symbol
 _atom_site_label
 _atom_site_symmetry_multiplicity
 _atom_site_fract_x
 _atom_site_fract_y
 _atom_site_fract_z
 _atom_site_occupancy
  Li  Li0  1  0.00000000  0.10796300  0.62133150  1
  Li  Li1  1  0.00000000  0.10796300  0.37866850  1
  Li  Li2  1  0.00000000  0.88435350  0.12479000  1
  Li  Li3  1  0.00000000  0.88435350  0.87521000  1
  Li  Li4  1  0.50000000  0.60796300  0.12133150  1
  Li  Li5  1  0.50000000  0.60796300  0.87866850  1
  Li  Li6  1  0.50000000  0.38435350  0.62479000  1
  Li  Li7  1  0.50000000  0.38435350  0.37521000  1
  V  V8  1  0.50000000  0.00925750  0.50000000  1
  V  V9  1  0.50000000  0.01275950  0.75005800  1
  V  V10  1  0.50000000  0.01275950  0.24994200  1
  V  V11  1  0.75652900  0.75042300  0.62442850  1
  V  V12  1  0.75652900  0.75042300  0.37557150  1
  V  V13  1  0.24347100  0.75042300  0.37557150  1
  V  V14  1  0.24347100  0.75042300  0.62442850  1
  V  V15  1  0.00000000  0.48669850  0.50000000  1
  V  V16  1  0.00000000  0.50925750  0.00000000  1
  V  V17  1  0.00000000  0.51275950  0.25005800  1
  V  V18  1  0.00000000  0.51275950  0.74994200  1
  V  V19  1  0.25652900  0.25042300  0.12442850  1
  V  V20  1  0.25652900  0.25042300  0.87557150  1
  V  V21  1  0.74347100  0.25042300  0.87557150  1
  V  V22  1  0.74347100  0.25042300  0.12442850  1
  V  V23  1  0.50000000  0.98669850  0.00000000  1
  O  O24  1  0.72206300  0.98273300  0.62504850  1
  O  O25  1  0.72206300  0.98273300  0.37495150  1
  O  O26  1  0.27793700  0.98273300  0.62504850  1
  O  O27  1  0.27793700  0.98273300  0.37495150  1
  O  O28  1  0.50000000  0.75588850  0.50000000  1
  O  O29  1  0.00000000  0.74467450  0.26492300  1
  O  O30  1  0.00000000  0.74467450  0.73507700  1
  O  O31  1  0.00000000  0.73814350  0.50000000  1
  O  O32  1  0.72350050  0.01671350  0.12351500  1
  O  O33  1  0.27649950  0.01671350  0.12351500  1
  O  O34  1  0.72350050  0.01671350  0.87648500  1
  O  O35  1  0.27649950  0.01671350  0.87648500  1
  O  O36  1  0.22206300  0.48273300  0.12504850  1
  O  O37  1  0.22206300  0.48273300  0.87495150  1
  O  O38  1  0.77793700  0.48273300  0.12504850  1
  O  O39  1  0.77793700  0.48273300  0.87495150  1
  O  O40  1  0.00000000  0.25588850  0.00000000  1
  O  O41  1  0.50000000  0.24467450  0.76492300  1
  O  O42  1  0.50000000  0.24467450  0.23507700  1
  O  O43  1  0.50000000  0.23814350  0.00000000  1
  O  O44  1  0.22350050  0.51671350  0.62351500  1
  O  O45  1  0.77649950  0.51671350  0.62351500  1
  O  O46  1  0.22350050  0.51671350  0.37648500  1
  O  O47  1  0.77649950  0.51671350  0.37648500  1
  F  F48  1  0.00000000  0.24775550  0.50000000  1
  F  F49  1  0.50000000  0.75783250  0.74489500  1
  F  F50  1  0.50000000  0.75783250  0.25510500  1
  F  F51  1  0.50000000  0.24762250  0.50000000  1
  F  F52  1  0.50000000  0.74775550  0.00000000  1
  F  F53  1  0.00000000  0.25783250  0.24489500  1
  F  F54  1  0.00000000  0.25783250  0.75510500  1
  F  F55  1  0.00000000  0.74762250  0.00000000  1
