# generated using pymatgen
data_Lu2WO6
_symmetry_space_group_name_H-M   'P 1'
_cell_length_a   16.10941400
_cell_length_b   10.90385600
_cell_length_c   5.30146903
_cell_angle_alpha   90.00000000
_cell_angle_beta   107.32704813
_cell_angle_gamma   90.00000000
_symmetry_Int_Tables_number   1
_chemical_formula_structural   Lu2WO6
_chemical_formula_sum   'Lu16 W8 O48'
_cell_volume   888.96926904
_cell_formula_units_Z   8
loop_
 _symmetry_equiv_pos_site_id
 _symmetry_equiv_pos_as_xyz
  1  'x, y, z'
loop_
 _atom_site_type_symbol
 _atom_site_label
 _atom_site_symmetry_multiplicity
 _atom_site_fract_x
 _atom_site_fract_y
 _atom_site_fract_z
 _atom_site_occupancy
  Lu  Lu0  1  0.83113050  0.88603150  0.61874200  1
  Lu  Lu1  1  0.83113050  0.11396850  0.11874200  1
  Lu  Lu2  1  0.50000000  0.13543100  0.75000000  1
  Lu  Lu3  1  0.50000000  0.60371500  0.75000000  1
  Lu  Lu4  1  0.50000000  0.39628500  0.25000000  1
  Lu  Lu5  1  0.50000000  0.86456900  0.25000000  1
  Lu  Lu6  1  0.16886950  0.88603150  0.88125800  1
  Lu  Lu7  1  0.16886950  0.11396850  0.38125800  1
  Lu  Lu8  1  0.33113050  0.38603150  0.61874200  1
  Lu  Lu9  1  0.33113050  0.61396850  0.11874200  1
  Lu  Lu10  1  0.00000000  0.63543100  0.75000000  1
  Lu  Lu11  1  0.00000000  0.10371500  0.75000000  1
  Lu  Lu12  1  0.00000000  0.89628500  0.25000000  1
  Lu  Lu13  1  0.00000000  0.36456900  0.25000000  1
  Lu  Lu14  1  0.66886950  0.38603150  0.88125800  1
  Lu  Lu15  1  0.66886950  0.61396850  0.38125800  1
  W  W16  1  0.65375550  0.85287650  0.93218200  1
  W  W17  1  0.65375550  0.14712350  0.43218200  1
  W  W18  1  0.34624450  0.85287650  0.56781800  1
  W  W19  1  0.34624450  0.14712350  0.06781800  1
  W  W20  1  0.15375550  0.35287650  0.93218200  1
  W  W21  1  0.15375550  0.64712350  0.43218200  1
  W  W22  1  0.84624450  0.35287650  0.56781800  1
  W  W23  1  0.84624450  0.64712350  0.06781800  1
  O  O24  1  0.90912650  0.01724250  0.92191700  1
  O  O25  1  0.90912650  0.98275750  0.42191700  1
  O  O26  1  0.73393150  0.20779750  0.74376000  1
  O  O27  1  0.73603800  0.95165500  0.85011200  1
  O  O28  1  0.73393150  0.79220250  0.24376000  1
  O  O29  1  0.73603800  0.04834500  0.35011200  1
  O  O30  1  0.60083650  0.77740150  0.60849600  1
  O  O31  1  0.60083650  0.22259850  0.10849600  1
  O  O32  1  0.57678000  0.96801100  0.98106900  1
  O  O33  1  0.57511750  0.26658150  0.57864600  1
  O  O34  1  0.57678000  0.03198900  0.48106900  1
  O  O35  1  0.57511750  0.73341850  0.07864600  1
  O  O36  1  0.42488250  0.26658150  0.92135400  1
  O  O37  1  0.42322000  0.96801100  0.51893100  1
  O  O38  1  0.42488250  0.73341850  0.42135400  1
  O  O39  1  0.42322000  0.03198900  0.01893100  1
  O  O40  1  0.39916350  0.77740150  0.89150400  1
  O  O41  1  0.39916350  0.22259850  0.39150400  1
  O  O42  1  0.26396200  0.95165500  0.64988800  1
  O  O43  1  0.26606850  0.20779750  0.75624000  1
  O  O44  1  0.26396200  0.04834500  0.14988800  1
  O  O45  1  0.26606850  0.79220250  0.25624000  1
  O  O46  1  0.09087350  0.01724250  0.57808300  1
  O  O47  1  0.09087350  0.98275750  0.07808300  1
  O  O48  1  0.40912650  0.51724250  0.92191700  1
  O  O49  1  0.40912650  0.48275750  0.42191700  1
  O  O50  1  0.23393150  0.70779750  0.74376000  1
  O  O51  1  0.23603800  0.45165500  0.85011200  1
  O  O52  1  0.23393150  0.29220250  0.24376000  1
  O  O53  1  0.23603800  0.54834500  0.35011200  1
  O  O54  1  0.10083650  0.27740150  0.60849600  1
  O  O55  1  0.10083650  0.72259850  0.10849600  1
  O  O56  1  0.07678000  0.46801100  0.98106900  1
  O  O57  1  0.07511750  0.76658150  0.57864600  1
  O  O58  1  0.07678000  0.53198900  0.48106900  1
  O  O59  1  0.07511750  0.23341850  0.07864600  1
  O  O60  1  0.92488250  0.76658150  0.92135400  1
  O  O61  1  0.92322000  0.46801100  0.51893100  1
  O  O62  1  0.92488250  0.23341850  0.42135400  1
  O  O63  1  0.92322000  0.53198900  0.01893100  1
  O  O64  1  0.89916350  0.27740150  0.89150400  1
  O  O65  1  0.89916350  0.72259850  0.39150400  1
  O  O66  1  0.76396200  0.45165500  0.64988800  1
  O  O67  1  0.76606850  0.70779750  0.75624000  1
  O  O68  1  0.76396200  0.54834500  0.14988800  1
  O  O69  1  0.76606850  0.29220250  0.25624000  1
  O  O70  1  0.59087350  0.51724250  0.57808300  1
  O  O71  1  0.59087350  0.48275750  0.07808300  1
