# generated using pymatgen
data_NbSb3(PO4)6
_symmetry_space_group_name_H-M   'P 1'
_cell_length_a   8.84028592
_cell_length_b   8.84028592
_cell_length_c   22.53404377
_cell_angle_alpha   90.00000000
_cell_angle_beta   90.00000000
_cell_angle_gamma   120.00000000
_symmetry_Int_Tables_number   1
_chemical_formula_structural   NbSb3(PO4)6
_chemical_formula_sum   'Nb3 Sb9 P18 O72'
_cell_volume   1525.11428231
_cell_formula_units_Z   3
loop_
 _symmetry_equiv_pos_site_id
 _symmetry_equiv_pos_as_xyz
  1  'x, y, z'
loop_
 _atom_site_type_symbol
 _atom_site_label
 _atom_site_symmetry_multiplicity
 _atom_site_fract_x
 _atom_site_fract_y
 _atom_site_fract_z
 _atom_site_occupancy
  Nb  Nb0  1  0.00000000  0.00000000  0.14154200  1
  Nb  Nb1  1  0.66666667  0.33333333  0.47487533  1
  Nb  Nb2  1  0.33333333  0.66666667  0.80820867  1
  Sb  Sb3  1  0.66666667  0.33333333  0.18995433  1
  Sb  Sb4  1  0.33333333  0.66666667  0.30873267  1
  Sb  Sb5  1  0.33333333  0.66666667  0.02218167  1
  Sb  Sb6  1  0.33333333  0.66666667  0.52328767  1
  Sb  Sb7  1  0.00000000  0.00000000  0.64206600  1
  Sb  Sb8  1  0.00000000  0.00000000  0.35551500  1
  Sb  Sb9  1  0.00000000  0.00000000  0.85662100  1
  Sb  Sb10  1  0.66666667  0.33333333  0.97539933  1
  Sb  Sb11  1  0.66666667  0.33333333  0.68884833  1
  P  P12  1  0.71146800  0.71207600  0.24944300  1
  P  P13  1  0.28792400  0.99939200  0.24944300  1
  P  P14  1  0.00060800  0.28853200  0.24944300  1
  P  P15  1  0.66475367  0.04387233  0.08299233  1
  P  P16  1  0.37911867  0.33524633  0.08299233  1
  P  P17  1  0.95612767  0.62088133  0.08299233  1
  P  P18  1  0.37813467  0.04540933  0.58277633  1
  P  P19  1  0.95459067  0.33272533  0.58277633  1
  P  P20  1  0.66727467  0.62186533  0.58277633  1
  P  P21  1  0.33142033  0.37720567  0.41632567  1
  P  P22  1  0.04578533  0.66857967  0.41632567  1
  P  P23  1  0.62279433  0.95421467  0.41632567  1
  P  P24  1  0.04480133  0.37874267  0.91610967  1
  P  P25  1  0.62125733  0.66605867  0.91610967  1
  P  P26  1  0.33394133  0.95519867  0.91610967  1
  P  P27  1  0.99808700  0.71053900  0.74965900  1
  P  P28  1  0.71245200  0.00191300  0.74965900  1
  P  P29  1  0.28946100  0.28754800  0.74965900  1
  O  O30  1  0.84602400  0.54594900  0.02692100  1
  O  O31  1  0.69992500  0.15397600  0.02692100  1
  O  O32  1  0.69251400  0.52836100  0.24485500  1
  O  O33  1  0.45405100  0.30007500  0.02692100  1
  O  O34  1  0.53104333  0.69857967  0.25247067  1
  O  O35  1  0.80571333  0.82687267  0.19479367  1
  O  O36  1  0.47163900  0.16415300  0.24485500  1
  O  O37  1  0.30142033  0.83246367  0.25247067  1
  O  O38  1  0.16753633  0.46895667  0.25247067  1
  O  O39  1  0.63493567  0.12426933  0.13950633  1
  O  O40  1  0.82982467  0.02549133  0.09209233  1
  O  O41  1  0.48933367  0.36506433  0.13950633  1
  O  O42  1  0.17312733  0.97884067  0.19479367  1
  O  O43  1  0.83584700  0.30748600  0.24485500  1
  O  O44  1  0.02115933  0.19428667  0.19479367  1
  O  O45  1  0.50127600  0.85954800  0.07809800  1
  O  O46  1  0.35827200  0.49872400  0.07809800  1
  O  O47  1  0.19566667  0.17017533  0.09209233  1
  O  O48  1  0.87573067  0.51066633  0.13950633  1
  O  O49  1  0.14045200  0.64172800  0.07809800  1
  O  O50  1  0.20990333  0.02923067  0.30691267  1
  O  O51  1  0.97450867  0.80433333  0.09209233  1
  O  O52  1  0.97076933  0.18067267  0.30691267  1
  O  O53  1  0.81932733  0.79009667  0.30691267  1
  O  O54  1  0.51269067  0.87928233  0.36025433  1
  O  O55  1  0.36659167  0.48730933  0.36025433  1
  O  O56  1  0.35918067  0.86169433  0.57818833  1
  O  O57  1  0.12071767  0.63340833  0.36025433  1
  O  O58  1  0.19771000  0.03191300  0.58580400  1
  O  O59  1  0.47238000  0.16020600  0.52812700  1
  O  O60  1  0.13830567  0.49748633  0.57818833  1
  O  O61  1  0.96808700  0.16579700  0.58580400  1
  O  O62  1  0.83420300  0.80229000  0.58580400  1
  O  O63  1  0.30160233  0.45760267  0.47283967  1
  O  O64  1  0.49649133  0.35882467  0.42542567  1
  O  O65  1  0.15600033  0.69839767  0.47283967  1
  O  O66  1  0.83979400  0.31217400  0.52812700  1
  O  O67  1  0.50251367  0.64081933  0.57818833  1
  O  O68  1  0.68782600  0.52762000  0.52812700  1
  O  O69  1  0.16794267  0.19288133  0.41143133  1
  O  O70  1  0.02493867  0.83205733  0.41143133  1
  O  O71  1  0.86233333  0.50350867  0.42542567  1
  O  O72  1  0.54239733  0.84399967  0.47283967  1
  O  O73  1  0.80711867  0.97506133  0.41143133  1
  O  O74  1  0.87657000  0.36256400  0.64024600  1
  O  O75  1  0.64117533  0.13766667  0.42542567  1
  O  O76  1  0.63743600  0.51400600  0.64024600  1
  O  O77  1  0.48599400  0.12343000  0.64024600  1
  O  O78  1  0.17935733  0.21261567  0.69358767  1
  O  O79  1  0.03325833  0.82064267  0.69358767  1
  O  O80  1  0.02584733  0.19502767  0.91152167  1
  O  O81  1  0.78738433  0.96674167  0.69358767  1
  O  O82  1  0.86437667  0.36524633  0.91913733  1
  O  O83  1  0.13904667  0.49353933  0.86146033  1
  O  O84  1  0.80497233  0.83081967  0.91152167  1
  O  O85  1  0.63475367  0.49913033  0.91913733  1
  O  O86  1  0.50086967  0.13562333  0.91913733  1
  O  O87  1  0.96826900  0.79093600  0.80617300  1
  O  O88  1  0.16315800  0.69215800  0.75875900  1
  O  O89  1  0.82266700  0.03173100  0.80617300  1
  O  O90  1  0.50646067  0.64550733  0.86146033  1
  O  O91  1  0.16918033  0.97415267  0.91152167  1
  O  O92  1  0.35449267  0.86095333  0.86146033  1
  O  O93  1  0.83460933  0.52621467  0.74476467  1
  O  O94  1  0.69160533  0.16539067  0.74476467  1
  O  O95  1  0.52900000  0.83684200  0.75875900  1
  O  O96  1  0.20906400  0.17733300  0.80617300  1
  O  O97  1  0.47378533  0.30839467  0.74476467  1
  O  O98  1  0.54323667  0.69589733  0.97357933  1
  O  O99  1  0.30784200  0.47100000  0.75875900  1
  O  O100  1  0.30410267  0.84733933  0.97357933  1
  O  O101  1  0.15266067  0.45676333  0.97357933  1
