# generated using pymatgen
data_Li4Mn3Cr5O16
_symmetry_space_group_name_H-M   'P 1'
_cell_length_a   10.13909400
_cell_length_b   5.84629600
_cell_length_c   9.45069666
_cell_angle_alpha   90.00000000
_cell_angle_beta   90.52296095
_cell_angle_gamma   90.00000000
_symmetry_Int_Tables_number   1
_chemical_formula_structural   Li4Mn3Cr5O16
_chemical_formula_sum   'Li8 Mn6 Cr10 O32'
_cell_volume   560.17752805
_cell_formula_units_Z   2
loop_
 _symmetry_equiv_pos_site_id
 _symmetry_equiv_pos_as_xyz
  1  'x, y, z'
loop_
 _atom_site_type_symbol
 _atom_site_label
 _atom_site_symmetry_multiplicity
 _atom_site_fract_x
 _atom_site_fract_y
 _atom_site_fract_z
 _atom_site_occupancy
  Li  Li0  1  0.67024800  0.00000000  0.10765600  1
  Li  Li1  1  0.99681100  0.00000000  0.00125100  1
  Li  Li2  1  0.99929500  0.00000000  0.50388600  1
  Li  Li3  1  0.83573100  0.50000000  0.60845400  1
  Li  Li4  1  0.17024800  0.50000000  0.10765600  1
  Li  Li5  1  0.49681100  0.50000000  0.00125100  1
  Li  Li6  1  0.49929500  0.50000000  0.50388600  1
  Li  Li7  1  0.33573100  0.00000000  0.60845400  1
  Mn  Mn8  1  0.82986000  0.00000000  0.78472200  1
  Mn  Mn9  1  0.91562500  0.25366600  0.28556600  1
  Mn  Mn10  1  0.91562500  0.74633400  0.28556600  1
  Mn  Mn11  1  0.32986000  0.50000000  0.78472200  1
  Mn  Mn12  1  0.41562500  0.75366600  0.28556600  1
  Mn  Mn13  1  0.41562500  0.24633400  0.28556600  1
  Cr  Cr14  1  0.58397300  0.75367900  0.78884100  1
  Cr  Cr15  1  0.66325600  0.00000000  0.51339700  1
  Cr  Cr16  1  0.58397300  0.24632100  0.78884100  1
  Cr  Cr17  1  0.66885100  0.50000000  0.28609200  1
  Cr  Cr18  1  0.83170800  0.50000000  0.01386200  1
  Cr  Cr19  1  0.08397300  0.25367900  0.78884100  1
  Cr  Cr20  1  0.16325600  0.50000000  0.51339700  1
  Cr  Cr21  1  0.08397300  0.74632100  0.78884100  1
  Cr  Cr22  1  0.16885100  0.00000000  0.28609200  1
  Cr  Cr23  1  0.33170800  0.00000000  0.01386200  1
  O  O24  1  0.57753800  0.74505800  0.39949700  1
  O  O25  1  0.52070800  0.00000000  0.66129800  1
  O  O26  1  0.67265400  0.00000000  0.89609500  1
  O  O27  1  0.99503700  0.00000000  0.68998600  1
  O  O28  1  0.99512000  0.00000000  0.18847000  1
  O  O29  1  0.57753800  0.25494200  0.39949700  1
  O  O30  1  0.74168050  0.78006150  0.66170100  1
  O  O31  1  0.74168050  0.21993850  0.66170100  1
  O  O32  1  0.66434100  0.50000000  0.89678600  1
  O  O33  1  0.83768000  0.00000000  0.39617500  1
  O  O34  1  0.76298350  0.27648150  0.16067000  1
  O  O35  1  0.76298350  0.72351850  0.16067000  1
  O  O36  1  0.83890700  0.50000000  0.39230300  1
  O  O37  1  0.91735600  0.24527500  0.89808100  1
  O  O38  1  0.98188900  0.50000000  0.16296500  1
  O  O39  1  0.91735600  0.75472500  0.89808100  1
  O  O40  1  0.07753800  0.24505800  0.39949700  1
  O  O41  1  0.02070800  0.50000000  0.66129800  1
  O  O42  1  0.17265400  0.50000000  0.89609500  1
  O  O43  1  0.49503700  0.50000000  0.68998600  1
  O  O44  1  0.49512000  0.50000000  0.18847000  1
  O  O45  1  0.07753800  0.75494200  0.39949700  1
  O  O46  1  0.24168050  0.28006150  0.66170100  1
  O  O47  1  0.24168050  0.71993850  0.66170100  1
  O  O48  1  0.16434100  0.00000000  0.89678600  1
  O  O49  1  0.33768000  0.50000000  0.39617500  1
  O  O50  1  0.26298350  0.77648150  0.16067000  1
  O  O51  1  0.26298350  0.22351850  0.16067000  1
  O  O52  1  0.33890700  0.00000000  0.39230300  1
  O  O53  1  0.41735600  0.74527500  0.89808100  1
  O  O54  1  0.48188900  0.00000000  0.16296500  1
  O  O55  1  0.41735600  0.25472500  0.89808100  1
