# generated using pymatgen
data_Li2Co3BiO8
_symmetry_space_group_name_H-M   'P 1'
_cell_length_a   5.79571955
_cell_length_b   5.79571955
_cell_length_c   15.23435900
_cell_angle_alpha   90.00000000
_cell_angle_beta   90.00000000
_cell_angle_gamma   120.00000000
_symmetry_Int_Tables_number   1
_chemical_formula_structural   Li2Co3BiO8
_chemical_formula_sum   'Li6 Co9 Bi3 O24'
_cell_volume   443.16917078
_cell_formula_units_Z   3
loop_
 _symmetry_equiv_pos_site_id
 _symmetry_equiv_pos_as_xyz
  1  'x, y, z'
loop_
 _atom_site_type_symbol
 _atom_site_label
 _atom_site_symmetry_multiplicity
 _atom_site_fract_x
 _atom_site_fract_y
 _atom_site_fract_z
 _atom_site_occupancy
  Li  Li0  1  0.00000000  0.00000000  0.11921400  1
  Li  Li1  1  0.66666667  0.33333333  0.21411933  1
  Li  Li2  1  0.66666667  0.33333333  0.45254733  1
  Li  Li3  1  0.33333333  0.66666667  0.54745267  1
  Li  Li4  1  0.33333333  0.66666667  0.78588067  1
  Li  Li5  1  0.00000000  0.00000000  0.88078600  1
  Co  Co6  1  0.50000000  0.00000000  0.00000000  1
  Co  Co7  1  0.00000000  0.50000000  0.00000000  1
  Co  Co8  1  0.50000000  0.50000000  0.00000000  1
  Co  Co9  1  0.16666667  0.33333333  0.33333333  1
  Co  Co10  1  0.66666667  0.83333333  0.33333333  1
  Co  Co11  1  0.16666667  0.83333333  0.33333333  1
  Co  Co12  1  0.83333333  0.66666667  0.66666667  1
  Co  Co13  1  0.33333333  0.16666667  0.66666667  1
  Co  Co14  1  0.83333333  0.16666667  0.66666667  1
  Bi  Bi15  1  0.33333333  0.66666667  0.16666667  1
  Bi  Bi16  1  1.00000000  1.00000000  0.50000000  1
  Bi  Bi17  1  0.66666667  0.33333333  0.83333333  1
  O  O18  1  0.64539400  0.82269700  0.06889400  1
  O  O19  1  0.17730300  0.35460600  0.06889400  1
  O  O20  1  0.66666667  0.33333333  0.06674333  1
  O  O21  1  0.17730300  0.82269700  0.06889400  1
  O  O22  1  0.48936367  0.51063633  0.26443933  1
  O  O23  1  0.00000000  0.00000000  0.26659000  1
  O  O24  1  0.48936367  0.97872733  0.26443933  1
  O  O25  1  0.02127267  0.51063633  0.26443933  1
  O  O26  1  0.31206067  0.15603033  0.40222733  1
  O  O27  1  0.84396967  0.68793933  0.40222733  1
  O  O28  1  0.33333333  0.66666667  0.40007667  1
  O  O29  1  0.84396967  0.15603033  0.40222733  1
  O  O30  1  0.15603033  0.84396967  0.59777267  1
  O  O31  1  0.66666667  0.33333333  0.59992333  1
  O  O32  1  0.15603033  0.31206067  0.59777267  1
  O  O33  1  0.68793933  0.84396967  0.59777267  1
  O  O34  1  0.97872733  0.48936367  0.73556067  1
  O  O35  1  0.51063633  0.02127267  0.73556067  1
  O  O36  1  0.00000000  0.00000000  0.73341000  1
  O  O37  1  0.51063633  0.48936367  0.73556067  1
  O  O38  1  0.82269700  0.17730300  0.93110600  1
  O  O39  1  0.33333333  0.66666667  0.93325667  1
  O  O40  1  0.82269700  0.64539400  0.93110600  1
  O  O41  1  0.35460600  0.17730300  0.93110600  1
