# generated using pymatgen
data_Li5Co2Ni3O10
_symmetry_space_group_name_H-M   'P 1'
_cell_length_a   5.03727157
_cell_length_b   5.06081662
_cell_length_c   7.63312837
_cell_angle_alpha   109.11047184
_cell_angle_beta   101.44523572
_cell_angle_gamma   100.73852621
_symmetry_Int_Tables_number   1
_chemical_formula_structural   Li5Co2Ni3O10
_chemical_formula_sum   'Li5 Co2 Ni3 O10'
_cell_volume   173.44792478
_cell_formula_units_Z   1
loop_
 _symmetry_equiv_pos_site_id
 _symmetry_equiv_pos_as_xyz
  1  'x, y, z'
loop_
 _atom_site_type_symbol
 _atom_site_label
 _atom_site_symmetry_multiplicity
 _atom_site_fract_x
 _atom_site_fract_y
 _atom_site_fract_z
 _atom_site_occupancy
  Li  Li0  1  0.50000000  0.00000000  0.50000000  1
  Li  Li1  1  0.20899000  0.49747600  0.40430200  1
  Li  Li2  1  0.79101000  0.50252400  0.59569800  1
  Li  Li3  1  0.38831300  0.50310000  0.78765700  1
  Li  Li4  1  0.61168700  0.49690000  0.21234300  1
  Co  Co5  1  0.10025050  0.99957500  0.69364350  1
  Co  Co6  1  0.89974950  0.00042500  0.30635650  1
  Ni  Ni7  1  0.00000000  0.50000000  0.00000000  1
  Ni  Ni8  1  0.69466800  0.99803100  0.89702900  1
  Ni  Ni9  1  0.30533200  0.00196900  0.10297100  1
  O  O10  1  0.04981200  0.22633700  0.84147200  1
  O  O11  1  0.95018800  0.77366300  0.15852800  1
  O  O12  1  0.32636300  0.75951050  0.93306300  1
  O  O13  1  0.67363700  0.24048950  0.06693700  1
  O  O14  1  0.13070150  0.78472500  0.54530150  1
  O  O15  1  0.86929850  0.21527500  0.45469850  1
  O  O16  1  0.21599350  0.24794450  0.23958850  1
  O  O17  1  0.78400650  0.75205550  0.76041150  1
  O  O18  1  0.42404450  0.22798950  0.65833750  1
  O  O19  1  0.57595550  0.77201050  0.34166250  1
