# generated using pymatgen
data_Rb2PrO3
_symmetry_space_group_name_H-M   'P 1'
_cell_length_a   7.53812200
_cell_length_b   11.46522800
_cell_length_c   6.58113700
_cell_angle_alpha   90.00000000
_cell_angle_beta   90.00000000
_cell_angle_gamma   90.00000000
_symmetry_Int_Tables_number   1
_chemical_formula_structural   Rb2PrO3
_chemical_formula_sum   'Rb8 Pr4 O12'
_cell_volume   568.78323792
_cell_formula_units_Z   4
loop_
 _symmetry_equiv_pos_site_id
 _symmetry_equiv_pos_as_xyz
  1  'x, y, z'
loop_
 _atom_site_type_symbol
 _atom_site_label
 _atom_site_symmetry_multiplicity
 _atom_site_fract_x
 _atom_site_fract_y
 _atom_site_fract_z
 _atom_site_occupancy
  Rb  Rb0  1  0.64495800  0.16783500  0.26659000  1
  Rb  Rb1  1  0.35504200  0.16783500  0.76659000  1
  Rb  Rb2  1  0.35504200  0.83216500  0.76659000  1
  Rb  Rb3  1  0.64495800  0.83216500  0.26659000  1
  Rb  Rb4  1  0.14495800  0.66783500  0.26659000  1
  Rb  Rb5  1  0.85504200  0.66783500  0.76659000  1
  Rb  Rb6  1  0.85504200  0.33216500  0.76659000  1
  Rb  Rb7  1  0.14495800  0.33216500  0.26659000  1
  Pr  Pr8  1  0.10200800  0.00000000  0.23757300  1
  Pr  Pr9  1  0.89799200  0.00000000  0.73757300  1
  Pr  Pr10  1  0.60200800  0.50000000  0.23757300  1
  Pr  Pr11  1  0.39799200  0.50000000  0.73757300  1
  O  O12  1  0.48319100  0.36912200  0.99903900  1
  O  O13  1  0.51680900  0.36912200  0.49903900  1
  O  O14  1  0.60852400  0.00000000  0.67117000  1
  O  O15  1  0.39147600  0.00000000  0.17117000  1
  O  O16  1  0.48319100  0.63087800  0.99903900  1
  O  O17  1  0.51680900  0.63087800  0.49903900  1
  O  O18  1  0.98319100  0.86912200  0.99903900  1
  O  O19  1  0.01680900  0.86912200  0.49903900  1
  O  O20  1  0.10852400  0.50000000  0.67117000  1
  O  O21  1  0.89147600  0.50000000  0.17117000  1
  O  O22  1  0.98319100  0.13087800  0.99903900  1
  O  O23  1  0.01680900  0.13087800  0.49903900  1
