# generated using pymatgen
data_LiV2OF7
_symmetry_space_group_name_H-M   'P 1'
_cell_length_a   10.01968735
_cell_length_b   6.07254319
_cell_length_c   6.24632116
_cell_angle_alpha   90.00000000
_cell_angle_beta   128.36316089
_cell_angle_gamma   90.00000000
_symmetry_Int_Tables_number   1
_chemical_formula_structural   LiV2OF7
_chemical_formula_sum   'Li2 V4 O2 F14'
_cell_volume   298.00015268
_cell_formula_units_Z   2
loop_
 _symmetry_equiv_pos_site_id
 _symmetry_equiv_pos_as_xyz
  1  'x, y, z'
loop_
 _atom_site_type_symbol
 _atom_site_label
 _atom_site_symmetry_multiplicity
 _atom_site_fract_x
 _atom_site_fract_y
 _atom_site_fract_z
 _atom_site_occupancy
  Li  Li0  1  0.35415850  0.50000000  0.09280850  1
  Li  Li1  1  0.85415850  0.00000000  0.09280850  1
  V  V2  1  0.25425700  0.74398250  0.51712250  1
  V  V3  1  0.75425700  0.75601750  0.51712250  1
  V  V4  1  0.75425700  0.24398250  0.51712250  1
  V  V5  1  0.25425700  0.25601750  0.51712250  1
  O  O6  1  0.25515425  0.50000000  0.70156150  1
  O  O7  1  0.75515425  0.00000000  0.70156150  1
  F  F8  1  0.25146000  0.50000000  0.29346800  1
  F  F9  1  0.24846200  0.00000000  0.30487650  1
  F  F10  1  0.25303900  0.00000000  0.71406800  1
  F  F11  1  0.02068850  0.76339500  0.26891250  1
  F  F12  1  0.52068850  0.73660500  0.26891250  1
  F  F13  1  0.97955475  0.74135075  0.71837850  1
  F  F14  1  0.47955475  0.75864925  0.71837850  1
  F  F15  1  0.75146000  0.00000000  0.29346800  1
  F  F16  1  0.74846200  0.50000000  0.30487650  1
  F  F17  1  0.75303900  0.50000000  0.71406800  1
  F  F18  1  0.52068850  0.26339500  0.26891250  1
  F  F19  1  0.02068850  0.23660500  0.26891250  1
  F  F20  1  0.47955475  0.24135075  0.71837850  1
  F  F21  1  0.97955475  0.25864925  0.71837850  1
