# generated using pymatgen
data_Mn3Ni(PO4)4
_symmetry_space_group_name_H-M   'P 1'
_cell_length_a   4.83325600
_cell_length_b   5.91789200
_cell_length_c   9.83056922
_cell_angle_alpha   90.00000000
_cell_angle_beta   90.12977366
_cell_angle_gamma   90.00000000
_symmetry_Int_Tables_number   1
_chemical_formula_structural   Mn3Ni(PO4)4
_chemical_formula_sum   'Mn3 Ni1 P4 O16'
_cell_volume   281.17997323
_cell_formula_units_Z   1
loop_
 _symmetry_equiv_pos_site_id
 _symmetry_equiv_pos_as_xyz
  1  'x, y, z'
loop_
 _atom_site_type_symbol
 _atom_site_label
 _atom_site_symmetry_multiplicity
 _atom_site_fract_x
 _atom_site_fract_y
 _atom_site_fract_z
 _atom_site_occupancy
  Mn  Mn0  1  0.93990900  0.50000000  0.72075900  1
  Mn  Mn1  1  0.54568900  0.50000000  0.22499400  1
  Mn  Mn2  1  0.44693100  0.00000000  0.78135300  1
  Ni  Ni3  1  0.04290700  0.00000000  0.27084000  1
  P  P4  1  0.91426200  0.00000000  0.59479300  1
  P  P5  1  0.58050500  0.00000000  0.09467600  1
  P  P6  1  0.41540800  0.50000000  0.90577700  1
  P  P7  1  0.09061700  0.50000000  0.40300100  1
  O  O8  1  0.84269500  0.00000000  0.44519000  1
  O  O9  1  0.76797700  0.79831800  0.67218500  1
  O  O10  1  0.76797700  0.20168200  0.67218500  1
  O  O11  1  0.77389900  0.50000000  0.38466100  1
  O  O12  1  0.73066200  0.50000000  0.88675500  1
  O  O13  1  0.72843900  0.79568400  0.16983300  1
  O  O14  1  0.72843900  0.20431600  0.16983300  1
  O  O15  1  0.66672600  0.00000000  0.94305000  1
  O  O16  1  0.34350800  0.50000000  0.05792400  1
  O  O17  1  0.26927300  0.29783300  0.83127300  1
  O  O18  1  0.26927300  0.70216700  0.83127300  1
  O  O19  1  0.26909000  0.00000000  0.10547700  1
  O  O20  1  0.22964300  0.00000000  0.61740400  1
  O  O21  1  0.24170400  0.29899300  0.33003500  1
  O  O22  1  0.24170400  0.70100700  0.33003500  1
  O  O23  1  0.15276400  0.50000000  0.55669800  1
