# generated using pymatgen
data_U6O11
_symmetry_space_group_name_H-M   'P 1'
_cell_length_a   6.66291200
_cell_length_b   11.53776200
_cell_length_c   6.66442667
_cell_angle_alpha   90.00000000
_cell_angle_beta   109.45710033
_cell_angle_gamma   90.00000000
_symmetry_Int_Tables_number   1
_chemical_formula_structural   U6O11
_chemical_formula_sum   'U12 O22'
_cell_volume   483.06993804
_cell_formula_units_Z   2
loop_
 _symmetry_equiv_pos_site_id
 _symmetry_equiv_pos_as_xyz
  1  'x, y, z'
loop_
 _atom_site_type_symbol
 _atom_site_label
 _atom_site_symmetry_multiplicity
 _atom_site_fract_x
 _atom_site_fract_y
 _atom_site_fract_z
 _atom_site_occupancy
  U  U0  1  0.49950600  0.33384700  0.49762400  1
  U  U1  1  0.49950600  0.66615300  0.49762400  1
  U  U2  1  0.50605600  0.17567200  0.99660500  1
  U  U3  1  0.98515500  0.00000000  0.99608900  1
  U  U4  1  0.50383400  0.00000000  0.51458300  1
  U  U5  1  0.50605600  0.82432800  0.99660500  1
  U  U6  1  0.99950600  0.83384700  0.49762400  1
  U  U7  1  0.99950600  0.16615300  0.49762400  1
  U  U8  1  0.00605600  0.67567200  0.99660500  1
  U  U9  1  0.48515500  0.50000000  0.99608900  1
  U  U10  1  0.00383400  0.50000000  0.51458300  1
  U  U11  1  0.00605600  0.32432800  0.99660500  1
  O  O12  1  0.37445750  0.17172450  0.62496900  1
  O  O13  1  0.63633950  0.34055950  0.88688600  1
  O  O14  1  0.63633950  0.65944050  0.88688600  1
  O  O15  1  0.37445750  0.82827550  0.62496900  1
  O  O16  1  0.13729000  0.00000000  0.36530800  1
  O  O17  1  0.37500450  0.33398650  0.12555500  1
  O  O18  1  0.61330600  0.15919100  0.36347500  1
  O  O19  1  0.61373900  0.00000000  0.88381200  1
  O  O20  1  0.61330600  0.84080900  0.36347500  1
  O  O21  1  0.37500450  0.66601350  0.12555500  1
  O  O22  1  0.87564100  0.00000000  0.62498300  1
  O  O23  1  0.87445750  0.67172450  0.62496900  1
  O  O24  1  0.13633950  0.84055950  0.88688600  1
  O  O25  1  0.13633950  0.15944050  0.88688600  1
  O  O26  1  0.87445750  0.32827550  0.62496900  1
  O  O27  1  0.63729000  0.50000000  0.36530800  1
  O  O28  1  0.87500450  0.83398650  0.12555500  1
  O  O29  1  0.11330600  0.65919100  0.36347500  1
  O  O30  1  0.11373900  0.50000000  0.88381200  1
  O  O31  1  0.11330600  0.34080900  0.36347500  1
  O  O32  1  0.87500450  0.16601350  0.12555500  1
  O  O33  1  0.37564100  0.50000000  0.62498300  1
