# generated using pymatgen
data_H48PtW6C8(NO)24
_symmetry_space_group_name_H-M   'P 1'
_cell_length_a   13.11791592
_cell_length_b   13.11791592
_cell_length_c   22.31403289
_cell_angle_alpha   90.00000000
_cell_angle_beta   90.00000000
_cell_angle_gamma   120.00000000
_symmetry_Int_Tables_number   1
_chemical_formula_structural   H48PtW6C8(NO)24
_chemical_formula_sum   'H144 Pt3 W18 C24 N72 O72'
_cell_volume   3325.35784186
_cell_formula_units_Z   3
loop_
 _symmetry_equiv_pos_site_id
 _symmetry_equiv_pos_as_xyz
  1  'x, y, z'
loop_
 _atom_site_type_symbol
 _atom_site_label
 _atom_site_symmetry_multiplicity
 _atom_site_fract_x
 _atom_site_fract_y
 _atom_site_fract_z
 _atom_site_occupancy
  H  H0  1  0.65391267  0.48736233  0.20882733  1
  H  H1  1  0.72934033  0.77502067  0.12544767  1
  H  H2  1  0.68932533  0.70295067  0.19606167  1
  H  H3  1  0.83321700  0.98724600  0.12450600  1
  H  H4  1  0.44168733  0.37901367  0.20788567  1
  H  H5  1  0.52934300  0.58714800  0.94910900  1
  H  H6  1  0.36961733  0.34695867  0.13727167  1
  H  H7  1  0.53838633  0.70602867  0.38478367  1
  H  H8  1  0.60886167  0.86267633  0.38422433  1
  H  H9  1  0.48139067  0.60731433  0.47234633  1
  H  H10  1  0.50217533  0.69700667  0.07824067  1
  H  H11  1  0.50921767  0.72295833  0.25228533  1
  H  H12  1  0.65304133  0.02265867  0.13727167  1
  H  H13  1  0.37269533  0.50097567  0.94854967  1
  H  H14  1  0.54074300  0.81472400  0.86098700  1
  H  H15  1  0.38962500  0.54707400  0.08104800  1
  H  H16  1  0.36367333  0.52816467  0.25509267  1
  H  H17  1  0.62098633  0.06267367  0.20788567  1
  H  H18  1  0.15402900  0.16678300  0.12450600  1
  H  H19  1  0.47183533  0.83550867  0.25509267  1
  H  H20  1  0.49902433  0.87171967  0.94854967  1
  H  H21  1  0.27398100  0.45925700  0.86098700  1
  H  H22  1  0.25381467  0.39113833  0.38422433  1
  H  H23  1  0.45292600  0.84255100  0.08104800  1
  H  H24  1  0.21374067  0.49078233  0.25228533  1
  H  H25  1  0.41285200  0.94219500  0.94910900  1
  H  H26  1  0.39268567  0.87407633  0.47234633  1
  H  H27  1  0.16764233  0.46161367  0.38478367  1
  H  H28  1  0.19483133  0.49782467  0.07824067  1
  H  H29  1  0.51263767  0.16655033  0.20882733  1
  H  H30  1  0.04568033  0.27065967  0.12544767  1
  H  H31  1  0.30299333  0.80516867  0.07824067  1
  H  H32  1  0.27704167  0.78625933  0.25228533  1
  H  H33  1  0.12592367  0.51860933  0.47234633  1
  H  H34  1  0.29397133  0.83235767  0.38478367  1
  H  H35  1  0.01362533  0.31067467  0.19606167  1
  H  H36  1  0.15744900  0.61037500  0.08104800  1
  H  H37  1  0.16449133  0.63632667  0.25509267  1
  H  H38  1  0.18527600  0.72601900  0.86098700  1
  H  H39  1  0.05780500  0.47065700  0.94910900  1
  H  H40  1  0.12828033  0.62730467  0.94854967  1
  H  H41  1  0.29704933  0.98637467  0.19606167  1
  H  H42  1  0.13732367  0.74618533  0.38422433  1
  H  H43  1  0.22497933  0.95431967  0.12544767  1
  H  H44  1  0.83344967  0.34608733  0.20882733  1
  H  H45  1  0.97734133  0.63038267  0.13727167  1
  H  H46  1  0.93732633  0.55831267  0.20788567  1
  H  H47  1  0.01275400  0.84597100  0.12450600  1
  H  H48  1  0.32057933  0.82069567  0.54216067  1
  H  H49  1  0.39600700  0.10835400  0.45878100  1
  H  H50  1  0.35599200  0.03628400  0.52939500  1
  H  H51  1  0.49988367  0.32057933  0.45783933  1
  H  H52  1  0.10835400  0.71234700  0.54121900  1
  H  H53  1  0.19600967  0.92048133  0.28244233  1
  H  H54  1  0.03628400  0.68029200  0.47060500  1
  H  H55  1  0.20505300  0.03936200  0.71811700  1
  H  H56  1  0.27552833  0.19600967  0.71755767  1
  H  H57  1  0.14805733  0.94064767  0.80567967  1
  H  H58  1  0.16884200  0.03034000  0.41157400  1
  H  H59  1  0.17588433  0.05629167  0.58561867  1
  H  H60  1  0.31970800  0.35599200  0.47060500  1
  H  H61  1  0.03936200  0.83430900  0.28188300  1
  H  H62  1  0.20740967  0.14805733  0.19432033  1
  H  H63  1  0.05629167  0.88040733  0.41438133  1
  H  H64  1  0.03034000  0.86149800  0.58842600  1
  H  H65  1  0.28765300  0.39600700  0.54121900  1
  H  H66  1  0.82069567  0.50011633  0.45783933  1
  H  H67  1  0.13850200  0.16884200  0.58842600  1
  H  H68  1  0.16569100  0.20505300  0.28188300  1
  H  H69  1  0.94064767  0.79259033  0.19432033  1
  H  H70  1  0.92048133  0.72447167  0.71755767  1
  H  H71  1  0.11959267  0.17588433  0.41438133  1
  H  H72  1  0.88040733  0.82411567  0.58561867  1
  H  H73  1  0.07951867  0.27552833  0.28244233  1
  H  H74  1  0.05935233  0.20740967  0.80567967  1
  H  H75  1  0.83430900  0.79494700  0.71811700  1
  H  H76  1  0.86149800  0.83115800  0.41157400  1
  H  H77  1  0.17930433  0.49988367  0.54216067  1
  H  H78  1  0.71234700  0.60399300  0.45878100  1
  H  H79  1  0.96966000  0.13850200  0.41157400  1
  H  H80  1  0.94370833  0.11959267  0.58561867  1
  H  H81  1  0.79259033  0.85194267  0.80567967  1
  H  H82  1  0.96063800  0.16569100  0.71811700  1
  H  H83  1  0.68029200  0.64400800  0.52939500  1
  H  H84  1  0.82411567  0.94370833  0.41438133  1
  H  H85  1  0.83115800  0.96966000  0.58842600  1
  H  H86  1  0.85194267  0.05935233  0.19432033  1
  H  H87  1  0.72447167  0.80399033  0.28244233  1
  H  H88  1  0.79494700  0.96063800  0.28188300  1
  H  H89  1  0.96371600  0.31970800  0.52939500  1
  H  H90  1  0.80399033  0.07951867  0.71755767  1
  H  H91  1  0.89164600  0.28765300  0.45878100  1
  H  H92  1  0.50011633  0.67942067  0.54216067  1
  H  H93  1  0.64400800  0.96371600  0.47060500  1
  H  H94  1  0.60399300  0.89164600  0.54121900  1
  H  H95  1  0.67942067  0.17930433  0.45783933  1
  H  H96  1  0.98724600  0.15402900  0.87549400  1
  H  H97  1  0.06267367  0.44168733  0.79211433  1
  H  H98  1  0.02265867  0.36961733  0.86272833  1
  H  H99  1  0.16655033  0.65391267  0.79117267  1
  H  H100  1  0.77502067  0.04568033  0.87455233  1
  H  H101  1  0.86267633  0.25381467  0.61577567  1
  H  H102  1  0.70295067  0.01362533  0.80393833  1
  H  H103  1  0.87171967  0.37269533  0.05145033  1
  H  H104  1  0.94219500  0.52934300  0.05089100  1
  H  H105  1  0.81472400  0.27398100  0.13901300  1
  H  H106  1  0.83550867  0.36367333  0.74490733  1
  H  H107  1  0.84255100  0.38962500  0.91895200  1
  H  H108  1  0.98637467  0.68932533  0.80393833  1
  H  H109  1  0.70602867  0.16764233  0.61521633  1
  H  H110  1  0.87407633  0.48139067  0.52765367  1
  H  H111  1  0.72295833  0.21374067  0.74771467  1
  H  H112  1  0.69700667  0.19483133  0.92175933  1
  H  H113  1  0.95431967  0.72934033  0.87455233  1
  H  H114  1  0.48736233  0.83344967  0.79117267  1
  H  H115  1  0.80516867  0.50217533  0.92175933  1
  H  H116  1  0.83235767  0.53838633  0.61521633  1
  H  H117  1  0.60731433  0.12592367  0.52765367  1
  H  H118  1  0.58714800  0.05780500  0.05089100  1
  H  H119  1  0.78625933  0.50921767  0.74771467  1
  H  H120  1  0.54707400  0.15744900  0.91895200  1
  H  H121  1  0.74618533  0.60886167  0.61577567  1
  H  H122  1  0.72601900  0.54074300  0.13901300  1
  H  H123  1  0.50097567  0.12828033  0.05145033  1
  H  H124  1  0.52816467  0.16449133  0.74490733  1
  H  H125  1  0.84597100  0.83321700  0.87549400  1
  H  H126  1  0.37901367  0.93732633  0.79211433  1
  H  H127  1  0.63632667  0.47183533  0.74490733  1
  H  H128  1  0.61037500  0.45292600  0.91895200  1
  H  H129  1  0.45925700  0.18527600  0.13901300  1
  H  H130  1  0.62730467  0.49902433  0.05145033  1
  H  H131  1  0.34695867  0.97734133  0.86272833  1
  H  H132  1  0.49078233  0.27704167  0.74771467  1
  H  H133  1  0.49782467  0.30299333  0.92175933  1
  H  H134  1  0.51860933  0.39268567  0.52765367  1
  H  H135  1  0.39113833  0.13732367  0.61577567  1
  H  H136  1  0.46161367  0.29397133  0.61521633  1
  H  H137  1  0.63038267  0.65304133  0.86272833  1
  H  H138  1  0.47065700  0.41285200  0.05089100  1
  H  H139  1  0.55831267  0.62098633  0.79211433  1
  H  H140  1  0.16678300  0.01275400  0.87549400  1
  H  H141  1  0.31067467  0.29704933  0.80393833  1
  H  H142  1  0.27065967  0.22497933  0.87455233  1
  H  H143  1  0.34608733  0.51263767  0.79117267  1
  Pt  Pt144  1  0.00000000  0.00000000  0.00000000  1
  Pt  Pt145  1  0.66666667  0.33333333  0.33333333  1
  Pt  Pt146  1  0.33333333  0.66666667  0.66666667  1
  W  W147  1  0.56202667  0.51458433  0.33454033  1
  W  W148  1  0.71410900  0.89536000  0.99879300  1
  W  W149  1  0.18125100  0.28589100  0.99879300  1
  W  W150  1  0.48541567  0.04744233  0.33454033  1
  W  W151  1  0.95255767  0.43797333  0.33454033  1
  W  W152  1  0.10464000  0.81874900  0.99879300  1
  W  W153  1  0.22869333  0.84791767  0.66787367  1
  W  W154  1  0.38077567  0.22869333  0.33212633  1
  W  W155  1  0.84791767  0.61922433  0.33212633  1
  W  W156  1  0.15208233  0.38077567  0.66787367  1
  W  W157  1  0.61922433  0.77130667  0.66787367  1
  W  W158  1  0.77130667  0.15208233  0.33212633  1
  W  W159  1  0.89536000  0.18125100  0.00120700  1
  W  W160  1  0.04744233  0.56202667  0.66545967  1
  W  W161  1  0.51458433  0.95255767  0.66545967  1
  W  W162  1  0.81874900  0.71410900  0.00120700  1
  W  W163  1  0.28589100  0.10464000  0.00120700  1
  W  W164  1  0.43797333  0.48541567  0.66545967  1
  C  C165  1  0.76850733  0.88136667  0.20013067  1
  C  C166  1  0.54803333  0.44619267  0.13320267  1
  C  C167  1  0.55380733  0.10184067  0.13320267  1
  C  C168  1  0.33333333  0.66666667  0.25166967  1
  C  C169  1  0.33333333  0.66666667  0.08166367  1
  C  C170  1  0.11285933  0.23149267  0.20013067  1
  C  C171  1  0.11863333  0.88714067  0.20013067  1
  C  C172  1  0.89815933  0.45196667  0.13320267  1
  C  C173  1  0.43517400  0.21470000  0.53346400  1
  C  C174  1  0.21470000  0.77952600  0.46653600  1
  C  C175  1  0.22047400  0.43517400  0.46653600  1
  C  C176  1  0.00000000  0.00000000  0.58500300  1
  C  C177  1  0.00000000  0.00000000  0.41499700  1
  C  C178  1  0.77952600  0.56482600  0.53346400  1
  C  C179  1  0.78530000  0.22047400  0.53346400  1
  C  C180  1  0.56482600  0.78530000  0.46653600  1
  C  C181  1  0.10184067  0.54803333  0.86679733  1
  C  C182  1  0.88136667  0.11285933  0.79986933  1
  C  C183  1  0.88714067  0.76850733  0.79986933  1
  C  C184  1  0.66666667  0.33333333  0.91833633  1
  C  C185  1  0.66666667  0.33333333  0.74833033  1
  C  C186  1  0.44619267  0.89815933  0.86679733  1
  C  C187  1  0.45196667  0.55380733  0.86679733  1
  C  C188  1  0.23149267  0.11863333  0.79986933  1
  N  N189  1  0.64978533  0.49839667  0.16320867  1
  N  N190  1  0.72676433  0.77859967  0.17163167  1
  N  N191  1  0.81805533  0.98311867  0.17012467  1
  N  N192  1  0.44526633  0.38516867  0.16170167  1
  N  N193  1  0.57505833  0.78489367  0.40648767  1
  N  N194  1  0.45156033  0.54316867  0.92684567  1
  N  N195  1  0.41570933  0.63482367  0.08219867  1
  N  N196  1  0.61483133  0.06009767  0.16170167  1
  N  N197  1  0.44755233  0.74904267  0.25113467  1
  N  N198  1  0.16506333  0.18194467  0.17012467  1
  N  N199  1  0.30149033  0.55244767  0.25113467  1
  N  N200  1  0.45683133  0.90839167  0.92684567  1
  N  N201  1  0.20983533  0.42494167  0.40648767  1
  N  N202  1  0.36517633  0.78088567  0.08219867  1
  N  N203  1  0.50160333  0.15138867  0.16320867  1
  N  N204  1  0.21911433  0.58429067  0.08219867  1
  N  N205  1  0.05183533  0.27323567  0.17163167  1
  N  N206  1  0.25095733  0.69850967  0.25113467  1
  N  N207  1  0.21510633  0.79016467  0.40648767  1
  N  N208  1  0.09160833  0.54843967  0.92684567  1
  N  N209  1  0.22140033  0.94816467  0.17163167  1
  N  N210  1  0.84861133  0.35021467  0.16320867  1
  N  N211  1  0.93990233  0.55473367  0.16170167  1
  N  N212  1  0.01688133  0.83493667  0.17012467  1
  N  N213  1  0.31645200  0.83173000  0.49654200  1
  N  N214  1  0.39343100  0.11193300  0.50496500  1
  N  N215  1  0.48472200  0.31645200  0.50345800  1
  N  N216  1  0.11193300  0.71850200  0.49503500  1
  N  N217  1  0.24172500  0.11822700  0.73982100  1
  N  N218  1  0.11822700  0.87650200  0.26017900  1
  N  N219  1  0.08237600  0.96815700  0.41553200  1
  N  N220  1  0.28149800  0.39343100  0.49503500  1
  N  N221  1  0.11421900  0.08237600  0.58446800  1
  N  N222  1  0.83173000  0.51527800  0.50345800  1
  N  N223  1  0.96815700  0.88578100  0.58446800  1
  N  N224  1  0.12349800  0.24172500  0.26017900  1
  N  N225  1  0.87650200  0.75827500  0.73982100  1
  N  N226  1  0.03184300  0.11421900  0.41553200  1
  N  N227  1  0.16827000  0.48472200  0.49654200  1
  N  N228  1  0.88578100  0.91762400  0.41553200  1
  N  N229  1  0.71850200  0.60656900  0.50496500  1
  N  N230  1  0.91762400  0.03184300  0.58446800  1
  N  N231  1  0.88177300  0.12349800  0.73982100  1
  N  N232  1  0.75827500  0.88177300  0.26017900  1
  N  N233  1  0.88806700  0.28149800  0.50496500  1
  N  N234  1  0.51527800  0.68354800  0.49654200  1
  N  N235  1  0.60656900  0.88806700  0.49503500  1
  N  N236  1  0.68354800  0.16827000  0.50345800  1
  N  N237  1  0.98311867  0.16506333  0.82987533  1
  N  N238  1  0.06009767  0.44526633  0.83829833  1
  N  N239  1  0.15138867  0.64978533  0.83679133  1
  N  N240  1  0.77859967  0.05183533  0.82836833  1
  N  N241  1  0.90839167  0.45156033  0.07315433  1
  N  N242  1  0.78489367  0.20983533  0.59351233  1
  N  N243  1  0.74904267  0.30149033  0.74886533  1
  N  N244  1  0.94816467  0.72676433  0.82836833  1
  N  N245  1  0.78088567  0.41570933  0.91780133  1
  N  N246  1  0.49839667  0.84861133  0.83679133  1
  N  N247  1  0.63482367  0.21911433  0.91780133  1
  N  N248  1  0.79016467  0.57505833  0.59351233  1
  N  N249  1  0.54316867  0.09160833  0.07315433  1
  N  N250  1  0.69850967  0.44755233  0.74886533  1
  N  N251  1  0.83493667  0.81805533  0.82987533  1
  N  N252  1  0.55244767  0.25095733  0.74886533  1
  N  N253  1  0.38516867  0.93990233  0.83829833  1
  N  N254  1  0.58429067  0.36517633  0.91780133  1
  N  N255  1  0.54843967  0.45683133  0.07315433  1
  N  N256  1  0.42494167  0.21510633  0.59351233  1
  N  N257  1  0.55473367  0.61483133  0.83829833  1
  N  N258  1  0.18194467  0.01688133  0.82987533  1
  N  N259  1  0.27323567  0.22140033  0.82836833  1
  N  N260  1  0.35021467  0.50160333  0.83679133  1
  O  O261  1  0.68840700  0.47978500  0.28950900  1
  O  O262  1  0.87528867  0.02174033  0.04382433  1
  O  O263  1  0.72248600  0.76936000  0.04444100  1
  O  O264  1  0.57494067  0.62117733  0.27915933  1
  O  O265  1  0.43602667  0.38020733  0.28889233  1
  O  O266  1  0.47747267  0.53012133  0.39305333  1
  O  O267  1  0.61401800  0.81080600  0.94028000  1
  O  O268  1  0.62043000  0.90827400  0.05417400  1
  O  O269  1  0.28784400  0.37957000  0.05417400  1
  O  O270  1  0.61979267  0.05581933  0.28889233  1
  O  O271  1  0.14645167  0.12471133  0.04382433  1
  O  O272  1  0.19678800  0.38598200  0.94028000  1
  O  O273  1  0.46987867  0.94735133  0.39305333  1
  O  O274  1  0.52021500  0.20862200  0.28950900  1
  O  O275  1  0.04687400  0.27751400  0.04444100  1
  O  O276  1  0.37882267  0.95376333  0.27915933  1
  O  O277  1  0.04623667  0.42505933  0.27915933  1
  O  O278  1  0.05264867  0.52252733  0.39305333  1
  O  O279  1  0.18919400  0.80321200  0.94028000  1
  O  O280  1  0.23064000  0.95312600  0.04444100  1
  O  O281  1  0.09172600  0.71215600  0.05417400  1
  O  O282  1  0.94418067  0.56397333  0.28889233  1
  O  O283  1  0.79137800  0.31159300  0.28950900  1
  O  O284  1  0.97825967  0.85354833  0.04382433  1
  O  O285  1  0.35507367  0.81311833  0.62284233  1
  O  O286  1  0.54195533  0.35507367  0.37715767  1
  O  O287  1  0.38915267  0.10269333  0.37777433  1
  O  O288  1  0.24160733  0.95451067  0.61249267  1
  O  O289  1  0.10269333  0.71354067  0.62222567  1
  O  O290  1  0.14413933  0.86345467  0.72638667  1
  O  O291  1  0.28068467  0.14413933  0.27361333  1
  O  O292  1  0.28709667  0.24160733  0.38750733  1
  O  O293  1  0.95451067  0.71290333  0.38750733  1
  O  O294  1  0.28645933  0.38915267  0.62222567  1
  O  O295  1  0.81311833  0.45804467  0.37715767  1
  O  O296  1  0.86345467  0.71931533  0.27361333  1
  O  O297  1  0.13654533  0.28068467  0.72638667  1
  O  O298  1  0.18688167  0.54195533  0.62284233  1
  O  O299  1  0.71354067  0.61084733  0.37777433  1
  O  O300  1  0.04548933  0.28709667  0.61249267  1
  O  O301  1  0.71290333  0.75839267  0.61249267  1
  O  O302  1  0.71931533  0.85586067  0.72638667  1
  O  O303  1  0.85586067  0.13654533  0.27361333  1
  O  O304  1  0.89730667  0.28645933  0.37777433  1
  O  O305  1  0.75839267  0.04548933  0.38750733  1
  O  O306  1  0.61084733  0.89730667  0.62222567  1
  O  O307  1  0.45804467  0.64492633  0.62284233  1
  O  O308  1  0.64492633  0.18688167  0.37715767  1
  O  O309  1  0.02174033  0.14645167  0.95617567  1
  O  O310  1  0.20862200  0.68840700  0.71049100  1
  O  O311  1  0.05581933  0.43602667  0.71110767  1
  O  O312  1  0.90827400  0.28784400  0.94582600  1
  O  O313  1  0.76936000  0.04687400  0.95555900  1
  O  O314  1  0.81080600  0.19678800  0.05972000  1
  O  O315  1  0.94735133  0.47747267  0.60694667  1
  O  O316  1  0.95376333  0.57494067  0.72084067  1
  O  O317  1  0.62117733  0.04623667  0.72084067  1
  O  O318  1  0.95312600  0.72248600  0.95555900  1
  O  O319  1  0.47978500  0.79137800  0.71049100  1
  O  O320  1  0.53012133  0.05264867  0.60694667  1
  O  O321  1  0.80321200  0.61401800  0.05972000  1
  O  O322  1  0.85354833  0.87528867  0.95617567  1
  O  O323  1  0.38020733  0.94418067  0.71110767  1
  O  O324  1  0.71215600  0.62043000  0.94582600  1
  O  O325  1  0.37957000  0.09172600  0.94582600  1
  O  O326  1  0.38598200  0.18919400  0.05972000  1
  O  O327  1  0.52252733  0.46987867  0.60694667  1
  O  O328  1  0.56397333  0.61979267  0.71110767  1
  O  O329  1  0.42505933  0.37882267  0.72084067  1
  O  O330  1  0.27751400  0.23064000  0.95555900  1
  O  O331  1  0.12471133  0.97825967  0.95617567  1
  O  O332  1  0.31159300  0.52021500  0.71049100  1
