# generated using pymatgen
data_Li4Cr3Fe3(SbO8)2
_symmetry_space_group_name_H-M   'P 1'
_cell_length_a   10.30737404
_cell_length_b   5.96858708
_cell_length_c   9.65235832
_cell_angle_alpha   90.00000000
_cell_angle_beta   90.20417764
_cell_angle_gamma   90.00000000
_symmetry_Int_Tables_number   1
_chemical_formula_structural   Li4Cr3Fe3(SbO8)2
_chemical_formula_sum   'Li8 Cr6 Fe6 Sb4 O32'
_cell_volume   593.81374864
_cell_formula_units_Z   2
loop_
 _symmetry_equiv_pos_site_id
 _symmetry_equiv_pos_as_xyz
  1  'x, y, z'
loop_
 _atom_site_type_symbol
 _atom_site_label
 _atom_site_symmetry_multiplicity
 _atom_site_fract_x
 _atom_site_fract_y
 _atom_site_fract_z
 _atom_site_occupancy
  Li  Li0  1  0.16567550  0.50000000  0.09240000  1
  Li  Li1  1  0.50051200  0.50000000  0.00340300  1
  Li  Li2  1  0.50166850  0.50000000  0.50132100  1
  Li  Li3  1  0.83332250  0.50000000  0.58827800  1
  Li  Li4  1  0.66567550  0.00000000  0.09240000  1
  Li  Li5  1  0.00051200  0.00000000  0.00340300  1
  Li  Li6  1  0.00166850  0.00000000  0.50132100  1
  Li  Li7  1  0.33332250  0.00000000  0.58827800  1
  Cr  Cr8  1  0.32873950  0.50000000  0.77914300  1
  Cr  Cr9  1  0.91528250  0.74542350  0.27911200  1
  Cr  Cr10  1  0.91528250  0.25457650  0.27911200  1
  Cr  Cr11  1  0.82873950  0.00000000  0.77914300  1
  Cr  Cr12  1  0.41528250  0.24542350  0.27911200  1
  Cr  Cr13  1  0.41528250  0.75457650  0.27911200  1
  Fe  Fe14  1  0.08398500  0.74461400  0.77834400  1
  Fe  Fe15  1  0.08398500  0.25538600  0.77834400  1
  Fe  Fe16  1  0.67166150  0.50000000  0.27920300  1
  Fe  Fe17  1  0.58398500  0.24461400  0.77834400  1
  Fe  Fe18  1  0.58398500  0.75538600  0.77834400  1
  Fe  Fe19  1  0.17166150  0.00000000  0.27920300  1
  Sb  Sb20  1  0.16813900  0.50000000  0.50168400  1
  Sb  Sb21  1  0.83158200  0.50000000  0.00825300  1
  Sb  Sb22  1  0.66813900  0.00000000  0.50168400  1
  Sb  Sb23  1  0.33158200  0.00000000  0.00825300  1
  O  O24  1  0.08452650  0.75411250  0.39632000  1
  O  O25  1  0.01862000  0.50000000  0.64189700  1
  O  O26  1  0.16444200  0.50000000  0.88625900  1
  O  O27  1  0.49965400  0.50000000  0.68846500  1
  O  O28  1  0.50504150  0.50000000  0.18918800  1
  O  O29  1  0.08452650  0.24588750  0.39632000  1
  O  O30  1  0.24283550  0.72089750  0.64662100  1
  O  O31  1  0.24283550  0.27910250  0.64662100  1
  O  O32  1  0.33602500  0.50000000  0.39568400  1
  O  O33  1  0.66619450  0.50000000  0.89808200  1
  O  O34  1  0.75729600  0.72220400  0.15168100  1
  O  O35  1  0.75729600  0.27779600  0.15168100  1
  O  O36  1  0.91496300  0.75060000  0.89901400  1
  O  O37  1  0.83021150  0.50000000  0.38213800  1
  O  O38  1  0.98112900  0.50000000  0.15076300  1
  O  O39  1  0.91496300  0.24940000  0.89901400  1
  O  O40  1  0.58452650  0.25411250  0.39632000  1
  O  O41  1  0.51862000  0.00000000  0.64189700  1
  O  O42  1  0.66444200  0.00000000  0.88625900  1
  O  O43  1  0.99965400  0.00000000  0.68846500  1
  O  O44  1  0.00504150  0.00000000  0.18918800  1
  O  O45  1  0.58452650  0.74588750  0.39632000  1
  O  O46  1  0.74283550  0.22089750  0.64662100  1
  O  O47  1  0.74283550  0.77910250  0.64662100  1
  O  O48  1  0.83602500  0.00000000  0.39568400  1
  O  O49  1  0.16619450  0.00000000  0.89808200  1
  O  O50  1  0.25729600  0.22220400  0.15168100  1
  O  O51  1  0.25729600  0.77779600  0.15168100  1
  O  O52  1  0.41496300  0.25060000  0.89901400  1
  O  O53  1  0.33021150  0.00000000  0.38213800  1
  O  O54  1  0.48112900  0.00000000  0.15076300  1
  O  O55  1  0.41496300  0.74940000  0.89901400  1
