# generated using pymatgen
data_Li4V3O8
_symmetry_space_group_name_H-M   'P 1'
_cell_length_a   5.83699123
_cell_length_b   5.83699123
_cell_length_c   14.60705013
_cell_angle_alpha   90.00000000
_cell_angle_beta   90.00000000
_cell_angle_gamma   120.00000000
_symmetry_Int_Tables_number   1
_chemical_formula_structural   Li4V3O8
_chemical_formula_sum   'Li12 V9 O24'
_cell_volume   430.99400899
_cell_formula_units_Z   3
loop_
 _symmetry_equiv_pos_site_id
 _symmetry_equiv_pos_as_xyz
  1  'x, y, z'
loop_
 _atom_site_type_symbol
 _atom_site_label
 _atom_site_symmetry_multiplicity
 _atom_site_fract_x
 _atom_site_fract_y
 _atom_site_fract_z
 _atom_site_occupancy
  Li  Li0  1  0.33333333  0.66666667  0.66666667  1
  Li  Li1  1  0.50000000  0.00000000  0.50000000  1
  Li  Li2  1  0.50000000  0.50000000  0.50000000  1
  Li  Li3  1  0.00000000  0.50000000  0.50000000  1
  Li  Li4  1  1.00000000  0.00000000  0.00000000  1
  Li  Li5  1  0.16666667  0.33333333  0.83333333  1
  Li  Li6  1  0.16666667  0.83333333  0.83333333  1
  Li  Li7  1  0.66666667  0.83333333  0.83333333  1
  Li  Li8  1  0.66666667  0.33333333  0.33333333  1
  Li  Li9  1  0.83333333  0.66666667  0.16666667  1
  Li  Li10  1  0.83333333  0.16666667  0.16666667  1
  Li  Li11  1  0.33333333  0.16666667  0.16666667  1
  V  V12  1  0.83333333  0.66666667  0.66666667  1
  V  V13  1  0.83333333  0.16666667  0.66666667  1
  V  V14  1  0.33333333  0.16666667  0.66666667  1
  V  V15  1  0.50000000  0.00000000  0.00000000  1
  V  V16  1  0.50000000  0.50000000  0.00000000  1
  V  V17  1  0.00000000  0.50000000  0.00000000  1
  V  V18  1  0.16666667  0.33333333  0.33333333  1
  V  V19  1  0.16666667  0.83333333  0.33333333  1
  V  V20  1  0.66666667  0.83333333  0.33333333  1
  O  O21  1  0.66666667  0.33333333  0.58765533  1
  O  O22  1  0.33333333  0.66666667  0.41234467  1
  O  O23  1  0.17549100  0.31850950  0.59622050  1
  O  O24  1  0.14301850  0.82450900  0.59622050  1
  O  O25  1  0.68149050  0.85698150  0.59622050  1
  O  O26  1  0.82450900  0.68149050  0.40377950  1
  O  O27  1  0.85698150  0.17549100  0.40377950  1
  O  O28  1  0.31850950  0.14301850  0.40377950  1
  O  O29  1  0.33333333  0.66666667  0.92098867  1
  O  O30  1  0.00000000  0.00000000  0.74567800  1
  O  O31  1  0.84215767  0.65184283  0.92955383  1
  O  O32  1  0.80968517  0.15784233  0.92955383  1
  O  O33  1  0.34815717  0.19031483  0.92955383  1
  O  O34  1  0.49117567  0.01482383  0.73711283  1
  O  O35  1  0.52364817  0.50882433  0.73711283  1
  O  O36  1  0.98517617  0.47635183  0.73711283  1
  O  O37  1  0.00000000  0.00000000  0.25432200  1
  O  O38  1  0.66666667  0.33333333  0.07901133  1
  O  O39  1  0.50882433  0.98517617  0.26288717  1
  O  O40  1  0.47635183  0.49117567  0.26288717  1
  O  O41  1  0.01482383  0.52364817  0.26288717  1
  O  O42  1  0.15784233  0.34815717  0.07044617  1
  O  O43  1  0.19031483  0.84215767  0.07044617  1
  O  O44  1  0.65184283  0.80968517  0.07044617  1
