# generated using pymatgen
data_Li2CrS3
_symmetry_space_group_name_H-M   'P 1'
_cell_length_a   6.09239600
_cell_length_b   10.57527200
_cell_length_c   6.27679161
_cell_angle_alpha   90.00000000
_cell_angle_beta   109.17860694
_cell_angle_gamma   90.00000000
_symmetry_Int_Tables_number   1
_chemical_formula_structural   Li2CrS3
_chemical_formula_sum   'Li8 Cr4 S12'
_cell_volume   381.96091715
_cell_formula_units_Z   4
loop_
 _symmetry_equiv_pos_site_id
 _symmetry_equiv_pos_as_xyz
  1  'x, y, z'
loop_
 _atom_site_type_symbol
 _atom_site_label
 _atom_site_symmetry_multiplicity
 _atom_site_fract_x
 _atom_site_fract_y
 _atom_site_fract_z
 _atom_site_occupancy
  Li  Li0  1  0.00000000  0.84017900  0.50000000  1
  Li  Li1  1  0.50000000  0.65982100  0.50000000  1
  Li  Li2  1  0.50000000  0.00000000  0.50000000  1
  Li  Li3  1  0.00000000  0.00000000  0.00000000  1
  Li  Li4  1  0.50000000  0.34017900  0.50000000  1
  Li  Li5  1  0.00000000  0.15982100  0.50000000  1
  Li  Li6  1  0.00000000  0.50000000  0.50000000  1
  Li  Li7  1  0.50000000  0.50000000  0.00000000  1
  Cr  Cr8  1  0.50000000  0.83277900  0.00000000  1
  Cr  Cr9  1  0.00000000  0.66722100  0.00000000  1
  Cr  Cr10  1  0.00000000  0.33277900  0.00000000  1
  Cr  Cr11  1  0.50000000  0.16722100  0.00000000  1
  S  S12  1  0.71640600  0.00000000  0.22878400  1
  S  S13  1  0.24347000  0.68022000  0.77279800  1
  S  S14  1  0.74347000  0.81978000  0.77279800  1
  S  S15  1  0.25653000  0.81978000  0.22720200  1
  S  S16  1  0.75653000  0.68022000  0.22720200  1
  S  S17  1  0.28359400  0.00000000  0.77121600  1
  S  S18  1  0.21640600  0.50000000  0.22878400  1
  S  S19  1  0.74347000  0.18022000  0.77279800  1
  S  S20  1  0.24347000  0.31978000  0.77279800  1
  S  S21  1  0.75653000  0.31978000  0.22720200  1
  S  S22  1  0.25653000  0.18022000  0.22720200  1
  S  S23  1  0.78359400  0.50000000  0.77121600  1
