# generated using pymatgen
data_Li3MnNb4O12
_symmetry_space_group_name_H-M   'P 1'
_cell_length_a   5.28325718
_cell_length_b   5.62465695
_cell_length_c   7.71221515
_cell_angle_alpha   94.91762661
_cell_angle_beta   90.04403553
_cell_angle_gamma   90.12330318
_symmetry_Int_Tables_number   1
_chemical_formula_structural   Li3MnNb4O12
_chemical_formula_sum   'Li3 Mn1 Nb4 O12'
_cell_volume   228.33586081
_cell_formula_units_Z   1
loop_
 _symmetry_equiv_pos_site_id
 _symmetry_equiv_pos_as_xyz
  1  'x, y, z'
loop_
 _atom_site_type_symbol
 _atom_site_label
 _atom_site_symmetry_multiplicity
 _atom_site_fract_x
 _atom_site_fract_y
 _atom_site_fract_z
 _atom_site_occupancy
  Li  Li0  1  0.50043600  0.93754700  0.78429500  1
  Li  Li1  1  0.00005900  0.42994000  0.78520300  1
  Li  Li2  1  0.50078700  0.93719700  0.28089200  1
  Mn  Mn3  1  0.99756500  0.43670500  0.27977900  1
  Nb  Nb4  1  0.00612700  0.99213200  0.99303100  1
  Nb  Nb5  1  0.49800000  0.51597800  0.50288500  1
  Nb  Nb6  1  0.99972900  0.01312200  0.50047100  1
  Nb  Nb7  1  0.50222800  0.49784600  0.99137500  1
  O  O8  1  0.30223500  0.22258000  0.42227500  1
  O  O9  1  0.12341600  0.03393400  0.73988400  1
  O  O10  1  0.31874600  0.84161100  0.04316500  1
  O  O11  1  0.19529500  0.71980400  0.42063400  1
  O  O12  1  0.80391600  0.71603400  0.92176600  1
  O  O13  1  0.37577700  0.53564800  0.74050800  1
  O  O14  1  0.61756200  0.53627600  0.23713700  1
  O  O15  1  0.17946300  0.34348000  0.04026600  1
  O  O16  1  0.81484900  0.33892500  0.54307400  1
  O  O17  1  0.69591400  0.21884200  0.92233100  1
  O  O18  1  0.88222800  0.03580300  0.23660800  1
  O  O19  1  0.68566800  0.83739900  0.54402100  1
