# generated using pymatgen
data_MnSbO4
_symmetry_space_group_name_H-M   'P 1'
_cell_length_a   5.28027066
_cell_length_b   3.02718797
_cell_length_c   5.72144780
_cell_angle_alpha   90.00000000
_cell_angle_beta   114.91347581
_cell_angle_gamma   90.00000000
_symmetry_Int_Tables_number   1
_chemical_formula_structural   MnSbO4
_chemical_formula_sum   'Mn1 Sb1 O4'
_cell_volume   82.94351686
_cell_formula_units_Z   1
loop_
 _symmetry_equiv_pos_site_id
 _symmetry_equiv_pos_as_xyz
  1  'x, y, z'
loop_
 _atom_site_type_symbol
 _atom_site_label
 _atom_site_symmetry_multiplicity
 _atom_site_fract_x
 _atom_site_fract_y
 _atom_site_fract_z
 _atom_site_occupancy
  Mn  Mn0  1  0.50000000  0.50000000  0.50000000  1
  Sb  Sb1  1  0.50000000  0.00000000  0.00000000  1
  O  O2  1  0.33146975  0.00000000  0.26296600  1
  O  O3  1  0.66853025  0.00000000  0.73703400  1
  O  O4  1  0.26167550  0.50000000  0.78626100  1
  O  O5  1  0.73832450  0.50000000  0.21373900  1
