# generated using pymatgen
data_Li2TiCrO4
_symmetry_space_group_name_H-M   'P 1'
_cell_length_a   5.10164279
_cell_length_b   2.95582375
_cell_length_c   5.22252087
_cell_angle_alpha   90.00000000
_cell_angle_beta   109.13155052
_cell_angle_gamma   90.00000000
_symmetry_Int_Tables_number   1
_chemical_formula_structural   Li2TiCrO4
_chemical_formula_sum   'Li2 Ti1 Cr1 O4'
_cell_volume   74.40364439
_cell_formula_units_Z   1
loop_
 _symmetry_equiv_pos_site_id
 _symmetry_equiv_pos_as_xyz
  1  'x, y, z'
loop_
 _atom_site_type_symbol
 _atom_site_label
 _atom_site_symmetry_multiplicity
 _atom_site_fract_x
 _atom_site_fract_y
 _atom_site_fract_z
 _atom_site_occupancy
  Li  Li0  1  0.00000000  0.00000000  0.00000000  1
  Li  Li1  1  0.50000000  0.50000000  0.00000000  1
  Ti  Ti2  1  0.50000000  0.00000000  0.50000000  1
  Cr  Cr3  1  0.00000000  0.50000000  0.50000000  1
  O  O4  1  0.76012600  0.00000000  0.27001400  1
  O  O5  1  0.25520000  0.50000000  0.26722400  1
  O  O6  1  0.23987400  0.00000000  0.72998600  1
  O  O7  1  0.74480000  0.50000000  0.73277600  1
