# generated using pymatgen
data_Li4Cr3O8
_symmetry_space_group_name_H-M   'P 1'
_cell_length_a   5.80484311
_cell_length_b   5.80484311
_cell_length_c   15.34223795
_cell_angle_alpha   90.00000000
_cell_angle_beta   90.00000000
_cell_angle_gamma   120.00000000
_symmetry_Int_Tables_number   1
_chemical_formula_structural   Li4Cr3O8
_chemical_formula_sum   'Li12 Cr9 O24'
_cell_volume   447.71363304
_cell_formula_units_Z   3
loop_
 _symmetry_equiv_pos_site_id
 _symmetry_equiv_pos_as_xyz
  1  'x, y, z'
loop_
 _atom_site_type_symbol
 _atom_site_label
 _atom_site_symmetry_multiplicity
 _atom_site_fract_x
 _atom_site_fract_y
 _atom_site_fract_z
 _atom_site_occupancy
  Li  Li0  1  0.33333333  0.66666667  0.66666667  1
  Li  Li1  1  0.00000000  0.00000000  0.64340467  1
  Li  Li2  1  0.00000000  0.00000000  0.50000000  1
  Li  Li3  1  0.00000000  0.00000000  0.35659533  1
  Li  Li4  1  1.00000000  1.00000000  0.00000000  1
  Li  Li5  1  0.66666667  0.33333333  0.97673800  1
  Li  Li6  1  0.66666667  0.33333333  0.83333333  1
  Li  Li7  1  0.66666667  0.33333333  0.68992867  1
  Li  Li8  1  0.66666667  0.33333333  0.33333333  1
  Li  Li9  1  0.33333333  0.66666667  0.31007133  1
  Li  Li10  1  0.33333333  0.66666667  0.16666667  1
  Li  Li11  1  0.33333333  0.66666667  0.02326200  1
  Cr  Cr12  1  0.50000000  0.50000000  0.50000000  1
  Cr  Cr13  1  0.00000000  0.50000000  0.50000000  1
  Cr  Cr14  1  0.50000000  0.00000000  0.50000000  1
  Cr  Cr15  1  0.16666667  0.83333333  0.83333333  1
  Cr  Cr16  1  0.66666667  0.83333333  0.83333333  1
  Cr  Cr17  1  0.16666667  0.33333333  0.83333333  1
  Cr  Cr18  1  0.83333333  0.16666667  0.16666667  1
  Cr  Cr19  1  0.33333333  0.16666667  0.16666667  1
  Cr  Cr20  1  0.83333333  0.66666667  0.16666667  1
  O  O21  1  0.33333333  0.66666667  0.43169400  1
  O  O22  1  0.82393417  0.17606583  0.43249833  1
  O  O23  1  0.35213167  0.17606583  0.43249833  1
  O  O24  1  0.82393417  0.64786833  0.43249833  1
  O  O25  1  0.66666667  0.33333333  0.56830600  1
  O  O26  1  0.17606583  0.82393417  0.56750167  1
  O  O27  1  0.64786833  0.82393417  0.56750167  1
  O  O28  1  0.17606583  0.35213167  0.56750167  1
  O  O29  1  0.00000000  0.00000000  0.76502733  1
  O  O30  1  0.49060083  0.50939917  0.76583167  1
  O  O31  1  0.01879833  0.50939917  0.76583167  1
  O  O32  1  0.49060083  0.98120167  0.76583167  1
  O  O33  1  0.33333333  0.66666667  0.90163933  1
  O  O34  1  0.84273250  0.15726750  0.90083500  1
  O  O35  1  0.31453500  0.15726750  0.90083500  1
  O  O36  1  0.84273250  0.68546500  0.90083500  1
  O  O37  1  0.66666667  0.33333333  0.09836067  1
  O  O38  1  0.15726750  0.84273250  0.09916500  1
  O  O39  1  0.68546500  0.84273250  0.09916500  1
  O  O40  1  0.15726750  0.31453500  0.09916500  1
  O  O41  1  0.00000000  0.00000000  0.23497267  1
  O  O42  1  0.50939917  0.49060083  0.23416833  1
  O  O43  1  0.98120167  0.49060083  0.23416833  1
  O  O44  1  0.50939917  0.01879833  0.23416833  1
