# generated using pymatgen
data_ZrCrO3
_symmetry_space_group_name_H-M   'P 1'
_cell_length_a   4.95303600
_cell_length_b   5.38238200
_cell_length_c   9.34998900
_cell_angle_alpha   90.00000000
_cell_angle_beta   90.00000000
_cell_angle_gamma   90.00000000
_symmetry_Int_Tables_number   1
_chemical_formula_structural   ZrCrO3
_chemical_formula_sum   'Zr4 Cr4 O12'
_cell_volume   249.26258920
_cell_formula_units_Z   4
loop_
 _symmetry_equiv_pos_site_id
 _symmetry_equiv_pos_as_xyz
  1  'x, y, z'
loop_
 _atom_site_type_symbol
 _atom_site_label
 _atom_site_symmetry_multiplicity
 _atom_site_fract_x
 _atom_site_fract_y
 _atom_site_fract_z
 _atom_site_occupancy
  Zr  Zr0  1  0.04708900  0.95305850  0.75000000  1
  Zr  Zr1  1  0.45291100  0.45305850  0.75000000  1
  Zr  Zr2  1  0.54708900  0.54694150  0.25000000  1
  Zr  Zr3  1  0.95291100  0.04694150  0.25000000  1
  Cr  Cr4  1  0.00000000  0.50000000  0.50000000  1
  Cr  Cr5  1  0.50000000  0.00000000  0.50000000  1
  Cr  Cr6  1  0.00000000  0.50000000  0.00000000  1
  Cr  Cr7  1  0.50000000  0.00000000  0.00000000  1
  O  O8  1  0.18451200  0.37553050  0.25000000  1
  O  O9  1  0.31548800  0.87553050  0.25000000  1
  O  O10  1  0.68451200  0.12446950  0.75000000  1
  O  O11  1  0.81548800  0.62446950  0.75000000  1
  O  O12  1  0.21076900  0.21813850  0.60115100  1
  O  O13  1  0.21076900  0.21813850  0.89884900  1
  O  O14  1  0.28923100  0.71813850  0.60115100  1
  O  O15  1  0.28923100  0.71813850  0.89884900  1
  O  O16  1  0.71076900  0.28186150  0.10115100  1
  O  O17  1  0.71076900  0.28186150  0.39884900  1
  O  O18  1  0.78923100  0.78186150  0.10115100  1
  O  O19  1  0.78923100  0.78186150  0.39884900  1
