# generated using pymatgen
data_Li8(FeO2)5
_symmetry_space_group_name_H-M   'P 1'
_cell_length_a   10.28847600
_cell_length_b   3.61458400
_cell_length_c   14.46813103
_cell_angle_alpha   90.00000000
_cell_angle_beta   106.48636570
_cell_angle_gamma   90.00000000
_symmetry_Int_Tables_number   1
_chemical_formula_structural   Li8(FeO2)5
_chemical_formula_sum   'Li16 Fe10 O20'
_cell_volume   515.92831995
_cell_formula_units_Z   2
loop_
 _symmetry_equiv_pos_site_id
 _symmetry_equiv_pos_as_xyz
  1  'x, y, z'
loop_
 _atom_site_type_symbol
 _atom_site_label
 _atom_site_symmetry_multiplicity
 _atom_site_fract_x
 _atom_site_fract_y
 _atom_site_fract_z
 _atom_site_occupancy
  Li  Li0  1  0.78583500  0.00000000  0.46451500  1
  Li  Li1  1  0.71540100  0.50000000  0.33828600  1
  Li  Li2  1  0.77604000  0.00000000  0.24408800  1
  Li  Li3  1  0.77437500  0.00000000  0.07271100  1
  Li  Li4  1  0.21534900  0.00000000  0.94767000  1
  Li  Li5  1  0.22326300  0.00000000  0.73510600  1
  Li  Li6  1  0.28686100  0.50000000  0.85346700  1
  Li  Li7  1  0.22652500  0.00000000  0.55768700  1
  Li  Li8  1  0.28583500  0.50000000  0.46451500  1
  Li  Li9  1  0.21540100  0.00000000  0.33828600  1
  Li  Li10  1  0.27604000  0.50000000  0.24408800  1
  Li  Li11  1  0.27437500  0.50000000  0.07271100  1
  Li  Li12  1  0.71534900  0.50000000  0.94767000  1
  Li  Li13  1  0.72326300  0.50000000  0.73510600  1
  Li  Li14  1  0.78686100  0.00000000  0.85346700  1
  Li  Li15  1  0.72652500  0.50000000  0.55768700  1
  Fe  Fe16  1  0.00146300  0.50000000  0.80035300  1
  Fe  Fe17  1  0.00013600  0.50000000  0.40178100  1
  Fe  Fe18  1  0.00565100  0.50000000  0.60132900  1
  Fe  Fe19  1  0.99909900  0.50000000  0.00108700  1
  Fe  Fe20  1  0.99494100  0.50000000  0.19753800  1
  Fe  Fe21  1  0.50146300  0.00000000  0.80035300  1
  Fe  Fe22  1  0.50013600  0.00000000  0.40178100  1
  Fe  Fe23  1  0.50565100  0.00000000  0.60132900  1
  Fe  Fe24  1  0.49909900  0.00000000  0.00108700  1
  Fe  Fe25  1  0.49494100  0.00000000  0.19753800  1
  O  O26  1  0.62551200  0.00000000  0.13090100  1
  O  O27  1  0.87419500  0.50000000  0.68167200  1
  O  O28  1  0.86696100  0.50000000  0.26996000  1
  O  O29  1  0.85399100  0.50000000  0.47146700  1
  O  O30  1  0.85908300  0.50000000  0.07530400  1
  O  O31  1  0.14038300  0.50000000  0.92537000  1
  O  O32  1  0.14095600  0.50000000  0.52715300  1
  O  O33  1  0.13720500  0.50000000  0.73729300  1
  O  O34  1  0.13597400  0.50000000  0.31868900  1
  O  O35  1  0.36373000  0.00000000  0.86902900  1
  O  O36  1  0.12551200  0.50000000  0.13090100  1
  O  O37  1  0.37419500  0.00000000  0.68167200  1
  O  O38  1  0.36696100  0.00000000  0.26996000  1
  O  O39  1  0.35399100  0.00000000  0.47146700  1
  O  O40  1  0.35908300  0.00000000  0.07530400  1
  O  O41  1  0.64038300  0.00000000  0.92537000  1
  O  O42  1  0.64095600  0.00000000  0.52715300  1
  O  O43  1  0.63720500  0.00000000  0.73729300  1
  O  O44  1  0.63597400  0.00000000  0.31868900  1
  O  O45  1  0.86373000  0.50000000  0.86902900  1
