# generated using pymatgen
data_LiNbCo3(PO4)6
_symmetry_space_group_name_H-M   'P 1'
_cell_length_a   8.65615339
_cell_length_b   8.66127145
_cell_length_c   8.71995723
_cell_angle_alpha   119.74694456
_cell_angle_beta   90.46794150
_cell_angle_gamma   119.38685233
_symmetry_Int_Tables_number   1
_chemical_formula_structural   LiNbCo3(PO4)6
_chemical_formula_sum   'Li1 Nb1 Co3 P6 O24'
_cell_volume   466.41430056
_cell_formula_units_Z   1
loop_
 _symmetry_equiv_pos_site_id
 _symmetry_equiv_pos_as_xyz
  1  'x, y, z'
loop_
 _atom_site_type_symbol
 _atom_site_label
 _atom_site_symmetry_multiplicity
 _atom_site_fract_x
 _atom_site_fract_y
 _atom_site_fract_z
 _atom_site_occupancy
  Li  Li0  1  0.48693996  0.49752327  0.50257249  1
  Nb  Nb1  1  0.86361974  0.13833021  0.13862980  1
  Co  Co2  1  0.13513868  0.85841893  0.86388533  1
  Co  Co3  1  0.35640939  0.64624934  0.64564898  1
  Co  Co4  1  0.64111436  0.35710231  0.36080888  1
  P  P5  1  0.03993058  0.25128084  0.54440007  1
  P  P6  1  0.45674887  0.96204524  0.25345640  1
  P  P7  1  0.26171288  0.47211018  0.04343971  1
  P  P8  1  0.74705209  0.54369475  0.96284596  1
  P  P9  1  0.52945637  0.04108834  0.73983844  1
  P  P10  1  0.95533703  0.73714822  0.47544814  1
  O  O11  1  0.36662327  0.99450505  0.79717794  1
  O  O12  1  0.12664139  0.70328782  0.50204379  1
  O  O13  1  0.30105151  0.49440100  0.88037748  1
  O  O14  1  0.07243645  0.08905616  0.73279291  1
  O  O15  1  0.51345385  0.87680576  0.70399658  1
  O  O16  1  0.22528876  0.41966720  0.55220598  1
  O  O17  1  0.26631983  0.92743502  0.09620615  1
  O  O18  1  0.19836631  0.63139391  0.00136982  1
  O  O19  1  0.45102708  0.77410020  0.41984190  1
  O  O20  1  0.09873881  0.27989303  0.07821740  1
  O  O21  1  0.57997796  0.54975341  0.77641735  1
  O  O22  1  0.42734822  0.46059960  0.22902591  1
  O  O23  1  0.90387385  0.73502188  0.92952825  1
  O  O24  1  0.53951755  0.22691591  0.57402080  1
  O  O25  1  0.71941455  0.07720256  0.90482711  1
  O  O26  1  0.48204911  0.12436355  0.29790552  1
  O  O27  1  0.77226313  0.57020345  0.45897702  1
  O  O28  1  0.98676107  0.79180948  0.63268958  1
  O  O29  1  0.92373123  0.90180059  0.28370164  1
  O  O30  1  0.70236147  0.51385147  0.12601295  1
  O  O31  1  0.87408261  0.29394621  0.51591996  1
  O  O32  1  0.62183468  0.01208293  0.19302995  1
  O  O33  1  0.81054844  0.38145679  0.00952706  1
  O  O34  1  0.99446094  0.19387938  0.37987179  1
