# generated using pymatgen
data_LiVSiO4
_symmetry_space_group_name_H-M   'P 1'
_cell_length_a   5.21238818
_cell_length_b   5.21238818
_cell_length_c   9.60642513
_cell_angle_alpha   90.00000000
_cell_angle_beta   90.00000000
_cell_angle_gamma   120.00000000
_symmetry_Int_Tables_number   1
_chemical_formula_structural   LiVSiO4
_chemical_formula_sum   'Li2 V2 Si2 O8'
_cell_volume   226.02992233
_cell_formula_units_Z   2
loop_
 _symmetry_equiv_pos_site_id
 _symmetry_equiv_pos_as_xyz
  1  'x, y, z'
loop_
 _atom_site_type_symbol
 _atom_site_label
 _atom_site_symmetry_multiplicity
 _atom_site_fract_x
 _atom_site_fract_y
 _atom_site_fract_z
 _atom_site_occupancy
  Li  Li0  1  0.00000000  0.00000000  0.76883150  1
  Li  Li1  1  0.00000000  0.00000000  0.26883150  1
  V  V2  1  0.33333333  0.66666667  0.87740500  1
  V  V3  1  0.66666667  0.33333333  0.37740500  1
  Si  Si4  1  0.33333333  0.66666667  0.24020550  1
  Si  Si5  1  0.66666667  0.33333333  0.74020550  1
  O  O6  1  0.33333333  0.66666667  0.07108500  1
  O  O7  1  0.66666667  0.33333333  0.57108500  1
  O  O8  1  0.02946100  0.65622550  0.29719300  1
  O  O9  1  0.34377450  0.37323550  0.29719300  1
  O  O10  1  0.37323550  0.02946100  0.79719300  1
  O  O11  1  0.62676450  0.97053900  0.29719300  1
  O  O12  1  0.65622550  0.62676450  0.79719300  1
  O  O13  1  0.97053900  0.34377450  0.79719300  1
