# generated using pymatgen
data_Ce2UO6
_symmetry_space_group_name_H-M   'P 1'
_cell_length_a   3.87184400
_cell_length_b   5.46651200
_cell_length_c   11.47555800
_cell_angle_alpha   90.00000000
_cell_angle_beta   90.00000000
_cell_angle_gamma   90.00000000
_symmetry_Int_Tables_number   1
_chemical_formula_structural   Ce2UO6
_chemical_formula_sum   'Ce4 U2 O12'
_cell_volume   242.88571271
_cell_formula_units_Z   2
loop_
 _symmetry_equiv_pos_site_id
 _symmetry_equiv_pos_as_xyz
  1  'x, y, z'
loop_
 _atom_site_type_symbol
 _atom_site_label
 _atom_site_symmetry_multiplicity
 _atom_site_fract_x
 _atom_site_fract_y
 _atom_site_fract_z
 _atom_site_occupancy
  Ce  Ce0  1  0.00000000  0.50000000  0.66621900  1
  Ce  Ce1  1  0.50000000  0.00000000  0.83378100  1
  Ce  Ce2  1  0.50000000  0.00000000  0.16621900  1
  Ce  Ce3  1  0.00000000  0.50000000  0.33378100  1
  U  U4  1  0.00000000  0.50000000  0.00000000  1
  U  U5  1  0.50000000  0.00000000  0.50000000  1
  O  O6  1  0.50000000  0.75429800  0.66011500  1
  O  O7  1  0.50000000  0.26578400  0.00000000  1
  O  O8  1  0.50000000  0.24570200  0.66011500  1
  O  O9  1  0.00000000  0.25429800  0.83988500  1
  O  O10  1  0.50000000  0.73421600  0.00000000  1
  O  O11  1  0.00000000  0.74570200  0.83988500  1
  O  O12  1  0.00000000  0.25429800  0.16011500  1
  O  O13  1  0.00000000  0.76578400  0.50000000  1
  O  O14  1  0.00000000  0.74570200  0.16011500  1
  O  O15  1  0.50000000  0.75429800  0.33988500  1
  O  O16  1  0.00000000  0.23421600  0.50000000  1
  O  O17  1  0.50000000  0.24570200  0.33988500  1
