# generated using pymatgen
data_Li5VO4F
_symmetry_space_group_name_H-M   'P 1'
_cell_length_a   9.45466600
_cell_length_b   4.02065800
_cell_length_c   5.81470057
_cell_angle_alpha   90.00000000
_cell_angle_beta   107.81144985
_cell_angle_gamma   90.00000000
_symmetry_Int_Tables_number   1
_chemical_formula_structural   Li5VO4F
_chemical_formula_sum   'Li10 V2 O8 F2'
_cell_volume   210.44508081
_cell_formula_units_Z   2
loop_
 _symmetry_equiv_pos_site_id
 _symmetry_equiv_pos_as_xyz
  1  'x, y, z'
loop_
 _atom_site_type_symbol
 _atom_site_label
 _atom_site_symmetry_multiplicity
 _atom_site_fract_x
 _atom_site_fract_y
 _atom_site_fract_z
 _atom_site_occupancy
  Li  Li0  1  0.67001200  0.00000000  0.88909600  1
  Li  Li1  1  0.69578000  0.00000000  0.34288100  1
  Li  Li2  1  0.78997600  0.50000000  0.69633200  1
  Li  Li3  1  0.81686600  0.50000000  0.14486400  1
  Li  Li4  1  0.98622000  0.00000000  0.52150700  1
  Li  Li5  1  0.17001200  0.50000000  0.88909600  1
  Li  Li6  1  0.19578000  0.50000000  0.34288100  1
  Li  Li7  1  0.28997600  0.00000000  0.69633200  1
  Li  Li8  1  0.31686600  0.00000000  0.14486400  1
  Li  Li9  1  0.48622000  0.50000000  0.52150700  1
  V  V10  1  0.97652700  0.00000000  0.98492400  1
  V  V11  1  0.47652700  0.50000000  0.98492400  1
  O  O12  1  0.63314300  0.50000000  0.85217900  1
  O  O13  1  0.99059500  0.50000000  0.01523300  1
  O  O14  1  0.82552000  0.00000000  0.68603100  1
  O  O15  1  0.85412900  0.00000000  0.18928600  1
  O  O16  1  0.13314300  0.00000000  0.85217900  1
  O  O17  1  0.49059500  0.00000000  0.01523300  1
  O  O18  1  0.32552000  0.50000000  0.68603100  1
  O  O19  1  0.35412900  0.50000000  0.18928600  1
  F  F20  1  0.65987200  0.50000000  0.35116300  1
  F  F21  1  0.15987200  0.00000000  0.35116300  1
