# generated using pymatgen
data_Li3MnV(PO4)3
_symmetry_space_group_name_H-M   'P 1'
_cell_length_a   8.49580828
_cell_length_b   8.49580828
_cell_length_c   22.76955048
_cell_angle_alpha   90.00000000
_cell_angle_beta   90.00000000
_cell_angle_gamma   120.00000000
_symmetry_Int_Tables_number   1
_chemical_formula_structural   Li3MnV(PO4)3
_chemical_formula_sum   'Li18 Mn6 V6 P18 O72'
_cell_volume   1423.29359477
_cell_formula_units_Z   6
loop_
 _symmetry_equiv_pos_site_id
 _symmetry_equiv_pos_as_xyz
  1  'x, y, z'
loop_
 _atom_site_type_symbol
 _atom_site_label
 _atom_site_symmetry_multiplicity
 _atom_site_fract_x
 _atom_site_fract_y
 _atom_site_fract_z
 _atom_site_occupancy
  Li  Li0  1  0.37697667  0.36153033  0.28338033  1
  Li  Li1  1  0.98455367  0.62302333  0.28338033  1
  Li  Li2  1  0.63846967  0.01544633  0.28338033  1
  Li  Li3  1  0.03119267  0.31176533  0.04908333  1
  Li  Li4  1  0.68823467  0.71942733  0.04908333  1
  Li  Li5  1  0.28057267  0.96880733  0.04908333  1
  Li  Li6  1  0.04364333  0.69486367  0.61671367  1
  Li  Li7  1  0.65122033  0.95635667  0.61671367  1
  Li  Li8  1  0.30513633  0.34877967  0.61671367  1
  Li  Li9  1  0.69785933  0.64509867  0.38241667  1
  Li  Li10  1  0.35490133  0.05276067  0.38241667  1
  Li  Li11  1  0.94723933  0.30214067  0.38241667  1
  Li  Li12  1  0.71031000  0.02819700  0.95004700  1
  Li  Li13  1  0.31788700  0.28969000  0.95004700  1
  Li  Li14  1  0.97180300  0.68211300  0.95004700  1
  Li  Li15  1  0.36452600  0.97843200  0.71575000  1
  Li  Li16  1  0.02156800  0.38609400  0.71575000  1
  Li  Li17  1  0.61390600  0.63547400  0.71575000  1
  Mn  Mn18  1  0.00000000  0.00000000  0.14683500  1
  Mn  Mn19  1  0.33333333  0.66666667  0.01584567  1
  Mn  Mn20  1  0.66666667  0.33333333  0.48016833  1
  Mn  Mn21  1  0.00000000  0.00000000  0.34917900  1
  Mn  Mn22  1  0.33333333  0.66666667  0.81350167  1
  Mn  Mn23  1  0.66666667  0.33333333  0.68251233  1
  V  V24  1  0.33333333  0.66666667  0.31751267  1
  V  V25  1  0.66666667  0.33333333  0.18575933  1
  V  V26  1  0.00000000  0.00000000  0.65084600  1
  V  V27  1  0.33333333  0.66666667  0.51909267  1
  V  V28  1  0.66666667  0.33333333  0.98417933  1
  V  V29  1  0.00000000  0.00000000  0.85242600  1
  P  P30  1  0.29661167  0.00332733  0.24955633  1
  P  P31  1  0.99667267  0.29328433  0.24955633  1
  P  P32  1  0.70671567  0.70338833  0.24955633  1
  P  P33  1  0.95341433  0.61901567  0.08343867  1
  P  P34  1  0.66560133  0.04658567  0.08343867  1
  P  P35  1  0.38098433  0.33439867  0.08343867  1
  P  P36  1  0.96327833  0.33666067  0.58288967  1
  P  P37  1  0.66333933  0.62661767  0.58288967  1
  P  P38  1  0.37338233  0.03672167  0.58288967  1
  P  P39  1  0.62008100  0.95234900  0.41677200  1
  P  P40  1  0.33226800  0.37991900  0.41677200  1
  P  P41  1  0.04765100  0.66773200  0.41677200  1
  P  P42  1  0.62994500  0.66999400  0.91622300  1
  P  P43  1  0.33000600  0.95995100  0.91622300  1
  P  P44  1  0.04004900  0.37005500  0.91622300  1
  P  P45  1  0.28674767  0.28568233  0.75010533  1
  P  P46  1  0.99893467  0.71325233  0.75010533  1
  P  P47  1  0.71431767  0.00106533  0.75010533  1
  O  O48  1  0.25245033  0.09749967  0.30099567  1
  O  O49  1  0.24658867  0.80748433  0.26929133  1
  O  O50  1  0.19251567  0.43910433  0.26929133  1
  O  O51  1  0.90250033  0.15495067  0.30099567  1
  O  O52  1  0.84504933  0.74754967  0.30099567  1
  O  O53  1  0.19902000  0.99397200  0.19321000  1
  O  O54  1  0.87811233  0.38638067  0.24151267  1
  O  O55  1  0.00602800  0.20504800  0.19321000  1
  O  O56  1  0.56089567  0.75341133  0.26929133  1
  O  O57  1  0.61361933  0.49173167  0.24151267  1
  O  O58  1  0.79495200  0.80098000  0.19321000  1
  O  O59  1  0.50826833  0.12188767  0.24151267  1
  O  O60  1  0.17330367  0.21588033  0.08842733  1
  O  O61  1  0.85162833  0.52572767  0.14099667  1
  O  O62  1  0.04257667  0.82669633  0.08842733  1
  O  O63  1  0.09082267  0.55977733  0.06791533  1
  O  O64  1  0.67409933  0.14837167  0.14099667  1
  O  O65  1  0.78411967  0.95742333  0.08842733  1
  O  O66  1  0.47427233  0.32590067  0.14099667  1
  O  O67  1  0.80810033  0.56508067  0.03243767  1
  O  O68  1  0.75698033  0.19189967  0.03243767  1
  O  O69  1  0.46895467  0.90917733  0.06791533  1
  O  O70  1  0.44022267  0.53104533  0.06791533  1
  O  O71  1  0.43491933  0.24301967  0.03243767  1
  O  O72  1  0.91911700  0.43083300  0.63432900  1
  O  O73  1  0.91325533  0.14081767  0.60262467  1
  O  O74  1  0.85918233  0.77243767  0.60262467  1
  O  O75  1  0.56916700  0.48828400  0.63432900  1
  O  O76  1  0.51171600  0.08088300  0.63432900  1
  O  O77  1  0.86568667  0.32730533  0.52654333  1
  O  O78  1  0.54477900  0.71971400  0.57484600  1
  O  O79  1  0.67269467  0.53838133  0.52654333  1
  O  O80  1  0.22756233  0.08674467  0.60262467  1
  O  O81  1  0.28028600  0.82506500  0.57484600  1
  O  O82  1  0.46161867  0.13431333  0.52654333  1
  O  O83  1  0.17493500  0.45522100  0.57484600  1
  O  O84  1  0.83997033  0.54921367  0.42176067  1
  O  O85  1  0.51829500  0.85906100  0.47433000  1
  O  O86  1  0.70924333  0.16002967  0.42176067  1
  O  O87  1  0.75748933  0.89311067  0.40124867  1
  O  O88  1  0.34076600  0.48170500  0.47433000  1
  O  O89  1  0.45078633  0.29075667  0.42176067  1
  O  O90  1  0.14093900  0.65923400  0.47433000  1
  O  O91  1  0.47476700  0.89841400  0.36577100  1
  O  O92  1  0.42364700  0.52523300  0.36577100  1
  O  O93  1  0.13562133  0.24251067  0.40124867  1
  O  O94  1  0.10688933  0.86437867  0.40124867  1
  O  O95  1  0.10158600  0.57635300  0.36577100  1
  O  O96  1  0.58578367  0.76416633  0.96766233  1
  O  O97  1  0.57992200  0.47415100  0.93595800  1
  O  O98  1  0.52584900  0.10577100  0.93595800  1
  O  O99  1  0.23583367  0.82161733  0.96766233  1
  O  O100  1  0.17838267  0.41421633  0.96766233  1
  O  O101  1  0.53235333  0.66063867  0.85987667  1
  O  O102  1  0.21144567  0.05304733  0.90817933  1
  O  O103  1  0.33936133  0.87171467  0.85987667  1
  O  O104  1  0.89422900  0.42007800  0.93595800  1
  O  O105  1  0.94695267  0.15839833  0.90817933  1
  O  O106  1  0.12828533  0.46764667  0.85987667  1
  O  O107  1  0.84160167  0.78855433  0.90817933  1
  O  O108  1  0.50663700  0.88254700  0.75509400  1
  O  O109  1  0.18496167  0.19239433  0.80766333  1
  O  O110  1  0.37591000  0.49336300  0.75509400  1
  O  O111  1  0.42415600  0.22644400  0.73458200  1
  O  O112  1  0.00743267  0.81503833  0.80766333  1
  O  O113  1  0.11745300  0.62409000  0.75509400  1
  O  O114  1  0.80760567  0.99256733  0.80766333  1
  O  O115  1  0.14143367  0.23174733  0.69910433  1
  O  O116  1  0.09031367  0.85856633  0.69910433  1
  O  O117  1  0.80228800  0.57584400  0.73458200  1
  O  O118  1  0.77355600  0.19771200  0.73458200  1
  O  O119  1  0.76825267  0.90968633  0.69910433  1
