# generated using pymatgen
data_Na3CrPCO7
_symmetry_space_group_name_H-M   'P 1'
_cell_length_a   5.35637649
_cell_length_b   6.58074901
_cell_length_c   9.16289693
_cell_angle_alpha   90.00000000
_cell_angle_beta   90.96763792
_cell_angle_gamma   90.00000000
_symmetry_Int_Tables_number   1
_chemical_formula_structural   Na3CrPCO7
_chemical_formula_sum   'Na6 Cr2 P2 C2 O14'
_cell_volume   322.93661267
_cell_formula_units_Z   2
loop_
 _symmetry_equiv_pos_site_id
 _symmetry_equiv_pos_as_xyz
  1  'x, y, z'
loop_
 _atom_site_type_symbol
 _atom_site_label
 _atom_site_symmetry_multiplicity
 _atom_site_fract_x
 _atom_site_fract_y
 _atom_site_fract_z
 _atom_site_occupancy
  Na  Na0  1  0.49584100  0.51819900  0.49562450  1
  Na  Na1  1  0.05469400  0.79175300  0.32479650  1
  Na  Na2  1  0.00556700  0.50136100  0.01343350  1
  Na  Na3  1  0.99443300  0.00136100  0.98656650  1
  Na  Na4  1  0.94530600  0.29175300  0.67520350  1
  Na  Na5  1  0.50415900  0.01819900  0.50437550  1
  Cr  Cr6  1  0.46221600  0.26026000  0.20911250  1
  Cr  Cr7  1  0.53778400  0.76026000  0.79088750  1
  P  P8  1  0.51341600  0.76117100  0.14841050  1
  P  P9  1  0.48658400  0.26117100  0.85158950  1
  C  C10  1  0.99803200  0.26255800  0.36260450  1
  C  C11  1  0.00196800  0.76255800  0.63739550  1
  O  O12  1  0.17281700  0.26459800  0.46321750  1
  O  O13  1  0.76345000  0.26638600  0.40037350  1
  O  O14  1  0.43862200  0.94941500  0.24395550  1
  O  O15  1  0.42533200  0.57268200  0.23957650  1
  O  O16  1  0.05599800  0.25389100  0.22588550  1
  O  O17  1  0.79687100  0.75912500  0.12479350  1
  O  O18  1  0.36315600  0.76494600  0.00187750  1
  O  O19  1  0.63684400  0.26494600  0.99812250  1
  O  O20  1  0.20312900  0.25912500  0.87520650  1
  O  O21  1  0.94400200  0.75389100  0.77411450  1
  O  O22  1  0.57466800  0.07268200  0.76042350  1
  O  O23  1  0.56137800  0.44941500  0.75604450  1
  O  O24  1  0.23655000  0.76638600  0.59962650  1
  O  O25  1  0.82718300  0.76459800  0.53678250  1
