# generated using pymatgen
data_LiVF4
_symmetry_space_group_name_H-M   'P 1'
_cell_length_a   15.58225800
_cell_length_b   3.96627600
_cell_length_c   12.62622446
_cell_angle_alpha   90.00000000
_cell_angle_beta   121.23424411
_cell_angle_gamma   90.00000000
_symmetry_Int_Tables_number   1
_chemical_formula_structural   LiVF4
_chemical_formula_sum   'Li8 V8 F32'
_cell_volume   667.23777230
_cell_formula_units_Z   8
loop_
 _symmetry_equiv_pos_site_id
 _symmetry_equiv_pos_as_xyz
  1  'x, y, z'
loop_
 _atom_site_type_symbol
 _atom_site_label
 _atom_site_symmetry_multiplicity
 _atom_site_fract_x
 _atom_site_fract_y
 _atom_site_fract_z
 _atom_site_occupancy
  Li  Li0  1  0.80041900  0.00000000  0.33487100  1
  Li  Li1  1  0.15897300  0.50000000  0.82176100  1
  Li  Li2  1  0.84102700  0.50000000  0.17823900  1
  Li  Li3  1  0.19958100  0.00000000  0.66512900  1
  Li  Li4  1  0.30041900  0.50000000  0.33487100  1
  Li  Li5  1  0.65897300  0.00000000  0.82176100  1
  Li  Li6  1  0.34102700  0.00000000  0.17823900  1
  Li  Li7  1  0.69958100  0.50000000  0.66512900  1
  V  V8  1  0.03461100  0.00000000  0.36779500  1
  V  V9  1  0.63809500  0.50000000  0.14128700  1
  V  V10  1  0.36190500  0.50000000  0.85871300  1
  V  V11  1  0.96538900  0.00000000  0.63220500  1
  V  V12  1  0.53461100  0.50000000  0.36779500  1
  V  V13  1  0.13809500  0.00000000  0.14128700  1
  V  V14  1  0.86190500  0.00000000  0.85871300  1
  V  V15  1  0.46538900  0.50000000  0.63220500  1
  F  F16  1  0.01854700  0.50000000  0.35018100  1
  F  F17  1  0.07514600  0.00000000  0.24268200  1
  F  F18  1  0.16789900  0.00000000  0.50015700  1
  F  F19  1  0.64923800  0.00000000  0.15892200  1
  F  F20  1  0.77644100  0.50000000  0.28545100  1
  F  F21  1  0.70011200  0.50000000  0.04541000  1
  F  F22  1  0.11435700  0.00000000  0.75663700  1
  F  F23  1  0.88564300  0.00000000  0.24336300  1
  F  F24  1  0.29988800  0.50000000  0.95459000  1
  F  F25  1  0.22355900  0.50000000  0.71454900  1
  F  F26  1  0.35076200  0.00000000  0.84107800  1
  F  F27  1  0.83210100  0.00000000  0.49984300  1
  F  F28  1  0.00000000  0.00000000  0.00000000  1
  F  F29  1  0.92485400  0.00000000  0.75731800  1
  F  F30  1  0.98145300  0.50000000  0.64981900  1
  F  F31  1  0.00000000  0.00000000  0.50000000  1
  F  F32  1  0.51854700  0.00000000  0.35018100  1
  F  F33  1  0.57514600  0.50000000  0.24268200  1
  F  F34  1  0.66789900  0.50000000  0.50015700  1
  F  F35  1  0.14923800  0.50000000  0.15892200  1
  F  F36  1  0.27644100  0.00000000  0.28545100  1
  F  F37  1  0.20011200  0.00000000  0.04541000  1
  F  F38  1  0.61435700  0.50000000  0.75663700  1
  F  F39  1  0.38564300  0.50000000  0.24336300  1
  F  F40  1  0.79988800  0.00000000  0.95459000  1
  F  F41  1  0.72355900  0.00000000  0.71454900  1
  F  F42  1  0.85076200  0.50000000  0.84107800  1
  F  F43  1  0.33210100  0.50000000  0.49984300  1
  F  F44  1  0.50000000  0.50000000  0.00000000  1
  F  F45  1  0.42485400  0.50000000  0.75731800  1
  F  F46  1  0.48145300  0.00000000  0.64981900  1
  F  F47  1  0.50000000  0.50000000  0.50000000  1
