# generated using pymatgen
data_Li7MnNi3(PO4)6
_symmetry_space_group_name_H-M   'P 1'
_cell_length_a   8.76690559
_cell_length_b   8.76690559
_cell_length_c   21.38428571
_cell_angle_alpha   90.00000000
_cell_angle_beta   90.00000000
_cell_angle_gamma   120.00000000
_symmetry_Int_Tables_number   1
_chemical_formula_structural   Li7MnNi3(PO4)6
_chemical_formula_sum   'Li21 Mn3 Ni9 P18 O72'
_cell_volume   1423.37075794
_cell_formula_units_Z   3
loop_
 _symmetry_equiv_pos_site_id
 _symmetry_equiv_pos_as_xyz
  1  'x, y, z'
loop_
 _atom_site_type_symbol
 _atom_site_label
 _atom_site_symmetry_multiplicity
 _atom_site_fract_x
 _atom_site_fract_y
 _atom_site_fract_z
 _atom_site_occupancy
  Li  Li0  1  0.65601567  0.91721533  0.06626233  1
  Li  Li1  1  0.08278467  0.73880033  0.06626233  1
  Li  Li2  1  0.26119967  0.34398433  0.06626233  1
  Li  Li3  1  0.33333333  0.66666667  0.15092067  1
  Li  Li4  1  0.43885933  0.04656367  0.28180767  1
  Li  Li5  1  0.60770433  0.56114067  0.28180767  1
  Li  Li6  1  0.95343633  0.39229567  0.28180767  1
  Li  Li7  1  0.32268233  0.25054867  0.39959567  1
  Li  Li8  1  0.74945133  0.07213367  0.39959567  1
  Li  Li9  1  0.92786633  0.67731767  0.39959567  1
  Li  Li10  1  0.00000000  0.00000000  0.48425400  1
  Li  Li11  1  0.10552600  0.37989700  0.61514100  1
  Li  Li12  1  0.27437100  0.89447400  0.61514100  1
  Li  Li13  1  0.62010300  0.72562900  0.61514100  1
  Li  Li14  1  0.98934900  0.58388200  0.73292900  1
  Li  Li15  1  0.41611800  0.40546700  0.73292900  1
  Li  Li16  1  0.59453300  0.01065100  0.73292900  1
  Li  Li17  1  0.66666667  0.33333333  0.81758733  1
  Li  Li18  1  0.77219267  0.71323033  0.94847433  1
  Li  Li19  1  0.94103767  0.22780733  0.94847433  1
  Li  Li20  1  0.28676967  0.05896233  0.94847433  1
  Mn  Mn21  1  0.33333333  0.66666667  0.52056567  1
  Mn  Mn22  1  0.00000000  0.00000000  0.85389900  1
  Mn  Mn23  1  0.66666667  0.33333333  0.18723233  1
  Ni  Ni24  1  0.33333333  0.66666667  0.01716967  1
  Ni  Ni25  1  0.33333333  0.66666667  0.81120067  1
  Ni  Ni26  1  0.33333333  0.66666667  0.30874367  1
  Ni  Ni27  1  0.00000000  0.00000000  0.35050300  1
  Ni  Ni28  1  0.00000000  0.00000000  0.14453400  1
  Ni  Ni29  1  0.00000000  0.00000000  0.64207700  1
  Ni  Ni30  1  0.66666667  0.33333333  0.68383633  1
  Ni  Ni31  1  0.66666667  0.33333333  0.47786733  1
  Ni  Ni32  1  0.66666667  0.33333333  0.97541033  1
  P  P33  1  0.38490700  0.04137000  0.08389100  1
  P  P34  1  0.65646300  0.61509300  0.08389100  1
  P  P35  1  0.95863000  0.34353700  0.08389100  1
  P  P36  1  0.71036633  0.00869267  0.24777367  1
  P  P37  1  0.99130733  0.70167367  0.24777367  1
  P  P38  1  0.29832633  0.28963367  0.24777367  1
  P  P39  1  0.05157367  0.37470333  0.41722433  1
  P  P40  1  0.32312967  0.94842633  0.41722433  1
  P  P41  1  0.62529667  0.67687033  0.41722433  1
  P  P42  1  0.37703300  0.34202600  0.58110700  1
  P  P43  1  0.65797400  0.03500700  0.58110700  1
  P  P44  1  0.96499300  0.62296700  0.58110700  1
  P  P45  1  0.71824033  0.70803667  0.75055767  1
  P  P46  1  0.98979633  0.28175967  0.75055767  1
  P  P47  1  0.29196333  0.01020367  0.75055767  1
  P  P48  1  0.04369967  0.67535933  0.91444033  1
  P  P49  1  0.32464067  0.36834033  0.91444033  1
  P  P50  1  0.63165967  0.95630033  0.91444033  1
  O  O51  1  0.19203133  0.00142467  0.08635667  1
  O  O52  1  0.38488633  0.86341567  0.08397867  1
  O  O53  1  0.49749033  0.13566167  0.14199267  1
  O  O54  1  0.35388333  0.87704867  0.35577067  1
  O  O55  1  0.80939333  0.80796867  0.08635667  1
  O  O56  1  0.47852933  0.61511367  0.08397867  1
  O  O57  1  0.52316533  0.64611667  0.35577067  1
  O  O58  1  0.13658433  0.52147067  0.08397867  1
  O  O59  1  0.79104533  0.97766467  0.19007867  1
  O  O60  1  0.71436933  0.19262667  0.24731267  1
  O  O61  1  0.12295133  0.47683467  0.35577067  1
  O  O62  1  0.02233533  0.81338067  0.19007867  1
  O  O63  1  0.63817133  0.50250967  0.14199267  1
  O  O64  1  0.55492867  0.85601133  0.97638533  1
  O  O65  1  0.99857533  0.19060667  0.08635667  1
  O  O66  1  0.86433833  0.36182867  0.14199267  1
  O  O67  1  0.51347200  0.86528900  0.25020600  1
  O  O68  1  0.14398867  0.69891733  0.97638533  1
  O  O69  1  0.13471100  0.64818300  0.25020600  1
  O  O70  1  0.80737333  0.52174267  0.24731267  1
  O  O71  1  0.30108267  0.44507133  0.97638533  1
  O  O72  1  0.18661933  0.20895467  0.19007867  1
  O  O73  1  0.35181700  0.48652800  0.25020600  1
  O  O74  1  0.47825733  0.28563067  0.24731267  1
  O  O75  1  0.85869800  0.33475800  0.41969000  1
  O  O76  1  0.05155300  0.19674900  0.41731200  1
  O  O77  1  0.16415700  0.46899500  0.47532600  1
  O  O78  1  0.02055000  0.21038200  0.68910400  1
  O  O79  1  0.47606000  0.14130200  0.41969000  1
  O  O80  1  0.14519600  0.94844700  0.41731200  1
  O  O81  1  0.18983200  0.97945000  0.68910400  1
  O  O82  1  0.80325100  0.85480400  0.41731200  1
  O  O83  1  0.45771200  0.31099800  0.52341200  1
  O  O84  1  0.38103600  0.52596000  0.58064600  1
  O  O85  1  0.78961800  0.81016800  0.68910400  1
  O  O86  1  0.68900200  0.14671400  0.52341200  1
  O  O87  1  0.30483800  0.83584300  0.47532600  1
  O  O88  1  0.22159533  0.18934467  0.30971867  1
  O  O89  1  0.66524200  0.52394000  0.41969000  1
  O  O90  1  0.53100500  0.69516200  0.47532600  1
  O  O91  1  0.18013867  0.19862233  0.58353933  1
  O  O92  1  0.81065533  0.03225067  0.30971867  1
  O  O93  1  0.80137767  0.98151633  0.58353933  1
  O  O94  1  0.47404000  0.85507600  0.58064600  1
  O  O95  1  0.96774933  0.77840467  0.30971867  1
  O  O96  1  0.85328600  0.54228800  0.52341200  1
  O  O97  1  0.01848367  0.81986133  0.58353933  1
  O  O98  1  0.14492400  0.61896400  0.58064600  1
  O  O99  1  0.52536467  0.66809133  0.75302333  1
  O  O100  1  0.71821967  0.53008233  0.75064533  1
  O  O101  1  0.83082367  0.80232833  0.80865933  1
  O  O102  1  0.68721667  0.54371533  0.02243733  1
  O  O103  1  0.14272667  0.47463533  0.75302333  1
  O  O104  1  0.81186267  0.28178033  0.75064533  1
  O  O105  1  0.85649867  0.31278333  0.02243733  1
  O  O106  1  0.46991767  0.18813733  0.75064533  1
  O  O107  1  0.12437867  0.64433133  0.85674533  1
  O  O108  1  0.04770267  0.85929333  0.91397933  1
  O  O109  1  0.45628467  0.14350133  0.02243733  1
  O  O110  1  0.35566867  0.48004733  0.85674533  1
  O  O111  1  0.97150467  0.16917633  0.80865933  1
  O  O112  1  0.88826200  0.52267800  0.64305200  1
  O  O113  1  0.33190867  0.85727333  0.75302333  1
  O  O114  1  0.19767167  0.02849533  0.80865933  1
  O  O115  1  0.84680533  0.53195567  0.91687267  1
  O  O116  1  0.47732200  0.36558400  0.64305200  1
  O  O117  1  0.46804433  0.31484967  0.91687267  1
  O  O118  1  0.14070667  0.18840933  0.91397933  1
  O  O119  1  0.63441600  0.11173800  0.64305200  1
  O  O120  1  0.51995267  0.87562133  0.85674533  1
  O  O121  1  0.68515033  0.15319467  0.91687267  1
  O  O122  1  0.81159067  0.95229733  0.91397933  1
