# generated using pymatgen
data_Li2MnFe(PO4)2
_symmetry_space_group_name_H-M   'P 1'
_cell_length_a   4.77755404
_cell_length_b   6.13224800
_cell_length_c   10.50909881
_cell_angle_alpha   90.00000000
_cell_angle_beta   90.16909537
_cell_angle_gamma   90.00000000
_symmetry_Int_Tables_number   1
_chemical_formula_structural   Li2MnFe(PO4)2
_chemical_formula_sum   'Li4 Mn2 Fe2 P4 O16'
_cell_volume   307.88526366
_cell_formula_units_Z   2
loop_
 _symmetry_equiv_pos_site_id
 _symmetry_equiv_pos_as_xyz
  1  'x, y, z'
loop_
 _atom_site_type_symbol
 _atom_site_label
 _atom_site_symmetry_multiplicity
 _atom_site_fract_x
 _atom_site_fract_y
 _atom_site_fract_z
 _atom_site_occupancy
  Li  Li0  1  0.50000000  0.00000000  0.50000000  1
  Li  Li1  1  0.50000000  0.50000000  0.50000000  1
  Li  Li2  1  0.00000000  0.50000000  0.00000000  1
  Li  Li3  1  0.00000000  0.00000000  0.00000000  1
  Mn  Mn4  1  0.02433700  0.25000000  0.71907100  1
  Mn  Mn5  1  0.97566300  0.75000000  0.28092900  1
  Fe  Fe6  1  0.47149200  0.25000000  0.21832300  1
  Fe  Fe7  1  0.52850800  0.75000000  0.78167700  1
  P  P8  1  0.41622500  0.75000000  0.09162900  1
  P  P9  1  0.58377500  0.25000000  0.90837100  1
  P  P10  1  0.09123600  0.75000000  0.59442100  1
  P  P11  1  0.90876400  0.25000000  0.40557900  1
  O  O12  1  0.29106200  0.75000000  0.95488100  1
  O  O13  1  0.70893800  0.25000000  0.04511900  1
  O  O14  1  0.26209100  0.25000000  0.90528500  1
  O  O15  1  0.73790900  0.75000000  0.09471500  1
  O  O16  1  0.23054900  0.25000000  0.40149300  1
  O  O17  1  0.76945100  0.75000000  0.59850700  1
  O  O18  1  0.21027300  0.75000000  0.45660000  1
  O  O19  1  0.78972700  0.25000000  0.54340000  1
  O  O20  1  0.28513900  0.95221400  0.16218400  1
  O  O21  1  0.28513900  0.54778600  0.16218400  1
  O  O22  1  0.71486100  0.45221400  0.83781600  1
  O  O23  1  0.71486100  0.04778600  0.83781600  1
  O  O24  1  0.22706200  0.95148300  0.66343000  1
  O  O25  1  0.22706200  0.54851700  0.66343000  1
  O  O26  1  0.77293800  0.45148300  0.33657000  1
  O  O27  1  0.77293800  0.04851700  0.33657000  1
