# generated using pymatgen
data_Li5Nb2V3O10
_symmetry_space_group_name_H-M   'P 1'
_cell_length_a   5.24002820
_cell_length_b   5.25859667
_cell_length_c   7.91992783
_cell_angle_alpha   72.44751050
_cell_angle_beta   71.87722358
_cell_angle_gamma   79.00652925
_symmetry_Int_Tables_number   1
_chemical_formula_structural   Li5Nb2V3O10
_chemical_formula_sum   'Li5 Nb2 V3 O10'
_cell_volume   196.61853686
_cell_formula_units_Z   1
loop_
 _symmetry_equiv_pos_site_id
 _symmetry_equiv_pos_as_xyz
  1  'x, y, z'
loop_
 _atom_site_type_symbol
 _atom_site_label
 _atom_site_symmetry_multiplicity
 _atom_site_fract_x
 _atom_site_fract_y
 _atom_site_fract_z
 _atom_site_occupancy
  Li  Li0  1  0.50000000  0.00000000  0.50000000  1
  Li  Li1  1  0.22848900  0.48224900  0.59634900  1
  Li  Li2  1  0.77151100  0.51775100  0.40365100  1
  Li  Li3  1  0.39597900  0.48889100  0.21383250  1
  Li  Li4  1  0.60402100  0.51110900  0.78616750  1
  Nb  Nb5  1  0.09120100  0.99156900  0.32332400  1
  Nb  Nb6  1  0.90879900  0.00843100  0.67667600  1
  V  V7  1  0.00000000  0.50000000  0.00000000  1
  V  V8  1  0.69399550  0.00486700  0.09863350  1
  V  V9  1  0.30600450  0.99513300  0.90136650  1
  O  O10  1  0.04931300  0.75097100  0.14520950  1
  O  O11  1  0.95068700  0.24902900  0.85479050  1
  O  O12  1  0.32832650  0.25097000  0.06219200  1
  O  O13  1  0.67167350  0.74903000  0.93780800  1
  O  O14  1  0.16103650  0.25214300  0.45397150  1
  O  O15  1  0.83896350  0.74785700  0.54602850  1
  O  O16  1  0.22758950  0.74886600  0.75354550  1
  O  O17  1  0.77241050  0.25113400  0.24645450  1
  O  O18  1  0.43195050  0.76654700  0.34434500  1
  O  O19  1  0.56804950  0.23345300  0.65565500  1
