# generated using pymatgen
data_Li2MnO2F
_symmetry_space_group_name_H-M   'P 1'
_cell_length_a   9.02561748
_cell_length_b   5.28036918
_cell_length_c   5.57345729
_cell_angle_alpha   90.00000000
_cell_angle_beta   110.96146320
_cell_angle_gamma   90.00000000
_symmetry_Int_Tables_number   1
_chemical_formula_structural   Li2MnO2F
_chemical_formula_sum   'Li8 Mn4 O8 F4'
_cell_volume   248.04452282
_cell_formula_units_Z   4
loop_
 _symmetry_equiv_pos_site_id
 _symmetry_equiv_pos_as_xyz
  1  'x, y, z'
loop_
 _atom_site_type_symbol
 _atom_site_label
 _atom_site_symmetry_multiplicity
 _atom_site_fract_x
 _atom_site_fract_y
 _atom_site_fract_z
 _atom_site_occupancy
  Li  Li0  1  0.32888425  0.93238225  0.91593350  1
  Li  Li1  1  0.32888425  0.06761775  0.41593350  1
  Li  Li2  1  0.67111575  0.93238225  0.58406650  1
  Li  Li3  1  0.67111575  0.06761775  0.08406650  1
  Li  Li4  1  0.82888425  0.43238225  0.91593350  1
  Li  Li5  1  0.82888425  0.56761775  0.41593350  1
  Li  Li6  1  0.17111575  0.43238225  0.58406650  1
  Li  Li7  1  0.17111575  0.56761775  0.08406650  1
  Mn  Mn8  1  0.50000000  0.46884800  0.25000000  1
  Mn  Mn9  1  0.50000000  0.53115200  0.75000000  1
  Mn  Mn10  1  0.00000000  0.96884800  0.25000000  1
  Mn  Mn11  1  0.00000000  0.03115200  0.75000000  1
  O  O12  1  0.15450475  0.04077075  0.58635150  1
  O  O13  1  0.15450475  0.95922925  0.08635150  1
  O  O14  1  0.84549525  0.04077075  0.91364850  1
  O  O15  1  0.84549525  0.95922925  0.41364850  1
  O  O16  1  0.65450475  0.54077075  0.58635150  1
  O  O17  1  0.65450475  0.45922925  0.08635150  1
  O  O18  1  0.34549525  0.54077075  0.91364850  1
  O  O19  1  0.34549525  0.45922925  0.41364850  1
  F  F20  1  0.50000000  0.03849825  0.25000000  1
  F  F21  1  0.50000000  0.96150175  0.75000000  1
  F  F22  1  0.00000000  0.53849825  0.25000000  1
  F  F23  1  0.00000000  0.46150175  0.75000000  1
