# generated using pymatgen
data_Fe10O11F9
_symmetry_space_group_name_H-M   'P 1'
_cell_length_a   6.39027000
_cell_length_b   7.11257200
_cell_length_c   15.25679600
_cell_angle_alpha   90.00000000
_cell_angle_beta   90.00000000
_cell_angle_gamma   90.00000000
_symmetry_Int_Tables_number   1
_chemical_formula_structural   Fe10O11F9
_chemical_formula_sum   'Fe20 O22 F18'
_cell_volume   693.44053272
_cell_formula_units_Z   2
loop_
 _symmetry_equiv_pos_site_id
 _symmetry_equiv_pos_as_xyz
  1  'x, y, z'
loop_
 _atom_site_type_symbol
 _atom_site_label
 _atom_site_symmetry_multiplicity
 _atom_site_fract_x
 _atom_site_fract_y
 _atom_site_fract_z
 _atom_site_occupancy
  Fe  Fe0  1  0.50000000  0.48974500  0.40553600  1
  Fe  Fe1  1  0.50000000  0.48974500  0.59446400  1
  Fe  Fe2  1  0.50000000  0.50022800  0.79710500  1
  Fe  Fe3  1  0.50000000  0.49986800  0.00000000  1
  Fe  Fe4  1  0.50000000  0.50022800  0.20289500  1
  Fe  Fe5  1  0.50000000  0.03254400  0.50000000  1
  Fe  Fe6  1  0.50000000  0.99993700  0.89942800  1
  Fe  Fe7  1  0.50000000  0.99651900  0.69855200  1
  Fe  Fe8  1  0.50000000  0.99993700  0.10057200  1
  Fe  Fe9  1  0.50000000  0.99651900  0.30144800  1
  Fe  Fe10  1  0.00000000  0.98974500  0.40553600  1
  Fe  Fe11  1  0.00000000  0.98974500  0.59446400  1
  Fe  Fe12  1  0.00000000  0.00022800  0.79710500  1
  Fe  Fe13  1  0.00000000  0.99986800  0.00000000  1
  Fe  Fe14  1  0.00000000  0.00022800  0.20289500  1
  Fe  Fe15  1  0.00000000  0.53254400  0.50000000  1
  Fe  Fe16  1  0.00000000  0.49993700  0.89942800  1
  Fe  Fe17  1  0.00000000  0.49651900  0.69855200  1
  Fe  Fe18  1  0.00000000  0.49993700  0.10057200  1
  Fe  Fe19  1  0.00000000  0.49651900  0.30144800  1
  O  O20  1  0.50000000  0.31210200  0.50000000  1
  O  O21  1  0.30371300  0.00288500  0.39853200  1
  O  O22  1  0.30371300  0.00288500  0.60146800  1
  O  O23  1  0.30162500  0.99818200  0.79925000  1
  O  O24  1  0.30065400  0.00012500  0.00000000  1
  O  O25  1  0.30162500  0.99818200  0.20075000  1
  O  O26  1  0.69628700  0.00288500  0.39853200  1
  O  O27  1  0.69628700  0.00288500  0.60146800  1
  O  O28  1  0.69837500  0.99818200  0.79925000  1
  O  O29  1  0.69934600  0.00012500  0.00000000  1
  O  O30  1  0.69837500  0.99818200  0.20075000  1
  O  O31  1  0.00000000  0.81210200  0.50000000  1
  O  O32  1  0.80371300  0.50288500  0.39853200  1
  O  O33  1  0.80371300  0.50288500  0.60146800  1
  O  O34  1  0.80162500  0.49818200  0.79925000  1
  O  O35  1  0.80065400  0.50012500  0.00000000  1
  O  O36  1  0.80162500  0.49818200  0.20075000  1
  O  O37  1  0.19628700  0.50288500  0.39853200  1
  O  O38  1  0.19628700  0.50288500  0.60146800  1
  O  O39  1  0.19837500  0.49818200  0.79925000  1
  O  O40  1  0.19934600  0.50012500  0.00000000  1
  O  O41  1  0.19837500  0.49818200  0.20075000  1
  F  F42  1  0.50000000  0.30628800  0.70028000  1
  F  F43  1  0.50000000  0.30780000  0.89962300  1
  F  F44  1  0.50000000  0.30780000  0.10037700  1
  F  F45  1  0.50000000  0.30628800  0.29972000  1
  F  F46  1  0.50000000  0.69137600  0.50000000  1
  F  F47  1  0.50000000  0.69147200  0.89929400  1
  F  F48  1  0.50000000  0.68780700  0.69822200  1
  F  F49  1  0.50000000  0.68780700  0.30177800  1
  F  F50  1  0.50000000  0.69147200  0.10070600  1
  F  F51  1  0.00000000  0.80628800  0.70028000  1
  F  F52  1  0.00000000  0.80780000  0.89962300  1
  F  F53  1  0.00000000  0.80780000  0.10037700  1
  F  F54  1  0.00000000  0.80628800  0.29972000  1
  F  F55  1  0.00000000  0.19137600  0.50000000  1
  F  F56  1  0.00000000  0.19147200  0.89929400  1
  F  F57  1  0.00000000  0.18780700  0.69822200  1
  F  F58  1  0.00000000  0.18780700  0.30177800  1
  F  F59  1  0.00000000  0.19147200  0.10070600  1
