# generated using pymatgen
data_LiVFeO4
_symmetry_space_group_name_H-M   'P 1'
_cell_length_a   5.85732185
_cell_length_b   8.68682034
_cell_length_c   6.37904700
_cell_angle_alpha   90.00000000
_cell_angle_beta   90.00000000
_cell_angle_gamma   90.00000000
_symmetry_Int_Tables_number   1
_chemical_formula_structural   LiVFeO4
_chemical_formula_sum   'Li4 V4 Fe4 O16'
_cell_volume   324.57549635
_cell_formula_units_Z   4
loop_
 _symmetry_equiv_pos_site_id
 _symmetry_equiv_pos_as_xyz
  1  'x, y, z'
loop_
 _atom_site_type_symbol
 _atom_site_label
 _atom_site_symmetry_multiplicity
 _atom_site_fract_x
 _atom_site_fract_y
 _atom_site_fract_z
 _atom_site_occupancy
  Li  Li0  1  0.50000000  0.33652250  0.75000000  1
  Li  Li1  1  0.50000000  0.66347750  0.25000000  1
  Li  Li2  1  0.00000000  0.83652250  0.75000000  1
  Li  Li3  1  0.00000000  0.16347750  0.25000000  1
  V  V4  1  0.50000000  0.35317050  0.25000000  1
  V  V5  1  0.50000000  0.64682950  0.75000000  1
  V  V6  1  0.00000000  0.85317050  0.25000000  1
  V  V7  1  0.00000000  0.14682950  0.75000000  1
  Fe  Fe8  1  0.00000000  0.50000000  0.00000000  1
  Fe  Fe9  1  0.00000000  0.50000000  0.50000000  1
  Fe  Fe10  1  0.50000000  0.00000000  0.00000000  1
  Fe  Fe11  1  0.50000000  0.00000000  0.50000000  1
  O  O12  1  0.50000000  0.23851500  0.02835600  1
  O  O13  1  0.50000000  0.23851500  0.47164400  1
  O  O14  1  0.50000000  0.76148500  0.97164400  1
  O  O15  1  0.50000000  0.76148500  0.52835600  1
  O  O16  1  0.26301550  0.47917900  0.25000000  1
  O  O17  1  0.26301550  0.52082100  0.75000000  1
  O  O18  1  0.73698450  0.47917900  0.25000000  1
  O  O19  1  0.73698450  0.52082100  0.75000000  1
  O  O20  1  0.00000000  0.73851500  0.02835600  1
  O  O21  1  0.00000000  0.73851500  0.47164400  1
  O  O22  1  0.00000000  0.26148500  0.97164400  1
  O  O23  1  0.00000000  0.26148500  0.52835600  1
  O  O24  1  0.76301550  0.97917900  0.25000000  1
  O  O25  1  0.76301550  0.02082100  0.75000000  1
  O  O26  1  0.23698450  0.97917900  0.25000000  1
  O  O27  1  0.23698450  0.02082100  0.75000000  1
