# generated using pymatgen
data_Fe2OF3
_symmetry_space_group_name_H-M   'P 1'
_cell_length_a   9.33994600
_cell_length_b   6.80218200
_cell_length_c   7.63269796
_cell_angle_alpha   90.00000000
_cell_angle_beta   114.67446989
_cell_angle_gamma   90.00000000
_symmetry_Int_Tables_number   1
_chemical_formula_structural   Fe2OF3
_chemical_formula_sum   'Fe12 O6 F18'
_cell_volume   440.64463388
_cell_formula_units_Z   6
loop_
 _symmetry_equiv_pos_site_id
 _symmetry_equiv_pos_as_xyz
  1  'x, y, z'
loop_
 _atom_site_type_symbol
 _atom_site_label
 _atom_site_symmetry_multiplicity
 _atom_site_fract_x
 _atom_site_fract_y
 _atom_site_fract_z
 _atom_site_occupancy
  Fe  Fe0  1  0.16669950  0.49851750  0.16730800  1
  Fe  Fe1  1  0.16790050  0.52207950  0.66700000  1
  Fe  Fe2  1  0.83209950  0.52207950  0.33300000  1
  Fe  Fe3  1  0.83330050  0.49851750  0.83269200  1
  Fe  Fe4  1  0.00000000  0.97858500  0.50000000  1
  Fe  Fe5  1  0.00000000  0.96829300  0.00000000  1
  Fe  Fe6  1  0.66669950  0.99851750  0.16730800  1
  Fe  Fe7  1  0.66790050  0.02207950  0.66700000  1
  Fe  Fe8  1  0.33209950  0.02207950  0.33300000  1
  Fe  Fe9  1  0.33330050  0.99851750  0.83269200  1
  Fe  Fe10  1  0.50000000  0.47858500  0.50000000  1
  Fe  Fe11  1  0.50000000  0.46829300  0.00000000  1
  O  O12  1  0.82993750  0.82277750  0.32989900  1
  O  O13  1  0.17006250  0.82277750  0.67010100  1
  O  O14  1  0.00000000  0.66702000  0.00000000  1
  O  O15  1  0.32993750  0.32277750  0.32989900  1
  O  O16  1  0.67006250  0.32277750  0.67010100  1
  O  O17  1  0.50000000  0.16702000  0.00000000  1
  F  F18  1  0.83236650  0.20298250  0.33376700  1
  F  F19  1  0.16763350  0.20298250  0.66623300  1
  F  F20  1  0.73447350  0.49684150  0.03076300  1
  F  F21  1  0.40367300  0.50718500  0.69679900  1
  F  F22  1  0.06812550  0.49790450  0.36408500  1
  F  F23  1  0.26552650  0.49684150  0.96923700  1
  F  F24  1  0.59632700  0.50718500  0.30320100  1
  F  F25  1  0.93187450  0.49790450  0.63591500  1
  F  F26  1  0.00000000  0.28952800  0.00000000  1
  F  F27  1  0.33236650  0.70298250  0.33376700  1
  F  F28  1  0.66763350  0.70298250  0.66623300  1
  F  F29  1  0.23447350  0.99684150  0.03076300  1
  F  F30  1  0.90367300  0.00718500  0.69679900  1
  F  F31  1  0.56812550  0.99790450  0.36408500  1
  F  F32  1  0.76552650  0.99684150  0.96923700  1
  F  F33  1  0.09632700  0.00718500  0.30320100  1
  F  F34  1  0.43187450  0.99790450  0.63591500  1
  F  F35  1  0.50000000  0.78952800  0.00000000  1
