# generated using pymatgen
data_Li6VO4F
_symmetry_space_group_name_H-M   'P 1'
_cell_length_a   4.99532250
_cell_length_b   9.59988773
_cell_length_c   5.26944083
_cell_angle_alpha   90.00000000
_cell_angle_beta   115.64980123
_cell_angle_gamma   90.00000000
_symmetry_Int_Tables_number   1
_chemical_formula_structural   Li6VO4F
_chemical_formula_sum   'Li12 V2 O8 F2'
_cell_volume   227.79230483
_cell_formula_units_Z   2
loop_
 _symmetry_equiv_pos_site_id
 _symmetry_equiv_pos_as_xyz
  1  'x, y, z'
loop_
 _atom_site_type_symbol
 _atom_site_label
 _atom_site_symmetry_multiplicity
 _atom_site_fract_x
 _atom_site_fract_y
 _atom_site_fract_z
 _atom_site_occupancy
  Li  Li0  1  0.56537775  0.25874750  0.90866625  1
  Li  Li1  1  0.43462225  0.75874750  0.09133375  1
  Li  Li2  1  0.80280125  0.75666200  0.87518875  1
  Li  Li3  1  0.19719875  0.25666200  0.12481125  1
  Li  Li4  1  0.27588475  0.99894150  0.98314525  1
  Li  Li5  1  0.72411525  0.49894150  0.01685475  1
  Li  Li6  1  0.21716775  0.49598750  0.94759975  1
  Li  Li7  1  0.78283225  0.99598750  0.05240025  1
  Li  Li8  1  0.72901375  0.54989550  0.51725175  1
  Li  Li9  1  0.27098625  0.04989550  0.48274825  1
  Li  Li10  1  0.66794825  0.93842800  0.50553375  1
  Li  Li11  1  0.33205175  0.43842800  0.49446625  1
  V  V12  1  0.81750875  0.25854650  0.49824475  1
  V  V13  1  0.18249125  0.75854650  0.50175525  1
  O  O14  1  0.45341675  0.90057450  0.77966175  1
  O  O15  1  0.54658325  0.40057450  0.22033825  1
  O  O16  1  0.40714375  0.60718150  0.75449825  1
  O  O17  1  0.59285625  0.10718150  0.24550175  1
  O  O18  1  0.85135625  0.38209400  0.80402625  1
  O  O19  1  0.14864375  0.88209400  0.19597375  1
  O  O20  1  0.78699175  0.74728050  0.48217675  1
  O  O21  1  0.21300825  0.24728050  0.51782325  1
  F  F22  1  0.92752425  0.10414000  0.83339725  1
  F  F23  1  0.07247575  0.60414000  0.16660275  1
