# generated using pymatgen
data_Li3Mn2Fe(BO3)3
_symmetry_space_group_name_H-M   'P 1'
_cell_length_a   8.27087400
_cell_length_b   3.17341800
_cell_length_c   14.32463868
_cell_angle_alpha   90.00000000
_cell_angle_beta   90.16400028
_cell_angle_gamma   90.00000000
_symmetry_Int_Tables_number   1
_chemical_formula_structural   Li3Mn2Fe(BO3)3
_chemical_formula_sum   'Li6 Mn4 Fe2 B6 O18'
_cell_volume   375.97639791
_cell_formula_units_Z   2
loop_
 _symmetry_equiv_pos_site_id
 _symmetry_equiv_pos_as_xyz
  1  'x, y, z'
loop_
 _atom_site_type_symbol
 _atom_site_label
 _atom_site_symmetry_multiplicity
 _atom_site_fract_x
 _atom_site_fract_y
 _atom_site_fract_z
 _atom_site_occupancy
  Li  Li0  1  0.29230800  0.50000000  0.00749600  1
  Li  Li1  1  0.33838500  0.50000000  0.64145400  1
  Li  Li2  1  0.36508800  0.50000000  0.35012700  1
  Li  Li3  1  0.79286500  0.50000000  0.50920500  1
  Li  Li4  1  0.84170200  0.50000000  0.14210200  1
  Li  Li5  1  0.86799800  0.50000000  0.84851700  1
  Mn  Mn6  1  0.17417900  0.00000000  0.18609200  1
  Mn  Mn7  1  0.63383800  0.00000000  0.99404900  1
  Mn  Mn8  1  0.67381000  0.00000000  0.68572300  1
  Mn  Mn9  1  0.69134800  0.00000000  0.32047000  1
  Fe  Fe10  1  0.13714900  0.00000000  0.49632800  1
  Fe  Fe11  1  0.18730900  0.00000000  0.82051700  1
  B  B12  1  0.00055200  0.50000000  0.33511200  1
  B  B13  1  0.00196200  0.00000000  0.99951800  1
  B  B14  1  0.00207400  0.50000000  0.66669600  1
  B  B15  1  0.49781600  0.50000000  0.83263700  1
  B  B16  1  0.49849500  0.00000000  0.49921600  1
  B  B17  1  0.50013900  0.50000000  0.16669000  1
  O  O18  1  0.01468900  0.50000000  0.56973300  1
  O  O19  1  0.01518500  0.50000000  0.23803900  1
  O  O20  1  0.13743900  0.50000000  0.39175300  1
  O  O21  1  0.14069500  0.50000000  0.72209700  1
  O  O22  1  0.15531900  0.00000000  0.03964700  1
  O  O23  1  0.34501700  0.50000000  0.87287600  1
  O  O24  1  0.35030100  0.50000000  0.21026200  1
  O  O25  1  0.36093200  0.00000000  0.55554900  1
  O  O26  1  0.48147300  0.00000000  0.40256800  1
  O  O27  1  0.50956300  0.50000000  0.06975100  1
  O  O28  1  0.51375000  0.50000000  0.73575000  1
  O  O29  1  0.63660800  0.50000000  0.88849600  1
  O  O30  1  0.64095800  0.50000000  0.21979800  1
  O  O31  1  0.65215300  0.00000000  0.53965300  1
  O  O32  1  0.84731400  0.50000000  0.37531300  1
  O  O33  1  0.85056200  0.50000000  0.70841500  1
  O  O34  1  0.86486400  0.00000000  0.05601000  1
  O  O35  1  0.98615800  0.00000000  0.90234400  1
