# generated using pymatgen
data_Rb3LiZn2(MoO4)4
_symmetry_space_group_name_H-M   'P 1'
_cell_length_a   12.14439800
_cell_length_b   12.14439800
_cell_length_c   12.07058000
_cell_angle_alpha   90.00000000
_cell_angle_beta   90.00000000
_cell_angle_gamma   90.00000000
_symmetry_Int_Tables_number   1
_chemical_formula_structural   Rb3LiZn2(MoO4)4
_chemical_formula_sum   'Rb12 Li4 Zn8 Mo16 O64'
_cell_volume   1780.24642370
_cell_formula_units_Z   4
loop_
 _symmetry_equiv_pos_site_id
 _symmetry_equiv_pos_as_xyz
  1  'x, y, z'
loop_
 _atom_site_type_symbol
 _atom_site_label
 _atom_site_symmetry_multiplicity
 _atom_site_fract_x
 _atom_site_fract_y
 _atom_site_fract_z
 _atom_site_occupancy
  Rb  Rb0  1  0.00000000  0.00000000  0.50000000  1
  Rb  Rb1  1  0.50000000  0.00000000  0.75000000  1
  Rb  Rb2  1  0.25000000  0.37671300  0.62500000  1
  Rb  Rb3  1  0.37671300  0.75000000  0.37500000  1
  Rb  Rb4  1  0.75000000  0.62328700  0.62500000  1
  Rb  Rb5  1  0.62328700  0.25000000  0.37500000  1
  Rb  Rb6  1  0.50000000  0.50000000  0.00000000  1
  Rb  Rb7  1  0.00000000  0.50000000  0.25000000  1
  Rb  Rb8  1  0.75000000  0.87671300  0.12500000  1
  Rb  Rb9  1  0.87671300  0.25000000  0.87500000  1
  Rb  Rb10  1  0.25000000  0.12328700  0.12500000  1
  Rb  Rb11  1  0.12328700  0.75000000  0.87500000  1
  Li  Li12  1  0.50000000  0.50000000  0.50000000  1
  Li  Li13  1  0.50000000  0.00000000  0.25000000  1
  Li  Li14  1  0.00000000  0.00000000  0.00000000  1
  Li  Li15  1  0.00000000  0.50000000  0.75000000  1
  Zn  Zn16  1  0.37536200  0.25000000  0.87500000  1
  Zn  Zn17  1  0.75000000  0.37536200  0.12500000  1
  Zn  Zn18  1  0.12463800  0.25000000  0.37500000  1
  Zn  Zn19  1  0.75000000  0.12463800  0.62500000  1
  Zn  Zn20  1  0.87536200  0.75000000  0.37500000  1
  Zn  Zn21  1  0.25000000  0.87536200  0.62500000  1
  Zn  Zn22  1  0.62463800  0.75000000  0.87500000  1
  Zn  Zn23  1  0.25000000  0.62463800  0.12500000  1
  Mo  Mo24  1  0.64216000  0.60756400  0.26827100  1
  Mo  Mo25  1  0.89243600  0.35784000  0.51827100  1
  Mo  Mo26  1  0.60756400  0.14216000  0.01827100  1
  Mo  Mo27  1  0.89243600  0.14216000  0.23172900  1
  Mo  Mo28  1  0.85784000  0.60756400  0.98172900  1
  Mo  Mo29  1  0.64216000  0.89243600  0.48172900  1
  Mo  Mo30  1  0.60756400  0.35784000  0.73172900  1
  Mo  Mo31  1  0.85784000  0.89243600  0.76827100  1
  Mo  Mo32  1  0.14216000  0.10756400  0.76827100  1
  Mo  Mo33  1  0.39243600  0.85784000  0.01827100  1
  Mo  Mo34  1  0.10756400  0.64216000  0.51827100  1
  Mo  Mo35  1  0.39243600  0.64216000  0.73172900  1
  Mo  Mo36  1  0.35784000  0.10756400  0.48172900  1
  Mo  Mo37  1  0.14216000  0.39243600  0.98172900  1
  Mo  Mo38  1  0.10756400  0.85784000  0.23172900  1
  Mo  Mo39  1  0.35784000  0.39243600  0.26827100  1
  O  O40  1  0.05843000  0.19073500  0.68420500  1
  O  O41  1  0.77952700  0.67010900  0.27245500  1
  O  O42  1  0.10262350  0.58093750  0.65224850  1
  O  O43  1  0.47001650  0.14691350  0.95539450  1
  O  O44  1  0.80926500  0.44157000  0.43420500  1
  O  O45  1  0.64691350  0.47001650  0.20539450  1
  O  O46  1  0.02998350  0.35308650  0.45539450  1
  O  O47  1  0.47001650  0.35308650  0.79460550  1
  O  O48  1  0.82989100  0.27952700  0.22754500  1
  O  O49  1  0.85308650  0.47001650  0.04460550  1
  O  O50  1  0.17010900  0.77952700  0.52245500  1
  O  O51  1  0.80926500  0.05843000  0.31579500  1
  O  O52  1  0.64691350  0.02998350  0.54460550  1
  O  O53  1  0.22047300  0.17010900  0.47754500  1
  O  O54  1  0.02998350  0.14691350  0.29460550  1
  O  O55  1  0.72047300  0.82989100  0.77245500  1
  O  O56  1  0.44157000  0.19073500  0.56579500  1
  O  O57  1  0.05843000  0.30926500  0.06579500  1
  O  O58  1  0.69073500  0.05843000  0.93420500  1
  O  O59  1  0.39737650  0.58093750  0.59775150  1
  O  O60  1  0.67010900  0.22047300  0.72754500  1
  O  O61  1  0.58093750  0.89737650  0.34775150  1
  O  O62  1  0.19073500  0.94157000  0.31579500  1
  O  O63  1  0.41906250  0.10262350  0.34775150  1
  O  O64  1  0.77952700  0.82989100  0.47754500  1
  O  O65  1  0.58093750  0.60262350  0.40224850  1
  O  O66  1  0.60262350  0.41906250  0.59775150  1
  O  O67  1  0.41906250  0.39737650  0.40224850  1
  O  O68  1  0.85308650  0.02998350  0.70539450  1
  O  O69  1  0.89737650  0.41906250  0.65224850  1
  O  O70  1  0.94157000  0.80926500  0.68420500  1
  O  O71  1  0.82989100  0.22047300  0.52245500  1
  O  O72  1  0.55843000  0.69073500  0.18420500  1
  O  O73  1  0.27952700  0.17010900  0.77245500  1
  O  O74  1  0.60262350  0.08093750  0.15224850  1
  O  O75  1  0.97001650  0.64691350  0.45539450  1
  O  O76  1  0.30926500  0.94157000  0.93420500  1
  O  O77  1  0.14691350  0.97001650  0.70539450  1
  O  O78  1  0.52998350  0.85308650  0.95539450  1
  O  O79  1  0.97001650  0.85308650  0.29460550  1
  O  O80  1  0.32989100  0.77952700  0.72754500  1
  O  O81  1  0.35308650  0.97001650  0.54460550  1
  O  O82  1  0.67010900  0.27952700  0.02245500  1
  O  O83  1  0.30926500  0.55843000  0.81579500  1
  O  O84  1  0.14691350  0.52998350  0.04460550  1
  O  O85  1  0.72047300  0.67010900  0.97754500  1
  O  O86  1  0.52998350  0.64691350  0.79460550  1
  O  O87  1  0.22047300  0.32989100  0.27245500  1
  O  O88  1  0.94157000  0.69073500  0.06579500  1
  O  O89  1  0.55843000  0.80926500  0.56579500  1
  O  O90  1  0.19073500  0.55843000  0.43420500  1
  O  O91  1  0.89737650  0.08093750  0.09775150  1
  O  O92  1  0.17010900  0.72047300  0.22754500  1
  O  O93  1  0.08093750  0.39737650  0.84775150  1
  O  O94  1  0.69073500  0.44157000  0.81579500  1
  O  O95  1  0.91906250  0.60262350  0.84775150  1
  O  O96  1  0.27952700  0.32989100  0.97754500  1
  O  O97  1  0.08093750  0.10262350  0.90224850  1
  O  O98  1  0.10262350  0.91906250  0.09775150  1
  O  O99  1  0.91906250  0.89737650  0.90224850  1
  O  O100  1  0.35308650  0.52998350  0.20539450  1
  O  O101  1  0.39737650  0.91906250  0.15224850  1
  O  O102  1  0.44157000  0.30926500  0.18420500  1
  O  O103  1  0.32989100  0.72047300  0.02245500  1
