# generated using pymatgen
data_V6O7F5
_symmetry_space_group_name_H-M   'P 1'
_cell_length_a   4.69214600
_cell_length_b   9.31877400
_cell_length_c   4.69884462
_cell_angle_alpha   90.00000000
_cell_angle_beta   92.69930550
_cell_angle_gamma   90.00000000
_symmetry_Int_Tables_number   1
_chemical_formula_structural   V6O7F5
_chemical_formula_sum   'V6 O7 F5'
_cell_volume   205.22924147
_cell_formula_units_Z   1
loop_
 _symmetry_equiv_pos_site_id
 _symmetry_equiv_pos_as_xyz
  1  'x, y, z'
loop_
 _atom_site_type_symbol
 _atom_site_label
 _atom_site_symmetry_multiplicity
 _atom_site_fract_x
 _atom_site_fract_y
 _atom_site_fract_z
 _atom_site_occupancy
  V  V0  1  0.00826500  0.67336000  0.98350300  1
  V  V1  1  0.00826500  0.32664000  0.98350300  1
  V  V2  1  0.04306500  0.00000000  0.00736600  1
  V  V3  1  0.49987900  0.50000000  0.48886000  1
  V  V4  1  0.47469700  0.82470800  0.51409100  1
  V  V5  1  0.47469700  0.17529200  0.51409100  1
  O  O6  1  0.19582600  0.16855400  0.80716700  1
  O  O7  1  0.19582600  0.83144600  0.80716700  1
  O  O8  1  0.29774600  0.65571900  0.30021300  1
  O  O9  1  0.29774600  0.34428100  0.30021300  1
  O  O10  1  0.31334600  0.00000000  0.31816900  1
  O  O11  1  0.69269300  0.65752700  0.68852000  1
  O  O12  1  0.69269300  0.34247300  0.68852000  1
  F  F13  1  0.20037800  0.50000000  0.79274700  1
  F  F14  1  0.69977200  0.00000000  0.71676500  1
  F  F15  1  0.80182400  0.50000000  0.18449700  1
  F  F16  1  0.80164200  0.83537400  0.20230400  1
  F  F17  1  0.80164200  0.16462600  0.20230400  1
