# generated using pymatgen
data_LiFe4(PO4)3
_symmetry_space_group_name_H-M   'P 1'
_cell_length_a   9.35551600
_cell_length_b   6.46609000
_cell_length_c   14.92721269
_cell_angle_alpha   90.00000000
_cell_angle_beta   90.65375328
_cell_angle_gamma   90.00000000
_symmetry_Int_Tables_number   1
_chemical_formula_structural   LiFe4(PO4)3
_chemical_formula_sum   'Li4 Fe16 P12 O48'
_cell_volume   902.94217872
_cell_formula_units_Z   4
loop_
 _symmetry_equiv_pos_site_id
 _symmetry_equiv_pos_as_xyz
  1  'x, y, z'
loop_
 _atom_site_type_symbol
 _atom_site_label
 _atom_site_symmetry_multiplicity
 _atom_site_fract_x
 _atom_site_fract_y
 _atom_site_fract_z
 _atom_site_occupancy
  Li  Li0  1  0.83690700  0.00000000  0.15517500  1
  Li  Li1  1  0.66399800  0.50000000  0.32209900  1
  Li  Li2  1  0.66491100  0.50000000  0.65601200  1
  Li  Li3  1  0.66971100  0.50000000  0.99625500  1
  Fe  Fe4  1  0.97988500  0.24311500  0.66548800  1
  Fe  Fe5  1  0.99395400  0.24144300  0.00101700  1
  Fe  Fe6  1  0.99569900  0.23692800  0.33505900  1
  Fe  Fe7  1  0.99395400  0.75855700  0.00101700  1
  Fe  Fe8  1  0.99569900  0.76307200  0.33505900  1
  Fe  Fe9  1  0.97988500  0.75688500  0.66548800  1
  Fe  Fe10  1  0.50111200  0.76219300  0.16303400  1
  Fe  Fe11  1  0.50111200  0.23780700  0.16303400  1
  Fe  Fe12  1  0.51701500  0.76469000  0.48869700  1
  Fe  Fe13  1  0.51178200  0.75497000  0.83572600  1
  Fe  Fe14  1  0.51701500  0.23531000  0.48869700  1
  Fe  Fe15  1  0.51178200  0.24503000  0.83572600  1
  Fe  Fe16  1  0.34868200  0.00000000  0.67642400  1
  Fe  Fe17  1  0.14791100  0.50000000  0.84207200  1
  Fe  Fe18  1  0.14178600  0.50000000  0.50193700  1
  Fe  Fe19  1  0.15598500  0.50000000  0.17497400  1
  P  P20  1  0.82078400  0.50000000  0.16020500  1
  P  P21  1  0.82560800  0.50000000  0.48871400  1
  P  P22  1  0.82550700  0.50000000  0.82518300  1
  P  P23  1  0.67549500  0.00000000  0.32125900  1
  P  P24  1  0.67179200  0.00000000  0.65750100  1
  P  P25  1  0.67919800  0.00000000  0.99335100  1
  P  P26  1  0.32513500  0.50000000  0.34679900  1
  P  P27  1  0.32508700  0.50000000  0.01085300  1
  P  P28  1  0.31564200  0.50000000  0.67489900  1
  P  P29  1  0.17983000  0.00000000  0.17255900  1
  P  P30  1  0.18343500  0.00000000  0.84007400  1
  P  P31  1  0.17464700  0.00000000  0.50949000  1
  O  O32  1  0.88568600  0.69580600  0.11753600  1
  O  O33  1  0.89052000  0.69430600  0.78311600  1
  O  O34  1  0.89343300  0.69417300  0.44849600  1
  O  O35  1  0.89343300  0.30582700  0.44849600  1
  O  O36  1  0.89052000  0.30569400  0.78311600  1
  O  O37  1  0.88568600  0.30419400  0.11753600  1
  O  O38  1  0.85892400  0.50000000  0.26246100  1
  O  O39  1  0.85692500  0.50000000  0.59295000  1
  O  O40  1  0.86258800  0.50000000  0.92837200  1
  O  O41  1  0.84180300  0.00000000  0.30147000  1
  O  O42  1  0.84605400  0.00000000  0.98576800  1
  O  O43  1  0.83639700  0.00000000  0.64795000  1
  O  O44  1  0.65580500  0.50000000  0.13935200  1
  O  O45  1  0.65997900  0.50000000  0.46773300  1
  O  O46  1  0.65842000  0.50000000  0.80525300  1
  O  O47  1  0.63820000  0.00000000  0.42221300  1
  O  O48  1  0.63859000  0.00000000  0.09493400  1
  O  O49  1  0.61757400  0.00000000  0.75611300  1
  O  O50  1  0.62266100  0.79943900  0.94940900  1
  O  O51  1  0.61621900  0.79938000  0.27796500  1
  O  O52  1  0.61041900  0.80155900  0.61187700  1
  O  O53  1  0.61041900  0.19844100  0.61187700  1
  O  O54  1  0.62266100  0.20056100  0.94940900  1
  O  O55  1  0.61621900  0.20062000  0.27796500  1
  O  O56  1  0.38271800  0.69712100  0.05327700  1
  O  O57  1  0.38141900  0.69680600  0.39063000  1
  O  O58  1  0.38243700  0.69515000  0.71883300  1
  O  O59  1  0.38271800  0.30287900  0.05327700  1
  O  O60  1  0.38141900  0.30319400  0.39063000  1
  O  O61  1  0.38243700  0.30485000  0.71883300  1
  O  O62  1  0.35360600  0.50000000  0.24307600  1
  O  O63  1  0.35294400  0.50000000  0.90634600  1
  O  O64  1  0.33975400  0.50000000  0.57299700  1
  O  O65  1  0.34344400  0.00000000  0.18303700  1
  O  O66  1  0.35012200  0.00000000  0.84355900  1
  O  O67  1  0.34090100  0.00000000  0.53306600  1
  O  O68  1  0.15127700  0.50000000  0.69894500  1
  O  O69  1  0.15387700  0.50000000  0.02745500  1
  O  O70  1  0.15454100  0.50000000  0.36150400  1
  O  O71  1  0.13949400  0.00000000  0.73781400  1
  O  O72  1  0.13181000  0.00000000  0.41033400  1
  O  O73  1  0.11854600  0.00000000  0.07561400  1
  O  O74  1  0.12487900  0.19723100  0.88608900  1
  O  O75  1  0.12487900  0.80276900  0.88608900  1
  O  O76  1  0.11666200  0.19901400  0.55736300  1
  O  O77  1  0.11995500  0.19842400  0.22098100  1
  O  O78  1  0.11995500  0.80157600  0.22098100  1
  O  O79  1  0.11666200  0.80098600  0.55736300  1
