# generated using pymatgen
data_LiCo2(PO4)3
_symmetry_space_group_name_H-M   'P 1'
_cell_length_a   8.70159300
_cell_length_b   8.76691000
_cell_length_c   12.02927822
_cell_angle_alpha   90.00000000
_cell_angle_beta   90.29293698
_cell_angle_gamma   90.00000000
_symmetry_Int_Tables_number   1
_chemical_formula_structural   LiCo2(PO4)3
_chemical_formula_sum   'Li4 Co8 P12 O48'
_cell_volume   917.65451927
_cell_formula_units_Z   4
loop_
 _symmetry_equiv_pos_site_id
 _symmetry_equiv_pos_as_xyz
  1  'x, y, z'
loop_
 _atom_site_type_symbol
 _atom_site_label
 _atom_site_symmetry_multiplicity
 _atom_site_fract_x
 _atom_site_fract_y
 _atom_site_fract_z
 _atom_site_occupancy
  Li  Li0  1  0.83436600  0.21067400  0.50389500  1
  Li  Li1  1  0.96185100  0.27223400  0.93139800  1
  Li  Li2  1  0.03814900  0.77223400  0.06860200  1
  Li  Li3  1  0.16563400  0.71067400  0.49610500  1
  Co  Co4  1  0.49822300  0.53904000  0.36914400  1
  Co  Co5  1  0.49842600  0.96220400  0.12719200  1
  Co  Co6  1  0.50157400  0.46220400  0.87280800  1
  Co  Co7  1  0.50177700  0.03904000  0.63085600  1
  Co  Co8  1  0.00029200  0.95510300  0.86085300  1
  Co  Co9  1  0.99111000  0.53509900  0.63659600  1
  Co  Co10  1  0.00889000  0.03509900  0.36340400  1
  Co  Co11  1  0.99970800  0.45510300  0.13914700  1
  P  P12  1  0.28636800  0.75021300  0.74596000  1
  P  P13  1  0.35405100  0.61212100  0.10509400  1
  P  P14  1  0.36067900  0.89438700  0.39482200  1
  P  P15  1  0.63932100  0.39438700  0.60517800  1
  P  P16  1  0.64594900  0.11212100  0.89490600  1
  P  P17  1  0.71363200  0.25021300  0.25404000  1
  P  P18  1  0.78479400  0.74981600  0.24851500  1
  P  P19  1  0.85569300  0.88710400  0.60235400  1
  P  P20  1  0.85350900  0.60391800  0.89879100  1
  P  P21  1  0.14649100  0.10391800  0.10120900  1
  P  P22  1  0.14430700  0.38710400  0.39764600  1
  P  P23  1  0.21520600  0.24981600  0.75148500  1
  O  O24  1  0.30874400  0.14850900  0.67418100  1
  O  O25  1  0.32012500  0.33746700  0.83439700  1
  O  O26  1  0.32399700  0.09768200  0.09738700  1
  O  O27  1  0.32006100  0.40201900  0.40678400  1
  O  O28  1  0.37768000  0.63619700  0.81789300  1
  O  O29  1  0.39302000  0.77942200  0.07626400  1
  O  O30  1  0.40130400  0.85257900  0.68413900  1
  O  O31  1  0.40748400  0.57307000  0.22320500  1
  O  O32  1  0.41423100  0.93582700  0.27870000  1
  O  O33  1  0.39288000  0.72581000  0.42680500  1
  O  O34  1  0.42987900  0.00708400  0.48045400  1
  O  O35  1  0.42871300  0.49968600  0.02235800  1
  O  O36  1  0.57128700  0.99968600  0.97764200  1
  O  O37  1  0.57012100  0.50708400  0.51954600  1
  O  O38  1  0.60712000  0.22581000  0.57319500  1
  O  O39  1  0.58576900  0.43582700  0.72130000  1
  O  O40  1  0.59251600  0.07307000  0.77679500  1
  O  O41  1  0.59869600  0.35257900  0.31586100  1
  O  O42  1  0.60698000  0.27942200  0.92373600  1
  O  O43  1  0.62232000  0.13619700  0.18210700  1
  O  O44  1  0.67993900  0.90201900  0.59321600  1
  O  O45  1  0.67600300  0.59768200  0.90261300  1
  O  O46  1  0.67987500  0.83746700  0.16560300  1
  O  O47  1  0.69125600  0.64850900  0.32581900  1
  O  O48  1  0.80753500  0.34925300  0.17322300  1
  O  O49  1  0.81422000  0.17030600  0.34194000  1
  O  O50  1  0.81822300  0.40290800  0.59136200  1
  O  O51  1  0.82249800  0.09503500  0.90697100  1
  O  O52  1  0.87609400  0.86683800  0.31911400  1
  O  O53  1  0.90808700  0.72520500  0.56947600  1
  O  O54  1  0.90449900  0.66214600  0.17789900  1
  O  O55  1  0.90953400  0.92175500  0.72294600  1
  O  O56  1  0.90944000  0.56380300  0.78083900  1
  O  O57  1  0.91081300  0.76348600  0.93306400  1
  O  O58  1  0.91989100  0.48148700  0.97963600  1
  O  O59  1  0.92531100  0.00941300  0.52411000  1
  O  O60  1  0.07468900  0.50941300  0.47589000  1
  O  O61  1  0.08010900  0.98148700  0.02036400  1
  O  O62  1  0.08918700  0.26348600  0.06693600  1
  O  O63  1  0.09056000  0.06380300  0.21916100  1
  O  O64  1  0.09046600  0.42175500  0.27705400  1
  O  O65  1  0.09550100  0.16214600  0.82210100  1
  O  O66  1  0.09191300  0.22520500  0.43052400  1
  O  O67  1  0.12390600  0.36683800  0.68088600  1
  O  O68  1  0.17750200  0.59503500  0.09302900  1
  O  O69  1  0.18177700  0.90290800  0.40863800  1
  O  O70  1  0.18578000  0.67030600  0.65806000  1
  O  O71  1  0.19246500  0.84925300  0.82677700  1
