# generated using pymatgen
data_Li4Mn3Ni2Sn3O16
_symmetry_space_group_name_H-M   'P 1'
_cell_length_a   10.46894200
_cell_length_b   6.04300800
_cell_length_c   9.69790682
_cell_angle_alpha   90.00000000
_cell_angle_beta   90.45203599
_cell_angle_gamma   90.00000000
_symmetry_Int_Tables_number   1
_chemical_formula_structural   Li4Mn3Ni2Sn3O16
_chemical_formula_sum   'Li8 Mn6 Ni4 Sn6 O32'
_cell_volume   613.50831546
_cell_formula_units_Z   2
loop_
 _symmetry_equiv_pos_site_id
 _symmetry_equiv_pos_as_xyz
  1  'x, y, z'
loop_
 _atom_site_type_symbol
 _atom_site_label
 _atom_site_symmetry_multiplicity
 _atom_site_fract_x
 _atom_site_fract_y
 _atom_site_fract_z
 _atom_site_occupancy
  Li  Li0  1  0.67331400  0.00000000  0.11796400  1
  Li  Li1  1  0.98431900  0.00000000  0.00444100  1
  Li  Li2  1  0.98821400  0.00000000  0.49742400  1
  Li  Li3  1  0.83843600  0.50000000  0.60817800  1
  Li  Li4  1  0.17331400  0.50000000  0.11796400  1
  Li  Li5  1  0.48431900  0.50000000  0.00444100  1
  Li  Li6  1  0.48821400  0.50000000  0.49742400  1
  Li  Li7  1  0.33843600  0.00000000  0.60817800  1
  Mn  Mn8  1  0.83155500  0.00000000  0.78325200  1
  Mn  Mn9  1  0.91624400  0.25379000  0.28488700  1
  Mn  Mn10  1  0.91624400  0.74621000  0.28488700  1
  Mn  Mn11  1  0.33155500  0.50000000  0.78325200  1
  Mn  Mn12  1  0.41624400  0.75379000  0.28488700  1
  Mn  Mn13  1  0.41624400  0.24621000  0.28488700  1
  Ni  Ni14  1  0.66745400  0.00000000  0.50778000  1
  Ni  Ni15  1  0.83559400  0.50000000  0.01410700  1
  Ni  Ni16  1  0.16745400  0.50000000  0.50778000  1
  Ni  Ni17  1  0.33559400  0.00000000  0.01410700  1
  Sn  Sn18  1  0.58565050  0.75301950  0.78560700  1
  Sn  Sn19  1  0.58565050  0.24698050  0.78560700  1
  Sn  Sn20  1  0.66962800  0.50000000  0.28602400  1
  Sn  Sn21  1  0.08565050  0.25301950  0.78560700  1
  Sn  Sn22  1  0.08565050  0.74698050  0.78560700  1
  Sn  Sn23  1  0.16962800  0.00000000  0.28602400  1
  O  O24  1  0.57315600  0.74077000  0.39749900  1
  O  O25  1  0.51841600  0.00000000  0.65760800  1
  O  O26  1  0.67912300  0.00000000  0.90063000  1
  O  O27  1  0.98979000  0.00000000  0.68125200  1
  O  O28  1  0.98953100  0.00000000  0.18813900  1
  O  O29  1  0.57315600  0.25923000  0.39749900  1
  O  O30  1  0.74859750  0.78099250  0.66370800  1
  O  O31  1  0.74859750  0.21900750  0.66370800  1
  O  O32  1  0.65628500  0.50000000  0.90809900  1
  O  O33  1  0.83965200  0.00000000  0.38712300  1
  O  O34  1  0.76690700  0.27206900  0.16583500  1
  O  O35  1  0.76690700  0.72793100  0.16583500  1
  O  O36  1  0.84575900  0.50000000  0.39360100  1
  O  O37  1  0.91413000  0.23452600  0.89463300  1
  O  O38  1  0.98280800  0.50000000  0.17220600  1
  O  O39  1  0.91413000  0.76547400  0.89463300  1
  O  O40  1  0.07315600  0.24077000  0.39749900  1
  O  O41  1  0.01841600  0.50000000  0.65760800  1
  O  O42  1  0.17912300  0.50000000  0.90063000  1
  O  O43  1  0.48979000  0.50000000  0.68125200  1
  O  O44  1  0.48953100  0.50000000  0.18813900  1
  O  O45  1  0.07315600  0.75923000  0.39749900  1
  O  O46  1  0.24859750  0.28099250  0.66370800  1
  O  O47  1  0.24859750  0.71900750  0.66370800  1
  O  O48  1  0.15628500  0.00000000  0.90809900  1
  O  O49  1  0.33965200  0.50000000  0.38712300  1
  O  O50  1  0.26690700  0.77206900  0.16583500  1
  O  O51  1  0.26690700  0.22793100  0.16583500  1
  O  O52  1  0.34575900  0.00000000  0.39360100  1
  O  O53  1  0.41413000  0.73452600  0.89463300  1
  O  O54  1  0.48280800  0.00000000  0.17220600  1
  O  O55  1  0.41413000  0.26547400  0.89463300  1
