# generated using pymatgen
data_Mn2Ni3Sb(PO4)6
_symmetry_space_group_name_H-M   'P 1'
_cell_length_a   8.70242616
_cell_length_b   8.70242616
_cell_length_c   21.09047377
_cell_angle_alpha   90.00000000
_cell_angle_beta   90.00000000
_cell_angle_gamma   120.00000000
_symmetry_Int_Tables_number   1
_chemical_formula_structural   Mn2Ni3Sb(PO4)6
_chemical_formula_sum   'Mn6 Ni9 Sb3 P18 O72'
_cell_volume   1383.24038849
_cell_formula_units_Z   3
loop_
 _symmetry_equiv_pos_site_id
 _symmetry_equiv_pos_as_xyz
  1  'x, y, z'
loop_
 _atom_site_type_symbol
 _atom_site_label
 _atom_site_symmetry_multiplicity
 _atom_site_fract_x
 _atom_site_fract_y
 _atom_site_fract_z
 _atom_site_occupancy
  Mn  Mn0  1  0.33333333  0.66666667  0.67288567  1
  Mn  Mn1  1  0.33333333  0.66666667  0.16604067  1
  Mn  Mn2  1  0.00000000  0.00000000  0.00621900  1
  Mn  Mn3  1  0.00000000  0.00000000  0.49937400  1
  Mn  Mn4  1  0.66666667  0.33333333  0.33955233  1
  Mn  Mn5  1  0.66666667  0.33333333  0.83270733  1
  Ni  Ni6  1  0.33333333  0.66666667  0.81109467  1
  Ni  Ni7  1  0.33333333  0.66666667  0.02336167  1
  Ni  Ni8  1  0.33333333  0.66666667  0.30883567  1
  Ni  Ni9  1  0.00000000  0.00000000  0.14442800  1
  Ni  Ni10  1  0.00000000  0.00000000  0.35669500  1
  Ni  Ni11  1  0.00000000  0.00000000  0.64216900  1
  Ni  Ni12  1  0.66666667  0.33333333  0.47776133  1
  Ni  Ni13  1  0.66666667  0.33333333  0.69002833  1
  Ni  Ni14  1  0.66666667  0.33333333  0.97550233  1
  Sb  Sb15  1  0.33333333  0.66666667  0.52358767  1
  Sb  Sb16  1  0.00000000  0.00000000  0.85692100  1
  Sb  Sb17  1  0.66666667  0.33333333  0.19025433  1
  P  P18  1  0.96330800  0.33633300  0.08233900  1
  P  P19  1  0.37302500  0.03669200  0.08233900  1
  P  P20  1  0.66366700  0.62697500  0.08233900  1
  P  P21  1  0.00460833  0.70850067  0.24896067  1
  P  P22  1  0.29149933  0.29610767  0.24896067  1
  P  P23  1  0.70389233  0.99539167  0.24896067  1
  P  P24  1  0.62997467  0.66966633  0.41567233  1
  P  P25  1  0.03969167  0.37002533  0.41567233  1
  P  P26  1  0.33033367  0.96030833  0.41567233  1
  P  P27  1  0.67127500  0.04183400  0.58229400  1
  P  P28  1  0.95816600  0.62944100  0.58229400  1
  P  P29  1  0.37055900  0.32872500  0.58229400  1
  P  P30  1  0.29664133  0.00299967  0.74900567  1
  P  P31  1  0.70635833  0.70335867  0.74900567  1
  P  P32  1  0.99700033  0.29364167  0.74900567  1
  P  P33  1  0.33794167  0.37516733  0.91562733  1
  P  P34  1  0.62483267  0.96277433  0.91562733  1
  P  P35  1  0.03722567  0.66205833  0.91562733  1
  O  O36  1  0.13030433  0.66655967  0.97670467  1
  O  O37  1  0.33344033  0.46374467  0.97670467  1
  O  O38  1  0.98339467  0.16980933  0.07739133  1
  O  O39  1  0.53625533  0.86969567  0.97670467  1
  O  O40  1  0.86368567  0.33227833  0.14549233  1
  O  O41  1  0.14932767  0.50236333  0.09215933  1
  O  O42  1  0.18641467  0.01660533  0.07739133  1
  O  O43  1  0.35303567  0.85067233  0.09215933  1
  O  O44  1  0.99661833  0.79645567  0.18820067  1
  O  O45  1  0.49763667  0.64696433  0.09215933  1
  O  O46  1  0.83169500  0.51146200  0.25553400  1
  O  O47  1  0.20354433  0.20016267  0.18820067  1
  O  O48  1  0.46859267  0.13631433  0.14549233  1
  O  O49  1  0.83019067  0.81358533  0.07739133  1
  O  O50  1  0.16821867  0.68197733  0.24141733  1
  O  O51  1  0.66772167  0.53140733  0.14549233  1
  O  O52  1  0.31802267  0.48624133  0.24141733  1
  O  O53  1  0.48853800  0.32023300  0.25553400  1
  O  O54  1  0.51375867  0.83178133  0.24141733  1
  O  O55  1  0.79983733  0.00338167  0.18820067  1
  O  O56  1  0.14148567  0.46445033  0.35653333  1
  O  O57  1  0.67976700  0.16830500  0.25553400  1
  O  O58  1  0.32296467  0.85851433  0.35653333  1
  O  O59  1  0.53554967  0.67703533  0.35653333  1
  O  O60  1  0.79697100  0.99989300  0.31003800  1
  O  O61  1  0.00010700  0.79707800  0.31003800  1
  O  O62  1  0.65006133  0.50314267  0.41072467  1
  O  O63  1  0.20292200  0.20302900  0.31003800  1
  O  O64  1  0.53035233  0.66561167  0.47882567  1
  O  O65  1  0.81599433  0.83569667  0.42549267  1
  O  O66  1  0.85308133  0.34993867  0.41072467  1
  O  O67  1  0.01970233  0.18400567  0.42549267  1
  O  O68  1  0.66328500  0.12978900  0.52153400  1
  O  O69  1  0.16430333  0.98029767  0.42549267  1
  O  O70  1  0.49836167  0.84479533  0.58886733  1
  O  O71  1  0.87021100  0.53349600  0.52153400  1
  O  O72  1  0.13525933  0.46964767  0.47882567  1
  O  O73  1  0.49685733  0.14691867  0.41072467  1
  O  O74  1  0.83488533  0.01531067  0.57475067  1
  O  O75  1  0.33438833  0.86474067  0.47882567  1
  O  O76  1  0.98468933  0.81957467  0.57475067  1
  O  O77  1  0.15520467  0.65356633  0.58886733  1
  O  O78  1  0.18042533  0.16511467  0.57475067  1
  O  O79  1  0.46650400  0.33671500  0.52153400  1
  O  O80  1  0.80815233  0.79778367  0.68986667  1
  O  O81  1  0.34643367  0.50163833  0.58886733  1
  O  O82  1  0.98963133  0.19184767  0.68986667  1
  O  O83  1  0.20221633  0.01036867  0.68986667  1
  O  O84  1  0.46363767  0.33322633  0.64337133  1
  O  O85  1  0.66677367  0.13041133  0.64337133  1
  O  O86  1  0.31672800  0.83647600  0.74405800  1
  O  O87  1  0.86958867  0.53636233  0.64337133  1
  O  O88  1  0.19701900  0.99894500  0.81215900  1
  O  O89  1  0.48266100  0.16903000  0.75882600  1
  O  O90  1  0.51974800  0.68327200  0.74405800  1
  O  O91  1  0.68636900  0.51733900  0.75882600  1
  O  O92  1  0.32995167  0.46312233  0.85486733  1
  O  O93  1  0.83097000  0.31363100  0.75882600  1
  O  O94  1  0.16502833  0.17812867  0.92220067  1
  O  O95  1  0.53687767  0.86682933  0.85486733  1
  O  O96  1  0.80192600  0.80298100  0.81215900  1
  O  O97  1  0.16352400  0.48025200  0.74405800  1
  O  O98  1  0.50155200  0.34864400  0.90808400  1
  O  O99  1  0.00105500  0.19807400  0.81215900  1
  O  O100  1  0.65135600  0.15290800  0.90808400  1
  O  O101  1  0.82187133  0.98689967  0.92220067  1
  O  O102  1  0.84709200  0.49844800  0.90808400  1
  O  O103  1  0.13317067  0.67004833  0.85486733  1
  O  O104  1  0.47481900  0.13111700  0.02320000  1
  O  O105  1  0.01310033  0.83497167  0.92220067  1
  O  O106  1  0.65629800  0.52518100  0.02320000  1
  O  O107  1  0.86888300  0.34370200  0.02320000  1
