# generated using pymatgen
data_Li3V2CoO6
_symmetry_space_group_name_H-M   'P 1'
_cell_length_a   12.83297221
_cell_length_b   3.00402543
_cell_length_c   5.99170835
_cell_angle_alpha   90.00000000
_cell_angle_beta   104.66452122
_cell_angle_gamma   90.00000000
_symmetry_Int_Tables_number   1
_chemical_formula_structural   Li3V2CoO6
_chemical_formula_sum   'Li6 V4 Co2 O12'
_cell_volume   223.45943450
_cell_formula_units_Z   2
loop_
 _symmetry_equiv_pos_site_id
 _symmetry_equiv_pos_as_xyz
  1  'x, y, z'
loop_
 _atom_site_type_symbol
 _atom_site_label
 _atom_site_symmetry_multiplicity
 _atom_site_fract_x
 _atom_site_fract_y
 _atom_site_fract_z
 _atom_site_occupancy
  Li  Li0  1  0.50000000  0.50000000  0.00000000  1
  Li  Li1  1  0.66380300  0.00000000  0.33486800  1
  Li  Li2  1  0.33619700  0.00000000  0.66513200  1
  Li  Li3  1  0.00000000  0.00000000  0.00000000  1
  Li  Li4  1  0.16380300  0.50000000  0.33486800  1
  Li  Li5  1  0.83619700  0.50000000  0.66513200  1
  V  V6  1  0.66304100  0.00000000  0.82600000  1
  V  V7  1  0.33695900  0.00000000  0.17400000  1
  V  V8  1  0.16304100  0.50000000  0.82600000  1
  V  V9  1  0.83695900  0.50000000  0.17400000  1
  Co  Co10  1  0.50000000  0.50000000  0.50000000  1
  Co  Co11  1  0.00000000  0.00000000  0.50000000  1
  O  O12  1  0.16848600  0.00000000  0.60117600  1
  O  O13  1  0.32684000  0.50000000  0.93385100  1
  O  O14  1  0.33151400  0.50000000  0.39882400  1
  O  O15  1  0.49090500  0.00000000  0.24568300  1
  O  O16  1  0.50909500  0.00000000  0.75431700  1
  O  O17  1  0.17316000  0.00000000  0.06614900  1
  O  O18  1  0.66848600  0.50000000  0.60117600  1
  O  O19  1  0.82684000  0.00000000  0.93385100  1
  O  O20  1  0.83151400  0.00000000  0.39882400  1
  O  O21  1  0.99090500  0.50000000  0.24568300  1
  O  O22  1  0.00909500  0.50000000  0.75431700  1
  O  O23  1  0.67316000  0.50000000  0.06614900  1
