# generated using pymatgen
data_TiMnV4O12
_symmetry_space_group_name_H-M   'P 1'
_cell_length_a   10.31616200
_cell_length_b   9.33218200
_cell_length_c   5.80793025
_cell_angle_alpha   90.00000000
_cell_angle_beta   110.57150792
_cell_angle_gamma   90.00000000
_symmetry_Int_Tables_number   1
_chemical_formula_structural   TiMnV4O12
_chemical_formula_sum   'Ti2 Mn2 V8 O24'
_cell_volume   523.48872533
_cell_formula_units_Z   2
loop_
 _symmetry_equiv_pos_site_id
 _symmetry_equiv_pos_as_xyz
  1  'x, y, z'
loop_
 _atom_site_type_symbol
 _atom_site_label
 _atom_site_symmetry_multiplicity
 _atom_site_fract_x
 _atom_site_fract_y
 _atom_site_fract_z
 _atom_site_occupancy
  Ti  Ti0  1  0.00000000  0.90389400  0.50000000  1
  Ti  Ti1  1  0.50000000  0.40389400  0.50000000  1
  Mn  Mn2  1  0.00000000  0.09195900  0.00000000  1
  Mn  Mn3  1  0.50000000  0.59195900  0.00000000  1
  V  V4  1  0.20482750  0.41137650  0.00251000  1
  V  V5  1  0.20822350  0.59842850  0.49533500  1
  V  V6  1  0.79517250  0.41137650  0.99749000  1
  V  V7  1  0.79177650  0.59842850  0.50466500  1
  V  V8  1  0.70482750  0.91137650  0.00251000  1
  V  V9  1  0.70822350  0.09842850  0.49533500  1
  V  V10  1  0.29517250  0.91137650  0.99749000  1
  V  V11  1  0.29177650  0.09842850  0.50466500  1
  O  O12  1  0.38834800  0.42407900  0.14083600  1
  O  O13  1  0.15567800  0.23685900  0.98478400  1
  O  O14  1  0.38975200  0.56762200  0.60183700  1
  O  O15  1  0.13431500  0.50561800  0.19367900  1
  O  O16  1  0.84432200  0.23685900  0.01521600  1
  O  O17  1  0.15131250  0.48633350  0.70576900  1
  O  O18  1  0.86568500  0.50561800  0.80632100  1
  O  O19  1  0.12862200  0.77175700  0.46506900  1
  O  O20  1  0.84868750  0.48633350  0.29423100  1
  O  O21  1  0.61165200  0.42407900  0.85916400  1
  O  O22  1  0.87137800  0.77175700  0.53493100  1
  O  O23  1  0.61024800  0.56762200  0.39816300  1
  O  O24  1  0.88834800  0.92407900  0.14083600  1
  O  O25  1  0.65567800  0.73685900  0.98478400  1
  O  O26  1  0.88975200  0.06762200  0.60183700  1
  O  O27  1  0.63431500  0.00561800  0.19367900  1
  O  O28  1  0.34432200  0.73685900  0.01521600  1
  O  O29  1  0.65131250  0.98633350  0.70576900  1
  O  O30  1  0.36568500  0.00561800  0.80632100  1
  O  O31  1  0.62862200  0.27175700  0.46506900  1
  O  O32  1  0.34868750  0.98633350  0.29423100  1
  O  O33  1  0.11165200  0.92407900  0.85916400  1
  O  O34  1  0.37137800  0.27175700  0.53493100  1
  O  O35  1  0.11024800  0.06762200  0.39816300  1
