# generated using pymatgen
data_Li2Mn3NbO8
_symmetry_space_group_name_H-M   'P 1'
_cell_length_a   6.04435400
_cell_length_b   10.31201200
_cell_length_c   9.91504846
_cell_angle_alpha   90.00000000
_cell_angle_beta   93.88015133
_cell_angle_gamma   90.00000000
_symmetry_Int_Tables_number   1
_chemical_formula_structural   Li2Mn3NbO8
_chemical_formula_sum   'Li8 Mn12 Nb4 O32'
_cell_volume   616.58293685
_cell_formula_units_Z   4
loop_
 _symmetry_equiv_pos_site_id
 _symmetry_equiv_pos_as_xyz
  1  'x, y, z'
loop_
 _atom_site_type_symbol
 _atom_site_label
 _atom_site_symmetry_multiplicity
 _atom_site_fract_x
 _atom_site_fract_y
 _atom_site_fract_z
 _atom_site_occupancy
  Li  Li0  1  0.49094100  0.16599500  0.90380000  1
  Li  Li1  1  0.99835000  0.00056900  0.98916200  1
  Li  Li2  1  0.99835000  0.99943100  0.48916200  1
  Li  Li3  1  0.49094100  0.83400500  0.40380000  1
  Li  Li4  1  0.99094100  0.66599500  0.90380000  1
  Li  Li5  1  0.49835000  0.50056900  0.98916200  1
  Li  Li6  1  0.49835000  0.49943100  0.48916200  1
  Li  Li7  1  0.99094100  0.33400500  0.40380000  1
  Mn  Mn8  1  0.25457600  0.08597800  0.21542200  1
  Mn  Mn9  1  0.74567850  0.08327550  0.21408200  1
  Mn  Mn10  1  0.49953150  0.33109050  0.21331000  1
  Mn  Mn11  1  0.49953150  0.66890950  0.71331000  1
  Mn  Mn12  1  0.25457600  0.91402200  0.71542200  1
  Mn  Mn13  1  0.74567850  0.91672450  0.71408200  1
  Mn  Mn14  1  0.75457600  0.58597800  0.21542200  1
  Mn  Mn15  1  0.24567850  0.58327550  0.21408200  1
  Mn  Mn16  1  0.99953150  0.83109050  0.21331000  1
  Mn  Mn17  1  0.99953150  0.16890950  0.71331000  1
  Mn  Mn18  1  0.75457600  0.41402200  0.71542200  1
  Mn  Mn19  1  0.24567850  0.41672450  0.71408200  1
  Nb  Nb20  1  0.47929750  0.16686850  0.48970600  1
  Nb  Nb21  1  0.47929750  0.83313150  0.98970600  1
  Nb  Nb22  1  0.97929750  0.66686850  0.48970600  1
  Nb  Nb23  1  0.97929750  0.33313150  0.98970600  1
  O  O24  1  0.25984600  0.08722100  0.58758800  1
  O  O25  1  0.48403300  0.01851800  0.34693700  1
  O  O26  1  0.49219050  0.16595650  0.11572800  1
  O  O27  1  0.00992300  0.00079500  0.30241200  1
  O  O28  1  0.00992300  0.99920500  0.80241200  1
  O  O29  1  0.75989150  0.07825250  0.59383300  1
  O  O30  1  0.27522800  0.24879300  0.35713900  1
  O  O31  1  0.72283600  0.23717000  0.33392300  1
  O  O32  1  0.52753550  0.66765150  0.09087700  1
  O  O33  1  0.52753550  0.33234850  0.59087700  1
  O  O34  1  0.27522800  0.75120700  0.85713900  1
  O  O35  1  0.72283600  0.76283000  0.83392300  1
  O  O36  1  0.49219050  0.83404350  0.61572800  1
  O  O37  1  0.25984600  0.91277900  0.08758800  1
  O  O38  1  0.48403300  0.98148200  0.84693700  1
  O  O39  1  0.75989150  0.92174750  0.09383300  1
  O  O40  1  0.75984600  0.58722100  0.58758800  1
  O  O41  1  0.98403300  0.51851800  0.34693700  1
  O  O42  1  0.99219050  0.66595650  0.11572800  1
  O  O43  1  0.50992300  0.50079500  0.30241200  1
  O  O44  1  0.50992300  0.49920500  0.80241200  1
  O  O45  1  0.25989150  0.57825250  0.59383300  1
  O  O46  1  0.77522800  0.74879300  0.35713900  1
  O  O47  1  0.22283600  0.73717000  0.33392300  1
  O  O48  1  0.02753550  0.16765150  0.09087700  1
  O  O49  1  0.02753550  0.83234850  0.59087700  1
  O  O50  1  0.77522800  0.25120700  0.85713900  1
  O  O51  1  0.22283600  0.26283000  0.83392300  1
  O  O52  1  0.99219050  0.33404350  0.61572800  1
  O  O53  1  0.75984600  0.41277900  0.08758800  1
  O  O54  1  0.98403300  0.48148200  0.84693700  1
  O  O55  1  0.25989150  0.42174750  0.09383300  1
