# generated using pymatgen
data_NbFe3Ni2(PO4)6
_symmetry_space_group_name_H-M   'P 1'
_cell_length_a   8.65417593
_cell_length_b   8.65417593
_cell_length_c   20.71716846
_cell_angle_alpha   90.00000000
_cell_angle_beta   90.00000000
_cell_angle_gamma   120.00000000
_symmetry_Int_Tables_number   1
_chemical_formula_structural   NbFe3Ni2(PO4)6
_chemical_formula_sum   'Nb3 Fe9 Ni6 P18 O72'
_cell_volume   1343.73140876
_cell_formula_units_Z   3
loop_
 _symmetry_equiv_pos_site_id
 _symmetry_equiv_pos_as_xyz
  1  'x, y, z'
loop_
 _atom_site_type_symbol
 _atom_site_label
 _atom_site_symmetry_multiplicity
 _atom_site_fract_x
 _atom_site_fract_y
 _atom_site_fract_z
 _atom_site_occupancy
  Nb  Nb0  1  0.33333333  0.66666667  0.52391667  1
  Nb  Nb1  1  0.00000000  0.00000000  0.85725000  1
  Nb  Nb2  1  0.66666667  0.33333333  0.19058333  1
  Fe  Fe3  1  0.33333333  0.66666667  0.81307167  1
  Fe  Fe4  1  0.33333333  0.66666667  0.02280467  1
  Fe  Fe5  1  0.33333333  0.66666667  0.31049567  1
  Fe  Fe6  1  0.00000000  0.00000000  0.14640500  1
  Fe  Fe7  1  0.00000000  0.00000000  0.35613800  1
  Fe  Fe8  1  0.00000000  0.00000000  0.64382900  1
  Fe  Fe9  1  0.66666667  0.33333333  0.47973833  1
  Fe  Fe10  1  0.66666667  0.33333333  0.68947133  1
  Fe  Fe11  1  0.66666667  0.33333333  0.97716233  1
  Ni  Ni12  1  0.33333333  0.66666667  0.67264567  1
  Ni  Ni13  1  0.33333333  0.66666667  0.16751967  1
  Ni  Ni14  1  0.00000000  0.00000000  0.00597900  1
  Ni  Ni15  1  0.00000000  0.00000000  0.50085300  1
  Ni  Ni16  1  0.66666667  0.33333333  0.33931233  1
  Ni  Ni17  1  0.66666667  0.33333333  0.83418633  1
  P  P18  1  0.36620000  0.03237900  0.08076600  1
  P  P19  1  0.66617900  0.63380000  0.08076600  1
  P  P20  1  0.96762100  0.33382100  0.08076600  1
  P  P21  1  0.70365300  0.99391600  0.25022600  1
  P  P22  1  0.00608400  0.70973700  0.25022600  1
  P  P23  1  0.29026300  0.29634700  0.25022600  1
  P  P24  1  0.03286667  0.36571233  0.41409933  1
  P  P25  1  0.33284567  0.96713333  0.41409933  1
  P  P26  1  0.63428767  0.66715433  0.41409933  1
  P  P27  1  0.37031967  0.32724933  0.58355933  1
  P  P28  1  0.67275067  0.04307033  0.58355933  1
  P  P29  1  0.95692967  0.62968033  0.58355933  1
  P  P30  1  0.69953333  0.69904567  0.74743267  1
  P  P31  1  0.99951233  0.30046667  0.74743267  1
  P  P32  1  0.30095433  0.00048767  0.74743267  1
  P  P33  1  0.03698633  0.66058267  0.91689267  1
  P  P34  1  0.33941733  0.37640367  0.91689267  1
  P  P35  1  0.62359633  0.96301367  0.91689267  1
  O  O36  1  0.52730233  0.86680867  0.97808467  1
  O  O37  1  0.13319133  0.66049367  0.97808467  1
  O  O38  1  0.17980733  0.01379667  0.07540267  1
  O  O39  1  0.33950633  0.47269767  0.97808467  1
  O  O40  1  0.13675800  0.48108200  0.47525200  1
  O  O41  1  0.35061667  0.84945933  0.09326933  1
  O  O42  1  0.83398933  0.82019267  0.07540267  1
  O  O43  1  0.49884267  0.64938333  0.09326933  1
  O  O44  1  0.80728133  0.00875367  0.18914267  1
  O  O45  1  0.15054067  0.50115733  0.09326933  1
  O  O46  1  0.67969333  0.16457067  0.25757267  1
  O  O47  1  0.99124633  0.79852767  0.18914267  1
  O  O48  1  0.34432400  0.86324200  0.47525200  1
  O  O49  1  0.98620333  0.16601067  0.07540267  1
  O  O50  1  0.51410033  0.83130367  0.24149367  1
  O  O51  1  0.51891800  0.65567600  0.47525200  1
  O  O52  1  0.16869633  0.68279667  0.24149367  1
  O  O53  1  0.83542933  0.51512267  0.25757267  1
  O  O54  1  0.31720333  0.48589967  0.24149367  1
  O  O55  1  0.20147233  0.19271867  0.18914267  1
  O  O56  1  0.32536467  0.86020033  0.35530533  1
  O  O57  1  0.48487733  0.32030667  0.25757267  1
  O  O58  1  0.53483567  0.67463533  0.35530533  1
  O  O59  1  0.13979967  0.46516433  0.35530533  1
  O  O60  1  0.19396900  0.20014200  0.31141800  1
  O  O61  1  0.79985800  0.99382700  0.31141800  1
  O  O62  1  0.84647400  0.34713000  0.40873600  1
  O  O63  1  0.00617300  0.80603100  0.31141800  1
  O  O64  1  0.80342467  0.81441533  0.80858533  1
  O  O65  1  0.01728333  0.18279267  0.42660267  1
  O  O66  1  0.50065600  0.15352600  0.40873600  1
  O  O67  1  0.16550933  0.98271667  0.42660267  1
  O  O68  1  0.47394800  0.34208700  0.52247600  1
  O  O69  1  0.81720733  0.83449067  0.42660267  1
  O  O70  1  0.34636000  0.49790400  0.59090600  1
  O  O71  1  0.65791300  0.13186100  0.52247600  1
  O  O72  1  0.01099067  0.19657533  0.80858533  1
  O  O73  1  0.65287000  0.49934400  0.40873600  1
  O  O74  1  0.18076700  0.16463700  0.57482700  1
  O  O75  1  0.18558467  0.98900933  0.80858533  1
  O  O76  1  0.83536300  0.01613000  0.57482700  1
  O  O77  1  0.50209600  0.84845600  0.59090600  1
  O  O78  1  0.98387000  0.81923300  0.57482700  1
  O  O79  1  0.86813900  0.52605200  0.52247600  1
  O  O80  1  0.99203133  0.19353367  0.68863867  1
  O  O81  1  0.15154400  0.65364000  0.59090600  1
  O  O82  1  0.20150233  0.00796867  0.68863867  1
  O  O83  1  0.80646633  0.79849767  0.68863867  1
  O  O84  1  0.86063567  0.53347533  0.64475133  1
  O  O85  1  0.46652467  0.32716033  0.64475133  1
  O  O86  1  0.51314067  0.68046333  0.74206933  1
  O  O87  1  0.67283967  0.13936433  0.64475133  1
  O  O88  1  0.47009133  0.14774867  0.14191867  1
  O  O89  1  0.68395000  0.51612600  0.75993600  1
  O  O90  1  0.16732267  0.48685933  0.74206933  1
  O  O91  1  0.83217600  0.31605000  0.75993600  1
  O  O92  1  0.14061467  0.67542033  0.85580933  1
  O  O93  1  0.48387400  0.16782400  0.75993600  1
  O  O94  1  0.01302667  0.83123733  0.92423933  1
  O  O95  1  0.32457967  0.46519433  0.85580933  1
  O  O96  1  0.67765733  0.52990867  0.14191867  1
  O  O97  1  0.31953667  0.83267733  0.74206933  1
  O  O98  1  0.84743367  0.49797033  0.90816033  1
  O  O99  1  0.85225133  0.32234267  0.14191867  1
  O  O100  1  0.50202967  0.34946333  0.90816033  1
  O  O101  1  0.16876267  0.18178933  0.92423933  1
  O  O102  1  0.65053667  0.15256633  0.90816033  1
  O  O103  1  0.53480567  0.85938533  0.85580933  1
  O  O104  1  0.65869800  0.52686700  0.02197200  1
  O  O105  1  0.81821067  0.98697333  0.92423933  1
  O  O106  1  0.86816900  0.34130200  0.02197200  1
  O  O107  1  0.47313300  0.13183100  0.02197200  1
