# generated using pymatgen
data_Li2VSn(PO4)2
_symmetry_space_group_name_H-M   'P 1'
_cell_length_a   4.86857565
_cell_length_b   6.40384753
_cell_length_c   11.18936142
_cell_angle_alpha   90.00000000
_cell_angle_beta   90.45662321
_cell_angle_gamma   90.00000000
_symmetry_Int_Tables_number   1
_chemical_formula_structural   Li2VSn(PO4)2
_chemical_formula_sum   'Li4 V2 Sn2 P4 O16'
_cell_volume   348.84653658
_cell_formula_units_Z   2
loop_
 _symmetry_equiv_pos_site_id
 _symmetry_equiv_pos_as_xyz
  1  'x, y, z'
loop_
 _atom_site_type_symbol
 _atom_site_label
 _atom_site_symmetry_multiplicity
 _atom_site_fract_x
 _atom_site_fract_y
 _atom_site_fract_z
 _atom_site_occupancy
  Li  Li0  1  0.50000000  0.00000000  0.50000000  1
  Li  Li1  1  0.50000000  0.50000000  0.50000000  1
  Li  Li2  1  0.00000000  0.00000000  0.00000000  1
  Li  Li3  1  0.00000000  0.50000000  0.00000000  1
  V  V4  1  0.05929800  0.25000000  0.71215425  1
  V  V5  1  0.94070200  0.75000000  0.28784575  1
  Sn  Sn6  1  0.53049100  0.75000000  0.77648975  1
  Sn  Sn7  1  0.46950900  0.25000000  0.22351025  1
  P  P8  1  0.09137750  0.75000000  0.57540425  1
  P  P9  1  0.90862250  0.25000000  0.42459575  1
  P  P10  1  0.64941150  0.25000000  0.89047225  1
  P  P11  1  0.35058850  0.75000000  0.10952775  1
  O  O12  1  0.79435550  0.25000000  0.55388975  1
  O  O13  1  0.20564450  0.75000000  0.44611025  1
  O  O14  1  0.77477950  0.75000000  0.58260525  1
  O  O15  1  0.22522050  0.25000000  0.41739475  1
  O  O16  1  0.33675750  0.25000000  0.87363925  1
  O  O17  1  0.66324250  0.75000000  0.12636075  1
  O  O18  1  0.25292300  0.75000000  0.97721375  1
  O  O19  1  0.74707700  0.25000000  0.02278625  1
  O  O20  1  0.22215300  0.94651350  0.63961225  1
  O  O21  1  0.22215300  0.55348650  0.63961225  1
  O  O22  1  0.77784700  0.44651350  0.36038775  1
  O  O23  1  0.77784700  0.05348650  0.36038775  1
  O  O24  1  0.79513500  0.44311550  0.82977825  1
  O  O25  1  0.79513500  0.05688450  0.82977825  1
  O  O26  1  0.20486500  0.94311550  0.17022175  1
  O  O27  1  0.20486500  0.55688450  0.17022175  1
