# generated using pymatgen
data_Li4Cr3NiO8
_symmetry_space_group_name_H-M   'P 1'
_cell_length_a   10.27253252
_cell_length_b   5.92546063
_cell_length_c   5.11049798
_cell_angle_alpha   90.00000000
_cell_angle_beta   109.54211251
_cell_angle_gamma   90.00000000
_symmetry_Int_Tables_number   1
_chemical_formula_structural   Li4Cr3NiO8
_chemical_formula_sum   'Li8 Cr6 Ni2 O16'
_cell_volume   293.15428397
_cell_formula_units_Z   2
loop_
 _symmetry_equiv_pos_site_id
 _symmetry_equiv_pos_as_xyz
  1  'x, y, z'
loop_
 _atom_site_type_symbol
 _atom_site_label
 _atom_site_symmetry_multiplicity
 _atom_site_fract_x
 _atom_site_fract_y
 _atom_site_fract_z
 _atom_site_occupancy
  Li  Li0  1  0.25130550  0.00000000  0.50060500  1
  Li  Li1  1  0.74869450  0.00000000  0.49939500  1
  Li  Li2  1  0.25000000  0.25000000  0.00000000  1
  Li  Li3  1  0.75000000  0.25000000  0.00000000  1
  Li  Li4  1  0.75130550  0.50000000  0.50060500  1
  Li  Li5  1  0.24869450  0.50000000  0.49939500  1
  Li  Li6  1  0.75000000  0.75000000  0.00000000  1
  Li  Li7  1  0.25000000  0.75000000  0.00000000  1
  Cr  Cr8  1  0.50000000  0.75125200  0.50000000  1
  Cr  Cr9  1  0.50000000  0.24874800  0.50000000  1
  Cr  Cr10  1  0.50000000  0.50000000  0.00000000  1
  Cr  Cr11  1  0.00000000  0.25125200  0.50000000  1
  Cr  Cr12  1  0.00000000  0.74874800  0.50000000  1
  Cr  Cr13  1  0.00000000  0.00000000  0.00000000  1
  Ni  Ni14  1  0.50000000  0.00000000  0.00000000  1
  Ni  Ni15  1  0.00000000  0.50000000  0.00000000  1
  O  O16  1  0.61455950  0.00000000  0.73401100  1
  O  O17  1  0.61325400  0.50000000  0.74720100  1
  O  O18  1  0.61218400  0.73365400  0.24038200  1
  O  O19  1  0.38781600  0.26634600  0.75961800  1
  O  O20  1  0.38781600  0.73365400  0.75961800  1
  O  O21  1  0.38544050  0.00000000  0.26598900  1
  O  O22  1  0.61218400  0.26634600  0.24038200  1
  O  O23  1  0.38674600  0.50000000  0.25279900  1
  O  O24  1  0.11455950  0.50000000  0.73401100  1
  O  O25  1  0.11325400  0.00000000  0.74720100  1
  O  O26  1  0.11218400  0.23365400  0.24038200  1
  O  O27  1  0.88781600  0.76634600  0.75961800  1
  O  O28  1  0.88781600  0.23365400  0.75961800  1
  O  O29  1  0.88544050  0.50000000  0.26598900  1
  O  O30  1  0.11218400  0.76634600  0.24038200  1
  O  O31  1  0.88674600  0.00000000  0.25279900  1
