# generated using pymatgen
data_Li2V(CO3)2
_symmetry_space_group_name_H-M   'P 1'
_cell_length_a   4.83835849
_cell_length_b   4.83835849
_cell_length_c   16.60368951
_cell_angle_alpha   90.00000000
_cell_angle_beta   90.00000000
_cell_angle_gamma   120.00000000
_symmetry_Int_Tables_number   1
_chemical_formula_structural   Li2V(CO3)2
_chemical_formula_sum   'Li6 V3 C6 O18'
_cell_volume   336.61333990
_cell_formula_units_Z   3
loop_
 _symmetry_equiv_pos_site_id
 _symmetry_equiv_pos_as_xyz
  1  'x, y, z'
loop_
 _atom_site_type_symbol
 _atom_site_label
 _atom_site_symmetry_multiplicity
 _atom_site_fract_x
 _atom_site_fract_y
 _atom_site_fract_z
 _atom_site_occupancy
  Li  Li0  1  0.66666667  0.33333333  0.11865367  1
  Li  Li1  1  0.00000000  0.00000000  0.21467967  1
  Li  Li2  1  0.33333333  0.66666667  0.45198700  1
  Li  Li3  1  0.66666667  0.33333333  0.54801300  1
  Li  Li4  1  0.00000000  0.00000000  0.78532033  1
  Li  Li5  1  0.33333333  0.66666667  0.88134633  1
  V  V6  1  0.00000000  0.00000000  0.00000000  1
  V  V7  1  0.66666667  0.33333333  0.33333333  1
  V  V8  1  0.33333333  0.66666667  0.66666667  1
  C  C9  1  0.33333333  0.66666667  0.25447517  1
  C  C10  1  0.33333333  0.66666667  0.07885817  1
  C  C11  1  0.00000000  0.00000000  0.58780850  1
  C  C12  1  0.00000000  0.00000000  0.41219150  1
  C  C13  1  0.66666667  0.33333333  0.92114183  1
  C  C14  1  0.66666667  0.33333333  0.74552483  1
  O  O15  1  0.31713558  0.38976017  0.07932817  1
  O  O16  1  0.59404208  0.65046892  0.25400517  1
  O  O17  1  0.05642683  0.40595792  0.25400517  1
  O  O18  1  0.61023983  0.92737542  0.07932817  1
  O  O19  1  0.07262458  0.68286442  0.07932817  1
  O  O20  1  0.34953108  0.94357317  0.25400517  1
  O  O21  1  0.98380225  0.72309350  0.41266150  1
  O  O22  1  0.26070875  0.98380225  0.58733850  1
  O  O23  1  0.72309350  0.73929125  0.58733850  1
  O  O24  1  0.27690650  0.26070875  0.41266150  1
  O  O25  1  0.73929125  0.01619775  0.41266150  1
  O  O26  1  0.01619775  0.27690650  0.58733850  1
  O  O27  1  0.65046892  0.05642683  0.74599483  1
  O  O28  1  0.92737542  0.31713558  0.92067183  1
  O  O29  1  0.38976017  0.07262458  0.92067183  1
  O  O30  1  0.94357317  0.59404208  0.74599483  1
  O  O31  1  0.40595792  0.34953108  0.74599483  1
  O  O32  1  0.68286442  0.61023983  0.92067183  1
