# generated using pymatgen
data_Li3NiPCO7
_symmetry_space_group_name_H-M   'P 1'
_cell_length_a   5.10060478
_cell_length_b   6.43671601
_cell_length_c   8.27648132
_cell_angle_alpha   90.00000000
_cell_angle_beta   92.61567116
_cell_angle_gamma   90.00000000
_symmetry_Int_Tables_number   1
_chemical_formula_structural   Li3NiPCO7
_chemical_formula_sum   'Li6 Ni2 P2 C2 O14'
_cell_volume   271.44324888
_cell_formula_units_Z   2
loop_
 _symmetry_equiv_pos_site_id
 _symmetry_equiv_pos_as_xyz
  1  'x, y, z'
loop_
 _atom_site_type_symbol
 _atom_site_label
 _atom_site_symmetry_multiplicity
 _atom_site_fract_x
 _atom_site_fract_y
 _atom_site_fract_z
 _atom_site_occupancy
  Li  Li0  1  0.02997600  0.51349450  0.50287075  1
  Li  Li1  1  0.97002400  0.01349450  0.49712925  1
  Li  Li2  1  0.42243200  0.22727600  0.32502325  1
  Li  Li3  1  0.57756800  0.72727600  0.67497675  1
  Li  Li4  1  0.43637650  0.40193150  0.98150475  1
  Li  Li5  1  0.56362350  0.90193150  0.01849525  1
  Ni  Ni6  1  0.05789500  0.74636500  0.22842925  1
  Ni  Ni7  1  0.94210500  0.24636500  0.77157075  1
  P  P8  1  0.96109100  0.24555500  0.16400325  1
  P  P9  1  0.03890900  0.74555500  0.83599675  1
  C  C10  1  0.52545250  0.73947900  0.35903525  1
  C  C11  1  0.47454750  0.23947900  0.64096475  1
  O  O12  1  0.34811100  0.72700650  0.46702575  1
  O  O13  1  0.65188900  0.22700650  0.53297425  1
  O  O14  1  0.77124650  0.75359900  0.40571725  1
  O  O15  1  0.22875350  0.25359900  0.59428275  1
  O  O16  1  0.08384300  0.05982650  0.26463575  1
  O  O17  1  0.91615700  0.55982650  0.73536425  1
  O  O18  1  0.05261900  0.43571700  0.26871125  1
  O  O19  1  0.94738100  0.93571700  0.73128875  1
  O  O20  1  0.45521200  0.73996550  0.20706075  1
  O  O21  1  0.54478800  0.23996550  0.79293925  1
  O  O22  1  0.65957500  0.22271600  0.14204025  1
  O  O23  1  0.34042500  0.72271600  0.85795975  1
  O  O24  1  0.09163750  0.26244300  0.99899825  1
  O  O25  1  0.90836250  0.76244300  0.00100175  1
