# generated using pymatgen
data_Na9Ti20O40
_symmetry_space_group_name_H-M   'P 1'
_cell_length_a   13.74610600
_cell_length_b   13.74610600
_cell_length_c   8.69304200
_cell_angle_alpha   90.00000000
_cell_angle_beta   90.00000000
_cell_angle_gamma   90.00000000
_symmetry_Int_Tables_number   1
_chemical_formula_structural   Na9Ti20O40
_chemical_formula_sum   'Na18 Ti40 O80'
_cell_volume   1642.59749054
_cell_formula_units_Z   2
loop_
 _symmetry_equiv_pos_site_id
 _symmetry_equiv_pos_as_xyz
  1  'x, y, z'
loop_
 _atom_site_type_symbol
 _atom_site_label
 _atom_site_symmetry_multiplicity
 _atom_site_fract_x
 _atom_site_fract_y
 _atom_site_fract_z
 _atom_site_occupancy
  Na  Na0  1  0.40044050  0.80105100  0.99901825  1
  Na  Na1  1  0.19894900  0.40044050  0.00098175  1
  Na  Na2  1  0.60008100  0.70016350  0.25000475  1
  Na  Na3  1  0.29983650  0.60008100  0.74999525  1
  Na  Na4  1  0.80105100  0.59955950  0.00098175  1
  Na  Na5  1  0.50000000  0.50000000  0.50000000  1
  Na  Na6  1  0.70016350  0.39991900  0.74999525  1
  Na  Na7  1  0.39991900  0.29983650  0.25000475  1
  Na  Na8  1  0.59955950  0.19894900  0.99901825  1
  Na  Na9  1  0.90044050  0.30105100  0.49901825  1
  Na  Na10  1  0.69894900  0.90044050  0.50098175  1
  Na  Na11  1  0.10008100  0.20016350  0.75000475  1
  Na  Na12  1  0.79983650  0.10008100  0.24999525  1
  Na  Na13  1  0.30105100  0.09955950  0.50098175  1
  Na  Na14  1  0.00000000  0.00000000  0.00000000  1
  Na  Na15  1  0.20016350  0.89991900  0.24999525  1
  Na  Na16  1  0.89991900  0.79983650  0.75000475  1
  Na  Na17  1  0.09955950  0.69894900  0.49901825  1
  Ti  Ti18  1  0.09838450  0.45065100  0.62029125  1
  Ti  Ti19  1  0.45065100  0.90161550  0.37970875  1
  Ti  Ti20  1  0.80235950  0.35141000  0.12567425  1
  Ti  Ti21  1  0.49966850  0.75283900  0.62605625  1
  Ti  Ti22  1  0.64859000  0.80235950  0.87432575  1
  Ti  Ti23  1  0.19764050  0.64859000  0.12567425  1
  Ti  Ti24  1  0.35062600  0.69995050  0.37422475  1
  Ti  Ti25  1  0.54934900  0.09838450  0.37970875  1
  Ti  Ti26  1  0.35141000  0.19764050  0.87432575  1
  Ti  Ti27  1  0.55078050  0.59977100  0.87418825  1
  Ti  Ti28  1  0.69995050  0.64937400  0.62577525  1
  Ti  Ti29  1  0.24716100  0.49966850  0.37394375  1
  Ti  Ti30  1  0.40022900  0.55078050  0.12581175  1
  Ti  Ti31  1  0.75283900  0.50033150  0.37394375  1
  Ti  Ti32  1  0.90161550  0.54934900  0.62029125  1
  Ti  Ti33  1  0.59977100  0.44921950  0.12581175  1
  Ti  Ti34  1  0.30004950  0.35062600  0.62577525  1
  Ti  Ti35  1  0.44921950  0.40022900  0.87418825  1
  Ti  Ti36  1  0.64937400  0.30004950  0.37422475  1
  Ti  Ti37  1  0.50033150  0.24716100  0.62605625  1
  Ti  Ti38  1  0.59838450  0.95065100  0.12029125  1
  Ti  Ti39  1  0.95065100  0.40161550  0.87970875  1
  Ti  Ti40  1  0.30235950  0.85141000  0.62567425  1
  Ti  Ti41  1  0.99966850  0.25283900  0.12605625  1
  Ti  Ti42  1  0.14859000  0.30235950  0.37432575  1
  Ti  Ti43  1  0.69764050  0.14859000  0.62567425  1
  Ti  Ti44  1  0.85062600  0.19995050  0.87422475  1
  Ti  Ti45  1  0.04934900  0.59838450  0.87970875  1
  Ti  Ti46  1  0.85141000  0.69764050  0.37432575  1
  Ti  Ti47  1  0.05078050  0.09977100  0.37418825  1
  Ti  Ti48  1  0.19995050  0.14937400  0.12577525  1
  Ti  Ti49  1  0.74716100  0.99966850  0.87394375  1
  Ti  Ti50  1  0.90022900  0.05078050  0.62581175  1
  Ti  Ti51  1  0.25283900  0.00033150  0.87394375  1
  Ti  Ti52  1  0.40161550  0.04934900  0.12029125  1
  Ti  Ti53  1  0.09977100  0.94921950  0.62581175  1
  Ti  Ti54  1  0.80004950  0.85062600  0.12577525  1
  Ti  Ti55  1  0.94921950  0.90022900  0.37418825  1
  Ti  Ti56  1  0.14937400  0.80004950  0.87422475  1
  Ti  Ti57  1  0.00033150  0.74716100  0.12605625  1
  O  O58  1  0.54267650  0.08552800  0.14440025  1
  O  O59  1  0.08552800  0.45732350  0.85559975  1
  O  O60  1  0.45732350  0.91447200  0.14440025  1
  O  O61  1  0.81489050  0.34286900  0.89356125  1
  O  O62  1  0.44312950  0.88616500  0.60758725  1
  O  O63  1  0.11383500  0.44312950  0.39241275  1
  O  O64  1  0.28510900  0.35749650  0.39309075  1
  O  O65  1  0.18510950  0.65713100  0.89356125  1
  O  O66  1  0.35749650  0.71489100  0.60690925  1
  O  O67  1  0.48553450  0.75762100  0.39359225  1
  O  O68  1  0.65713100  0.81489050  0.10643875  1
  O  O69  1  0.51463900  0.74209050  0.85702775  1
  O  O70  1  0.21516750  0.64306200  0.35684525  1
  O  O71  1  0.34269050  0.68554800  0.14311325  1
  O  O72  1  0.64306200  0.78483250  0.64315475  1
  O  O73  1  0.55738200  0.61480850  0.64333475  1
  O  O74  1  0.38519150  0.55738200  0.35666525  1
  O  O75  1  0.25790950  0.51463900  0.14297225  1
  O  O76  1  0.68554800  0.65730950  0.85688675  1
  O  O77  1  0.35693800  0.21516750  0.64315475  1
  O  O78  1  0.54271200  0.58537550  0.10676475  1
  O  O79  1  0.24237900  0.48553450  0.60640775  1
  O  O80  1  0.34286900  0.18510950  0.10643875  1
  O  O81  1  0.71489100  0.64250350  0.39309075  1
  O  O82  1  0.41462450  0.54271200  0.89323525  1
  O  O83  1  0.88616500  0.55687050  0.39241275  1
  O  O84  1  0.75762100  0.51446550  0.60640775  1
  O  O85  1  0.45728800  0.41462450  0.10676475  1
  O  O86  1  0.58537550  0.45728800  0.89323525  1
  O  O87  1  0.74209050  0.48536100  0.14297225  1
  O  O88  1  0.91447200  0.54267650  0.85559975  1
  O  O89  1  0.44261800  0.38519150  0.64333475  1
  O  O90  1  0.61480850  0.44261800  0.35666525  1
  O  O91  1  0.31445200  0.34269050  0.85688675  1
  O  O92  1  0.48536100  0.25790950  0.85702775  1
  O  O93  1  0.78483250  0.35693800  0.35684525  1
  O  O94  1  0.65730950  0.31445200  0.14311325  1
  O  O95  1  0.64250350  0.28510900  0.60690925  1
  O  O96  1  0.51446550  0.24237900  0.39359225  1
  O  O97  1  0.55687050  0.11383500  0.60758725  1
  O  O98  1  0.04267650  0.58552800  0.64440025  1
  O  O99  1  0.58552800  0.95732350  0.35559975  1
  O  O100  1  0.95732350  0.41447200  0.64440025  1
  O  O101  1  0.31489050  0.84286900  0.39356125  1
  O  O102  1  0.94312950  0.38616500  0.10758725  1
  O  O103  1  0.61383500  0.94312950  0.89241275  1
  O  O104  1  0.78510900  0.85749650  0.89309075  1
  O  O105  1  0.68510950  0.15713100  0.39356125  1
  O  O106  1  0.85749650  0.21489100  0.10690925  1
  O  O107  1  0.98553450  0.25762100  0.89359225  1
  O  O108  1  0.15713100  0.31489050  0.60643875  1
  O  O109  1  0.01463900  0.24209050  0.35702775  1
  O  O110  1  0.71516750  0.14306200  0.85684525  1
  O  O111  1  0.84269050  0.18554800  0.64311325  1
  O  O112  1  0.14306200  0.28483250  0.14315475  1
  O  O113  1  0.05738200  0.11480850  0.14333475  1
  O  O114  1  0.88519150  0.05738200  0.85666525  1
  O  O115  1  0.75790950  0.01463900  0.64297225  1
  O  O116  1  0.18554800  0.15730950  0.35688675  1
  O  O117  1  0.85693800  0.71516750  0.14315475  1
  O  O118  1  0.04271200  0.08537550  0.60676475  1
  O  O119  1  0.74237900  0.98553450  0.10640775  1
  O  O120  1  0.84286900  0.68510950  0.60643875  1
  O  O121  1  0.21489100  0.14250350  0.89309075  1
  O  O122  1  0.91462450  0.04271200  0.39323525  1
  O  O123  1  0.38616500  0.05687050  0.89241275  1
  O  O124  1  0.25762100  0.01446550  0.10640775  1
  O  O125  1  0.95728800  0.91462450  0.60676475  1
  O  O126  1  0.08537550  0.95728800  0.39323525  1
  O  O127  1  0.24209050  0.98536100  0.64297225  1
  O  O128  1  0.41447200  0.04267650  0.35559975  1
  O  O129  1  0.94261800  0.88519150  0.14333475  1
  O  O130  1  0.11480850  0.94261800  0.85666525  1
  O  O131  1  0.81445200  0.84269050  0.35688675  1
  O  O132  1  0.98536100  0.75790950  0.35702775  1
  O  O133  1  0.28483250  0.85693800  0.85684525  1
  O  O134  1  0.15730950  0.81445200  0.64311325  1
  O  O135  1  0.14250350  0.78510900  0.10690925  1
  O  O136  1  0.01446550  0.74237900  0.89359225  1
  O  O137  1  0.05687050  0.61383500  0.10758725  1
