# generated using pymatgen
data_Ni5Sb(PO4)6
_symmetry_space_group_name_H-M   'P 1'
_cell_length_a   8.65287450
_cell_length_b   8.65287450
_cell_length_c   20.73096935
_cell_angle_alpha   90.00000000
_cell_angle_beta   90.00000000
_cell_angle_gamma   120.00000000
_symmetry_Int_Tables_number   1
_chemical_formula_structural   Ni5Sb(PO4)6
_chemical_formula_sum   'Ni15 Sb3 P18 O72'
_cell_volume   1344.22216195
_cell_formula_units_Z   3
loop_
 _symmetry_equiv_pos_site_id
 _symmetry_equiv_pos_as_xyz
  1  'x, y, z'
loop_
 _atom_site_type_symbol
 _atom_site_label
 _atom_site_symmetry_multiplicity
 _atom_site_fract_x
 _atom_site_fract_y
 _atom_site_fract_z
 _atom_site_occupancy
  Ni  Ni0  1  0.33333333  0.66666667  0.67201367  1
  Ni  Ni1  1  0.33333333  0.66666667  0.02437767  1
  Ni  Ni2  1  0.33333333  0.66666667  0.16582167  1
  Ni  Ni3  1  0.33333333  0.66666667  0.81015967  1
  Ni  Ni4  1  0.33333333  0.66666667  0.30780667  1
  Ni  Ni5  1  0.00000000  0.00000000  0.00534700  1
  Ni  Ni6  1  0.00000000  0.00000000  0.35771100  1
  Ni  Ni7  1  0.00000000  0.00000000  0.49915500  1
  Ni  Ni8  1  0.00000000  0.00000000  0.14349300  1
  Ni  Ni9  1  0.00000000  0.00000000  0.64114000  1
  Ni  Ni10  1  0.66666667  0.33333333  0.33868033  1
  Ni  Ni11  1  0.66666667  0.33333333  0.69104433  1
  Ni  Ni12  1  0.66666667  0.33333333  0.83248833  1
  Ni  Ni13  1  0.66666667  0.33333333  0.47682633  1
  Ni  Ni14  1  0.66666667  0.33333333  0.97447333  1
  Sb  Sb15  1  0.33333333  0.66666667  0.52404867  1
  Sb  Sb16  1  0.00000000  0.00000000  0.85738200  1
  Sb  Sb17  1  0.66666667  0.33333333  0.19071533  1
  P  P18  1  0.66492100  0.63010400  0.08198800  1
  P  P19  1  0.96518300  0.33507900  0.08198800  1
  P  P20  1  0.36989600  0.03481700  0.08198800  1
  P  P21  1  0.29259833  0.29811567  0.24978967  1
  P  P22  1  0.70188433  0.99448267  0.24978967  1
  P  P23  1  0.00551733  0.70740167  0.24978967  1
  P  P24  1  0.33158767  0.96343733  0.41532133  1
  P  P25  1  0.63184967  0.66841233  0.41532133  1
  P  P26  1  0.03656267  0.36815033  0.41532133  1
  P  P27  1  0.95926500  0.63144900  0.58312300  1
  P  P28  1  0.36855100  0.32781600  0.58312300  1
  P  P29  1  0.67218400  0.04073500  0.58312300  1
  P  P30  1  0.99825433  0.29677067  0.74865467  1
  P  P31  1  0.29851633  0.00174567  0.74865467  1
  P  P32  1  0.70322933  0.70148367  0.74865467  1
  P  P33  1  0.62593167  0.96478233  0.91645633  1
  P  P34  1  0.03521767  0.66114933  0.91645633  1
  P  P35  1  0.33885067  0.37406833  0.91645633  1
  O  O36  1  0.53528667  0.67538433  0.35552133  1
  O  O37  1  0.14009767  0.46471333  0.35552133  1
  O  O38  1  0.32461567  0.85990233  0.35552133  1
  O  O39  1  0.83328067  0.81756433  0.07504533  1
  O  O40  1  0.67290800  0.53463700  0.14567500  1
  O  O41  1  0.50050900  0.65215500  0.09345800  1
  O  O42  1  0.98428367  0.16671933  0.07504533  1
  O  O43  1  0.15164600  0.49949100  0.09345800  1
  O  O44  1  0.20254033  0.20074567  0.18796567  1
  O  O45  1  0.34784500  0.84835400  0.09345800  1
  O  O46  1  0.48992333  0.32075067  0.25752167  1
  O  O47  1  0.79925433  0.00179467  0.18796567  1
  O  O48  1  0.86172900  0.32709200  0.14567500  1
  O  O49  1  0.18243567  0.01571633  0.07504533  1
  O  O50  1  0.32115467  0.48849733  0.24014533  1
  O  O51  1  0.46536300  0.13827100  0.14567500  1
  O  O52  1  0.51150267  0.83265733  0.24014533  1
  O  O53  1  0.67924933  0.16917267  0.25752167  1
  O  O54  1  0.16734267  0.67884533  0.24014533  1
  O  O55  1  0.99820533  0.79745967  0.18796567  1
  O  O56  1  0.83082733  0.51007667  0.25752167  1
  O  O57  1  0.33759967  0.46579633  0.97815433  1
  O  O58  1  0.53420367  0.87180333  0.97815433  1
  O  O59  1  0.12819667  0.66240033  0.97815433  1
  O  O60  1  0.20195333  0.00871767  0.68885467  1
  O  O61  1  0.80676433  0.79804667  0.68885467  1
  O  O62  1  0.99128233  0.19323567  0.68885467  1
  O  O63  1  0.49994733  0.15089767  0.40837867  1
  O  O64  1  0.33957467  0.86797033  0.47900833  1
  O  O65  1  0.16717567  0.98548833  0.42679133  1
  O  O66  1  0.65095033  0.50005267  0.40837867  1
  O  O67  1  0.81831267  0.83282433  0.42679133  1
  O  O68  1  0.86920700  0.53407900  0.52129900  1
  O  O69  1  0.01451167  0.18168733  0.42679133  1
  O  O70  1  0.15659000  0.65408400  0.59085500  1
  O  O71  1  0.46592100  0.33512800  0.52129900  1
  O  O72  1  0.52839567  0.66042533  0.47900833  1
  O  O73  1  0.84910233  0.34904967  0.40837867  1
  O  O74  1  0.98782133  0.82183067  0.57347867  1
  O  O75  1  0.13202967  0.47160433  0.47900833  1
  O  O76  1  0.17816933  0.16599067  0.57347867  1
  O  O77  1  0.34591600  0.50250600  0.59085500  1
  O  O78  1  0.83400933  0.01217867  0.57347867  1
  O  O79  1  0.66487200  0.13079300  0.52129900  1
  O  O80  1  0.49749400  0.84341000  0.59085500  1
  O  O81  1  0.00426633  0.79912967  0.31148767  1
  O  O82  1  0.20087033  0.20513667  0.31148767  1
  O  O83  1  0.79486333  0.99573367  0.31148767  1
  O  O84  1  0.86862000  0.34205100  0.02218800  1
  O  O85  1  0.47343100  0.13138000  0.02218800  1
  O  O86  1  0.65794900  0.52656900  0.02218800  1
  O  O87  1  0.16661400  0.48423100  0.74171200  1
  O  O88  1  0.00624133  0.20130367  0.81234167  1
  O  O89  1  0.83384233  0.31882167  0.76012467  1
  O  O90  1  0.31761700  0.83338600  0.74171200  1
  O  O91  1  0.48497933  0.16615767  0.76012467  1
  O  O92  1  0.53587367  0.86741233  0.85463233  1
  O  O93  1  0.68117833  0.51502067  0.76012467  1
  O  O94  1  0.82325667  0.98741733  0.92418833  1
  O  O95  1  0.13258767  0.66846133  0.85463233  1
  O  O96  1  0.19506233  0.99375867  0.81234167  1
  O  O97  1  0.51576900  0.68238300  0.74171200  1
  O  O98  1  0.65448800  0.15516400  0.90681200  1
  O  O99  1  0.79869633  0.80493767  0.81234167  1
  O  O100  1  0.84483600  0.49932400  0.90681200  1
  O  O101  1  0.01258267  0.83583933  0.92418833  1
  O  O102  1  0.50067600  0.34551200  0.90681200  1
  O  O103  1  0.33153867  0.46412633  0.85463233  1
  O  O104  1  0.16416067  0.17674333  0.92418833  1
  O  O105  1  0.67093300  0.13246300  0.64482100  1
  O  O106  1  0.86753700  0.53847000  0.64482100  1
  O  O107  1  0.46153000  0.32906700  0.64482100  1
