# generated using pymatgen
data_Li9Fe23O32
_symmetry_space_group_name_H-M   'P 1'
_cell_length_a   12.14923200
_cell_length_b   12.15814400
_cell_length_c   8.55486852
_cell_angle_alpha   90.00000000
_cell_angle_beta   90.06511259
_cell_angle_gamma   90.00000000
_symmetry_Int_Tables_number   1
_chemical_formula_structural   Li9Fe23O32
_chemical_formula_sum   'Li18 Fe46 O64'
_cell_volume   1263.65688284
_cell_formula_units_Z   2
loop_
 _symmetry_equiv_pos_site_id
 _symmetry_equiv_pos_as_xyz
  1  'x, y, z'
loop_
 _atom_site_type_symbol
 _atom_site_label
 _atom_site_symmetry_multiplicity
 _atom_site_fract_x
 _atom_site_fract_y
 _atom_site_fract_z
 _atom_site_occupancy
  Li  Li0  1  0.50000000  0.12812200  0.50000000  1
  Li  Li1  1  0.25263300  0.12509500  0.50157100  1
  Li  Li2  1  0.50000000  0.37161200  0.50000000  1
  Li  Li3  1  0.74736700  0.12509500  0.49842900  1
  Li  Li4  1  0.37199400  0.75144300  0.25060200  1
  Li  Li5  1  0.25108050  0.87359250  0.00251800  1
  Li  Li6  1  0.74891950  0.87359250  0.99748200  1
  Li  Li7  1  0.50000000  0.12564100  0.00000000  1
  Li  Li8  1  0.62800600  0.75144300  0.74939800  1
  Li  Li9  1  0.00000000  0.62812200  0.50000000  1
  Li  Li10  1  0.75263300  0.62509500  0.50157100  1
  Li  Li11  1  0.00000000  0.87161200  0.50000000  1
  Li  Li12  1  0.24736700  0.62509500  0.49842900  1
  Li  Li13  1  0.87199400  0.25144300  0.25060200  1
  Li  Li14  1  0.75108050  0.37359250  0.00251800  1
  Li  Li15  1  0.24891950  0.37359250  0.99748200  1
  Li  Li16  1  0.00000000  0.62564100  0.00000000  1
  Li  Li17  1  0.12800600  0.25144300  0.74939800  1
  Fe  Fe18  1  0.50000000  0.62319400  0.50000000  1
  Fe  Fe19  1  0.24654350  0.87423350  0.49840000  1
  Fe  Fe20  1  0.75345650  0.87423350  0.50160000  1
  Fe  Fe21  1  0.50000000  0.87742700  0.50000000  1
  Fe  Fe22  1  0.12874350  0.99929150  0.25247000  1
  Fe  Fe23  1  0.62756850  0.75124450  0.25163300  1
  Fe  Fe24  1  0.37353700  0.24748800  0.26143300  1
  Fe  Fe25  1  0.62470850  0.00305650  0.25279100  1
  Fe  Fe26  1  0.37496050  0.99705650  0.25058700  1
  Fe  Fe27  1  0.87049500  0.00502500  0.25396800  1
  Fe  Fe28  1  0.63006350  0.24725350  0.25873900  1
  Fe  Fe29  1  0.50000000  0.62661800  0.00000000  1
  Fe  Fe30  1  0.25536500  0.12617700  0.99915700  1
  Fe  Fe31  1  0.50000000  0.87984400  0.00000000  1
  Fe  Fe32  1  0.50000000  0.36762100  0.00000000  1
  Fe  Fe33  1  0.74463500  0.12617700  0.00084300  1
  Fe  Fe34  1  0.12950500  0.00502500  0.74603200  1
  Fe  Fe35  1  0.37529150  0.00305650  0.74720900  1
  Fe  Fe36  1  0.36993650  0.24725350  0.74126100  1
  Fe  Fe37  1  0.62503950  0.99705650  0.74941300  1
  Fe  Fe38  1  0.37243150  0.75124450  0.74836700  1
  Fe  Fe39  1  0.87125650  0.99929150  0.74753000  1
  Fe  Fe40  1  0.62646300  0.24748800  0.73856700  1
  Fe  Fe41  1  0.00000000  0.12319400  0.50000000  1
  Fe  Fe42  1  0.74654350  0.37423350  0.49840000  1
  Fe  Fe43  1  0.25345650  0.37423350  0.50160000  1
  Fe  Fe44  1  0.00000000  0.37742700  0.50000000  1
  Fe  Fe45  1  0.62874350  0.49929150  0.25247000  1
  Fe  Fe46  1  0.12756850  0.25124450  0.25163300  1
  Fe  Fe47  1  0.87353700  0.74748800  0.26143300  1
  Fe  Fe48  1  0.12470850  0.50305650  0.25279100  1
  Fe  Fe49  1  0.87496050  0.49705650  0.25058700  1
  Fe  Fe50  1  0.37049500  0.50502500  0.25396800  1
  Fe  Fe51  1  0.13006350  0.74725350  0.25873900  1
  Fe  Fe52  1  0.00000000  0.12661800  0.00000000  1
  Fe  Fe53  1  0.75536500  0.62617700  0.99915700  1
  Fe  Fe54  1  0.00000000  0.37984400  0.00000000  1
  Fe  Fe55  1  0.00000000  0.86762100  0.00000000  1
  Fe  Fe56  1  0.24463500  0.62617700  0.00084300  1
  Fe  Fe57  1  0.62950500  0.50502500  0.74603200  1
  Fe  Fe58  1  0.87529150  0.50305650  0.74720900  1
  Fe  Fe59  1  0.86993650  0.74725350  0.74126100  1
  Fe  Fe60  1  0.12503950  0.49705650  0.74941300  1
  Fe  Fe61  1  0.87243150  0.25124450  0.74836700  1
  Fe  Fe62  1  0.37125650  0.49929150  0.74753000  1
  Fe  Fe63  1  0.12646300  0.74748800  0.73856700  1
  O  O64  1  0.61486900  0.75167600  0.49664200  1
  O  O65  1  0.38025650  0.99161750  0.50557100  1
  O  O66  1  0.87884800  0.00528600  0.50551700  1
  O  O67  1  0.62482250  0.24958750  0.49739300  1
  O  O68  1  0.12115200  0.00528600  0.49448300  1
  O  O69  1  0.38513100  0.75167600  0.50335800  1
  O  O70  1  0.37517750  0.24958750  0.50260700  1
  O  O71  1  0.61974350  0.99161750  0.49442900  1
  O  O72  1  0.49840600  0.62477100  0.24992600  1
  O  O73  1  0.25776650  0.12958050  0.24952800  1
  O  O74  1  0.49806500  0.87437800  0.24520000  1
  O  O75  1  0.49709550  0.36799250  0.24134400  1
  O  O76  1  0.74828700  0.12983500  0.25026100  1
  O  O77  1  0.24717850  0.87053650  0.24795300  1
  O  O78  1  0.75874400  0.86973200  0.24889000  1
  O  O79  1  0.49731250  0.13482250  0.25079600  1
  O  O80  1  0.11514250  0.00072250  0.00463000  1
  O  O81  1  0.61684000  0.74704600  0.00304600  1
  O  O82  1  0.37753900  0.99635400  0.99368900  1
  O  O83  1  0.37874800  0.25506500  0.99618200  1
  O  O84  1  0.38316000  0.74704600  0.99695400  1
  O  O85  1  0.62246100  0.99635400  0.00631100  1
  O  O86  1  0.88485750  0.00072250  0.99537000  1
  O  O87  1  0.62125200  0.25506500  0.00381800  1
  O  O88  1  0.50159400  0.62477100  0.75007400  1
  O  O89  1  0.24125600  0.86973200  0.75111000  1
  O  O90  1  0.25171300  0.12983500  0.74973900  1
  O  O91  1  0.75282150  0.87053650  0.75204700  1
  O  O92  1  0.50268750  0.13482250  0.74920400  1
  O  O93  1  0.50193500  0.87437800  0.75480000  1
  O  O94  1  0.50290450  0.36799250  0.75865600  1
  O  O95  1  0.74223350  0.12958050  0.75047200  1
  O  O96  1  0.11486900  0.25167600  0.49664200  1
  O  O97  1  0.88025650  0.49161750  0.50557100  1
  O  O98  1  0.37884800  0.50528600  0.50551700  1
  O  O99  1  0.12482250  0.74958750  0.49739300  1
  O  O100  1  0.62115200  0.50528600  0.49448300  1
  O  O101  1  0.88513100  0.25167600  0.50335800  1
  O  O102  1  0.87517750  0.74958750  0.50260700  1
  O  O103  1  0.11974350  0.49161750  0.49442900  1
  O  O104  1  0.99840600  0.12477100  0.24992600  1
  O  O105  1  0.75776650  0.62958050  0.24952800  1
  O  O106  1  0.99806500  0.37437800  0.24520000  1
  O  O107  1  0.99709550  0.86799250  0.24134400  1
  O  O108  1  0.24828700  0.62983500  0.25026100  1
  O  O109  1  0.74717850  0.37053650  0.24795300  1
  O  O110  1  0.25874400  0.36973200  0.24889000  1
  O  O111  1  0.99731250  0.63482250  0.25079600  1
  O  O112  1  0.61514250  0.50072250  0.00463000  1
  O  O113  1  0.11684000  0.24704600  0.00304600  1
  O  O114  1  0.87753900  0.49635400  0.99368900  1
  O  O115  1  0.87874800  0.75506500  0.99618200  1
  O  O116  1  0.88316000  0.24704600  0.99695400  1
  O  O117  1  0.12246100  0.49635400  0.00631100  1
  O  O118  1  0.38485750  0.50072250  0.99537000  1
  O  O119  1  0.12125200  0.75506500  0.00381800  1
  O  O120  1  0.00159400  0.12477100  0.75007400  1
  O  O121  1  0.74125600  0.36973200  0.75111000  1
  O  O122  1  0.75171300  0.62983500  0.74973900  1
  O  O123  1  0.25282150  0.37053650  0.75204700  1
  O  O124  1  0.00268750  0.63482250  0.74920400  1
  O  O125  1  0.00193500  0.37437800  0.75480000  1
  O  O126  1  0.00290450  0.86799250  0.75865600  1
  O  O127  1  0.24223350  0.62958050  0.75047200  1
