# generated using pymatgen
data_Fe5Ni(PO4)6
_symmetry_space_group_name_H-M   'P 1'
_cell_length_a   8.68227986
_cell_length_b   8.68227986
_cell_length_c   20.32009450
_cell_angle_alpha   90.00000000
_cell_angle_beta   90.00000000
_cell_angle_gamma   120.00000000
_symmetry_Int_Tables_number   1
_chemical_formula_structural   Fe5Ni(PO4)6
_chemical_formula_sum   'Fe15 Ni3 P18 O72'
_cell_volume   1326.55089084
_cell_formula_units_Z   3
loop_
 _symmetry_equiv_pos_site_id
 _symmetry_equiv_pos_as_xyz
  1  'x, y, z'
loop_
 _atom_site_type_symbol
 _atom_site_label
 _atom_site_symmetry_multiplicity
 _atom_site_fract_x
 _atom_site_fract_y
 _atom_site_fract_z
 _atom_site_occupancy
  Fe  Fe0  1  0.33333333  0.66666667  0.66482767  1
  Fe  Fe1  1  0.33333333  0.66666667  0.02000467  1
  Fe  Fe2  1  0.33333333  0.66666667  0.16639867  1
  Fe  Fe3  1  0.33333333  0.66666667  0.81214167  1
  Fe  Fe4  1  0.33333333  0.66666667  0.31363967  1
  Fe  Fe5  1  0.00000000  0.00000000  0.99816100  1
  Fe  Fe6  1  0.00000000  0.00000000  0.35333800  1
  Fe  Fe7  1  0.00000000  0.00000000  0.49973200  1
  Fe  Fe8  1  0.00000000  0.00000000  0.14547500  1
  Fe  Fe9  1  0.00000000  0.00000000  0.64697300  1
  Fe  Fe10  1  0.66666667  0.33333333  0.33149433  1
  Fe  Fe11  1  0.66666667  0.33333333  0.68667133  1
  Fe  Fe12  1  0.66666667  0.33333333  0.83306533  1
  Fe  Fe13  1  0.66666667  0.33333333  0.47880833  1
  Fe  Fe14  1  0.66666667  0.33333333  0.98030633  1
  Ni  Ni15  1  0.33333333  0.66666667  0.52302067  1
  Ni  Ni16  1  0.00000000  0.00000000  0.85635400  1
  Ni  Ni17  1  0.66666667  0.33333333  0.18968733  1
  P  P18  1  0.36950400  0.03607600  0.08395100  1
  P  P19  1  0.66657200  0.63049600  0.08395100  1
  P  P20  1  0.96392400  0.33342800  0.08395100  1
  P  P21  1  0.70230000  0.00047300  0.24976100  1
  P  P22  1  0.99952700  0.70182700  0.24976100  1
  P  P23  1  0.29817300  0.29770000  0.24976100  1
  P  P24  1  0.03617067  0.36940933  0.41728433  1
  P  P25  1  0.33323867  0.96382933  0.41728433  1
  P  P26  1  0.63059067  0.66676133  0.41728433  1
  P  P27  1  0.36896667  0.33380633  0.58309433  1
  P  P28  1  0.66619367  0.03516033  0.58309433  1
  P  P29  1  0.96483967  0.63103333  0.58309433  1
  P  P30  1  0.70283733  0.70274267  0.75061767  1
  P  P31  1  0.99990533  0.29716267  0.75061767  1
  P  P32  1  0.29725733  0.00009467  0.75061767  1
  P  P33  1  0.03563333  0.66713967  0.91642767  1
  P  P34  1  0.33286033  0.36849367  0.91642767  1
  P  P35  1  0.63150633  0.96436667  0.91642767  1
  O  O36  1  0.32158000  0.85930800  0.35504800  1
  O  O37  1  0.53772800  0.67842000  0.35504800  1
  O  O38  1  0.14069200  0.46227200  0.35504800  1
  O  O39  1  0.17765233  0.00942367  0.07144767  1
  O  O40  1  0.46036300  0.13447200  0.14622700  1
  O  O41  1  0.34053733  0.84204067  0.09389267  1
  O  O42  1  0.83177133  0.82234767  0.07144767  1
  O  O43  1  0.50150333  0.65946267  0.09389267  1
  O  O44  1  0.80798633  0.01278467  0.18794267  1
  O  O45  1  0.15795933  0.49849667  0.09389267  1
  O  O46  1  0.67674933  0.16426967  0.26207967  1
  O  O47  1  0.98721533  0.79520167  0.18794267  1
  O  O48  1  0.67410900  0.53963700  0.14622700  1
  O  O49  1  0.99057633  0.16822867  0.07144767  1
  O  O50  1  0.51134167  0.83365033  0.23825633  1
  O  O51  1  0.86552800  0.32589100  0.14622700  1
  O  O52  1  0.16634967  0.67769133  0.23825633  1
  O  O53  1  0.83573033  0.51247967  0.26207967  1
  O  O54  1  0.32230867  0.48865833  0.23825633  1
  O  O55  1  0.20479833  0.19201367  0.18794267  1
  O  O56  1  0.48752033  0.32325067  0.26207967  1
  O  O57  1  0.52442000  0.87150800  0.97804900  1
  O  O58  1  0.12849200  0.65291200  0.97804900  1
  O  O59  1  0.34708800  0.47558000  0.97804900  1
  O  O60  1  0.98824667  0.19264133  0.68838133  1
  O  O61  1  0.20439467  0.01175333  0.68838133  1
  O  O62  1  0.80735867  0.79560533  0.68838133  1
  O  O63  1  0.84431900  0.34275700  0.40478100  1
  O  O64  1  0.12702967  0.46780533  0.47956033  1
  O  O65  1  0.00720400  0.17537400  0.42722600  1
  O  O66  1  0.49843800  0.15568100  0.40478100  1
  O  O67  1  0.16817000  0.99279600  0.42722600  1
  O  O68  1  0.47465300  0.34611800  0.52127600  1
  O  O69  1  0.82462600  0.83183000  0.42722600  1
  O  O70  1  0.34341600  0.49760300  0.59541300  1
  O  O71  1  0.65388200  0.12853500  0.52127600  1
  O  O72  1  0.34077567  0.87297033  0.47956033  1
  O  O73  1  0.65724300  0.50156200  0.40478100  1
  O  O74  1  0.17800833  0.16698367  0.57158967  1
  O  O75  1  0.53219467  0.65922433  0.47956033  1
  O  O76  1  0.83301633  0.01102467  0.57158967  1
  O  O77  1  0.50239700  0.84581300  0.59541300  1
  O  O78  1  0.98897533  0.82199167  0.57158967  1
  O  O79  1  0.87146500  0.52534700  0.52127600  1
  O  O80  1  0.15418700  0.65658400  0.59541300  1
  O  O81  1  0.19108667  0.20484133  0.31138233  1
  O  O82  1  0.79515867  0.98624533  0.31138233  1
  O  O83  1  0.01375467  0.80891333  0.31138233  1
  O  O84  1  0.65491333  0.52597467  0.02171467  1
  O  O85  1  0.87106133  0.34508667  0.02171467  1
  O  O86  1  0.47402533  0.12893867  0.02171467  1
  O  O87  1  0.51098567  0.67609033  0.73811433  1
  O  O88  1  0.79369633  0.80113867  0.81289367  1
  O  O89  1  0.67387067  0.50870733  0.76055933  1
  O  O90  1  0.16510467  0.48901433  0.73811433  1
  O  O91  1  0.83483667  0.32612933  0.76055933  1
  O  O92  1  0.14131967  0.67945133  0.85460933  1
  O  O93  1  0.49129267  0.16516333  0.76055933  1
  O  O94  1  0.01008267  0.83093633  0.92874633  1
  O  O95  1  0.32054867  0.46186833  0.85460933  1
  O  O96  1  0.00744233  0.20630367  0.81289367  1
  O  O97  1  0.32390967  0.83489533  0.73811433  1
  O  O98  1  0.84467500  0.50031700  0.90492300  1
  O  O99  1  0.19886133  0.99255767  0.81289367  1
  O  O100  1  0.49968300  0.34435800  0.90492300  1
  O  O101  1  0.16906367  0.17914633  0.92874633  1
  O  O102  1  0.65564200  0.15532500  0.90492300  1
  O  O103  1  0.53813167  0.85868033  0.85460933  1
  O  O104  1  0.82085367  0.98991733  0.92874633  1
  O  O105  1  0.85775333  0.53817467  0.64471567  1
  O  O106  1  0.46182533  0.31957867  0.64471567  1
  O  O107  1  0.68042133  0.14224667  0.64471567  1
