# generated using pymatgen
data_NaLiV(OF)2
_symmetry_space_group_name_H-M   'P 1'
_cell_length_a   6.69751924
_cell_length_b   3.89377951
_cell_length_c   7.04948517
_cell_angle_alpha   90.00000000
_cell_angle_beta   117.40678520
_cell_angle_gamma   90.00000000
_symmetry_Int_Tables_number   1
_chemical_formula_structural   NaLiV(OF)2
_chemical_formula_sum   'Na2 Li2 V2 O4 F4'
_cell_volume   163.20698078
_cell_formula_units_Z   2
loop_
 _symmetry_equiv_pos_site_id
 _symmetry_equiv_pos_as_xyz
  1  'x, y, z'
loop_
 _atom_site_type_symbol
 _atom_site_label
 _atom_site_symmetry_multiplicity
 _atom_site_fract_x
 _atom_site_fract_y
 _atom_site_fract_z
 _atom_site_occupancy
  Na  Na0  1  0.52069125  0.25000000  0.69100250  1
  Na  Na1  1  0.47930875  0.75000000  0.30899750  1
  Li  Li2  1  0.84673175  0.75000000  0.95907750  1
  Li  Li3  1  0.15326825  0.25000000  0.04092250  1
  V  V4  1  0.92460125  0.25000000  0.31006700  1
  V  V5  1  0.07539875  0.75000000  0.68993300  1
  O  O6  1  0.94241525  0.75000000  0.36876800  1
  O  O7  1  0.05758475  0.25000000  0.63123200  1
  O  O8  1  0.84666275  0.25000000  0.03549050  1
  O  O9  1  0.15333725  0.75000000  0.96450950  1
  F  F10  1  0.38764375  0.75000000  0.74152950  1
  F  F11  1  0.61235625  0.25000000  0.25847050  1
  F  F12  1  0.74768525  0.75000000  0.65360650  1
  F  F13  1  0.25231475  0.25000000  0.34639350  1
