# generated using pymatgen
data_Li4Mn2Si3O10
_symmetry_space_group_name_H-M   'P 1'
_cell_length_a   9.31503600
_cell_length_b   5.46708600
_cell_length_c   17.20884901
_cell_angle_alpha   90.00000000
_cell_angle_beta   99.91885649
_cell_angle_gamma   90.00000000
_symmetry_Int_Tables_number   1
_chemical_formula_structural   Li4Mn2Si3O10
_chemical_formula_sum   'Li16 Mn8 Si12 O40'
_cell_volume   863.28009731
_cell_formula_units_Z   4
loop_
 _symmetry_equiv_pos_site_id
 _symmetry_equiv_pos_as_xyz
  1  'x, y, z'
loop_
 _atom_site_type_symbol
 _atom_site_label
 _atom_site_symmetry_multiplicity
 _atom_site_fract_x
 _atom_site_fract_y
 _atom_site_fract_z
 _atom_site_occupancy
  Li  Li0  1  0.75420400  0.92322800  0.55256000  1
  Li  Li1  1  0.68458800  0.10561000  0.72926300  1
  Li  Li2  1  0.75420400  0.07677200  0.05256000  1
  Li  Li3  1  0.68458800  0.89439000  0.22926300  1
  Li  Li4  1  0.31541200  0.10561000  0.77073700  1
  Li  Li5  1  0.24579600  0.92322800  0.94744000  1
  Li  Li6  1  0.31541200  0.89439000  0.27073700  1
  Li  Li7  1  0.24579600  0.07677200  0.44744000  1
  Li  Li8  1  0.25420400  0.42322800  0.55256000  1
  Li  Li9  1  0.18458800  0.60561000  0.72926300  1
  Li  Li10  1  0.25420400  0.57677200  0.05256000  1
  Li  Li11  1  0.18458800  0.39439000  0.22926300  1
  Li  Li12  1  0.81541200  0.60561000  0.77073700  1
  Li  Li13  1  0.74579600  0.42322800  0.94744000  1
  Li  Li14  1  0.81541200  0.39439000  0.27073700  1
  Li  Li15  1  0.74579600  0.57677200  0.44744000  1
  Mn  Mn16  1  0.10556850  0.90807550  0.58407600  1
  Mn  Mn17  1  0.10556850  0.09192450  0.08407600  1
  Mn  Mn18  1  0.89443150  0.90807550  0.91592400  1
  Mn  Mn19  1  0.89443150  0.09192450  0.41592400  1
  Mn  Mn20  1  0.60556850  0.40807550  0.58407600  1
  Mn  Mn21  1  0.60556850  0.59192450  0.08407600  1
  Mn  Mn22  1  0.39443150  0.40807550  0.91592400  1
  Mn  Mn23  1  0.39443150  0.59192450  0.41592400  1
  Si  Si24  1  0.56180750  0.90240950  0.90087800  1
  Si  Si25  1  0.50000000  0.61633600  0.75000000  1
  Si  Si26  1  0.43819250  0.90240950  0.59912200  1
  Si  Si27  1  0.56180750  0.09759050  0.40087800  1
  Si  Si28  1  0.50000000  0.38366400  0.25000000  1
  Si  Si29  1  0.43819250  0.09759050  0.09912200  1
  Si  Si30  1  0.06180750  0.40240950  0.90087800  1
  Si  Si31  1  0.00000000  0.11633600  0.75000000  1
  Si  Si32  1  0.93819250  0.40240950  0.59912200  1
  Si  Si33  1  0.06180750  0.59759050  0.40087800  1
  Si  Si34  1  0.00000000  0.88366400  0.25000000  1
  Si  Si35  1  0.93819250  0.59759050  0.09912200  1
  O  O36  1  0.87923550  0.96063850  0.78658400  1
  O  O37  1  0.87923550  0.03936150  0.28658400  1
  O  O38  1  0.69574650  0.08503350  0.93523700  1
  O  O39  1  0.60007150  0.02905250  0.61143200  1
  O  O40  1  0.59585700  0.81545500  0.81208400  1
  O  O41  1  0.42817400  0.64763300  0.54779800  1
  O  O42  1  0.57182600  0.64763300  0.95220200  1
  O  O43  1  0.69574650  0.91496650  0.43523700  1
  O  O44  1  0.60007150  0.97094750  0.11143200  1
  O  O45  1  0.40414300  0.81545500  0.68791600  1
  O  O46  1  0.59585700  0.18454500  0.31208400  1
  O  O47  1  0.39992850  0.02905250  0.88856800  1
  O  O48  1  0.30425350  0.08503350  0.56476300  1
  O  O49  1  0.42817400  0.35236700  0.04779800  1
  O  O50  1  0.57182600  0.35236700  0.45220200  1
  O  O51  1  0.40414300  0.18454500  0.18791600  1
  O  O52  1  0.39992850  0.97094750  0.38856800  1
  O  O53  1  0.30425350  0.91496650  0.06476300  1
  O  O54  1  0.12076450  0.96063850  0.71341600  1
  O  O55  1  0.12076450  0.03936150  0.21341600  1
  O  O56  1  0.37923550  0.46063850  0.78658400  1
  O  O57  1  0.37923550  0.53936150  0.28658400  1
  O  O58  1  0.19574650  0.58503350  0.93523700  1
  O  O59  1  0.10007150  0.52905250  0.61143200  1
  O  O60  1  0.09585700  0.31545500  0.81208400  1
  O  O61  1  0.92817400  0.14763300  0.54779800  1
  O  O62  1  0.07182600  0.14763300  0.95220200  1
  O  O63  1  0.19574650  0.41496650  0.43523700  1
  O  O64  1  0.10007150  0.47094750  0.11143200  1
  O  O65  1  0.90414300  0.31545500  0.68791600  1
  O  O66  1  0.09585700  0.68454500  0.31208400  1
  O  O67  1  0.89992850  0.52905250  0.88856800  1
  O  O68  1  0.80425350  0.58503350  0.56476300  1
  O  O69  1  0.92817400  0.85236700  0.04779800  1
  O  O70  1  0.07182600  0.85236700  0.45220200  1
  O  O71  1  0.90414300  0.68454500  0.18791600  1
  O  O72  1  0.89992850  0.47094750  0.38856800  1
  O  O73  1  0.80425350  0.41496650  0.06476300  1
  O  O74  1  0.62076450  0.46063850  0.71341600  1
  O  O75  1  0.62076450  0.53936150  0.21341600  1
