# generated using pymatgen
data_LiFeCO4
_symmetry_space_group_name_H-M   'P 1'
_cell_length_a   8.18281000
_cell_length_b   14.53788000
_cell_length_c   6.08252700
_cell_angle_alpha   90.00000000
_cell_angle_beta   90.00000000
_cell_angle_gamma   90.00000000
_symmetry_Int_Tables_number   1
_chemical_formula_structural   LiFeCO4
_chemical_formula_sum   'Li8 Fe8 C8 O32'
_cell_volume   723.58172956
_cell_formula_units_Z   8
loop_
 _symmetry_equiv_pos_site_id
 _symmetry_equiv_pos_as_xyz
  1  'x, y, z'
loop_
 _atom_site_type_symbol
 _atom_site_label
 _atom_site_symmetry_multiplicity
 _atom_site_fract_x
 _atom_site_fract_y
 _atom_site_fract_z
 _atom_site_occupancy
  Li  Li0  1  0.38157200  0.41126800  0.49832900  1
  Li  Li1  1  0.88157200  0.08873200  0.99832900  1
  Li  Li2  1  0.61842800  0.41126800  0.99832900  1
  Li  Li3  1  0.11842800  0.08873200  0.49832900  1
  Li  Li4  1  0.88157200  0.91126800  0.49832900  1
  Li  Li5  1  0.38157200  0.58873200  0.99832900  1
  Li  Li6  1  0.11842800  0.91126800  0.99832900  1
  Li  Li7  1  0.61842800  0.58873200  0.49832900  1
  Fe  Fe8  1  0.00981400  0.28800100  0.23791300  1
  Fe  Fe9  1  0.99018600  0.28800100  0.73791300  1
  Fe  Fe10  1  0.50981400  0.21199900  0.73791300  1
  Fe  Fe11  1  0.49018600  0.21199900  0.23791300  1
  Fe  Fe12  1  0.50981400  0.78800100  0.23791300  1
  Fe  Fe13  1  0.49018600  0.78800100  0.73791300  1
  Fe  Fe14  1  0.00981400  0.71199900  0.73791300  1
  Fe  Fe15  1  0.99018600  0.71199900  0.23791300  1
  C  C16  1  0.24548950  0.39909150  0.97698100  1
  C  C17  1  0.75451050  0.39909150  0.47698100  1
  C  C18  1  0.74548950  0.10090850  0.47698100  1
  C  C19  1  0.25451050  0.10090850  0.97698100  1
  C  C20  1  0.74548950  0.89909150  0.97698100  1
  C  C21  1  0.25451050  0.89909150  0.47698100  1
  C  C22  1  0.24548950  0.60090850  0.47698100  1
  C  C23  1  0.75451050  0.60090850  0.97698100  1
  O  O24  1  0.36458300  0.45289700  0.96436700  1
  O  O25  1  0.19473000  0.36874100  0.16918700  1
  O  O26  1  0.17242850  0.37176250  0.79541700  1
  O  O27  1  0.04870800  0.22026300  0.49131400  1
  O  O28  1  0.95129200  0.22026300  0.99131400  1
  O  O29  1  0.86458300  0.04710300  0.46436700  1
  O  O30  1  0.82757150  0.37176250  0.29541700  1
  O  O31  1  0.80527000  0.36874100  0.66918700  1
  O  O32  1  0.69473000  0.13125900  0.66918700  1
  O  O33  1  0.67242850  0.12823750  0.29541700  1
  O  O34  1  0.63541700  0.45289700  0.46436700  1
  O  O35  1  0.54870800  0.27973700  0.99131400  1
  O  O36  1  0.45129200  0.27973700  0.49131400  1
  O  O37  1  0.32757150  0.12823750  0.79541700  1
  O  O38  1  0.30527000  0.13125900  0.16918700  1
  O  O39  1  0.13541700  0.04710300  0.96436700  1
  O  O40  1  0.86458300  0.95289700  0.96436700  1
  O  O41  1  0.69473000  0.86874100  0.16918700  1
  O  O42  1  0.67242850  0.87176250  0.79541700  1
  O  O43  1  0.54870800  0.72026300  0.49131400  1
  O  O44  1  0.45129200  0.72026300  0.99131400  1
  O  O45  1  0.36458300  0.54710300  0.46436700  1
  O  O46  1  0.32757150  0.87176250  0.29541700  1
  O  O47  1  0.30527000  0.86874100  0.66918700  1
  O  O48  1  0.19473000  0.63125900  0.66918700  1
  O  O49  1  0.17242850  0.62823750  0.29541700  1
  O  O50  1  0.13541700  0.95289700  0.46436700  1
  O  O51  1  0.04870800  0.77973700  0.99131400  1
  O  O52  1  0.95129200  0.77973700  0.49131400  1
  O  O53  1  0.82757150  0.62823750  0.79541700  1
  O  O54  1  0.80527000  0.63125900  0.16918700  1
  O  O55  1  0.63541700  0.54710300  0.96436700  1
