# generated using pymatgen
data_Li3Mn(PO4)2
_symmetry_space_group_name_H-M   'P 1'
_cell_length_a   8.50912334
_cell_length_b   5.35882689
_cell_length_c   6.20052945
_cell_angle_alpha   90.00000000
_cell_angle_beta   91.19427668
_cell_angle_gamma   90.00000000
_symmetry_Int_Tables_number   1
_chemical_formula_structural   Li3Mn(PO4)2
_chemical_formula_sum   'Li6 Mn2 P4 O16'
_cell_volume   282.67602134
_cell_formula_units_Z   2
loop_
 _symmetry_equiv_pos_site_id
 _symmetry_equiv_pos_as_xyz
  1  'x, y, z'
loop_
 _atom_site_type_symbol
 _atom_site_label
 _atom_site_symmetry_multiplicity
 _atom_site_fract_x
 _atom_site_fract_y
 _atom_site_fract_z
 _atom_site_occupancy
  Li  Li0  1  0.00000000  0.00000000  0.50000000  1
  Li  Li1  1  0.83142250  0.50000000  0.26941450  1
  Li  Li2  1  0.16857750  0.50000000  0.73058550  1
  Li  Li3  1  0.50000000  0.50000000  0.50000000  1
  Li  Li4  1  0.33142250  0.00000000  0.26941450  1
  Li  Li5  1  0.66857750  0.00000000  0.73058550  1
  Mn  Mn6  1  0.00000000  0.00000000  0.00000000  1
  Mn  Mn7  1  0.50000000  0.50000000  0.00000000  1
  P  P8  1  0.85350325  0.50000000  0.76758700  1
  P  P9  1  0.14649675  0.50000000  0.23241300  1
  P  P10  1  0.35350325  0.00000000  0.76758700  1
  P  P11  1  0.64649675  0.00000000  0.23241300  1
  O  O12  1  0.75566750  0.50000000  0.56078325  1
  O  O13  1  0.24433250  0.50000000  0.43921675  1
  O  O14  1  0.75267250  0.50000000  0.96872800  1
  O  O15  1  0.24732750  0.50000000  0.03127200  1
  O  O16  1  0.96958800  0.73408200  0.76953800  1
  O  O17  1  0.03041200  0.73408200  0.23046200  1
  O  O18  1  0.96958800  0.26591800  0.76953800  1
  O  O19  1  0.03041200  0.26591800  0.23046200  1
  O  O20  1  0.25566750  0.00000000  0.56078325  1
  O  O21  1  0.74433250  0.00000000  0.43921675  1
  O  O22  1  0.25267250  0.00000000  0.96872800  1
  O  O23  1  0.74732750  0.00000000  0.03127200  1
  O  O24  1  0.46958800  0.23408200  0.76953800  1
  O  O25  1  0.53041200  0.23408200  0.23046200  1
  O  O26  1  0.46958800  0.76591800  0.76953800  1
  O  O27  1  0.53041200  0.76591800  0.23046200  1
