# generated using pymatgen
data_Fe5O7F3
_symmetry_space_group_name_H-M   'P 1'
_cell_length_a   6.52502400
_cell_length_b   6.70521000
_cell_length_c   15.20995195
_cell_angle_alpha   90.00000000
_cell_angle_beta   90.10983428
_cell_angle_gamma   90.00000000
_symmetry_Int_Tables_number   1
_chemical_formula_structural   Fe5O7F3
_chemical_formula_sum   'Fe20 O28 F12'
_cell_volume   665.45936530
_cell_formula_units_Z   4
loop_
 _symmetry_equiv_pos_site_id
 _symmetry_equiv_pos_as_xyz
  1  'x, y, z'
loop_
 _atom_site_type_symbol
 _atom_site_label
 _atom_site_symmetry_multiplicity
 _atom_site_fract_x
 _atom_site_fract_y
 _atom_site_fract_z
 _atom_site_occupancy
  Fe  Fe0  1  0.00505350  0.00107550  0.79912600  1
  Fe  Fe1  1  0.97556300  0.99312700  0.59402500  1
  Fe  Fe2  1  0.02443700  0.99312700  0.40597500  1
  Fe  Fe3  1  0.99494650  0.00107550  0.20087400  1
  Fe  Fe4  1  0.50000000  0.51018800  0.00000000  1
  Fe  Fe5  1  0.51011500  0.03041600  0.70653500  1
  Fe  Fe6  1  0.48988500  0.03041600  0.29346500  1
  Fe  Fe7  1  0.50000000  0.99410700  0.50000000  1
  Fe  Fe8  1  0.49902850  0.97597550  0.09875100  1
  Fe  Fe9  1  0.50097150  0.97597550  0.90124900  1
  Fe  Fe10  1  0.50505350  0.50107550  0.79912600  1
  Fe  Fe11  1  0.47556300  0.49312700  0.59402500  1
  Fe  Fe12  1  0.52443700  0.49312700  0.40597500  1
  Fe  Fe13  1  0.49494650  0.50107550  0.20087400  1
  Fe  Fe14  1  0.00000000  0.01018800  0.00000000  1
  Fe  Fe15  1  0.01011500  0.53041600  0.70653500  1
  Fe  Fe16  1  0.98988500  0.53041600  0.29346500  1
  Fe  Fe17  1  0.00000000  0.49410700  0.50000000  1
  Fe  Fe18  1  0.99902850  0.47597550  0.09875100  1
  Fe  Fe19  1  0.00097150  0.47597550  0.90124900  1
  O  O20  1  0.50000000  0.69614400  0.50000000  1
  O  O21  1  0.49719200  0.68142000  0.10248200  1
  O  O22  1  0.50280800  0.68142000  0.89751800  1
  O  O23  1  0.30783550  0.00051650  0.80200500  1
  O  O24  1  0.32059750  0.00295250  0.39994000  1
  O  O25  1  0.29962900  0.99829900  0.19609400  1
  O  O26  1  0.30756100  0.98804900  0.00007600  1
  O  O27  1  0.70037100  0.99829900  0.80390600  1
  O  O28  1  0.67940250  0.00295250  0.60006000  1
  O  O29  1  0.69216450  0.00051650  0.19799500  1
  O  O30  1  0.69243900  0.98804900  0.99992400  1
  O  O31  1  0.49595400  0.32220800  0.70104800  1
  O  O32  1  0.50404600  0.32220800  0.29895200  1
  O  O33  1  0.50000000  0.29742300  0.50000000  1
  O  O34  1  0.00000000  0.19614400  0.50000000  1
  O  O35  1  0.99719200  0.18142000  0.10248200  1
  O  O36  1  0.00280800  0.18142000  0.89751800  1
  O  O37  1  0.80783550  0.50051650  0.80200500  1
  O  O38  1  0.82059750  0.50295250  0.39994000  1
  O  O39  1  0.79962900  0.49829900  0.19609400  1
  O  O40  1  0.80756100  0.48804900  0.00007600  1
  O  O41  1  0.20037100  0.49829900  0.80390600  1
  O  O42  1  0.17940250  0.50295250  0.60006000  1
  O  O43  1  0.19216450  0.50051650  0.19799500  1
  O  O44  1  0.19243900  0.48804900  0.99992400  1
  O  O45  1  0.99595400  0.82220800  0.70104800  1
  O  O46  1  0.00404600  0.82220800  0.29895200  1
  O  O47  1  0.00000000  0.79742300  0.50000000  1
  F  F48  1  0.49220050  0.70589950  0.69664300  1
  F  F49  1  0.50779950  0.70589950  0.30335700  1
  F  F50  1  0.29439750  0.00593050  0.60370900  1
  F  F51  1  0.70560250  0.00593050  0.39629100  1
  F  F52  1  0.50328350  0.29520150  0.90164700  1
  F  F53  1  0.49671650  0.29520150  0.09835300  1
  F  F54  1  0.99220050  0.20589950  0.69664300  1
  F  F55  1  0.00779950  0.20589950  0.30335700  1
  F  F56  1  0.79439750  0.50593050  0.60370900  1
  F  F57  1  0.20560250  0.50593050  0.39629100  1
  F  F58  1  0.00328350  0.79520150  0.90164700  1
  F  F59  1  0.99671650  0.79520150  0.09835300  1
