# generated using pymatgen
data_Li2FeP2HO8
_symmetry_space_group_name_H-M   'P 1'
_cell_length_a   6.27238200
_cell_length_b   7.55730300
_cell_length_c   7.87920701
_cell_angle_alpha   90.00000000
_cell_angle_beta   124.47838500
_cell_angle_gamma   90.00000000
_symmetry_Int_Tables_number   1
_chemical_formula_structural   Li2FeP2HO8
_chemical_formula_sum   'Li4 Fe2 P4 H2 O16'
_cell_volume   307.88470796
_cell_formula_units_Z   2
loop_
 _symmetry_equiv_pos_site_id
 _symmetry_equiv_pos_as_xyz
  1  'x, y, z'
loop_
 _atom_site_type_symbol
 _atom_site_label
 _atom_site_symmetry_multiplicity
 _atom_site_fract_x
 _atom_site_fract_y
 _atom_site_fract_z
 _atom_site_occupancy
  Li  Li0  1  0.97480700  0.95372900  0.34113500  1
  Li  Li1  1  0.01140100  0.62349900  0.18846800  1
  Li  Li2  1  0.97480700  0.04627100  0.84113500  1
  Li  Li3  1  0.01140100  0.37650100  0.68846800  1
  Fe  Fe4  1  0.59861900  0.75114800  0.56807600  1
  Fe  Fe5  1  0.59861900  0.24885200  0.06807600  1
  P  P6  1  0.52316500  0.32694500  0.62177700  1
  P  P7  1  0.18278700  0.80531500  0.69771100  1
  P  P8  1  0.52316500  0.67305500  0.12177700  1
  P  P9  1  0.18278700  0.19468500  0.19771100  1
  H  H10  1  0.98023900  0.26230800  0.40447500  1
  H  H11  1  0.98023900  0.73769200  0.90447500  1
  O  O12  1  0.89025500  0.22941000  0.04525400  1
  O  O13  1  0.39216700  0.67135200  0.23897600  1
  O  O14  1  0.27471400  0.34625000  0.37478800  1
  O  O15  1  0.68529800  0.50432400  0.15510300  1
  O  O16  1  0.28350400  0.75838700  0.56237300  1
  O  O17  1  0.24481800  0.01335600  0.28967300  1
  O  O18  1  0.67670200  0.83243500  0.13913800  1
  O  O19  1  0.39216700  0.32864800  0.73897600  1
  O  O20  1  0.83452300  0.18137200  0.35505200  1
  O  O21  1  0.27471400  0.65375000  0.87478800  1
  O  O22  1  0.68529800  0.49567600  0.65510300  1
  O  O23  1  0.89025500  0.77059000  0.54525400  1
  O  O24  1  0.24481800  0.98664400  0.78967300  1
  O  O25  1  0.67670200  0.16756500  0.63913800  1
  O  O26  1  0.83452300  0.81862800  0.85505200  1
  O  O27  1  0.28350400  0.24161300  0.06237300  1
