# generated using pymatgen
data_Li2Fe3SnO8
_symmetry_space_group_name_H-M   'P 1'
_cell_length_a   6.05371266
_cell_length_b   6.05371266
_cell_length_c   14.68629878
_cell_angle_alpha   90.00000000
_cell_angle_beta   90.00000000
_cell_angle_gamma   120.00000000
_symmetry_Int_Tables_number   1
_chemical_formula_structural   Li2Fe3SnO8
_chemical_formula_sum   'Li6 Fe9 Sn3 O24'
_cell_volume   466.10804345
_cell_formula_units_Z   3
loop_
 _symmetry_equiv_pos_site_id
 _symmetry_equiv_pos_as_xyz
  1  'x, y, z'
loop_
 _atom_site_type_symbol
 _atom_site_label
 _atom_site_symmetry_multiplicity
 _atom_site_fract_x
 _atom_site_fract_y
 _atom_site_fract_z
 _atom_site_occupancy
  Li  Li0  1  0.33333333  0.66666667  0.78639667  1
  Li  Li1  1  0.33333333  0.66666667  0.16422367  1
  Li  Li2  1  0.00000000  0.00000000  0.11973000  1
  Li  Li3  1  0.00000000  0.00000000  0.49755700  1
  Li  Li4  1  0.66666667  0.33333333  0.45306333  1
  Li  Li5  1  0.66666667  0.33333333  0.83089033  1
  Fe  Fe6  1  0.49202133  0.50797867  0.00235067  1
  Fe  Fe7  1  0.01595733  0.50797867  0.00235067  1
  Fe  Fe8  1  0.49202133  0.98404267  0.00235067  1
  Fe  Fe9  1  0.15868800  0.84131200  0.33568400  1
  Fe  Fe10  1  0.68262400  0.84131200  0.33568400  1
  Fe  Fe11  1  0.15868800  0.31737600  0.33568400  1
  Fe  Fe12  1  0.82535467  0.17464533  0.66901733  1
  Fe  Fe13  1  0.34929067  0.17464533  0.66901733  1
  Fe  Fe14  1  0.82535467  0.65070933  0.66901733  1
  Sn  Sn15  1  0.33333333  0.66666667  0.54997267  1
  Sn  Sn16  1  0.00000000  0.00000000  0.88330600  1
  Sn  Sn17  1  0.66666667  0.33333333  0.21663933  1
  O  O18  1  0.33333333  0.66666667  0.92297767  1
  O  O19  1  0.17927333  0.35854667  0.07227067  1
  O  O20  1  0.64145333  0.82072667  0.07227067  1
  O  O21  1  0.17927333  0.82072667  0.07227067  1
  O  O22  1  0.48593833  0.51406167  0.25784467  1
  O  O23  1  0.02812333  0.51406167  0.25784467  1
  O  O24  1  0.48593833  0.97187667  0.25784467  1
  O  O25  1  0.33333333  0.66666667  0.41236367  1
  O  O26  1  0.00000000  0.00000000  0.25631100  1
  O  O27  1  0.84594000  0.69188000  0.40560400  1
  O  O28  1  0.30812000  0.15406000  0.40560400  1
  O  O29  1  0.84594000  0.15406000  0.40560400  1
  O  O30  1  0.15260500  0.84739500  0.59117800  1
  O  O31  1  0.69479000  0.84739500  0.59117800  1
  O  O32  1  0.15260500  0.30521000  0.59117800  1
  O  O33  1  0.00000000  0.00000000  0.74569700  1
  O  O34  1  0.66666667  0.33333333  0.58964433  1
  O  O35  1  0.51260667  0.02521333  0.73893733  1
  O  O36  1  0.97478667  0.48739333  0.73893733  1
  O  O37  1  0.51260667  0.48739333  0.73893733  1
  O  O38  1  0.81927167  0.18072833  0.92451133  1
  O  O39  1  0.36145667  0.18072833  0.92451133  1
  O  O40  1  0.81927167  0.63854333  0.92451133  1
  O  O41  1  0.66666667  0.33333333  0.07903033  1
