# generated using pymatgen
data_LiMn(PO3)3
_symmetry_space_group_name_H-M   'P 1'
_cell_length_a   9.99076910
_cell_length_b   9.99076910
_cell_length_c   6.19127002
_cell_angle_alpha   90.00000000
_cell_angle_beta   90.00000000
_cell_angle_gamma   120.00000000
_symmetry_Int_Tables_number   1
_chemical_formula_structural   LiMn(PO3)3
_chemical_formula_sum   'Li3 Mn3 P9 O27'
_cell_volume   535.19028501
_cell_formula_units_Z   3
loop_
 _symmetry_equiv_pos_site_id
 _symmetry_equiv_pos_as_xyz
  1  'x, y, z'
loop_
 _atom_site_type_symbol
 _atom_site_label
 _atom_site_symmetry_multiplicity
 _atom_site_fract_x
 _atom_site_fract_y
 _atom_site_fract_z
 _atom_site_occupancy
  Li  Li0  1  0.00000000  0.00000000  0.99676900  1
  Li  Li1  1  0.66666667  0.33333333  0.33010233  1
  Li  Li2  1  0.33333333  0.66666667  0.66343567  1
  Mn  Mn3  1  0.00000000  0.00000000  0.50187717  1
  Mn  Mn4  1  0.66666667  0.33333333  0.83521050  1
  Mn  Mn5  1  0.33333333  0.66666667  0.16854383  1
  P  P6  1  0.53823333  0.98755417  0.47108767  1
  P  P7  1  0.44932083  0.46176667  0.47108767  1
  P  P8  1  0.01244583  0.55067917  0.47108767  1
  P  P9  1  0.20490000  0.32088750  0.80442100  1
  P  P10  1  0.11598750  0.79510000  0.80442100  1
  P  P11  1  0.67911250  0.88401250  0.80442100  1
  P  P12  1  0.87156667  0.65422083  0.13775433  1
  P  P13  1  0.78265417  0.12843333  0.13775433  1
  P  P14  1  0.34577917  0.21734583  0.13775433  1
  O  O15  1  0.64460433  0.92411442  0.57057742  1
  O  O16  1  0.27951008  0.35539567  0.57057742  1
  O  O17  1  0.07588558  0.72048992  0.57057742  1
  O  O18  1  0.90130533  0.10074117  0.24812492  1
  O  O19  1  0.89925883  0.80056417  0.24812492  1
  O  O20  1  0.19943583  0.09869467  0.24812492  1
  O  O21  1  0.81703733  0.86279342  0.77272842  1
  O  O22  1  0.04575608  0.18296267  0.77272842  1
  O  O23  1  0.13720658  0.95424392  0.77272842  1
  O  O24  1  0.31127100  0.25744775  0.90391075  1
  O  O25  1  0.94617675  0.68872900  0.90391075  1
  O  O26  1  0.74255225  0.05382325  0.90391075  1
  O  O27  1  0.56797200  0.43407450  0.58145825  1
  O  O28  1  0.56592550  0.13389750  0.58145825  1
  O  O29  1  0.86610250  0.43202800  0.58145825  1
  O  O30  1  0.48370400  0.19612675  0.10606175  1
  O  O31  1  0.71242275  0.51629600  0.10606175  1
  O  O32  1  0.80387325  0.28757725  0.10606175  1
  O  O33  1  0.97793767  0.59078108  0.23724408  1
  O  O34  1  0.61284342  0.02206233  0.23724408  1
  O  O35  1  0.40921892  0.38715658  0.23724408  1
  O  O36  1  0.23463867  0.76740783  0.91479158  1
  O  O37  1  0.23259217  0.46723083  0.91479158  1
  O  O38  1  0.53276917  0.76536133  0.91479158  1
  O  O39  1  0.15037067  0.52946008  0.43939508  1
  O  O40  1  0.37908942  0.84962933  0.43939508  1
  O  O41  1  0.47053992  0.62091058  0.43939508  1
