# generated using pymatgen
data_VF4
_symmetry_space_group_name_H-M   'P 1'
_cell_length_a   9.78050200
_cell_length_b   6.07638400
_cell_length_c   4.98743557
_cell_angle_alpha   90.00000000
_cell_angle_beta   90.52899656
_cell_angle_gamma   90.00000000
_symmetry_Int_Tables_number   1
_chemical_formula_structural   VF4
_chemical_formula_sum   'V4 F16'
_cell_volume   296.39109112
_cell_formula_units_Z   4
loop_
 _symmetry_equiv_pos_site_id
 _symmetry_equiv_pos_as_xyz
  1  'x, y, z'
loop_
 _atom_site_type_symbol
 _atom_site_label
 _atom_site_symmetry_multiplicity
 _atom_site_fract_x
 _atom_site_fract_y
 _atom_site_fract_z
 _atom_site_occupancy
  V  V0  1  0.50000000  0.16102000  0.25000000  1
  V  V1  1  0.50000000  0.83898000  0.75000000  1
  V  V2  1  0.00000000  0.66102000  0.25000000  1
  V  V3  1  0.00000000  0.33898000  0.75000000  1
  F  F4  1  0.39717300  0.90796700  0.42659000  1
  F  F5  1  0.38726700  0.35838400  0.37888800  1
  F  F6  1  0.61273300  0.35838400  0.12111200  1
  F  F7  1  0.60282700  0.90796700  0.07341000  1
  F  F8  1  0.38726700  0.64161600  0.87888800  1
  F  F9  1  0.39717300  0.09203300  0.92659000  1
  F  F10  1  0.60282700  0.09203300  0.57341000  1
  F  F11  1  0.61273300  0.64161600  0.62111200  1
  F  F12  1  0.89717300  0.40796700  0.42659000  1
  F  F13  1  0.88726700  0.85838400  0.37888800  1
  F  F14  1  0.11273300  0.85838400  0.12111200  1
  F  F15  1  0.10282700  0.40796700  0.07341000  1
  F  F16  1  0.88726700  0.14161600  0.87888800  1
  F  F17  1  0.89717300  0.59203300  0.92659000  1
  F  F18  1  0.10282700  0.59203300  0.57341000  1
  F  F19  1  0.11273300  0.14161600  0.62111200  1
