# generated using pymatgen
data_LiNiP2O7
_symmetry_space_group_name_H-M   'P 1'
_cell_length_a   9.61284200
_cell_length_b   8.18916200
_cell_length_c   13.60030024
_cell_angle_alpha   90.00000000
_cell_angle_beta   107.21587131
_cell_angle_gamma   90.00000000
_symmetry_Int_Tables_number   1
_chemical_formula_structural   LiNiP2O7
_chemical_formula_sum   'Li8 Ni8 P16 O56'
_cell_volume   1022.66276907
_cell_formula_units_Z   8
loop_
 _symmetry_equiv_pos_site_id
 _symmetry_equiv_pos_as_xyz
  1  'x, y, z'
loop_
 _atom_site_type_symbol
 _atom_site_label
 _atom_site_symmetry_multiplicity
 _atom_site_fract_x
 _atom_site_fract_y
 _atom_site_fract_z
 _atom_site_occupancy
  Li  Li0  1  0.27990550  0.50116750  0.66680800  1
  Li  Li1  1  0.72009450  0.50116750  0.83319200  1
  Li  Li2  1  0.27990550  0.49883250  0.16680800  1
  Li  Li3  1  0.72009450  0.49883250  0.33319200  1
  Li  Li4  1  0.77990550  0.00116750  0.66680800  1
  Li  Li5  1  0.22009450  0.00116750  0.83319200  1
  Li  Li6  1  0.77990550  0.99883250  0.16680800  1
  Li  Li7  1  0.22009450  0.99883250  0.33319200  1
  Ni  Ni8  1  0.22167500  0.36257400  0.35790900  1
  Ni  Ni9  1  0.22167500  0.63742600  0.85790900  1
  Ni  Ni10  1  0.77832500  0.36257400  0.14209100  1
  Ni  Ni11  1  0.77832500  0.63742600  0.64209100  1
  Ni  Ni12  1  0.72167500  0.86257400  0.35790900  1
  Ni  Ni13  1  0.72167500  0.13742600  0.85790900  1
  Ni  Ni14  1  0.27832500  0.86257400  0.14209100  1
  Ni  Ni15  1  0.27832500  0.13742600  0.64209100  1
  P  P16  1  0.93316050  0.80636250  0.86552500  1
  P  P17  1  0.95694350  0.69045850  0.08575700  1
  P  P18  1  0.04305650  0.69045850  0.41424300  1
  P  P19  1  0.93316050  0.19363750  0.36552500  1
  P  P20  1  0.06683950  0.80636250  0.63447500  1
  P  P21  1  0.95694350  0.30954150  0.58575700  1
  P  P22  1  0.04305650  0.30954150  0.91424300  1
  P  P23  1  0.06683950  0.19363750  0.13447500  1
  P  P24  1  0.43316050  0.30636250  0.86552500  1
  P  P25  1  0.45694350  0.19045850  0.08575700  1
  P  P26  1  0.54305650  0.19045850  0.41424300  1
  P  P27  1  0.43316050  0.69363750  0.36552500  1
  P  P28  1  0.56683950  0.30636250  0.63447500  1
  P  P29  1  0.45694350  0.80954150  0.58575700  1
  P  P30  1  0.54305650  0.80954150  0.91424300  1
  P  P31  1  0.56683950  0.69363750  0.13447500  1
  O  O32  1  0.09862300  0.82086200  0.88450400  1
  O  O33  1  0.12353100  0.68454200  0.11961600  1
  O  O34  1  0.90137700  0.82086200  0.61549600  1
  O  O35  1  0.86566250  0.66128350  0.79640700  1
  O  O36  1  0.10233900  0.80054700  0.34479600  1
  O  O37  1  0.35658750  0.46739550  0.82699900  1
  O  O38  1  0.90322600  0.77391500  0.97382500  1
  O  O39  1  0.11255000  0.52100700  0.42195000  1
  O  O40  1  0.88745000  0.52100700  0.07805000  1
  O  O41  1  0.89766100  0.80054700  0.15520400  1
  O  O42  1  0.09677400  0.77391500  0.52617500  1
  O  O43  1  0.12353100  0.31545800  0.61961600  1
  O  O44  1  0.64341250  0.46739550  0.67300100  1
  O  O45  1  0.13433750  0.66128350  0.70359300  1
  O  O46  1  0.86566250  0.33871650  0.29640700  1
  O  O47  1  0.35658750  0.53260450  0.32699900  1
  O  O48  1  0.87646900  0.68454200  0.38038400  1
  O  O49  1  0.90322600  0.22608500  0.47382500  1
  O  O50  1  0.10233900  0.19945300  0.84479600  1
  O  O51  1  0.11255000  0.47899300  0.92195000  1
  O  O52  1  0.88745000  0.47899300  0.57805000  1
  O  O53  1  0.09677400  0.22608500  0.02617500  1
  O  O54  1  0.64341250  0.53260450  0.17300100  1
  O  O55  1  0.89766100  0.19945300  0.65520400  1
  O  O56  1  0.13433750  0.33871650  0.20359300  1
  O  O57  1  0.09862300  0.17913800  0.38450400  1
  O  O58  1  0.87646900  0.31545800  0.88038400  1
  O  O59  1  0.90137700  0.17913800  0.11549600  1
  O  O60  1  0.59862300  0.32086200  0.88450400  1
  O  O61  1  0.62353100  0.18454200  0.11961600  1
  O  O62  1  0.40137700  0.32086200  0.61549600  1
  O  O63  1  0.36566250  0.16128350  0.79640700  1
  O  O64  1  0.60233900  0.30054700  0.34479600  1
  O  O65  1  0.85658750  0.96739550  0.82699900  1
  O  O66  1  0.40322600  0.27391500  0.97382500  1
  O  O67  1  0.61255000  0.02100700  0.42195000  1
  O  O68  1  0.38745000  0.02100700  0.07805000  1
  O  O69  1  0.39766100  0.30054700  0.15520400  1
  O  O70  1  0.59677400  0.27391500  0.52617500  1
  O  O71  1  0.62353100  0.81545800  0.61961600  1
  O  O72  1  0.14341250  0.96739550  0.67300100  1
  O  O73  1  0.63433750  0.16128350  0.70359300  1
  O  O74  1  0.36566250  0.83871650  0.29640700  1
  O  O75  1  0.85658750  0.03260450  0.32699900  1
  O  O76  1  0.37646900  0.18454200  0.38038400  1
  O  O77  1  0.40322600  0.72608500  0.47382500  1
  O  O78  1  0.60233900  0.69945300  0.84479600  1
  O  O79  1  0.61255000  0.97899300  0.92195000  1
  O  O80  1  0.38745000  0.97899300  0.57805000  1
  O  O81  1  0.59677400  0.72608500  0.02617500  1
  O  O82  1  0.14341250  0.03260450  0.17300100  1
  O  O83  1  0.39766100  0.69945300  0.65520400  1
  O  O84  1  0.63433750  0.83871650  0.20359300  1
  O  O85  1  0.59862300  0.67913800  0.38450400  1
  O  O86  1  0.37646900  0.81545800  0.88038400  1
  O  O87  1  0.40137700  0.67913800  0.11549600  1
