# generated using pymatgen
data_Cr(Bi7O12)2
_symmetry_space_group_name_H-M   'P 1'
_cell_length_a   12.33921909
_cell_length_b   17.25931000
_cell_length_c   8.75503003
_cell_angle_alpha   90.00000000
_cell_angle_beta   134.62440058
_cell_angle_gamma   90.00000000
_symmetry_Int_Tables_number   1
_chemical_formula_structural   Cr(Bi7O12)2
_chemical_formula_sum   'Cr2 Bi28 O48'
_cell_volume   1327.03433353
_cell_formula_units_Z   2
loop_
 _symmetry_equiv_pos_site_id
 _symmetry_equiv_pos_as_xyz
  1  'x, y, z'
loop_
 _atom_site_type_symbol
 _atom_site_label
 _atom_site_symmetry_multiplicity
 _atom_site_fract_x
 _atom_site_fract_y
 _atom_site_fract_z
 _atom_site_occupancy
  Cr  Cr0  1  0.00000000  0.00583000  0.00000000  1
  Cr  Cr1  1  0.50000000  0.50583000  0.00000000  1
  Bi  Bi2  1  0.28402750  0.49969750  0.22687600  1
  Bi  Bi3  1  0.70686750  0.16810450  0.81389200  1
  Bi  Bi4  1  0.60847900  0.33097200  0.40242000  1
  Bi  Bi5  1  0.56277800  0.00181400  0.35659400  1
  Bi  Bi6  1  0.50000000  0.15997750  0.00000000  1
  Bi  Bi7  1  0.43722200  0.00181400  0.64340600  1
  Bi  Bi8  1  0.39152100  0.33097200  0.59758000  1
  Bi  Bi9  1  0.29313250  0.16810450  0.18610800  1
  Bi  Bi10  1  0.71597250  0.49969750  0.77312400  1
  Bi  Bi11  1  0.20415950  0.33163550  0.81310300  1
  Bi  Bi12  1  0.10977700  0.16885700  0.40308800  1
  Bi  Bi13  1  0.00000000  0.34115950  0.00000000  1
  Bi  Bi14  1  0.89022300  0.16885700  0.59691200  1
  Bi  Bi15  1  0.79584050  0.33163550  0.18689700  1
  Bi  Bi16  1  0.78402750  0.99969750  0.22687600  1
  Bi  Bi17  1  0.20686750  0.66810450  0.81389200  1
  Bi  Bi18  1  0.10847900  0.83097200  0.40242000  1
  Bi  Bi19  1  0.06277800  0.50181400  0.35659400  1
  Bi  Bi20  1  0.00000000  0.65997750  0.00000000  1
  Bi  Bi21  1  0.93722200  0.50181400  0.64340600  1
  Bi  Bi22  1  0.89152100  0.83097200  0.59758000  1
  Bi  Bi23  1  0.79313250  0.66810450  0.18610800  1
  Bi  Bi24  1  0.21597250  0.99969750  0.77312400  1
  Bi  Bi25  1  0.70415950  0.83163550  0.81310300  1
  Bi  Bi26  1  0.60977700  0.66885700  0.40308800  1
  Bi  Bi27  1  0.50000000  0.84115950  0.00000000  1
  Bi  Bi28  1  0.39022300  0.66885700  0.59691200  1
  Bi  Bi29  1  0.29584050  0.83163550  0.18689700  1
  O  O30  1  0.81666250  0.02117150  0.74205100  1
  O  O31  1  0.74542000  0.24665900  0.32629300  1
  O  O32  1  0.68213100  0.07899000  0.30447100  1
  O  O33  1  0.62592000  0.07994000  0.94119900  1
  O  O34  1  0.57969350  0.24678450  0.83264700  1
  O  O35  1  0.50000000  0.40498100  0.00000000  1
  O  O36  1  0.50000000  0.38205000  0.50000000  1
  O  O37  1  0.50000000  0.11852300  0.50000000  1
  O  O38  1  0.42030650  0.24678450  0.16735300  1
  O  O39  1  0.37408000  0.07994000  0.05880100  1
  O  O40  1  0.31786900  0.07899000  0.69552900  1
  O  O41  1  0.24659600  0.25390200  0.32838700  1
  O  O42  1  0.25458000  0.24665900  0.67370700  1
  O  O43  1  0.18416400  0.42187000  0.30905400  1
  O  O44  1  0.18333750  0.02117150  0.25794900  1
  O  O45  1  0.12546500  0.42019900  0.94261200  1
  O  O46  1  0.07982750  0.25299450  0.83310800  1
  O  O47  1  0.00000000  0.11762050  0.50000000  1
  O  O48  1  0.00000000  0.38143700  0.50000000  1
  O  O49  1  0.00000000  0.11688950  0.00000000  1
  O  O50  1  0.92017250  0.25299450  0.16689200  1
  O  O51  1  0.87453500  0.42019900  0.05738800  1
  O  O52  1  0.81583600  0.42187000  0.69094600  1
  O  O53  1  0.75340400  0.25390200  0.67161300  1
  O  O54  1  0.31666250  0.52117150  0.74205100  1
  O  O55  1  0.24542000  0.74665900  0.32629300  1
  O  O56  1  0.18213100  0.57899000  0.30447100  1
  O  O57  1  0.12592000  0.57994000  0.94119900  1
  O  O58  1  0.07969350  0.74678450  0.83264700  1
  O  O59  1  0.00000000  0.90498100  0.00000000  1
  O  O60  1  0.00000000  0.88205000  0.50000000  1
  O  O61  1  0.00000000  0.61852300  0.50000000  1
  O  O62  1  0.92030650  0.74678450  0.16735300  1
  O  O63  1  0.87408000  0.57994000  0.05880100  1
  O  O64  1  0.81786900  0.57899000  0.69552900  1
  O  O65  1  0.74659600  0.75390200  0.32838700  1
  O  O66  1  0.75458000  0.74665900  0.67370700  1
  O  O67  1  0.68416400  0.92187000  0.30905400  1
  O  O68  1  0.68333750  0.52117150  0.25794900  1
  O  O69  1  0.62546500  0.92019900  0.94261200  1
  O  O70  1  0.57982750  0.75299450  0.83310800  1
  O  O71  1  0.50000000  0.61762050  0.50000000  1
  O  O72  1  0.50000000  0.88143700  0.50000000  1
  O  O73  1  0.50000000  0.61688950  0.00000000  1
  O  O74  1  0.42017250  0.75299450  0.16689200  1
  O  O75  1  0.37453500  0.92019900  0.05738800  1
  O  O76  1  0.31583600  0.92187000  0.69094600  1
  O  O77  1  0.25340400  0.75390200  0.67161300  1
