# generated using pymatgen
data_Li2MgMn3O8
_symmetry_space_group_name_H-M   'P 1'
_cell_length_a   5.83840462
_cell_length_b   5.83840462
_cell_length_c   14.72144402
_cell_angle_alpha   90.00000000
_cell_angle_beta   90.00000000
_cell_angle_gamma   120.00000000
_symmetry_Int_Tables_number   1
_chemical_formula_structural   Li2MgMn3O8
_chemical_formula_sum   'Li6 Mg3 Mn9 O24'
_cell_volume   434.57968756
_cell_formula_units_Z   3
loop_
 _symmetry_equiv_pos_site_id
 _symmetry_equiv_pos_as_xyz
  1  'x, y, z'
loop_
 _atom_site_type_symbol
 _atom_site_label
 _atom_site_symmetry_multiplicity
 _atom_site_fract_x
 _atom_site_fract_y
 _atom_site_fract_z
 _atom_site_occupancy
  Li  Li0  1  0.00000000  0.00000000  0.11575867  1
  Li  Li1  1  0.66666667  0.33333333  0.21757467  1
  Li  Li2  1  0.66666667  0.33333333  0.44909200  1
  Li  Li3  1  0.33333333  0.66666667  0.55090800  1
  Li  Li4  1  0.33333333  0.66666667  0.78242533  1
  Li  Li5  1  0.00000000  1.00000000  0.88424133  1
  Mg  Mg6  1  0.33333333  0.66666667  0.16666667  1
  Mg  Mg7  1  1.00000000  1.00000000  0.50000000  1
  Mg  Mg8  1  0.66666667  0.33333333  0.83333333  1
  Mn  Mn9  1  0.00000000  0.50000000  0.00000000  1
  Mn  Mn10  1  0.50000000  0.00000000  0.00000000  1
  Mn  Mn11  1  0.16666667  0.83333333  0.33333333  1
  Mn  Mn12  1  0.66666667  0.83333333  0.33333333  1
  Mn  Mn13  1  0.16666667  0.33333333  0.33333333  1
  Mn  Mn14  1  0.83333333  0.16666667  0.66666667  1
  Mn  Mn15  1  0.33333333  0.16666667  0.66666667  1
  Mn  Mn16  1  0.83333333  0.66666667  0.66666667  1
  Mn  Mn17  1  0.50000000  0.50000000  1.00000000  1
  O  O18  1  0.00000000  0.00000000  0.26327200  1
  O  O19  1  0.18174967  0.81825033  0.07200533  1
  O  O20  1  0.18174967  0.36349933  0.07200533  1
  O  O21  1  0.63650067  0.81825033  0.07200533  1
  O  O22  1  0.03016600  0.51508300  0.26132800  1
  O  O23  1  0.48491700  0.96983400  0.26132800  1
  O  O24  1  0.48491700  0.51508300  0.26132800  1
  O  O25  1  0.66666667  0.33333333  0.07006133  1
  O  O26  1  0.66666667  0.33333333  0.59660533  1
  O  O27  1  0.84841633  0.15158367  0.40533867  1
  O  O28  1  0.84841633  0.69683267  0.40533867  1
  O  O29  1  0.30316733  0.15158367  0.40533867  1
  O  O30  1  0.69683267  0.84841633  0.59466133  1
  O  O31  1  0.15158367  0.30316733  0.59466133  1
  O  O32  1  0.15158367  0.84841633  0.59466133  1
  O  O33  1  0.33333333  0.66666667  0.40339467  1
  O  O34  1  0.33333333  0.66666667  0.92993867  1
  O  O35  1  0.51508300  0.48491700  0.73867200  1
  O  O36  1  0.51508300  0.03016600  0.73867200  1
  O  O37  1  0.96983400  0.48491700  0.73867200  1
  O  O38  1  0.36349933  0.18174967  0.92799467  1
  O  O39  1  0.81825033  0.63650067  0.92799467  1
  O  O40  1  0.81825033  0.18174967  0.92799467  1
  O  O41  1  0.00000000  1.00000000  0.73672800  1
