# generated using pymatgen
data_LiMnPO4
_symmetry_space_group_name_H-M   'P 1'
_cell_length_a   4.40097100
_cell_length_b   4.86167800
_cell_length_c   14.70473500
_cell_angle_alpha   90.00000000
_cell_angle_beta   90.00000000
_cell_angle_gamma   90.00000000
_symmetry_Int_Tables_number   1
_chemical_formula_structural   LiMnPO4
_chemical_formula_sum   'Li4 Mn4 P4 O16'
_cell_volume   314.62403773
_cell_formula_units_Z   4
loop_
 _symmetry_equiv_pos_site_id
 _symmetry_equiv_pos_as_xyz
  1  'x, y, z'
loop_
 _atom_site_type_symbol
 _atom_site_label
 _atom_site_symmetry_multiplicity
 _atom_site_fract_x
 _atom_site_fract_y
 _atom_site_fract_z
 _atom_site_occupancy
  Li  Li0  1  0.00000000  0.75000000  0.24849150  1
  Li  Li1  1  0.00000000  0.25000000  0.75150850  1
  Li  Li2  1  0.50000000  0.25000000  0.25150850  1
  Li  Li3  1  0.50000000  0.75000000  0.74849150  1
  Mn  Mn4  1  0.00000000  0.75000000  0.92956250  1
  Mn  Mn5  1  0.50000000  0.25000000  0.57043750  1
  Mn  Mn6  1  0.00000000  0.25000000  0.07043750  1
  Mn  Mn7  1  0.50000000  0.75000000  0.42956250  1
  P  P8  1  0.00000000  0.25000000  0.38587750  1
  P  P9  1  0.00000000  0.75000000  0.61412250  1
  P  P10  1  0.50000000  0.25000000  0.88587750  1
  P  P11  1  0.50000000  0.75000000  0.11412250  1
  O  O12  1  0.18253700  0.46008000  0.32647750  1
  O  O13  1  0.18253700  0.96008000  0.67352250  1
  O  O14  1  0.31746300  0.96008000  0.17352250  1
  O  O15  1  0.31746300  0.46008000  0.82647750  1
  O  O16  1  0.68253700  0.53992000  0.17352250  1
  O  O17  1  0.68253700  0.03992000  0.82647750  1
  O  O18  1  0.81746300  0.03992000  0.32647750  1
  O  O19  1  0.81746300  0.53992000  0.67352250  1
  O  O20  1  0.26745000  0.59172900  0.05472950  1
  O  O21  1  0.26745000  0.09172900  0.94527050  1
  O  O22  1  0.23255000  0.09172900  0.44527050  1
  O  O23  1  0.23255000  0.59172900  0.55472950  1
  O  O24  1  0.76745000  0.90827100  0.55472950  1
  O  O25  1  0.76745000  0.40827100  0.44527050  1
  O  O26  1  0.73255000  0.90827100  0.05472950  1
  O  O27  1  0.73255000  0.40827100  0.94527050  1
