# generated using pymatgen
data_Be(Bi3O5)4
_symmetry_space_group_name_H-M   'P 1'
_cell_length_a   10.11469200
_cell_length_b   10.11469200
_cell_length_c   10.11469200
_cell_angle_alpha   90.00000000
_cell_angle_beta   90.00000000
_cell_angle_gamma   90.00000000
_symmetry_Int_Tables_number   1
_chemical_formula_structural   Be(Bi3O5)4
_chemical_formula_sum   'Be2 Bi24 O40'
_cell_volume   1034.80373633
_cell_formula_units_Z   2
loop_
 _symmetry_equiv_pos_site_id
 _symmetry_equiv_pos_as_xyz
  1  'x, y, z'
loop_
 _atom_site_type_symbol
 _atom_site_label
 _atom_site_symmetry_multiplicity
 _atom_site_fract_x
 _atom_site_fract_y
 _atom_site_fract_z
 _atom_site_occupancy
  Be  Be0  1  0.00000000  0.00000000  0.00000000  1
  Be  Be1  1  0.50000000  0.50000000  0.50000000  1
  Bi  Bi2  1  0.31402100  0.17298100  0.99006800  1
  Bi  Bi3  1  0.50993200  0.81402100  0.32701900  1
  Bi  Bi4  1  0.68597900  0.17298100  0.00993200  1
  Bi  Bi5  1  0.17298100  0.99006800  0.31402100  1
  Bi  Bi6  1  0.49006800  0.18597900  0.32701900  1
  Bi  Bi7  1  0.32701900  0.50993200  0.81402100  1
  Bi  Bi8  1  0.17298100  0.00993200  0.68597900  1
  Bi  Bi9  1  0.99006800  0.31402100  0.17298100  1
  Bi  Bi10  1  0.32701900  0.49006800  0.18597900  1
  Bi  Bi11  1  0.81402100  0.32701900  0.50993200  1
  Bi  Bi12  1  0.00993200  0.68597900  0.17298100  1
  Bi  Bi13  1  0.18597900  0.32701900  0.49006800  1
  Bi  Bi14  1  0.81402100  0.67298100  0.49006800  1
  Bi  Bi15  1  0.00993200  0.31402100  0.82701900  1
  Bi  Bi16  1  0.18597900  0.67298100  0.50993200  1
  Bi  Bi17  1  0.67298100  0.49006800  0.81402100  1
  Bi  Bi18  1  0.99006800  0.68597900  0.82701900  1
  Bi  Bi19  1  0.82701900  0.00993200  0.31402100  1
  Bi  Bi20  1  0.67298100  0.50993200  0.18597900  1
  Bi  Bi21  1  0.49006800  0.81402100  0.67298100  1
  Bi  Bi22  1  0.82701900  0.99006800  0.68597900  1
  Bi  Bi23  1  0.31402100  0.82701900  0.00993200  1
  Bi  Bi24  1  0.50993200  0.18597900  0.67298100  1
  Bi  Bi25  1  0.68597900  0.82701900  0.99006800  1
  O  O26  1  0.48956200  0.25036000  0.87038500  1
  O  O27  1  0.37038500  0.01043800  0.24964000  1
  O  O28  1  0.20016050  0.79983950  0.20016050  1
  O  O29  1  0.20016050  0.20016050  0.79983950  1
  O  O30  1  0.62961500  0.98956200  0.24964000  1
  O  O31  1  0.51043800  0.25036000  0.12961500  1
  O  O32  1  0.40265200  0.59734800  0.40265200  1
  O  O33  1  0.40265200  0.40265200  0.59734800  1
  O  O34  1  0.25036000  0.87038500  0.48956200  1
  O  O35  1  0.24964000  0.37038500  0.01043800  1
  O  O36  1  0.79983950  0.20016050  0.20016050  1
  O  O37  1  0.09734800  0.09734800  0.09734800  1
  O  O38  1  0.24964000  0.62961500  0.98956200  1
  O  O39  1  0.25036000  0.12961500  0.51043800  1
  O  O40  1  0.59734800  0.40265200  0.40265200  1
  O  O41  1  0.87038500  0.48956200  0.25036000  1
  O  O42  1  0.01043800  0.24964000  0.37038500  1
  O  O43  1  0.98956200  0.24964000  0.62961500  1
  O  O44  1  0.12961500  0.51043800  0.25036000  1
  O  O45  1  0.29983950  0.29983950  0.29983950  1
  O  O46  1  0.98956200  0.75036000  0.37038500  1
  O  O47  1  0.87038500  0.51043800  0.74964000  1
  O  O48  1  0.70016050  0.29983950  0.70016050  1
  O  O49  1  0.70016050  0.70016050  0.29983950  1
  O  O50  1  0.12961500  0.48956200  0.74964000  1
  O  O51  1  0.01043800  0.75036000  0.62961500  1
  O  O52  1  0.90265200  0.09734800  0.90265200  1
  O  O53  1  0.90265200  0.90265200  0.09734800  1
  O  O54  1  0.75036000  0.37038500  0.98956200  1
  O  O55  1  0.74964000  0.87038500  0.51043800  1
  O  O56  1  0.29983950  0.70016050  0.70016050  1
  O  O57  1  0.59734800  0.59734800  0.59734800  1
  O  O58  1  0.74964000  0.12961500  0.48956200  1
  O  O59  1  0.75036000  0.62961500  0.01043800  1
  O  O60  1  0.09734800  0.90265200  0.90265200  1
  O  O61  1  0.37038500  0.98956200  0.75036000  1
  O  O62  1  0.51043800  0.74964000  0.87038500  1
  O  O63  1  0.48956200  0.74964000  0.12961500  1
  O  O64  1  0.62961500  0.01043800  0.75036000  1
  O  O65  1  0.79983950  0.79983950  0.79983950  1
