# generated using pymatgen
data_Mn2V3P6WO24
_symmetry_space_group_name_H-M   'P 1'
_cell_length_a   8.72321771
_cell_length_b   8.72321771
_cell_length_c   21.39483266
_cell_angle_alpha   90.00000000
_cell_angle_beta   90.00000000
_cell_angle_gamma   120.00000000
_symmetry_Int_Tables_number   1
_chemical_formula_structural   Mn2V3P6WO24
_chemical_formula_sum   'Mn6 V9 P18 W3 O72'
_cell_volume   1409.91505798
_cell_formula_units_Z   3
loop_
 _symmetry_equiv_pos_site_id
 _symmetry_equiv_pos_as_xyz
  1  'x, y, z'
loop_
 _atom_site_type_symbol
 _atom_site_label
 _atom_site_symmetry_multiplicity
 _atom_site_fract_x
 _atom_site_fract_y
 _atom_site_fract_z
 _atom_site_occupancy
  Mn  Mn0  1  0.00000000  0.00000000  0.00478100  1
  Mn  Mn1  1  0.33333333  0.66666667  0.16684867  1
  Mn  Mn2  1  0.66666667  0.33333333  0.33811433  1
  Mn  Mn3  1  0.00000000  0.00000000  0.50018200  1
  Mn  Mn4  1  0.33333333  0.66666667  0.67144767  1
  Mn  Mn5  1  0.66666667  0.33333333  0.83351533  1
  V  V6  1  0.33333333  0.66666667  0.02334667  1
  V  V7  1  0.00000000  0.00000000  0.14434000  1
  V  V8  1  0.33333333  0.66666667  0.30997867  1
  V  V9  1  0.00000000  0.00000000  0.35668000  1
  V  V10  1  0.66666667  0.33333333  0.47767333  1
  V  V11  1  0.00000000  0.00000000  0.64331200  1
  V  V12  1  0.66666667  0.33333333  0.69001333  1
  V  V13  1  0.33333333  0.66666667  0.81100667  1
  V  V14  1  0.66666667  0.33333333  0.97664533  1
  P  P15  1  0.96196833  0.33422467  0.08158367  1
  P  P16  1  0.37225633  0.03803167  0.08158367  1
  P  P17  1  0.66577533  0.62774367  0.08158367  1
  P  P18  1  0.00460300  0.71178400  0.24986800  1
  P  P19  1  0.28821600  0.29281900  0.24986800  1
  P  P20  1  0.70718100  0.99539700  0.24986800  1
  P  P21  1  0.62863500  0.66755800  0.41491700  1
  P  P22  1  0.03892300  0.37136500  0.41491700  1
  P  P23  1  0.33244200  0.96107700  0.41491700  1
  P  P24  1  0.67126967  0.04511733  0.58320133  1
  P  P25  1  0.95488267  0.62615233  0.58320133  1
  P  P26  1  0.37384767  0.32873033  0.58320133  1
  P  P27  1  0.29530167  0.00089133  0.74825033  1
  P  P28  1  0.70558967  0.70469833  0.74825033  1
  P  P29  1  0.99910867  0.29441033  0.74825033  1
  P  P30  1  0.33793633  0.37845067  0.91653467  1
  P  P31  1  0.62154933  0.95948567  0.91653467  1
  P  P32  1  0.04051433  0.66206367  0.91653467  1
  W  W33  1  0.66666667  0.33333333  0.18974433  1
  W  W34  1  0.33333333  0.66666667  0.52307767  1
  W  W35  1  0.00000000  0.00000000  0.85641100  1
  O  O36  1  0.47265600  0.13829700  0.02417400  1
  O  O37  1  0.66564100  0.52734400  0.02417400  1
  O  O38  1  0.86170300  0.33435900  0.02417400  1
  O  O39  1  0.98056533  0.16658067  0.07876067  1
  O  O40  1  0.85949400  0.33077000  0.14304000  1
  O  O41  1  0.14601200  0.50134100  0.08964300  1
  O  O42  1  0.18601533  0.01943467  0.07876067  1
  O  O43  1  0.35532900  0.85398800  0.08964300  1
  O  O44  1  0.00057267  0.80354233  0.18993733  1
  O  O45  1  0.49865900  0.64467100  0.08964300  1
  O  O46  1  0.83324733  0.51614767  0.25259967  1
  O  O47  1  0.19645767  0.19703033  0.18993733  1
  O  O48  1  0.47127600  0.14050600  0.14304000  1
  O  O49  1  0.83341933  0.81398467  0.07876067  1
  O  O50  1  0.16562833  0.68288767  0.24543167  1
  O  O51  1  0.66923000  0.52872400  0.14304000  1
  O  O52  1  0.31711233  0.48274067  0.24543167  1
  O  O53  1  0.48385233  0.31709967  0.25259967  1
  O  O54  1  0.51725933  0.83437167  0.24543167  1
  O  O55  1  0.80296967  0.99942733  0.18993733  1
  O  O56  1  0.68290033  0.16675267  0.25259967  1
  O  O57  1  0.80554833  0.00679067  0.30972967  1
  O  O58  1  0.99320933  0.79875767  0.30972967  1
  O  O59  1  0.20124233  0.19445167  0.30972967  1
  O  O60  1  0.13932267  0.47163033  0.35750733  1
  O  O61  1  0.33230767  0.86067733  0.35750733  1
  O  O62  1  0.52836967  0.66769233  0.35750733  1
  O  O63  1  0.64723200  0.49991400  0.41209400  1
  O  O64  1  0.52616067  0.66410333  0.47637333  1
  O  O65  1  0.81267867  0.83467433  0.42297633  1
  O  O66  1  0.85268200  0.35276800  0.41209400  1
  O  O67  1  0.02199567  0.18732133  0.42297633  1
  O  O68  1  0.66723933  0.13687567  0.52327067  1
  O  O69  1  0.16532567  0.97800433  0.42297633  1
  O  O70  1  0.49991400  0.84948100  0.58593300  1
  O  O71  1  0.86312433  0.53036367  0.52327067  1
  O  O72  1  0.13794267  0.47383933  0.47637333  1
  O  O73  1  0.50008600  0.14731800  0.41209400  1
  O  O74  1  0.83229500  0.01622100  0.57876500  1
  O  O75  1  0.33589667  0.86205733  0.47637333  1
  O  O76  1  0.98377900  0.81607400  0.57876500  1
  O  O77  1  0.15051900  0.65043300  0.58593300  1
  O  O78  1  0.18392600  0.16770500  0.57876500  1
  O  O79  1  0.46963633  0.33276067  0.52327067  1
  O  O80  1  0.34956700  0.50008600  0.58593300  1
  O  O81  1  0.47221500  0.34012400  0.64306300  1
  O  O82  1  0.65987600  0.13209100  0.64306300  1
  O  O83  1  0.86790900  0.52778500  0.64306300  1
  O  O84  1  0.80598933  0.80496367  0.69084067  1
  O  O85  1  0.99897433  0.19401067  0.69084067  1
  O  O86  1  0.19503633  0.00102567  0.69084067  1
  O  O87  1  0.31389867  0.83324733  0.74542733  1
  O  O88  1  0.19282733  0.99743667  0.80970667  1
  O  O89  1  0.47934533  0.16800767  0.75630967  1
  O  O90  1  0.51934867  0.68610133  0.74542733  1
  O  O91  1  0.68866233  0.52065467  0.75630967  1
  O  O92  1  0.33390600  0.47020900  0.85660400  1
  O  O93  1  0.83199233  0.31133767  0.75630967  1
  O  O94  1  0.16658067  0.18281433  0.91926633  1
  O  O95  1  0.52979100  0.86369700  0.85660400  1
  O  O96  1  0.80460933  0.80717267  0.80970667  1
  O  O97  1  0.16675267  0.48065133  0.74542733  1
  O  O98  1  0.49896167  0.34955433  0.91209833  1
  O  O99  1  0.00256333  0.19539067  0.80970667  1
  O  O100  1  0.65044567  0.14940733  0.91209833  1
  O  O101  1  0.81718567  0.98376633  0.91926633  1
  O  O102  1  0.85059267  0.50103833  0.91209833  1
  O  O103  1  0.13630300  0.66609400  0.85660400  1
  O  O104  1  0.01623367  0.83341933  0.91926633  1
  O  O105  1  0.13888167  0.67345733  0.97639633  1
  O  O106  1  0.32654267  0.46542433  0.97639633  1
  O  O107  1  0.53457567  0.86111833  0.97639633  1
