# generated using pymatgen
data_Li4Ti3Mn2Co3O16
_symmetry_space_group_name_H-M   'P 1'
_cell_length_a   9.96994000
_cell_length_b   5.81456600
_cell_length_c   9.50576485
_cell_angle_alpha   90.00000000
_cell_angle_beta   90.79187295
_cell_angle_gamma   90.00000000
_symmetry_Int_Tables_number   1
_chemical_formula_structural   Li4Ti3Mn2Co3O16
_chemical_formula_sum   'Li8 Ti6 Mn4 Co6 O32'
_cell_volume   551.00486892
_cell_formula_units_Z   2
loop_
 _symmetry_equiv_pos_site_id
 _symmetry_equiv_pos_as_xyz
  1  'x, y, z'
loop_
 _atom_site_type_symbol
 _atom_site_label
 _atom_site_symmetry_multiplicity
 _atom_site_fract_x
 _atom_site_fract_y
 _atom_site_fract_z
 _atom_site_occupancy
  Li  Li0  1  0.67286900  0.00000000  0.88783600  1
  Li  Li1  1  0.98199400  0.00000000  0.99012200  1
  Li  Li2  1  0.99120900  0.00000000  0.49990200  1
  Li  Li3  1  0.33732800  0.00000000  0.40205900  1
  Li  Li4  1  0.17286900  0.50000000  0.88783600  1
  Li  Li5  1  0.48199400  0.50000000  0.99012200  1
  Li  Li6  1  0.49120900  0.50000000  0.49990200  1
  Li  Li7  1  0.83732800  0.50000000  0.40205900  1
  Ti  Ti8  1  0.58254650  0.24992250  0.21409600  1
  Ti  Ti9  1  0.58254650  0.75007750  0.21409600  1
  Ti  Ti10  1  0.17548700  0.00000000  0.71534600  1
  Ti  Ti11  1  0.08254650  0.74992250  0.21409600  1
  Ti  Ti12  1  0.08254650  0.25007750  0.21409600  1
  Ti  Ti13  1  0.67548700  0.50000000  0.71534600  1
  Mn  Mn14  1  0.66800800  0.00000000  0.49095900  1
  Mn  Mn15  1  0.34005100  0.00000000  0.98224700  1
  Mn  Mn16  1  0.16800800  0.50000000  0.49095900  1
  Mn  Mn17  1  0.84005100  0.50000000  0.98224700  1
  Co  Co18  1  0.82415000  0.00000000  0.21729900  1
  Co  Co19  1  0.41809100  0.24188300  0.70981200  1
  Co  Co20  1  0.41809100  0.75811700  0.70981200  1
  Co  Co21  1  0.32415000  0.50000000  0.21729900  1
  Co  Co22  1  0.91809100  0.74188300  0.70981200  1
  Co  Co23  1  0.91809100  0.25811700  0.70981200  1
  O  O24  1  0.58487100  0.25170700  0.59681800  1
  O  O25  1  0.52041700  0.00000000  0.34414400  1
  O  O26  1  0.65990600  0.00000000  0.10277200  1
  O  O27  1  0.99259900  0.00000000  0.31387100  1
  O  O28  1  0.00131000  0.00000000  0.80363500  1
  O  O29  1  0.58487100  0.74829300  0.59681800  1
  O  O30  1  0.74100300  0.21845500  0.34506000  1
  O  O31  1  0.74100300  0.78154500  0.34506000  1
  O  O32  1  0.15826000  0.00000000  0.10778400  1
  O  O33  1  0.83327200  0.00000000  0.60095200  1
  O  O34  1  0.26762400  0.22182000  0.84018600  1
  O  O35  1  0.26762400  0.77818000  0.84018600  1
  O  O36  1  0.33600900  0.00000000  0.60306000  1
  O  O37  1  0.41392650  0.25378450  0.10606000  1
  O  O38  1  0.49183500  0.00000000  0.82171800  1
  O  O39  1  0.41392650  0.74621550  0.10606000  1
  O  O40  1  0.08487100  0.75170700  0.59681800  1
  O  O41  1  0.02041700  0.50000000  0.34414400  1
  O  O42  1  0.15990600  0.50000000  0.10277200  1
  O  O43  1  0.49259900  0.50000000  0.31387100  1
  O  O44  1  0.50131000  0.50000000  0.80363500  1
  O  O45  1  0.08487100  0.24829300  0.59681800  1
  O  O46  1  0.24100300  0.71845500  0.34506000  1
  O  O47  1  0.24100300  0.28154500  0.34506000  1
  O  O48  1  0.65826000  0.50000000  0.10778400  1
  O  O49  1  0.33327200  0.50000000  0.60095200  1
  O  O50  1  0.76762400  0.72182000  0.84018600  1
  O  O51  1  0.76762400  0.27818000  0.84018600  1
  O  O52  1  0.83600900  0.50000000  0.60306000  1
  O  O53  1  0.91392650  0.75378450  0.10606000  1
  O  O54  1  0.99183500  0.50000000  0.82171800  1
  O  O55  1  0.91392650  0.24621550  0.10606000  1
