# generated using pymatgen
data_LiNiPO4
_symmetry_space_group_name_H-M   'P 1'
_cell_length_a   8.29652844
_cell_length_b   5.00561200
_cell_length_c   8.90052235
_cell_angle_alpha   90.00000000
_cell_angle_beta   108.61894216
_cell_angle_gamma   90.00000000
_symmetry_Int_Tables_number   1
_chemical_formula_structural   LiNiPO4
_chemical_formula_sum   'Li4 Ni4 P4 O16'
_cell_volume   350.28615104
_cell_formula_units_Z   4
loop_
 _symmetry_equiv_pos_site_id
 _symmetry_equiv_pos_as_xyz
  1  'x, y, z'
loop_
 _atom_site_type_symbol
 _atom_site_label
 _atom_site_symmetry_multiplicity
 _atom_site_fract_x
 _atom_site_fract_y
 _atom_site_fract_z
 _atom_site_occupancy
  Li  Li0  1  0.11364100  0.83460400  0.99327100  1
  Li  Li1  1  0.61364100  0.16539600  0.99327100  1
  Li  Li2  1  0.25748000  0.32329600  0.50102300  1
  Li  Li3  1  0.75748000  0.67670400  0.50102300  1
  Ni  Ni4  1  0.33648700  0.81571400  0.73245600  1
  Ni  Ni5  1  0.83648700  0.18428600  0.73245600  1
  Ni  Ni6  1  0.97526300  0.65799300  0.23472900  1
  Ni  Ni7  1  0.47526300  0.34200700  0.23472900  1
  P  P8  1  0.22932300  0.31258700  0.86498900  1
  P  P9  1  0.72932300  0.68741300  0.86498900  1
  P  P10  1  0.36417400  0.82117700  0.37009100  1
  P  P11  1  0.86417400  0.17882300  0.37009100  1
  O  O12  1  0.06853700  0.18092200  0.88485700  1
  O  O13  1  0.56853700  0.81907800  0.88485700  1
  O  O14  1  0.02445600  0.31804100  0.35252500  1
  O  O15  1  0.52445600  0.68195900  0.35252500  1
  O  O16  1  0.20431700  0.62018600  0.84908100  1
  O  O17  1  0.70431700  0.37981400  0.84908100  1
  O  O18  1  0.26699300  0.19990100  0.71589300  1
  O  O19  1  0.76699300  0.80009900  0.71589300  1
  O  O20  1  0.20846900  0.74522500  0.22383600  1
  O  O21  1  0.70846900  0.25477500  0.22383600  1
  O  O22  1  0.32756100  0.71343800  0.51962300  1
  O  O23  1  0.82756100  0.28656200  0.51962300  1
  O  O24  1  0.39398300  0.12745300  0.38482900  1
  O  O25  1  0.89398300  0.87254700  0.38482900  1
  O  O26  1  0.38293800  0.23653400  0.01130600  1
  O  O27  1  0.88293800  0.76346600  0.01130600  1
