# generated using pymatgen
data_LiMnF4
_symmetry_space_group_name_H-M   'P 1'
_cell_length_a   6.01427900
_cell_length_b   10.17929180
_cell_length_c   10.18653226
_cell_angle_alpha   85.01442600
_cell_angle_beta   72.82831072
_cell_angle_gamma   72.90055516
_symmetry_Int_Tables_number   1
_chemical_formula_structural   LiMnF4
_chemical_formula_sum   'Li8 Mn8 F32'
_cell_volume   569.49373917
_cell_formula_units_Z   8
loop_
 _symmetry_equiv_pos_site_id
 _symmetry_equiv_pos_as_xyz
  1  'x, y, z'
loop_
 _atom_site_type_symbol
 _atom_site_label
 _atom_site_symmetry_multiplicity
 _atom_site_fract_x
 _atom_site_fract_y
 _atom_site_fract_z
 _atom_site_occupancy
  Li  Li0  1  0.12275300  0.74917500  0.99860600  1
  Li  Li1  1  0.12692700  0.24990800  0.49810600  1
  Li  Li2  1  0.62869700  0.99990600  0.75154800  1
  Li  Li3  1  0.87832600  0.50308000  0.74992900  1
  Li  Li4  1  0.12539400  0.49560200  0.25158100  1
  Li  Li5  1  0.37275700  0.00282300  0.25026200  1
  Li  Li6  1  0.86691400  0.75365900  0.50394300  1
  Li  Li7  1  0.87820400  0.25051700  0.00340400  1
  Mn  Mn8  1  0.36305000  0.25519900  0.00072300  1
  Mn  Mn9  1  0.63489800  0.50124300  0.25383600  1
  Mn  Mn10  1  0.11860300  0.00098300  0.75335600  1
  Mn  Mn11  1  0.37657700  0.75459100  0.49888700  1
  Mn  Mn12  1  0.62049600  0.24478400  0.49994300  1
  Mn  Mn13  1  0.88333700  0.99898800  0.24450500  1
  Mn  Mn14  1  0.36440700  0.49970800  0.74473200  1
  Mn  Mn15  1  0.63674000  0.74492000  0.99978600  1
  F  F16  1  0.50677100  0.34246300  0.90266700  1
  F  F17  1  0.13813200  0.60042700  0.83456100  1
  F  F18  1  0.13266600  0.41123900  0.64717400  1
  F  F19  1  0.34857200  0.10007700  0.83967800  1
  F  F20  1  0.09948500  0.09903400  0.33494300  1
  F  F21  1  0.04393400  0.35325400  0.91282200  1
  F  F22  1  0.95035500  0.15930800  0.59779400  1
  F  F23  1  0.76045800  0.34422700  0.41173500  1
  F  F24  1  0.69120500  0.15498300  0.08660200  1
  F  F25  1  0.50805300  0.85259800  0.40923600  1
  F  F26  1  0.76615800  0.83505900  0.90131700  1
  F  F27  1  0.69382100  0.66573000  0.59911400  1
  F  F28  1  0.89695000  0.09051500  0.85072700  1
  F  F29  1  0.39230400  0.41496100  0.15447500  1
  F  F30  1  0.65541700  0.08664400  0.34432300  1
  F  F31  1  0.39348700  0.59860100  0.34112700  1
  F  F32  1  0.60543900  0.40203200  0.65739100  1
  F  F33  1  0.34558000  0.91443400  0.65285500  1
  F  F34  1  0.60570600  0.58727600  0.84325800  1
  F  F35  1  0.10519900  0.91053200  0.14690000  1
  F  F36  1  0.30418600  0.33429800  0.39985800  1
  F  F37  1  0.23720600  0.16524500  0.10145900  1
  F  F38  1  0.48764700  0.14752200  0.58928100  1
  F  F39  1  0.31065800  0.84526300  0.91059700  1
  F  F40  1  0.23665300  0.65487200  0.58650800  1
  F  F41  1  0.04689500  0.84069900  0.40131700  1
  F  F42  1  0.95405900  0.64734300  0.09068700  1
  F  F43  1  0.90118100  0.90120600  0.66363000  1
  F  F44  1  0.65024900  0.90238800  0.15685700  1
  F  F45  1  0.86679400  0.58844900  0.35247700  1
  F  F46  1  0.85935500  0.40120500  0.16268300  1
  F  F47  1  0.48774700  0.65885700  0.09603200  1
