# generated using pymatgen
data_V6O11F
_symmetry_space_group_name_H-M   'P 1'
_cell_length_a   8.79424600
_cell_length_b   6.63160400
_cell_length_c   7.12327817
_cell_angle_alpha   90.00000000
_cell_angle_beta   112.77789804
_cell_angle_gamma   90.00000000
_symmetry_Int_Tables_number   1
_chemical_formula_structural   V6O11F
_chemical_formula_sum   'V12 O22 F2'
_cell_volume   383.03101390
_cell_formula_units_Z   2
loop_
 _symmetry_equiv_pos_site_id
 _symmetry_equiv_pos_as_xyz
  1  'x, y, z'
loop_
 _atom_site_type_symbol
 _atom_site_label
 _atom_site_symmetry_multiplicity
 _atom_site_fract_x
 _atom_site_fract_y
 _atom_site_fract_z
 _atom_site_occupancy
  V  V0  1  0.00000000  0.67223500  0.00000000  1
  V  V1  1  0.33265850  0.65003550  0.82848300  1
  V  V2  1  0.00000000  0.69473000  0.50000000  1
  V  V3  1  0.31981150  0.64985650  0.31792600  1
  V  V4  1  0.68018850  0.64985650  0.68207400  1
  V  V5  1  0.66734150  0.65003550  0.17151700  1
  V  V6  1  0.50000000  0.17223500  0.00000000  1
  V  V7  1  0.83265850  0.15003550  0.82848300  1
  V  V8  1  0.50000000  0.19473000  0.50000000  1
  V  V9  1  0.81981150  0.14985650  0.31792600  1
  V  V10  1  0.18018850  0.14985650  0.68207400  1
  V  V11  1  0.16734150  0.15003550  0.17151700  1
  O  O12  1  0.32738100  0.37138400  0.82914900  1
  O  O13  1  0.93514000  0.17075800  0.12895800  1
  O  O14  1  0.09457150  0.66744350  0.78969600  1
  O  O15  1  0.77076150  0.67229950  0.47072900  1
  O  O16  1  0.06486000  0.17075800  0.87104200  1
  O  O17  1  0.90542850  0.66744350  0.21030400  1
  O  O18  1  0.22923850  0.67229950  0.52927100  1
  O  O19  1  0.17671750  0.46494550  0.17376700  1
  O  O20  1  0.82328250  0.46494550  0.82623300  1
  O  O21  1  0.00000000  0.97818100  0.50000000  1
  O  O22  1  0.67261900  0.37138400  0.17085100  1
  O  O23  1  0.82738100  0.87138400  0.82914900  1
  O  O24  1  0.43514000  0.67075800  0.12895800  1
  O  O25  1  0.59457150  0.16744350  0.78969600  1
  O  O26  1  0.27076150  0.17229950  0.47072900  1
  O  O27  1  0.56486000  0.67075800  0.87104200  1
  O  O28  1  0.40542850  0.16744350  0.21030400  1
  O  O29  1  0.72923850  0.17229950  0.52927100  1
  O  O30  1  0.67671750  0.96494550  0.17376700  1
  O  O31  1  0.32328250  0.96494550  0.82623300  1
  O  O32  1  0.50000000  0.47818100  0.50000000  1
  O  O33  1  0.17261900  0.87138400  0.17085100  1
  F  F34  1  0.00000000  0.36141300  0.50000000  1
  F  F35  1  0.50000000  0.86141300  0.50000000  1
