# generated using pymatgen
data_Li3Ti(CuO2)4
_symmetry_space_group_name_H-M   'P 1'
_cell_length_a   10.93467000
_cell_length_b   5.76185800
_cell_length_c   5.66437222
_cell_angle_alpha   90.00000000
_cell_angle_beta   119.48250679
_cell_angle_gamma   90.00000000
_symmetry_Int_Tables_number   1
_chemical_formula_structural   Li3Ti(CuO2)4
_chemical_formula_sum   'Li6 Ti2 Cu8 O16'
_cell_volume   310.66461147
_cell_formula_units_Z   2
loop_
 _symmetry_equiv_pos_site_id
 _symmetry_equiv_pos_as_xyz
  1  'x, y, z'
loop_
 _atom_site_type_symbol
 _atom_site_label
 _atom_site_symmetry_multiplicity
 _atom_site_fract_x
 _atom_site_fract_y
 _atom_site_fract_z
 _atom_site_occupancy
  Li  Li0  1  0.25000000  0.75000000  0.00000000  1
  Li  Li1  1  0.00000000  0.00000000  0.50000000  1
  Li  Li2  1  0.25000000  0.25000000  0.00000000  1
  Li  Li3  1  0.75000000  0.25000000  0.00000000  1
  Li  Li4  1  0.50000000  0.50000000  0.50000000  1
  Li  Li5  1  0.75000000  0.75000000  0.00000000  1
  Ti  Ti6  1  0.00000000  0.50000000  0.00000000  1
  Ti  Ti7  1  0.50000000  0.00000000  0.00000000  1
  Cu  Cu8  1  0.00000000  0.50000000  0.50000000  1
  Cu  Cu9  1  0.00000000  0.00000000  0.00000000  1
  Cu  Cu10  1  0.25000000  0.75000000  0.50000000  1
  Cu  Cu11  1  0.25000000  0.25000000  0.50000000  1
  Cu  Cu12  1  0.50000000  0.00000000  0.50000000  1
  Cu  Cu13  1  0.50000000  0.50000000  0.00000000  1
  Cu  Cu14  1  0.75000000  0.25000000  0.50000000  1
  Cu  Cu15  1  0.75000000  0.75000000  0.50000000  1
  O  O16  1  0.21604800  0.50000000  0.24383200  1
  O  O17  1  0.02528650  0.73184650  0.76968800  1
  O  O18  1  0.02528650  0.26815350  0.76968800  1
  O  O19  1  0.20631600  0.00000000  0.23992100  1
  O  O20  1  0.29368400  0.50000000  0.76007900  1
  O  O21  1  0.47471350  0.23184650  0.23031200  1
  O  O22  1  0.47471350  0.76815350  0.23031200  1
  O  O23  1  0.28395200  0.00000000  0.75616800  1
  O  O24  1  0.71604800  0.00000000  0.24383200  1
  O  O25  1  0.52528650  0.23184650  0.76968800  1
  O  O26  1  0.52528650  0.76815350  0.76968800  1
  O  O27  1  0.70631600  0.50000000  0.23992100  1
  O  O28  1  0.79368400  0.00000000  0.76007900  1
  O  O29  1  0.97471350  0.73184650  0.23031200  1
  O  O30  1  0.97471350  0.26815350  0.23031200  1
  O  O31  1  0.78395200  0.50000000  0.75616800  1
