# generated using pymatgen
data_Li5Ti3O8
_symmetry_space_group_name_H-M   'P 1'
_cell_length_a   5.91018217
_cell_length_b   5.91018217
_cell_length_c   14.60520369
_cell_angle_alpha   90.00000000
_cell_angle_beta   90.00000000
_cell_angle_gamma   120.00000000
_symmetry_Int_Tables_number   1
_chemical_formula_structural   Li5Ti3O8
_chemical_formula_sum   'Li15 Ti9 O24'
_cell_volume   441.81452034
_cell_formula_units_Z   3
loop_
 _symmetry_equiv_pos_site_id
 _symmetry_equiv_pos_as_xyz
  1  'x, y, z'
loop_
 _atom_site_type_symbol
 _atom_site_label
 _atom_site_symmetry_multiplicity
 _atom_site_fract_x
 _atom_site_fract_y
 _atom_site_fract_z
 _atom_site_occupancy
  Li  Li0  1  0.50000000  0.00000000  0.00000000  1
  Li  Li1  1  0.33333333  0.66666667  0.16666667  1
  Li  Li2  1  0.50000000  0.50000000  0.00000000  1
  Li  Li3  1  0.00000000  0.50000000  0.00000000  1
  Li  Li4  1  0.00000000  0.00000000  0.00000000  1
  Li  Li5  1  0.16666667  0.33333333  0.33333333  1
  Li  Li6  1  1.00000000  1.00000000  0.50000000  1
  Li  Li7  1  0.16666667  0.83333333  0.33333333  1
  Li  Li8  1  0.66666667  0.83333333  0.33333333  1
  Li  Li9  1  0.66666667  0.33333333  0.33333333  1
  Li  Li10  1  0.83333333  0.66666667  0.66666667  1
  Li  Li11  1  0.66666667  0.33333333  0.83333333  1
  Li  Li12  1  0.83333333  0.16666667  0.66666667  1
  Li  Li13  1  0.33333333  0.16666667  0.66666667  1
  Li  Li14  1  0.33333333  0.66666667  0.66666667  1
  Ti  Ti15  1  0.33333333  0.16666667  0.16666667  1
  Ti  Ti16  1  0.83333333  0.16666667  0.16666667  1
  Ti  Ti17  1  0.83333333  0.66666667  0.16666667  1
  Ti  Ti18  1  0.00000000  0.50000000  0.50000000  1
  Ti  Ti19  1  0.50000000  0.50000000  0.50000000  1
  Ti  Ti20  1  0.50000000  0.00000000  0.50000000  1
  Ti  Ti21  1  0.66666667  0.83333333  0.83333333  1
  Ti  Ti22  1  0.16666667  0.83333333  0.83333333  1
  Ti  Ti23  1  0.16666667  0.33333333  0.83333333  1
  O  O24  1  0.00000000  0.00000000  0.24489700  1
  O  O25  1  0.15837300  0.31674600  0.09124400  1
  O  O26  1  0.68325400  0.84162700  0.09124400  1
  O  O27  1  0.50829367  0.49170633  0.24208933  1
  O  O28  1  0.98341267  0.49170633  0.24208933  1
  O  O29  1  0.15837300  0.84162700  0.09124400  1
  O  O30  1  0.50829367  0.01658733  0.24208933  1
  O  O31  1  0.66666667  0.33333333  0.08843633  1
  O  O32  1  0.66666667  0.33333333  0.57823033  1
  O  O33  1  0.82503967  0.65007933  0.42457733  1
  O  O34  1  0.34992067  0.17496033  0.42457733  1
  O  O35  1  0.17496033  0.82503967  0.57542267  1
  O  O36  1  0.65007933  0.82503967  0.57542267  1
  O  O37  1  0.82503967  0.17496033  0.42457733  1
  O  O38  1  0.17496033  0.34992067  0.57542267  1
  O  O39  1  0.33333333  0.66666667  0.42176967  1
  O  O40  1  0.33333333  0.66666667  0.91156367  1
  O  O41  1  0.49170633  0.98341267  0.75791067  1
  O  O42  1  0.01658733  0.50829367  0.75791067  1
  O  O43  1  0.84162700  0.15837300  0.90875600  1
  O  O44  1  0.31674600  0.15837300  0.90875600  1
  O  O45  1  0.49170633  0.50829367  0.75791067  1
  O  O46  1  0.84162700  0.68325400  0.90875600  1
  O  O47  1  0.00000000  0.00000000  0.75510300  1
