# generated using pymatgen
data_Mn2V3Sb(PO4)6
_symmetry_space_group_name_H-M   'P 1'
_cell_length_a   8.69759822
_cell_length_b   8.69759822
_cell_length_c   21.42172875
_cell_angle_alpha   90.00000000
_cell_angle_beta   90.00000000
_cell_angle_gamma   120.00000000
_symmetry_Int_Tables_number   1
_chemical_formula_structural   Mn2V3Sb(PO4)6
_chemical_formula_sum   'Mn6 V9 Sb3 P18 O72'
_cell_volume   1403.40762421
_cell_formula_units_Z   3
loop_
 _symmetry_equiv_pos_site_id
 _symmetry_equiv_pos_as_xyz
  1  'x, y, z'
loop_
 _atom_site_type_symbol
 _atom_site_label
 _atom_site_symmetry_multiplicity
 _atom_site_fract_x
 _atom_site_fract_y
 _atom_site_fract_z
 _atom_site_occupancy
  Mn  Mn0  1  0.00000000  0.00000000  0.00554000  1
  Mn  Mn1  1  0.33333333  0.66666667  0.16611467  1
  Mn  Mn2  1  0.66666667  0.33333333  0.33887333  1
  Mn  Mn3  1  0.00000000  0.00000000  0.49944800  1
  Mn  Mn4  1  0.33333333  0.66666667  0.67220667  1
  Mn  Mn5  1  0.66666667  0.33333333  0.83278133  1
  V  V6  1  0.33333333  0.66666667  0.02251367  1
  V  V7  1  0.00000000  0.00000000  0.14426400  1
  V  V8  1  0.33333333  0.66666667  0.30936767  1
  V  V9  1  0.00000000  0.00000000  0.35584700  1
  V  V10  1  0.66666667  0.33333333  0.47759733  1
  V  V11  1  0.00000000  0.00000000  0.64270100  1
  V  V12  1  0.66666667  0.33333333  0.68918033  1
  V  V13  1  0.33333333  0.66666667  0.81093067  1
  V  V14  1  0.66666667  0.33333333  0.97603433  1
  Sb  Sb15  1  0.66666667  0.33333333  0.18912933  1
  Sb  Sb16  1  0.33333333  0.66666667  0.52246267  1
  Sb  Sb17  1  0.00000000  0.00000000  0.85579600  1
  P  P18  1  0.66510067  0.62686733  0.08177233  1
  P  P19  1  0.96176667  0.33489933  0.08177233  1
  P  P20  1  0.37313267  0.03823333  0.08177233  1
  P  P21  1  0.28952600  0.29234300  0.24908500  1
  P  P22  1  0.70765700  0.99718300  0.24908500  1
  P  P23  1  0.00281700  0.71047400  0.24908500  1
  P  P24  1  0.33176733  0.96020067  0.41510567  1
  P  P25  1  0.62843333  0.66823267  0.41510567  1
  P  P26  1  0.03979933  0.37156667  0.41510567  1
  P  P27  1  0.95619267  0.62567633  0.58241833  1
  P  P28  1  0.37432367  0.33051633  0.58241833  1
  P  P29  1  0.66948367  0.04380733  0.58241833  1
  P  P30  1  0.99843400  0.29353400  0.74843900  1
  P  P31  1  0.29510000  0.00156600  0.74843900  1
  P  P32  1  0.70646600  0.70490000  0.74843900  1
  P  P33  1  0.62285933  0.95900967  0.91575167  1
  P  P34  1  0.04099033  0.66384967  0.91575167  1
  P  P35  1  0.33615033  0.37714067  0.91575167  1
  O  O36  1  0.85926767  0.33328333  0.02476833  1
  O  O37  1  0.47401567  0.14073233  0.02476833  1
  O  O38  1  0.66671667  0.52598433  0.02476833  1
  O  O39  1  0.83356967  0.81344633  0.07941233  1
  O  O40  1  0.66238500  0.52924400  0.14452600  1
  O  O41  1  0.49780033  0.64565867  0.08833467  1
  O  O42  1  0.97987667  0.16643033  0.07941233  1
  O  O43  1  0.14785833  0.50219967  0.08833467  1
  O  O44  1  0.19795800  0.19724900  0.18979600  1
  O  O45  1  0.35434133  0.85214167  0.08833467  1
  O  O46  1  0.48556133  0.31338067  0.25364967  1
  O  O47  1  0.80275100  0.00070900  0.18979600  1
  O  O48  1  0.86685900  0.33761500  0.14452600  1
  O  O49  1  0.18655367  0.02012333  0.07941233  1
  O  O50  1  0.31938800  0.48324600  0.24477100  1
  O  O51  1  0.47075600  0.13314100  0.14452600  1
  O  O52  1  0.51675400  0.83614200  0.24477100  1
  O  O53  1  0.68661933  0.17218067  0.25364967  1
  O  O54  1  0.16385800  0.68061200  0.24477100  1
  O  O55  1  0.99929100  0.80204200  0.18979600  1
  O  O56  1  0.82781933  0.51443867  0.25364967  1
  O  O57  1  0.99306533  0.79816967  0.30935767  1
  O  O58  1  0.20183033  0.19489567  0.30935767  1
  O  O59  1  0.80510433  0.00693467  0.30935767  1
  O  O60  1  0.52593433  0.66661667  0.35810167  1
  O  O61  1  0.14068233  0.47406567  0.35810167  1
  O  O62  1  0.33338333  0.85931767  0.35810167  1
  O  O63  1  0.50023633  0.14677967  0.41274567  1
  O  O64  1  0.32905167  0.86257733  0.47785933  1
  O  O65  1  0.16446700  0.97899200  0.42166800  1
  O  O66  1  0.64654333  0.49976367  0.41274567  1
  O  O67  1  0.81452500  0.83553300  0.42166800  1
  O  O68  1  0.86462467  0.53058233  0.52312933  1
  O  O69  1  0.02100800  0.18547500  0.42166800  1
  O  O70  1  0.15222800  0.64671400  0.58698300  1
  O  O71  1  0.46941767  0.33404233  0.52312933  1
  O  O72  1  0.53352567  0.67094833  0.47785933  1
  O  O73  1  0.85322033  0.35345667  0.41274567  1
  O  O74  1  0.98605467  0.81657933  0.57810433  1
  O  O75  1  0.13742267  0.46647433  0.47785933  1
  O  O76  1  0.18342067  0.16947533  0.57810433  1
  O  O77  1  0.35328600  0.50551400  0.58698300  1
  O  O78  1  0.83052467  0.01394533  0.57810433  1
  O  O79  1  0.66595767  0.13537533  0.52312933  1
  O  O80  1  0.49448600  0.84777200  0.58698300  1
  O  O81  1  0.65973200  0.13150300  0.64269100  1
  O  O82  1  0.86849700  0.52822900  0.64269100  1
  O  O83  1  0.47177100  0.34026800  0.64269100  1
  O  O84  1  0.19260100  0.99995000  0.69143500  1
  O  O85  1  0.80734900  0.80739900  0.69143500  1
  O  O86  1  0.00005000  0.19265100  0.69143500  1
  O  O87  1  0.16690300  0.48011300  0.74607900  1
  O  O88  1  0.99571833  0.19591067  0.81119267  1
  O  O89  1  0.83113367  0.31232533  0.75500133  1
  O  O90  1  0.31321000  0.83309700  0.74607900  1
  O  O91  1  0.48119167  0.16886633  0.75500133  1
  O  O92  1  0.53129133  0.86391567  0.85646267  1
  O  O93  1  0.68767467  0.51880833  0.75500133  1
  O  O94  1  0.81889467  0.98004733  0.92031633  1
  O  O95  1  0.13608433  0.66737567  0.85646267  1
  O  O96  1  0.20019233  0.00428167  0.81119267  1
  O  O97  1  0.51988700  0.68679000  0.74607900  1
  O  O98  1  0.65272133  0.14991267  0.91143767  1
  O  O99  1  0.80408933  0.79980767  0.81119267  1
  O  O100  1  0.85008733  0.50280867  0.91143767  1
  O  O101  1  0.01995267  0.83884733  0.92031633  1
  O  O102  1  0.49719133  0.34727867  0.91143767  1
  O  O103  1  0.33262433  0.46870867  0.85646267  1
  O  O104  1  0.16115267  0.18110533  0.92031633  1
  O  O105  1  0.32639867  0.46483633  0.97602433  1
  O  O106  1  0.53516367  0.86156233  0.97602433  1
  O  O107  1  0.13843767  0.67360133  0.97602433  1
