# generated using pymatgen
data_Li4Fe3Co3(CuO8)2
_symmetry_space_group_name_H-M   'P 1'
_cell_length_a   10.06172590
_cell_length_b   5.78023651
_cell_length_c   9.55011348
_cell_angle_alpha   90.00000000
_cell_angle_beta   90.50238791
_cell_angle_gamma   90.00000000
_symmetry_Int_Tables_number   1
_chemical_formula_structural   Li4Fe3Co3(CuO8)2
_chemical_formula_sum   'Li8 Fe6 Co6 Cu4 O32'
_cell_volume   555.40518298
_cell_formula_units_Z   2
loop_
 _symmetry_equiv_pos_site_id
 _symmetry_equiv_pos_as_xyz
  1  'x, y, z'
loop_
 _atom_site_type_symbol
 _atom_site_label
 _atom_site_symmetry_multiplicity
 _atom_site_fract_x
 _atom_site_fract_y
 _atom_site_fract_z
 _atom_site_occupancy
  Li  Li0  1  0.65865350  0.00000000  0.89902900  1
  Li  Li1  1  0.50459850  0.50000000  0.99693400  1
  Li  Li2  1  0.50698450  0.50000000  0.49493800  1
  Li  Li3  1  0.82366900  0.50000000  0.39621700  1
  Li  Li4  1  0.15865350  0.50000000  0.89902900  1
  Li  Li5  1  0.00459850  0.00000000  0.99693400  1
  Li  Li6  1  0.00698450  0.00000000  0.49493800  1
  Li  Li7  1  0.32366900  0.00000000  0.39621700  1
  Fe  Fe8  1  0.82681350  0.00000000  0.21370100  1
  Fe  Fe9  1  0.91010550  0.25495250  0.71335900  1
  Fe  Fe10  1  0.91010550  0.74504750  0.71335900  1
  Fe  Fe11  1  0.32681350  0.50000000  0.21370100  1
  Fe  Fe12  1  0.41010550  0.75495250  0.71335900  1
  Fe  Fe13  1  0.41010550  0.24504750  0.71335900  1
  Co  Co14  1  0.58017250  0.75768950  0.21214200  1
  Co  Co15  1  0.58017250  0.24231050  0.21214200  1
  Co  Co16  1  0.66622850  0.50000000  0.71211400  1
  Co  Co17  1  0.08017250  0.25768950  0.21214200  1
  Co  Co18  1  0.08017250  0.74231050  0.21214200  1
  Co  Co19  1  0.16622850  0.00000000  0.71211400  1
  Cu  Cu20  1  0.66552800  0.00000000  0.48695400  1
  Cu  Cu21  1  0.83424100  0.50000000  0.98937200  1
  Cu  Cu22  1  0.16552800  0.50000000  0.48695400  1
  Cu  Cu23  1  0.33424100  0.00000000  0.98937200  1
  O  O24  1  0.58342550  0.74400550  0.60609100  1
  O  O25  1  0.51348950  0.00000000  0.32488700  1
  O  O26  1  0.65751500  0.00000000  0.10709300  1
  O  O27  1  0.50126400  0.50000000  0.30890700  1
  O  O28  1  0.50274950  0.50000000  0.80970400  1
  O  O29  1  0.58342550  0.25599450  0.60609100  1
  O  O30  1  0.72805600  0.77545800  0.33531900  1
  O  O31  1  0.72805600  0.22454200  0.33531900  1
  O  O32  1  0.65779250  0.50000000  0.11282800  1
  O  O33  1  0.83534800  0.00000000  0.59782500  1
  O  O34  1  0.74906150  0.28663750  0.83761500  1
  O  O35  1  0.74906150  0.71336250  0.83761500  1
  O  O36  1  0.82514950  0.50000000  0.60221300  1
  O  O37  1  0.92191200  0.25111400  0.10288700  1
  O  O38  1  0.97489250  0.50000000  0.84039600  1
  O  O39  1  0.92191200  0.74888600  0.10288700  1
  O  O40  1  0.08342550  0.24400550  0.60609100  1
  O  O41  1  0.01348950  0.50000000  0.32488700  1
  O  O42  1  0.15751500  0.50000000  0.10709300  1
  O  O43  1  0.00126400  0.00000000  0.30890700  1
  O  O44  1  0.00274950  0.00000000  0.80970400  1
  O  O45  1  0.08342550  0.75599450  0.60609100  1
  O  O46  1  0.22805600  0.27545800  0.33531900  1
  O  O47  1  0.22805600  0.72454200  0.33531900  1
  O  O48  1  0.15779250  0.00000000  0.11282800  1
  O  O49  1  0.33534800  0.50000000  0.59782500  1
  O  O50  1  0.24906150  0.78663750  0.83761500  1
  O  O51  1  0.24906150  0.21336250  0.83761500  1
  O  O52  1  0.32514950  0.00000000  0.60221300  1
  O  O53  1  0.42191200  0.75111400  0.10288700  1
  O  O54  1  0.47489250  0.00000000  0.84039600  1
  O  O55  1  0.42191200  0.24888600  0.10288700  1
