# generated using pymatgen
data_Li2Ni3SnO8
_symmetry_space_group_name_H-M   'P 1'
_cell_length_a   5.84061939
_cell_length_b   5.84061939
_cell_length_c   14.80318895
_cell_angle_alpha   90.00000000
_cell_angle_beta   90.00000000
_cell_angle_gamma   120.00000000
_symmetry_Int_Tables_number   1
_chemical_formula_structural   Li2Ni3SnO8
_chemical_formula_sum   'Li6 Ni9 Sn3 O24'
_cell_volume   437.32441763
_cell_formula_units_Z   3
loop_
 _symmetry_equiv_pos_site_id
 _symmetry_equiv_pos_as_xyz
  1  'x, y, z'
loop_
 _atom_site_type_symbol
 _atom_site_label
 _atom_site_symmetry_multiplicity
 _atom_site_fract_x
 _atom_site_fract_y
 _atom_site_fract_z
 _atom_site_occupancy
  Li  Li0  1  0.66666667  0.33333333  0.21273833  1
  Li  Li1  1  0.00000000  0.00000000  0.12059500  1
  Li  Li2  1  0.33333333  0.66666667  0.54607167  1
  Li  Li3  1  0.66666667  0.33333333  0.45392833  1
  Li  Li4  1  0.00000000  0.00000000  0.87940500  1
  Li  Li5  1  0.33333333  0.66666667  0.78726167  1
  Ni  Ni6  1  0.50000000  0.50000000  0.00000000  1
  Ni  Ni7  1  0.00000000  0.50000000  0.00000000  1
  Ni  Ni8  1  0.50000000  0.00000000  0.00000000  1
  Ni  Ni9  1  0.16666667  0.83333333  0.33333333  1
  Ni  Ni10  1  0.66666667  0.83333333  0.33333333  1
  Ni  Ni11  1  0.16666667  0.33333333  0.33333333  1
  Ni  Ni12  1  0.83333333  0.16666667  0.66666667  1
  Ni  Ni13  1  0.33333333  0.16666667  0.66666667  1
  Ni  Ni14  1  0.83333333  0.66666667  0.66666667  1
  Sn  Sn15  1  0.33333333  0.66666667  0.16666667  1
  Sn  Sn16  1  1.00000000  1.00000000  0.50000000  1
  Sn  Sn17  1  0.66666667  0.33333333  0.83333333  1
  O  O18  1  0.66666667  0.33333333  0.06835933  1
  O  O19  1  0.48701733  0.97403467  0.25862467  1
  O  O20  1  0.02596533  0.51298267  0.25862467  1
  O  O21  1  0.48701733  0.51298267  0.25862467  1
  O  O22  1  0.17964933  0.82035067  0.07470867  1
  O  O23  1  0.64070133  0.82035067  0.07470867  1
  O  O24  1  0.17964933  0.35929867  0.07470867  1
  O  O25  1  0.00000000  0.00000000  0.26497400  1
  O  O26  1  0.33333333  0.66666667  0.40169267  1
  O  O27  1  0.15368400  0.30736800  0.59195800  1
  O  O28  1  0.69263200  0.84631600  0.59195800  1
  O  O29  1  0.15368400  0.84631600  0.59195800  1
  O  O30  1  0.84631600  0.15368400  0.40804200  1
  O  O31  1  0.30736800  0.15368400  0.40804200  1
  O  O32  1  0.84631600  0.69263200  0.40804200  1
  O  O33  1  0.66666667  0.33333333  0.59830733  1
  O  O34  1  0.00000000  0.00000000  0.73502600  1
  O  O35  1  0.82035067  0.64070133  0.92529133  1
  O  O36  1  0.35929867  0.17964933  0.92529133  1
  O  O37  1  0.82035067  0.17964933  0.92529133  1
  O  O38  1  0.51298267  0.48701733  0.74137533  1
  O  O39  1  0.97403467  0.48701733  0.74137533  1
  O  O40  1  0.51298267  0.02596533  0.74137533  1
  O  O41  1  0.33333333  0.66666667  0.93164067  1
