# generated using pymatgen
data_KMnP3HO10
_symmetry_space_group_name_H-M   'P 1'
_cell_length_a   7.29989027
_cell_length_b   7.42796069
_cell_length_c   9.29892349
_cell_angle_alpha   71.18485009
_cell_angle_beta   73.51494967
_cell_angle_gamma   70.49100039
_symmetry_Int_Tables_number   1
_chemical_formula_structural   KMnP3HO10
_chemical_formula_sum   'K2 Mn2 P6 H2 O20'
_cell_volume   441.02853354
_cell_formula_units_Z   2
loop_
 _symmetry_equiv_pos_site_id
 _symmetry_equiv_pos_as_xyz
  1  'x, y, z'
loop_
 _atom_site_type_symbol
 _atom_site_label
 _atom_site_symmetry_multiplicity
 _atom_site_fract_x
 _atom_site_fract_y
 _atom_site_fract_z
 _atom_site_occupancy
  K  K0  1  0.42227350  0.54690200  0.25717350  1
  K  K1  1  0.57772650  0.45309800  0.74282650  1
  Mn  Mn2  1  0.00000000  0.50000000  0.00000000  1
  Mn  Mn3  1  0.50000000  0.00000000  0.50000000  1
  P  P4  1  0.25471950  0.11654350  0.21382900  1
  P  P5  1  0.74528050  0.88345650  0.78617100  1
  P  P6  1  0.16494400  0.30745900  0.70359200  1
  P  P7  1  0.83505600  0.69254100  0.29640800  1
  P  P8  1  0.14778500  0.89585300  0.78463900  1
  P  P9  1  0.85221500  0.10414700  0.21536100  1
  H  H10  1  0.00000000  0.50000000  0.50000000  1
  H  H11  1  0.50000000  0.00000000  0.00000000  1
  O  O12  1  0.04736950  0.05387500  0.28270350  1
  O  O13  1  0.95263050  0.94612500  0.71729650  1
  O  O14  1  0.97925250  0.39763800  0.63105350  1
  O  O15  1  0.02074750  0.60236200  0.36894650  1
  O  O16  1  0.21333350  0.32935650  0.11320100  1
  O  O17  1  0.78666650  0.67064350  0.88679900  1
  O  O18  1  0.13775500  0.09451350  0.82016850  1
  O  O19  1  0.86224500  0.90548650  0.17983150  1
  O  O20  1  0.31632250  0.10941400  0.35901950  1
  O  O21  1  0.68367750  0.89058600  0.64098050  1
  O  O22  1  0.17279700  0.41986050  0.81355850  1
  O  O23  1  0.82720300  0.58013950  0.18644150  1
  O  O24  1  0.35932350  0.27135850  0.58846800  1
  O  O25  1  0.64067650  0.72864150  0.41153200  1
  O  O26  1  0.15023200  0.73501700  0.93157300  1
  O  O27  1  0.84976800  0.26498300  0.06842700  1
  O  O28  1  0.39239500  0.96356350  0.12535050  1
  O  O29  1  0.60760500  0.03643650  0.87464950  1
  O  O30  1  0.67709000  0.14902350  0.34679250  1
  O  O31  1  0.32291000  0.85097650  0.65320750  1
