# generated using pymatgen
data_Li3Fe4(BO3)4
_symmetry_space_group_name_H-M   'P 1'
_cell_length_a   5.26669300
_cell_length_b   9.00577200
_cell_length_c   10.27240733
_cell_angle_alpha   90.00000000
_cell_angle_beta   91.81741028
_cell_angle_gamma   90.00000000
_symmetry_Int_Tables_number   1
_chemical_formula_structural   Li3Fe4(BO3)4
_chemical_formula_sum   'Li6 Fe8 B8 O24'
_cell_volume   486.98172678
_cell_formula_units_Z   2
loop_
 _symmetry_equiv_pos_site_id
 _symmetry_equiv_pos_as_xyz
  1  'x, y, z'
loop_
 _atom_site_type_symbol
 _atom_site_label
 _atom_site_symmetry_multiplicity
 _atom_site_fract_x
 _atom_site_fract_y
 _atom_site_fract_z
 _atom_site_occupancy
  Li  Li0  1  0.65671700  0.01153900  0.16304700  1
  Li  Li1  1  0.33667500  0.00534900  0.91677300  1
  Li  Li2  1  0.85066100  0.49550200  0.42066300  1
  Li  Li3  1  0.85066100  0.50449800  0.92066300  1
  Li  Li4  1  0.65671700  0.98846100  0.66304700  1
  Li  Li5  1  0.33667500  0.99465100  0.41677300  1
  Fe  Fe6  1  0.83771600  0.16325000  0.88661100  1
  Fe  Fe7  1  0.15222800  0.17901000  0.63845300  1
  Fe  Fe8  1  0.66460500  0.34819300  0.13184200  1
  Fe  Fe9  1  0.33647000  0.33192300  0.37255900  1
  Fe  Fe10  1  0.66460500  0.65180700  0.63184200  1
  Fe  Fe11  1  0.83771600  0.83675000  0.38661100  1
  Fe  Fe12  1  0.33647000  0.66807700  0.87255900  1
  Fe  Fe13  1  0.15222800  0.82099000  0.13845300  1
  B  B14  1  0.83076800  0.17148000  0.37234900  1
  B  B15  1  0.66763100  0.32187600  0.61834900  1
  B  B16  1  0.16819000  0.16009700  0.13111400  1
  B  B17  1  0.34319900  0.33798700  0.88165700  1
  B  B18  1  0.66763100  0.67812400  0.11834900  1
  B  B19  1  0.34319900  0.66201300  0.38165700  1
  B  B20  1  0.83076800  0.82852000  0.87234900  1
  B  B21  1  0.16819000  0.83990300  0.63111400  1
  O  O22  1  0.69052100  0.04207400  0.36458400  1
  O  O23  1  0.90788300  0.16551100  0.09975900  1
  O  O24  1  0.30457400  0.03158800  0.11051600  1
  O  O25  1  0.77826200  0.19229900  0.67070400  1
  O  O26  1  0.71228200  0.30831200  0.34657100  1
  O  O27  1  0.22388400  0.20322800  0.84966600  1
  O  O28  1  0.08822600  0.16906800  0.40564500  1
  O  O29  1  0.59915100  0.33931300  0.91881400  1
  O  O30  1  0.80136800  0.45064100  0.61422400  1
  O  O31  1  0.42102200  0.31084700  0.56492200  1
  O  O32  1  0.29635400  0.28509500  0.18107700  1
  O  O33  1  0.80136800  0.54935900  0.11422400  1
  O  O34  1  0.20692600  0.46914000  0.87642600  1
  O  O35  1  0.71228200  0.69168800  0.84657100  1
  O  O36  1  0.59915100  0.66068700  0.41881400  1
  O  O37  1  0.20692600  0.53086000  0.37642600  1
  O  O38  1  0.42102200  0.68915300  0.06492200  1
  O  O39  1  0.90788300  0.83448900  0.59975900  1
  O  O40  1  0.77826200  0.80770100  0.17070400  1
  O  O41  1  0.29635400  0.71490500  0.68107700  1
  O  O42  1  0.22388400  0.79677200  0.34966600  1
  O  O43  1  0.69052100  0.95792600  0.86458400  1
  O  O44  1  0.08822600  0.83093200  0.90564500  1
  O  O45  1  0.30457400  0.96841200  0.61051600  1
