# generated using pymatgen
data_Li8Mn6(FeO6)3
_symmetry_space_group_name_H-M   'P 1'
_cell_length_a   8.89777326
_cell_length_b   15.56896751
_cell_length_c   10.16524064
_cell_angle_alpha   90.00000000
_cell_angle_beta   92.60515119
_cell_angle_gamma   90.00000000
_symmetry_Int_Tables_number   1
_chemical_formula_structural   Li8Mn6(FeO6)3
_chemical_formula_sum   'Li32 Mn24 Fe12 O72'
_cell_volume   1406.72669889
_cell_formula_units_Z   4
loop_
 _symmetry_equiv_pos_site_id
 _symmetry_equiv_pos_as_xyz
  1  'x, y, z'
loop_
 _atom_site_type_symbol
 _atom_site_label
 _atom_site_symmetry_multiplicity
 _atom_site_fract_x
 _atom_site_fract_y
 _atom_site_fract_z
 _atom_site_occupancy
  Li  Li0  1  0.36625550  0.79209750  0.75458000  1
  Li  Li1  1  0.55755750  0.63688050  0.76919400  1
  Li  Li2  1  0.24548850  0.97924450  0.78000400  1
  Li  Li3  1  0.56010900  0.68786600  0.27899000  1
  Li  Li4  1  0.24548850  0.02075550  0.28000400  1
  Li  Li5  1  0.59354450  0.85393650  0.22661600  1
  Li  Li6  1  0.57028700  0.96798900  0.77170000  1
  Li  Li7  1  0.86625550  0.70790250  0.25458000  1
  Li  Li8  1  0.73741650  0.80052750  0.77094100  1
  Li  Li9  1  0.57028700  0.03201100  0.27170000  1
  Li  Li10  1  0.09354450  0.64606350  0.72661600  1
  Li  Li11  1  0.87544000  0.97179800  0.76350900  1
  Li  Li12  1  0.06010900  0.81213400  0.77899000  1
  Li  Li13  1  0.87544000  0.02820200  0.26350900  1
  Li  Li14  1  0.05755750  0.86311950  0.26919400  1
  Li  Li15  1  0.23741650  0.69947250  0.27094100  1
  Li  Li16  1  0.86625550  0.29209750  0.75458000  1
  Li  Li17  1  0.05755750  0.13688050  0.76919400  1
  Li  Li18  1  0.74548850  0.47924450  0.78000400  1
  Li  Li19  1  0.06010900  0.18786600  0.27899000  1
  Li  Li20  1  0.74548850  0.52075550  0.28000400  1
  Li  Li21  1  0.09354450  0.35393650  0.22661600  1
  Li  Li22  1  0.07028700  0.46798900  0.77170000  1
  Li  Li23  1  0.36625550  0.20790250  0.25458000  1
  Li  Li24  1  0.23741650  0.30052750  0.77094100  1
  Li  Li25  1  0.07028700  0.53201100  0.27170000  1
  Li  Li26  1  0.59354450  0.14606350  0.72661600  1
  Li  Li27  1  0.37544000  0.47179800  0.76350900  1
  Li  Li28  1  0.56010900  0.31213400  0.77899000  1
  Li  Li29  1  0.37544000  0.52820200  0.26350900  1
  Li  Li30  1  0.55755750  0.36311950  0.26919400  1
  Li  Li31  1  0.73741650  0.19947250  0.27094100  1
  Mn  Mn32  1  0.08365750  0.91730850  0.99872700  1
  Mn  Mn33  1  0.25322850  0.91340750  0.49989000  1
  Mn  Mn34  1  0.08365750  0.08269150  0.49872700  1
  Mn  Mn35  1  0.75322850  0.58659250  0.99989000  1
  Mn  Mn36  1  0.58151900  0.74774100  0.99836600  1
  Mn  Mn37  1  0.74941550  0.75212750  0.50203200  1
  Mn  Mn38  1  0.58363850  0.91599950  0.50356300  1
  Mn  Mn39  1  0.75021900  0.91134700  0.00485300  1
  Mn  Mn40  1  0.08363850  0.58400050  0.00356300  1
  Mn  Mn41  1  0.25021900  0.58865300  0.50485300  1
  Mn  Mn42  1  0.08151900  0.75225900  0.49836600  1
  Mn  Mn43  1  0.24941550  0.74787250  0.00203200  1
  Mn  Mn44  1  0.58365750  0.41730850  0.99872700  1
  Mn  Mn45  1  0.75322850  0.41340750  0.49989000  1
  Mn  Mn46  1  0.58365750  0.58269150  0.49872700  1
  Mn  Mn47  1  0.25322850  0.08659250  0.99989000  1
  Mn  Mn48  1  0.08151900  0.24774100  0.99836600  1
  Mn  Mn49  1  0.24941550  0.25212750  0.50203200  1
  Mn  Mn50  1  0.08363850  0.41599950  0.50356300  1
  Mn  Mn51  1  0.25021900  0.41134700  0.00485300  1
  Mn  Mn52  1  0.58363850  0.08400050  0.00356300  1
  Mn  Mn53  1  0.75021900  0.08865300  0.50485300  1
  Mn  Mn54  1  0.58151900  0.25225900  0.49836600  1
  Mn  Mn55  1  0.74941550  0.24787250  0.00203200  1
  Fe  Fe56  1  0.41702950  0.74895250  0.49593500  1
  Fe  Fe57  1  0.41197050  0.91623050  0.01082400  1
  Fe  Fe58  1  0.91197050  0.58376950  0.51082400  1
  Fe  Fe59  1  0.91702950  0.75104750  0.99593500  1
  Fe  Fe60  1  0.91276100  0.91877500  0.50096600  1
  Fe  Fe61  1  0.91276100  0.08122500  0.00096600  1
  Fe  Fe62  1  0.91702950  0.24895250  0.49593500  1
  Fe  Fe63  1  0.91197050  0.41623050  0.01082400  1
  Fe  Fe64  1  0.41197050  0.08376950  0.51082400  1
  Fe  Fe65  1  0.41702950  0.25104750  0.99593500  1
  Fe  Fe66  1  0.41276100  0.41877500  0.50096600  1
  Fe  Fe67  1  0.41276100  0.58122500  0.00096600  1
  O  O68  1  0.22980750  0.80729750  0.39341800  1
  O  O69  1  0.09151550  0.97101850  0.39105400  1
  O  O70  1  0.39309050  0.63650350  0.38307600  1
  O  O71  1  0.24321650  0.87132150  0.88608400  1
  O  O72  1  0.09151550  0.02898150  0.89105400  1
  O  O73  1  0.41739500  0.70177000  0.89189700  1
  O  O74  1  0.26193000  0.98452100  0.10478100  1
  O  O75  1  0.59526650  0.64250050  0.09920500  1
  O  O76  1  0.42537050  0.79864250  0.10377400  1
  O  O77  1  0.26193000  0.01547900  0.60478100  1
  O  O78  1  0.59524500  0.68998300  0.59982200  1
  O  O79  1  0.41812500  0.86241500  0.60151300  1
  O  O80  1  0.74321650  0.62867850  0.38608400  1
  O  O81  1  0.41421550  0.97003650  0.39949900  1
  O  O82  1  0.59005300  0.79605500  0.38899500  1
  O  O83  1  0.72980750  0.69270250  0.89341800  1
  O  O84  1  0.41421550  0.02996350  0.89949900  1
  O  O85  1  0.58100350  0.85747850  0.89784400  1
  O  O86  1  0.74416750  0.80244650  0.10291600  1
  O  O87  1  0.91812500  0.63758500  0.10151300  1
  O  O88  1  0.59409900  0.95773100  0.11480300  1
  O  O89  1  0.74080800  0.87116300  0.61635100  1
  O  O90  1  0.92537050  0.70135750  0.60377400  1
  O  O91  1  0.59409900  0.04226900  0.61480300  1
  O  O92  1  0.91739500  0.79823000  0.39189700  1
  O  O93  1  0.73554650  0.98420350  0.40024800  1
  O  O94  1  0.08100350  0.64252150  0.39784400  1
  O  O95  1  0.89309050  0.86349650  0.88307600  1
  O  O96  1  0.73554650  0.01579650  0.90024800  1
  O  O97  1  0.09005300  0.70394500  0.88899500  1
  O  O98  1  0.91858850  0.95967250  0.10430000  1
  O  O99  1  0.24080800  0.62883700  0.11635100  1
  O  O100  1  0.09524500  0.81001700  0.09982200  1
  O  O101  1  0.91858850  0.04032750  0.60430000  1
  O  O102  1  0.24416750  0.69755350  0.60291600  1
  O  O103  1  0.09526650  0.85749950  0.59920500  1
  O  O104  1  0.72980750  0.30729750  0.39341800  1
  O  O105  1  0.59151550  0.47101850  0.39105400  1
  O  O106  1  0.89309050  0.13650350  0.38307600  1
  O  O107  1  0.74321650  0.37132150  0.88608400  1
  O  O108  1  0.59151550  0.52898150  0.89105400  1
  O  O109  1  0.91739500  0.20177000  0.89189700  1
  O  O110  1  0.76193000  0.48452100  0.10478100  1
  O  O111  1  0.09526650  0.14250050  0.09920500  1
  O  O112  1  0.92537050  0.29864250  0.10377400  1
  O  O113  1  0.76193000  0.51547900  0.60478100  1
  O  O114  1  0.09524500  0.18998300  0.59982200  1
  O  O115  1  0.91812500  0.36241500  0.60151300  1
  O  O116  1  0.24321650  0.12867850  0.38608400  1
  O  O117  1  0.91421550  0.47003650  0.39949900  1
  O  O118  1  0.09005300  0.29605500  0.38899500  1
  O  O119  1  0.22980750  0.19270250  0.89341800  1
  O  O120  1  0.91421550  0.52996350  0.89949900  1
  O  O121  1  0.08100350  0.35747850  0.89784400  1
  O  O122  1  0.24416750  0.30244650  0.10291600  1
  O  O123  1  0.41812500  0.13758500  0.10151300  1
  O  O124  1  0.09409900  0.45773100  0.11480300  1
  O  O125  1  0.24080800  0.37116300  0.61635100  1
  O  O126  1  0.42537050  0.20135750  0.60377400  1
  O  O127  1  0.09409900  0.54226900  0.61480300  1
  O  O128  1  0.41739500  0.29823000  0.39189700  1
  O  O129  1  0.23554650  0.48420350  0.40024800  1
  O  O130  1  0.58100350  0.14252150  0.39784400  1
  O  O131  1  0.39309050  0.36349650  0.88307600  1
  O  O132  1  0.23554650  0.51579650  0.90024800  1
  O  O133  1  0.59005300  0.20394500  0.88899500  1
  O  O134  1  0.41858850  0.45967250  0.10430000  1
  O  O135  1  0.74080800  0.12883700  0.11635100  1
  O  O136  1  0.59524500  0.31001700  0.09982200  1
  O  O137  1  0.41858850  0.54032750  0.60430000  1
  O  O138  1  0.74416750  0.19755350  0.60291600  1
  O  O139  1  0.59526650  0.35749950  0.59920500  1
