# generated using pymatgen
data_Li2TiCo3O8
_symmetry_space_group_name_H-M   'P 1'
_cell_length_a   5.71714800
_cell_length_b   9.89978400
_cell_length_c   9.24316216
_cell_angle_alpha   90.00000000
_cell_angle_beta   90.06053672
_cell_angle_gamma   90.00000000
_symmetry_Int_Tables_number   1
_chemical_formula_structural   Li2TiCo3O8
_chemical_formula_sum   'Li8 Ti4 Co12 O32'
_cell_volume   523.14910150
_cell_formula_units_Z   4
loop_
 _symmetry_equiv_pos_site_id
 _symmetry_equiv_pos_as_xyz
  1  'x, y, z'
loop_
 _atom_site_type_symbol
 _atom_site_label
 _atom_site_symmetry_multiplicity
 _atom_site_fract_x
 _atom_site_fract_y
 _atom_site_fract_z
 _atom_site_occupancy
  Li  Li0  1  0.49853600  0.83276900  0.11185300  1
  Li  Li1  1  0.99911700  0.00048500  0.00240400  1
  Li  Li2  1  0.99911700  0.99951500  0.50240400  1
  Li  Li3  1  0.49853600  0.16723100  0.61185300  1
  Li  Li4  1  0.99853600  0.33276900  0.11185300  1
  Li  Li5  1  0.49911700  0.50048500  0.00240400  1
  Li  Li6  1  0.49911700  0.49951500  0.50240400  1
  Li  Li7  1  0.99853600  0.66723100  0.61185300  1
  Ti  Ti8  1  0.50648550  0.83334550  0.50315400  1
  Ti  Ti9  1  0.50648550  0.16665450  0.00315400  1
  Ti  Ti10  1  0.00648550  0.33334550  0.50315400  1
  Ti  Ti11  1  0.00648550  0.66665450  0.00315400  1
  Co  Co12  1  0.25593800  0.91485200  0.78428200  1
  Co  Co13  1  0.74478950  0.91485650  0.78485100  1
  Co  Co14  1  0.50035100  0.67023400  0.78495400  1
  Co  Co15  1  0.50035100  0.32976600  0.28495400  1
  Co  Co16  1  0.25593800  0.08514800  0.28428200  1
  Co  Co17  1  0.74478950  0.08514350  0.28485100  1
  Co  Co18  1  0.75593800  0.41485200  0.78428200  1
  Co  Co19  1  0.24478950  0.41485650  0.78485100  1
  Co  Co20  1  0.00035100  0.17023400  0.78495400  1
  Co  Co21  1  0.00035100  0.82976600  0.28495400  1
  Co  Co22  1  0.75593800  0.58514800  0.28428200  1
  Co  Co23  1  0.24478950  0.58514350  0.28485100  1
  O  O24  1  0.24814800  0.91861100  0.39923700  1
  O  O25  1  0.49768050  0.98071050  0.66477700  1
  O  O26  1  0.49846750  0.83413550  0.88945100  1
  O  O27  1  0.00201300  0.99926200  0.69278100  1
  O  O28  1  0.00201300  0.00073800  0.19278100  1
  O  O29  1  0.74961850  0.91689850  0.40097500  1
  O  O30  1  0.27762550  0.76072250  0.66467800  1
  O  O31  1  0.71979950  0.75984150  0.66332600  1
  O  O32  1  0.50128050  0.33511450  0.89935800  1
  O  O33  1  0.50128050  0.66488550  0.39935800  1
  O  O34  1  0.27762550  0.23927750  0.16467800  1
  O  O35  1  0.71979950  0.24015850  0.16332600  1
  O  O36  1  0.49846750  0.16586450  0.38945100  1
  O  O37  1  0.24814800  0.08138900  0.89923700  1
  O  O38  1  0.49768050  0.01928950  0.16477700  1
  O  O39  1  0.74961850  0.08310150  0.90097500  1
  O  O40  1  0.74814800  0.41861100  0.39923700  1
  O  O41  1  0.99768050  0.48071050  0.66477700  1
  O  O42  1  0.99846750  0.33413550  0.88945100  1
  O  O43  1  0.50201300  0.49926200  0.69278100  1
  O  O44  1  0.50201300  0.50073800  0.19278100  1
  O  O45  1  0.24961850  0.41689850  0.40097500  1
  O  O46  1  0.77762550  0.26072250  0.66467800  1
  O  O47  1  0.21979950  0.25984150  0.66332600  1
  O  O48  1  0.00128050  0.83511450  0.89935800  1
  O  O49  1  0.00128050  0.16488550  0.39935800  1
  O  O50  1  0.77762550  0.73927750  0.16467800  1
  O  O51  1  0.21979950  0.74015850  0.16332600  1
  O  O52  1  0.99846750  0.66586450  0.38945100  1
  O  O53  1  0.74814800  0.58138900  0.89923700  1
  O  O54  1  0.99768050  0.51928950  0.16477700  1
  O  O55  1  0.24961850  0.58310150  0.90097500  1
