# generated using pymatgen
data_Li4Mn5Ni3O16
_symmetry_space_group_name_H-M   'P 1'
_cell_length_a   10.09360612
_cell_length_b   5.74849032
_cell_length_c   9.36856890
_cell_angle_alpha   90.00000000
_cell_angle_beta   91.88849114
_cell_angle_gamma   90.00000000
_symmetry_Int_Tables_number   1
_chemical_formula_structural   Li4Mn5Ni3O16
_chemical_formula_sum   'Li8 Mn10 Ni6 O32'
_cell_volume   543.29719707
_cell_formula_units_Z   2
loop_
 _symmetry_equiv_pos_site_id
 _symmetry_equiv_pos_as_xyz
  1  'x, y, z'
loop_
 _atom_site_type_symbol
 _atom_site_label
 _atom_site_symmetry_multiplicity
 _atom_site_fract_x
 _atom_site_fract_y
 _atom_site_fract_z
 _atom_site_occupancy
  Li  Li0  1  0.66310050  0.00000000  0.89699900  1
  Li  Li1  1  0.99414800  0.00000000  0.99096300  1
  Li  Li2  1  0.50140250  0.50000000  0.49664800  1
  Li  Li3  1  0.83312800  0.50000000  0.39922100  1
  Li  Li4  1  0.16310050  0.50000000  0.89699900  1
  Li  Li5  1  0.49414800  0.50000000  0.99096300  1
  Li  Li6  1  0.00140250  0.00000000  0.49664800  1
  Li  Li7  1  0.33312800  0.00000000  0.39922100  1
  Mn  Mn8  1  0.58537850  0.75367550  0.21357900  1
  Mn  Mn9  1  0.67153300  0.00000000  0.48709800  1
  Mn  Mn10  1  0.58537850  0.24632450  0.21357900  1
  Mn  Mn11  1  0.67256400  0.50000000  0.71506900  1
  Mn  Mn12  1  0.83731300  0.50000000  0.98308600  1
  Mn  Mn13  1  0.08537850  0.25367550  0.21357900  1
  Mn  Mn14  1  0.17153300  0.50000000  0.48709800  1
  Mn  Mn15  1  0.08537850  0.74632450  0.21357900  1
  Mn  Mn16  1  0.17256400  0.00000000  0.71506900  1
  Mn  Mn17  1  0.33731300  0.00000000  0.98308600  1
  Ni  Ni18  1  0.82974200  0.00000000  0.21190700  1
  Ni  Ni19  1  0.91550550  0.25348850  0.71155500  1
  Ni  Ni20  1  0.91550550  0.74651150  0.71155500  1
  Ni  Ni21  1  0.32974200  0.50000000  0.21190700  1
  Ni  Ni22  1  0.41550550  0.75348850  0.71155500  1
  Ni  Ni23  1  0.41550550  0.24651150  0.71155500  1
  O  O24  1  0.59143950  0.75041450  0.59772700  1
  O  O25  1  0.51914900  0.00000000  0.33722600  1
  O  O26  1  0.65798750  0.00000000  0.10589400  1
  O  O27  1  0.50515700  0.50000000  0.30735400  1
  O  O28  1  0.50378400  0.50000000  0.80120000  1
  O  O29  1  0.59143950  0.24958550  0.59772700  1
  O  O30  1  0.73497600  0.77369800  0.34619300  1
  O  O31  1  0.73497600  0.22630200  0.34619300  1
  O  O32  1  0.66299650  0.50000000  0.10208100  1
  O  O33  1  0.83724400  0.00000000  0.59321600  1
  O  O34  1  0.75355250  0.28161750  0.84740200  1
  O  O35  1  0.75355250  0.71838250  0.84740200  1
  O  O36  1  0.83078400  0.50000000  0.61040900  1
  O  O37  1  0.92080500  0.25385500  0.09572200  1
  O  O38  1  0.97633900  0.50000000  0.84511800  1
  O  O39  1  0.92080500  0.74614500  0.09572200  1
  O  O40  1  0.09143950  0.25041450  0.59772700  1
  O  O41  1  0.01914900  0.50000000  0.33722600  1
  O  O42  1  0.15798750  0.50000000  0.10589400  1
  O  O43  1  0.00515700  0.00000000  0.30735400  1
  O  O44  1  0.00378400  0.00000000  0.80120000  1
  O  O45  1  0.09143950  0.74958550  0.59772700  1
  O  O46  1  0.23497600  0.27369800  0.34619300  1
  O  O47  1  0.23497600  0.72630200  0.34619300  1
  O  O48  1  0.16299650  0.00000000  0.10208100  1
  O  O49  1  0.33724400  0.50000000  0.59321600  1
  O  O50  1  0.25355250  0.78161750  0.84740200  1
  O  O51  1  0.25355250  0.21838250  0.84740200  1
  O  O52  1  0.33078400  0.00000000  0.61040900  1
  O  O53  1  0.42080500  0.75385500  0.09572200  1
  O  O54  1  0.47633900  0.00000000  0.84511800  1
  O  O55  1  0.42080500  0.24614500  0.09572200  1
