# generated using pymatgen
data_NdZrO3
_symmetry_space_group_name_H-M   'P 1'
_cell_length_a   8.32991400
_cell_length_b   8.24787600
_cell_length_c   5.63108411
_cell_angle_alpha   90.00000000
_cell_angle_beta   132.33412494
_cell_angle_gamma   90.00000000
_symmetry_Int_Tables_number   1
_chemical_formula_structural   NdZrO3
_chemical_formula_sum   'Nd4 Zr4 O12'
_cell_volume   285.99228052
_cell_formula_units_Z   4
loop_
 _symmetry_equiv_pos_site_id
 _symmetry_equiv_pos_as_xyz
  1  'x, y, z'
loop_
 _atom_site_type_symbol
 _atom_site_label
 _atom_site_symmetry_multiplicity
 _atom_site_fract_x
 _atom_site_fract_y
 _atom_site_fract_z
 _atom_site_occupancy
  Nd  Nd0  1  0.74405700  0.50000000  0.03126800  1
  Nd  Nd1  1  0.25594300  0.50000000  0.96873200  1
  Nd  Nd2  1  0.24405700  0.00000000  0.03126800  1
  Nd  Nd3  1  0.75594300  0.00000000  0.96873200  1
  Zr  Zr4  1  0.75000000  0.75000000  0.50000000  1
  Zr  Zr5  1  0.25000000  0.75000000  0.50000000  1
  Zr  Zr6  1  0.25000000  0.25000000  0.50000000  1
  Zr  Zr7  1  0.75000000  0.25000000  0.50000000  1
  O  O8  1  0.00000000  0.81995400  0.00000000  1
  O  O9  1  0.00000000  0.18004600  0.00000000  1
  O  O10  1  0.00000000  0.67802200  0.50000000  1
  O  O11  1  0.00000000  0.32197800  0.50000000  1
  O  O12  1  0.74421700  0.50000000  0.61089300  1
  O  O13  1  0.25578300  0.50000000  0.38910700  1
  O  O14  1  0.50000000  0.31995400  0.00000000  1
  O  O15  1  0.50000000  0.68004600  0.00000000  1
  O  O16  1  0.50000000  0.17802200  0.50000000  1
  O  O17  1  0.50000000  0.82197800  0.50000000  1
  O  O18  1  0.24421700  0.00000000  0.61089300  1
  O  O19  1  0.75578300  0.00000000  0.38910700  1
