# generated using pymatgen
data_Mn3OF5
_symmetry_space_group_name_H-M   'P 1'
_cell_length_a   6.78351400
_cell_length_b   7.00489200
_cell_length_c   9.78761568
_cell_angle_alpha   90.00000000
_cell_angle_beta   90.57663701
_cell_angle_gamma   90.00000000
_symmetry_Int_Tables_number   1
_chemical_formula_structural   Mn3OF5
_chemical_formula_sum   'Mn12 O4 F20'
_cell_volume   465.06224387
_cell_formula_units_Z   4
loop_
 _symmetry_equiv_pos_site_id
 _symmetry_equiv_pos_as_xyz
  1  'x, y, z'
loop_
 _atom_site_type_symbol
 _atom_site_label
 _atom_site_symmetry_multiplicity
 _atom_site_fract_x
 _atom_site_fract_y
 _atom_site_fract_z
 _atom_site_occupancy
  Mn  Mn0  1  0.96775100  0.00000000  0.66294900  1
  Mn  Mn1  1  0.03224900  0.00000000  0.33705100  1
  Mn  Mn2  1  0.00000000  0.00000000  0.00000000  1
  Mn  Mn3  1  0.50402700  0.00000000  0.82252900  1
  Mn  Mn4  1  0.50000000  0.00000000  0.50000000  1
  Mn  Mn5  1  0.49597300  0.00000000  0.17747100  1
  Mn  Mn6  1  0.46775100  0.50000000  0.66294900  1
  Mn  Mn7  1  0.53224900  0.50000000  0.33705100  1
  Mn  Mn8  1  0.50000000  0.50000000  0.00000000  1
  Mn  Mn9  1  0.00402700  0.50000000  0.82252900  1
  Mn  Mn10  1  0.00000000  0.50000000  0.50000000  1
  Mn  Mn11  1  0.99597300  0.50000000  0.17747100  1
  O  O12  1  0.32642000  0.00000000  0.34373900  1
  O  O13  1  0.67358000  0.00000000  0.65626100  1
  O  O14  1  0.82642000  0.50000000  0.34373900  1
  O  O15  1  0.17358000  0.50000000  0.65626100  1
  F  F16  1  0.50000000  0.70296000  0.50000000  1
  F  F17  1  0.51079350  0.69635150  0.16808900  1
  F  F18  1  0.48920650  0.69635150  0.83191100  1
  F  F19  1  0.28043300  0.00000000  0.66134400  1
  F  F20  1  0.31071500  0.00000000  0.99310100  1
  F  F21  1  0.71956700  0.00000000  0.33865600  1
  F  F22  1  0.68928500  0.00000000  0.00689900  1
  F  F23  1  0.50000000  0.29704000  0.50000000  1
  F  F24  1  0.51079350  0.30364850  0.16808900  1
  F  F25  1  0.48920650  0.30364850  0.83191100  1
  F  F26  1  0.00000000  0.20296000  0.50000000  1
  F  F27  1  0.01079350  0.19635150  0.16808900  1
  F  F28  1  0.98920650  0.19635150  0.83191100  1
  F  F29  1  0.78043300  0.50000000  0.66134400  1
  F  F30  1  0.81071500  0.50000000  0.99310100  1
  F  F31  1  0.21956700  0.50000000  0.33865600  1
  F  F32  1  0.18928500  0.50000000  0.00689900  1
  F  F33  1  0.00000000  0.79704000  0.50000000  1
  F  F34  1  0.01079350  0.80364850  0.16808900  1
  F  F35  1  0.98920650  0.80364850  0.83191100  1
