# generated using pymatgen
data_Li4Ti2Cr3Sn3O16
_symmetry_space_group_name_H-M   'P 1'
_cell_length_a   10.57028600
_cell_length_b   6.12252800
_cell_length_c   9.65523241
_cell_angle_alpha   90.00000000
_cell_angle_beta   90.70620771
_cell_angle_gamma   90.00000000
_symmetry_Int_Tables_number   1
_chemical_formula_structural   Li4Ti2Cr3Sn3O16
_chemical_formula_sum   'Li8 Ti4 Cr6 Sn6 O32'
_cell_volume   624.80897604
_cell_formula_units_Z   2
loop_
 _symmetry_equiv_pos_site_id
 _symmetry_equiv_pos_as_xyz
  1  'x, y, z'
loop_
 _atom_site_type_symbol
 _atom_site_label
 _atom_site_symmetry_multiplicity
 _atom_site_fract_x
 _atom_site_fract_y
 _atom_site_fract_z
 _atom_site_occupancy
  Li  Li0  1  0.32889400  0.00000000  0.88939200  1
  Li  Li1  1  0.01130500  0.00000000  0.99099500  1
  Li  Li2  1  0.00783100  0.00000000  0.50060900  1
  Li  Li3  1  0.66545200  0.00000000  0.39887100  1
  Li  Li4  1  0.82889400  0.50000000  0.88939200  1
  Li  Li5  1  0.51130500  0.50000000  0.99099500  1
  Li  Li6  1  0.50783100  0.50000000  0.50060900  1
  Li  Li7  1  0.16545200  0.50000000  0.39887100  1
  Ti  Ti8  1  0.32452700  0.00000000  0.49993500  1
  Ti  Ti9  1  0.65685000  0.00000000  0.98326100  1
  Ti  Ti10  1  0.82452700  0.50000000  0.49993500  1
  Ti  Ti11  1  0.15685000  0.50000000  0.98326100  1
  Cr  Cr12  1  0.17083700  0.00000000  0.21428700  1
  Cr  Cr13  1  0.58394450  0.75634950  0.71387300  1
  Cr  Cr14  1  0.58394450  0.24365050  0.71387300  1
  Cr  Cr15  1  0.67083700  0.50000000  0.21428700  1
  Cr  Cr16  1  0.08394450  0.25634950  0.71387300  1
  Cr  Cr17  1  0.08394450  0.74365050  0.71387300  1
  Sn  Sn18  1  0.41572050  0.75404250  0.21437000  1
  Sn  Sn19  1  0.41572050  0.24595750  0.21437000  1
  Sn  Sn20  1  0.82946800  0.00000000  0.71394800  1
  Sn  Sn21  1  0.91572050  0.25404250  0.21437000  1
  Sn  Sn22  1  0.91572050  0.74595750  0.21437000  1
  Sn  Sn23  1  0.32946800  0.50000000  0.71394800  1
  O  O24  1  0.41753500  0.75169200  0.59368600  1
  O  O25  1  0.48289000  0.00000000  0.34578200  1
  O  O26  1  0.32928900  0.00000000  0.09808800  1
  O  O27  1  0.00601000  0.00000000  0.31517800  1
  O  O28  1  0.00410200  0.00000000  0.80689400  1
  O  O29  1  0.41753500  0.24830800  0.59368600  1
  O  O30  1  0.25824250  0.78405350  0.34392100  1
  O  O31  1  0.25824250  0.21594650  0.34392100  1
  O  O32  1  0.83736100  0.00000000  0.09264900  1
  O  O33  1  0.17031100  0.00000000  0.59980300  1
  O  O34  1  0.73557300  0.77875200  0.84463800  1
  O  O35  1  0.73557300  0.22124800  0.84463800  1
  O  O36  1  0.66126500  0.00000000  0.60425700  1
  O  O37  1  0.58409150  0.74894150  0.09648900  1
  O  O38  1  0.52016600  0.00000000  0.83935400  1
  O  O39  1  0.58409150  0.25105850  0.09648900  1
  O  O40  1  0.91753500  0.25169200  0.59368600  1
  O  O41  1  0.98289000  0.50000000  0.34578200  1
  O  O42  1  0.82928900  0.50000000  0.09808800  1
  O  O43  1  0.50601000  0.50000000  0.31517800  1
  O  O44  1  0.50410200  0.50000000  0.80689400  1
  O  O45  1  0.91753500  0.74830800  0.59368600  1
  O  O46  1  0.75824250  0.28405350  0.34392100  1
  O  O47  1  0.75824250  0.71594650  0.34392100  1
  O  O48  1  0.33736100  0.50000000  0.09264900  1
  O  O49  1  0.67031100  0.50000000  0.59980300  1
  O  O50  1  0.23557300  0.27875200  0.84463800  1
  O  O51  1  0.23557300  0.72124800  0.84463800  1
  O  O52  1  0.16126500  0.50000000  0.60425700  1
  O  O53  1  0.08409150  0.24894150  0.09648900  1
  O  O54  1  0.02016600  0.50000000  0.83935400  1
  O  O55  1  0.08409150  0.75105850  0.09648900  1
