# generated using pymatgen
data_Li4Fe3Sn3(TeO8)2
_symmetry_space_group_name_H-M   'P 1'
_cell_length_a   10.89686200
_cell_length_b   6.23708000
_cell_length_c   10.14802100
_cell_angle_alpha   90.00000000
_cell_angle_beta   90.70444723
_cell_angle_gamma   90.00000000
_symmetry_Int_Tables_number   1
_chemical_formula_structural   Li4Fe3Sn3(TeO8)2
_chemical_formula_sum   'Li8 Fe6 Sn6 Te4 O32'
_cell_volume   689.65405964
_cell_formula_units_Z   2
loop_
 _symmetry_equiv_pos_site_id
 _symmetry_equiv_pos_as_xyz
  1  'x, y, z'
loop_
 _atom_site_type_symbol
 _atom_site_label
 _atom_site_symmetry_multiplicity
 _atom_site_fract_x
 _atom_site_fract_y
 _atom_site_fract_z
 _atom_site_occupancy
  Li  Li0  1  0.82651000  0.50000000  0.10166100  1
  Li  Li1  1  0.50295200  0.50000000  0.01010600  1
  Li  Li2  1  0.50123600  0.50000000  0.50390700  1
  Li  Li3  1  0.66483200  0.00000000  0.59332700  1
  Li  Li4  1  0.32651000  0.00000000  0.10166100  1
  Li  Li5  1  0.00295200  0.00000000  0.01010600  1
  Li  Li6  1  0.00123600  0.00000000  0.50390700  1
  Li  Li7  1  0.16483200  0.50000000  0.59332700  1
  Fe  Fe8  1  0.66535100  0.50000000  0.79001700  1
  Fe  Fe9  1  0.58108600  0.24650400  0.28854000  1
  Fe  Fe10  1  0.58108600  0.75349600  0.28854000  1
  Fe  Fe11  1  0.16535100  0.00000000  0.79001700  1
  Fe  Fe12  1  0.08108600  0.74650400  0.28854000  1
  Fe  Fe13  1  0.08108600  0.25349600  0.28854000  1
  Sn  Sn14  1  0.91431150  0.74565150  0.78513000  1
  Sn  Sn15  1  0.91431150  0.25434850  0.78513000  1
  Sn  Sn16  1  0.82977800  0.00000000  0.28523200  1
  Sn  Sn17  1  0.41431150  0.24565150  0.78513000  1
  Sn  Sn18  1  0.41431150  0.75434850  0.78513000  1
  Sn  Sn19  1  0.32977800  0.50000000  0.28523200  1
  Te  Te20  1  0.82057200  0.50000000  0.51102500  1
  Te  Te21  1  0.65010200  0.00000000  0.01804400  1
  Te  Te22  1  0.32057200  0.00000000  0.51102500  1
  Te  Te23  1  0.15010200  0.50000000  0.01804400  1
  O  O24  1  0.92420200  0.76597900  0.39459900  1
  O  O25  1  0.98596400  0.50000000  0.66686100  1
  O  O26  1  0.83576200  0.50000000  0.89476500  1
  O  O27  1  0.99677700  0.00000000  0.68409200  1
  O  O28  1  0.50176600  0.50000000  0.19062100  1
  O  O29  1  0.92420200  0.23402100  0.39459900  1
  O  O30  1  0.76117950  0.72045250  0.65132500  1
  O  O31  1  0.76117950  0.27954750  0.65132500  1
  O  O32  1  0.84665700  0.00000000  0.89583700  1
  O  O33  1  0.65577900  0.50000000  0.40572900  1
  O  O34  1  0.73402400  0.22658800  0.16839400  1
  O  O35  1  0.73402400  0.77341200  0.16839400  1
  O  O36  1  0.66169400  0.00000000  0.39022800  1
  O  O37  1  0.57111100  0.25391100  0.90842300  1
  O  O38  1  0.51623300  0.00000000  0.15665700  1
  O  O39  1  0.57111100  0.74608900  0.90842300  1
  O  O40  1  0.42420200  0.26597900  0.39459900  1
  O  O41  1  0.48596400  0.00000000  0.66686100  1
  O  O42  1  0.33576200  0.00000000  0.89476500  1
  O  O43  1  0.49677700  0.50000000  0.68409200  1
  O  O44  1  0.00176600  0.00000000  0.19062100  1
  O  O45  1  0.42420200  0.73402100  0.39459900  1
  O  O46  1  0.26117950  0.22045250  0.65132500  1
  O  O47  1  0.26117950  0.77954750  0.65132500  1
  O  O48  1  0.34665700  0.50000000  0.89583700  1
  O  O49  1  0.15577900  0.00000000  0.40572900  1
  O  O50  1  0.23402400  0.72658800  0.16839400  1
  O  O51  1  0.23402400  0.27341200  0.16839400  1
  O  O52  1  0.16169400  0.50000000  0.39022800  1
  O  O53  1  0.07111100  0.75391100  0.90842300  1
  O  O54  1  0.01623300  0.50000000  0.15665700  1
  O  O55  1  0.07111100  0.24608900  0.90842300  1
