# generated using pymatgen
data_Fe4O5F3
_symmetry_space_group_name_H-M   'P 1'
_cell_length_a   18.88809000
_cell_length_b   6.09405600
_cell_length_c   4.73253315
_cell_angle_alpha   90.00000000
_cell_angle_beta   91.67001688
_cell_angle_gamma   90.00000000
_symmetry_Int_Tables_number   1
_chemical_formula_structural   Fe4O5F3
_chemical_formula_sum   'Fe16 O20 F12'
_cell_volume   544.50721981
_cell_formula_units_Z   4
loop_
 _symmetry_equiv_pos_site_id
 _symmetry_equiv_pos_as_xyz
  1  'x, y, z'
loop_
 _atom_site_type_symbol
 _atom_site_label
 _atom_site_symmetry_multiplicity
 _atom_site_fract_x
 _atom_site_fract_y
 _atom_site_fract_z
 _atom_site_occupancy
  Fe  Fe0  1  0.75000000  0.75000000  0.00000000  1
  Fe  Fe1  1  0.00000000  0.25521400  0.00000000  1
  Fe  Fe2  1  0.00000000  0.74478600  0.00000000  1
  Fe  Fe3  1  0.75000000  0.25000000  0.00000000  1
  Fe  Fe4  1  0.63433400  0.00000000  0.47149800  1
  Fe  Fe5  1  0.86566600  0.50000000  0.52850200  1
  Fe  Fe6  1  0.62744400  0.50000000  0.43424700  1
  Fe  Fe7  1  0.87255600  0.00000000  0.56575300  1
  Fe  Fe8  1  0.25000000  0.25000000  0.00000000  1
  Fe  Fe9  1  0.50000000  0.75521400  0.00000000  1
  Fe  Fe10  1  0.50000000  0.24478600  0.00000000  1
  Fe  Fe11  1  0.25000000  0.75000000  0.00000000  1
  Fe  Fe12  1  0.13433400  0.50000000  0.47149800  1
  Fe  Fe13  1  0.36566600  0.00000000  0.52850200  1
  Fe  Fe14  1  0.12744400  0.00000000  0.43424700  1
  Fe  Fe15  1  0.37255600  0.50000000  0.56575300  1
  O  O16  1  0.82384000  0.74933600  0.71581600  1
  O  O17  1  0.82384000  0.25066400  0.71581600  1
  O  O18  1  0.70416800  0.00000000  0.80271800  1
  O  O19  1  0.95248600  0.00000000  0.82471500  1
  O  O20  1  0.95035900  0.50000000  0.81786500  1
  O  O21  1  0.54751400  0.50000000  0.17528500  1
  O  O22  1  0.54964100  0.00000000  0.18213500  1
  O  O23  1  0.79583200  0.50000000  0.19728200  1
  O  O24  1  0.67616000  0.24933600  0.28418400  1
  O  O25  1  0.67616000  0.75066400  0.28418400  1
  O  O26  1  0.32384000  0.24933600  0.71581600  1
  O  O27  1  0.32384000  0.75066400  0.71581600  1
  O  O28  1  0.20416800  0.50000000  0.80271800  1
  O  O29  1  0.45248600  0.50000000  0.82471500  1
  O  O30  1  0.45035900  0.00000000  0.81786500  1
  O  O31  1  0.04751400  0.00000000  0.17528500  1
  O  O32  1  0.04964100  0.50000000  0.18213500  1
  O  O33  1  0.29583200  0.00000000  0.19728200  1
  O  O34  1  0.17616000  0.74933600  0.28418400  1
  O  O35  1  0.17616000  0.25066400  0.28418400  1
  F  F36  1  0.57827050  0.74876350  0.67205100  1
  F  F37  1  0.57827050  0.25123650  0.67205100  1
  F  F38  1  0.69680300  0.50000000  0.78702900  1
  F  F39  1  0.80319700  0.00000000  0.21297100  1
  F  F40  1  0.92172950  0.24876350  0.32794900  1
  F  F41  1  0.92172950  0.75123650  0.32794900  1
  F  F42  1  0.07827050  0.24876350  0.67205100  1
  F  F43  1  0.07827050  0.75123650  0.67205100  1
  F  F44  1  0.19680300  0.00000000  0.78702900  1
  F  F45  1  0.30319700  0.50000000  0.21297100  1
  F  F46  1  0.42172950  0.74876350  0.32794900  1
  F  F47  1  0.42172950  0.25123650  0.32794900  1
