# generated using pymatgen
data_Mn5V(PO4)6
_symmetry_space_group_name_H-M   'P 1'
_cell_length_a   8.61227983
_cell_length_b   8.61227983
_cell_length_c   21.18704900
_cell_angle_alpha   90.00000000
_cell_angle_beta   90.00000000
_cell_angle_gamma   120.00000000
_symmetry_Int_Tables_number   1
_chemical_formula_structural   Mn5V(PO4)6
_chemical_formula_sum   'Mn15 V3 P18 O72'
_cell_volume   1360.93495078
_cell_formula_units_Z   3
loop_
 _symmetry_equiv_pos_site_id
 _symmetry_equiv_pos_as_xyz
  1  'x, y, z'
loop_
 _atom_site_type_symbol
 _atom_site_label
 _atom_site_symmetry_multiplicity
 _atom_site_fract_x
 _atom_site_fract_y
 _atom_site_fract_z
 _atom_site_occupancy
  Mn  Mn0  1  0.00000000  0.00000000  0.00025800  1
  Mn  Mn1  1  0.33333333  0.66666667  0.02349967  1
  Mn  Mn2  1  0.33333333  0.66666667  0.16757367  1
  Mn  Mn3  1  0.00000000  0.00000000  0.14418100  1
  Mn  Mn4  1  0.33333333  0.66666667  0.31052567  1
  Mn  Mn5  1  0.66666667  0.33333333  0.33359133  1
  Mn  Mn6  1  0.00000000  0.00000000  0.35683300  1
  Mn  Mn7  1  0.00000000  0.00000000  0.50090700  1
  Mn  Mn8  1  0.66666667  0.33333333  0.47751433  1
  Mn  Mn9  1  0.00000000  0.00000000  0.64385900  1
  Mn  Mn10  1  0.33333333  0.66666667  0.66692467  1
  Mn  Mn11  1  0.66666667  0.33333333  0.69016633  1
  Mn  Mn12  1  0.66666667  0.33333333  0.83424033  1
  Mn  Mn13  1  0.33333333  0.66666667  0.81084767  1
  Mn  Mn14  1  0.66666667  0.33333333  0.97719233  1
  V  V15  1  0.66666667  0.33333333  0.18982533  1
  V  V16  1  0.33333333  0.66666667  0.52315867  1
  V  V17  1  0.00000000  0.00000000  0.85649200  1
  P  P18  1  0.37459800  0.04176200  0.08302700  1
  P  P19  1  0.66716400  0.62540200  0.08302700  1
  P  P20  1  0.95823800  0.33283600  0.08302700  1
  P  P21  1  0.70878233  0.99911967  0.25024667  1
  P  P22  1  0.00088033  0.70966267  0.25024667  1
  P  P23  1  0.29033733  0.29121767  0.25024667  1
  P  P24  1  0.04126467  0.37509533  0.41636033  1
  P  P25  1  0.33383067  0.95873533  0.41636033  1
  P  P26  1  0.62490467  0.66616933  0.41636033  1
  P  P27  1  0.37544900  0.33245300  0.58358000  1
  P  P28  1  0.66754700  0.04299600  0.58358000  1
  P  P29  1  0.95700400  0.62455100  0.58358000  1
  P  P30  1  0.70793133  0.70842867  0.74969367  1
  P  P31  1  0.00049733  0.29206867  0.74969367  1
  P  P32  1  0.29157133  0.99950267  0.74969367  1
  P  P33  1  0.04211567  0.66578633  0.91691333  1
  P  P34  1  0.33421367  0.37632933  0.91691333  1
  P  P35  1  0.62367067  0.95788433  0.91691333  1
  O  O36  1  0.67351433  0.53567467  0.02189367  1
  O  O37  1  0.86216033  0.32648567  0.02189367  1
  O  O38  1  0.46432533  0.13783967  0.02189367  1
  O  O39  1  0.18411567  0.02088733  0.07865033  1
  O  O40  1  0.47449300  0.14332000  0.14348500  1
  O  O41  1  0.35798533  0.85398667  0.09004267  1
  O  O42  1  0.83677167  0.81588433  0.07865033  1
  O  O43  1  0.49600133  0.64201467  0.09004267  1
  O  O44  1  0.79947700  0.99275100  0.18896900  1
  O  O45  1  0.14601333  0.50399867  0.09004267  1
  O  O46  1  0.68526200  0.16942200  0.25316600  1
  O  O47  1  0.00724900  0.80672600  0.18896900  1
  O  O48  1  0.66882700  0.52550700  0.14348500  1
  O  O49  1  0.97911267  0.16322833  0.07865033  1
  O  O50  1  0.51746800  0.83174000  0.24477200  1
  O  O51  1  0.85668000  0.33117300  0.14348500  1
  O  O52  1  0.16826000  0.68572800  0.24477200  1
  O  O53  1  0.83057800  0.51584000  0.25316600  1
  O  O54  1  0.31427200  0.48253200  0.24477200  1
  O  O55  1  0.19327400  0.20052300  0.18896900  1
  O  O56  1  0.48416000  0.31473800  0.25316600  1
  O  O57  1  0.20213167  0.19480133  0.31157833  1
  O  O58  1  0.80519867  0.00733033  0.31157833  1
  O  O59  1  0.99266967  0.79786833  0.31157833  1
  O  O60  1  0.34018100  0.86900800  0.35522700  1
  O  O61  1  0.52882700  0.65981900  0.35522700  1
  O  O62  1  0.13099200  0.47117300  0.35522700  1
  O  O63  1  0.85078233  0.35422067  0.41198367  1
  O  O64  1  0.14115967  0.47665333  0.47681833  1
  O  O65  1  0.02465200  0.18732000  0.42337600  1
  O  O66  1  0.50343833  0.14921767  0.41198367  1
  O  O67  1  0.16266800  0.97534800  0.42337600  1
  O  O68  1  0.46614367  0.32608433  0.52230233  1
  O  O69  1  0.81268000  0.83733200  0.42337600  1
  O  O70  1  0.35192867  0.50275533  0.58649933  1
  O  O71  1  0.67391567  0.14005933  0.52230233  1
  O  O72  1  0.33549367  0.85884033  0.47681833  1
  O  O73  1  0.64577933  0.49656167  0.41198367  1
  O  O74  1  0.18413467  0.16507333  0.57810533  1
  O  O75  1  0.52334667  0.66450633  0.47681833  1
  O  O76  1  0.83492667  0.01906133  0.57810533  1
  O  O77  1  0.49724467  0.84917333  0.58649933  1
  O  O78  1  0.98093867  0.81586533  0.57810533  1
  O  O79  1  0.85994067  0.53385633  0.52230233  1
  O  O80  1  0.15082667  0.64807133  0.58649933  1
  O  O81  1  0.86879833  0.52813467  0.64491167  1
  O  O82  1  0.47186533  0.34066367  0.64491167  1
  O  O83  1  0.65933633  0.13120167  0.64491167  1
  O  O84  1  0.00684767  0.20234133  0.68856033  1
  O  O85  1  0.19549367  0.99315233  0.68856033  1
  O  O86  1  0.79765867  0.80450633  0.68856033  1
  O  O87  1  0.51744900  0.68755400  0.74531700  1
  O  O88  1  0.80782633  0.80998667  0.81015167  1
  O  O89  1  0.69131867  0.52065333  0.75670933  1
  O  O90  1  0.17010500  0.48255100  0.74531700  1
  O  O91  1  0.82933467  0.30868133  0.75670933  1
  O  O92  1  0.13281033  0.65941767  0.85563567  1
  O  O93  1  0.47934667  0.17066533  0.75670933  1
  O  O94  1  0.01859533  0.83608867  0.91983267  1
  O  O95  1  0.34058233  0.47339267  0.85563567  1
  O  O96  1  0.00216033  0.19217367  0.81015167  1
  O  O97  1  0.31244600  0.82989500  0.74531700  1
  O  O98  1  0.85080133  0.49840667  0.91143867  1
  O  O99  1  0.19001333  0.99783967  0.81015167  1
  O  O100  1  0.50159333  0.35239467  0.91143867  1
  O  O101  1  0.16391133  0.18250667  0.91983267  1
  O  O102  1  0.64760533  0.14919867  0.91143867  1
  O  O103  1  0.52660733  0.86718967  0.85563567  1
  O  O104  1  0.81749333  0.98140467  0.91983267  1
  O  O105  1  0.53546500  0.86146800  0.97824500  1
  O  O106  1  0.13853200  0.67399700  0.97824500  1
  O  O107  1  0.32600300  0.46453500  0.97824500  1
