# generated using pymatgen
data_Li3(FeO2)4
_symmetry_space_group_name_H-M   'P 1'
_cell_length_a   5.98981877
_cell_length_b   5.98981877
_cell_length_c   14.73456406
_cell_angle_alpha   90.00000000
_cell_angle_beta   90.00000000
_cell_angle_gamma   120.00000000
_symmetry_Int_Tables_number   1
_chemical_formula_structural   Li3(FeO2)4
_chemical_formula_sum   'Li9 Fe12 O24'
_cell_volume   457.82055467
_cell_formula_units_Z   3
loop_
 _symmetry_equiv_pos_site_id
 _symmetry_equiv_pos_as_xyz
  1  'x, y, z'
loop_
 _atom_site_type_symbol
 _atom_site_label
 _atom_site_symmetry_multiplicity
 _atom_site_fract_x
 _atom_site_fract_y
 _atom_site_fract_z
 _atom_site_occupancy
  Li  Li0  1  0.50000000  0.00000000  0.50000000  1
  Li  Li1  1  0.00000000  0.50000000  0.50000000  1
  Li  Li2  1  0.50000000  0.50000000  0.50000000  1
  Li  Li3  1  0.16666667  0.33333333  0.83333333  1
  Li  Li4  1  0.66666667  0.83333333  0.83333333  1
  Li  Li5  1  0.16666667  0.83333333  0.83333333  1
  Li  Li6  1  0.83333333  0.66666667  0.16666667  1
  Li  Li7  1  0.33333333  0.16666667  0.16666667  1
  Li  Li8  1  0.83333333  0.16666667  0.16666667  1
  Fe  Fe9  1  0.66666667  0.83333333  0.33333333  1
  Fe  Fe10  1  0.16666667  0.83333333  0.33333333  1
  Fe  Fe11  1  0.16666667  0.33333333  0.33333333  1
  Fe  Fe12  1  0.66666667  0.33333333  0.33333333  1
  Fe  Fe13  1  0.33333333  0.16666667  0.66666667  1
  Fe  Fe14  1  0.83333333  0.16666667  0.66666667  1
  Fe  Fe15  1  0.83333333  0.66666667  0.66666667  1
  Fe  Fe16  1  0.33333333  0.66666667  0.66666667  1
  Fe  Fe17  1  0.00000000  0.50000000  0.00000000  1
  Fe  Fe18  1  0.50000000  0.50000000  0.00000000  1
  Fe  Fe19  1  0.50000000  0.00000000  0.00000000  1
  Fe  Fe20  1  1.00000000  1.00000000  0.00000000  1
  O  O21  1  0.17343217  0.34686433  0.59315133  1
  O  O22  1  0.82656783  0.17343217  0.40684867  1
  O  O23  1  0.66666667  0.33333333  0.59232767  1
  O  O24  1  0.34686433  0.17343217  0.40684867  1
  O  O25  1  0.65313567  0.82656783  0.59315133  1
  O  O26  1  0.33333333  0.66666667  0.40767233  1
  O  O27  1  0.17343217  0.82656783  0.59315133  1
  O  O28  1  0.82656783  0.65313567  0.40684867  1
  O  O29  1  0.84009883  0.68019767  0.92648467  1
  O  O30  1  0.49323450  0.50676550  0.74018200  1
  O  O31  1  0.33333333  0.66666667  0.92566100  1
  O  O32  1  0.01353100  0.50676550  0.74018200  1
  O  O33  1  0.31980233  0.15990117  0.92648467  1
  O  O34  1  0.00000000  0.00000000  0.74100567  1
  O  O35  1  0.84009883  0.15990117  0.92648467  1
  O  O36  1  0.49323450  0.98646900  0.74018200  1
  O  O37  1  0.50676550  0.01353100  0.25981800  1
  O  O38  1  0.15990117  0.84009883  0.07351533  1
  O  O39  1  0.00000000  0.00000000  0.25899433  1
  O  O40  1  0.68019767  0.84009883  0.07351533  1
  O  O41  1  0.98646900  0.49323450  0.25981800  1
  O  O42  1  0.66666667  0.33333333  0.07433900  1
  O  O43  1  0.50676550  0.49323450  0.25981800  1
  O  O44  1  0.15990117  0.31980233  0.07351533  1
