# generated using pymatgen
data_Li2Mn3(BO3)3
_symmetry_space_group_name_H-M   'P 1'
_cell_length_a   28.81517200
_cell_length_b   6.33960000
_cell_length_c   8.24519799
_cell_angle_alpha   90.00000000
_cell_angle_beta   90.06302038
_cell_angle_gamma   90.00000000
_symmetry_Int_Tables_number   1
_chemical_formula_structural   Li2Mn3(BO3)3
_chemical_formula_sum   'Li16 Mn24 B24 O72'
_cell_volume   1506.20435467
_cell_formula_units_Z   8
loop_
 _symmetry_equiv_pos_site_id
 _symmetry_equiv_pos_as_xyz
  1  'x, y, z'
loop_
 _atom_site_type_symbol
 _atom_site_label
 _atom_site_symmetry_multiplicity
 _atom_site_fract_x
 _atom_site_fract_y
 _atom_site_fract_z
 _atom_site_occupancy
  Li  Li0  1  0.75636600  0.50000000  0.70595000  1
  Li  Li1  1  0.75632400  0.00000000  0.71048800  1
  Li  Li2  1  0.57104600  0.00000000  0.66040500  1
  Li  Li3  1  0.92632600  0.00000000  0.62805200  1
  Li  Li4  1  0.50595800  0.50000000  0.21093700  1
  Li  Li5  1  0.50643100  0.00000000  0.21053200  1
  Li  Li6  1  0.82106500  0.50000000  0.16285300  1
  Li  Li7  1  0.67679700  0.50000000  0.12665900  1
  Li  Li8  1  0.25636600  0.00000000  0.70595000  1
  Li  Li9  1  0.25632400  0.50000000  0.71048800  1
  Li  Li10  1  0.07104600  0.50000000  0.66040500  1
  Li  Li11  1  0.42632600  0.50000000  0.62805200  1
  Li  Li12  1  0.00595800  0.00000000  0.21093700  1
  Li  Li13  1  0.00643100  0.50000000  0.21053200  1
  Li  Li14  1  0.32106500  0.00000000  0.16285300  1
  Li  Li15  1  0.17679700  0.00000000  0.12665900  1
  Mn  Mn16  1  0.99815550  0.25036950  0.85616300  1
  Mn  Mn17  1  0.99815550  0.74963050  0.85616300  1
  Mn  Mn18  1  0.84653550  0.24735250  0.82912100  1
  Mn  Mn19  1  0.84653550  0.75264750  0.82912100  1
  Mn  Mn20  1  0.65900950  0.75019650  0.81162900  1
  Mn  Mn21  1  0.65900950  0.24980350  0.81162900  1
  Mn  Mn22  1  0.74841450  0.75252750  0.35644900  1
  Mn  Mn23  1  0.74841450  0.24747250  0.35644900  1
  Mn  Mn24  1  0.59572500  0.74648500  0.32908900  1
  Mn  Mn25  1  0.59572500  0.25351500  0.32908900  1
  Mn  Mn26  1  0.90955500  0.24695500  0.31490900  1
  Mn  Mn27  1  0.90955500  0.75304500  0.31490900  1
  Mn  Mn28  1  0.49815550  0.75036950  0.85616300  1
  Mn  Mn29  1  0.49815550  0.24963050  0.85616300  1
  Mn  Mn30  1  0.34653550  0.74735250  0.82912100  1
  Mn  Mn31  1  0.34653550  0.25264750  0.82912100  1
  Mn  Mn32  1  0.15900950  0.25019650  0.81162900  1
  Mn  Mn33  1  0.15900950  0.74980350  0.81162900  1
  Mn  Mn34  1  0.24841450  0.25252750  0.35644900  1
  Mn  Mn35  1  0.24841450  0.74747250  0.35644900  1
  Mn  Mn36  1  0.09572500  0.24648500  0.32908900  1
  Mn  Mn37  1  0.09572500  0.75351500  0.32908900  1
  Mn  Mn38  1  0.40955500  0.74695500  0.31490900  1
  Mn  Mn39  1  0.40955500  0.25304500  0.31490900  1
  B  B40  1  0.75196250  0.25567250  0.99322800  1
  B  B41  1  0.75196250  0.74432750  0.99322800  1
  B  B42  1  0.58438800  0.50000000  0.00136500  1
  B  B43  1  0.58264400  0.00000000  0.00429700  1
  B  B44  1  0.91894800  0.00000000  0.99722300  1
  B  B45  1  0.91855700  0.50000000  0.00772600  1
  B  B46  1  0.50183800  0.74693000  0.49522800  1
  B  B47  1  0.50183800  0.25307000  0.49522800  1
  B  B48  1  0.66880200  0.00000000  0.50687800  1
  B  B49  1  0.66876500  0.50000000  0.49505500  1
  B  B50  1  0.83248000  0.50000000  0.50383000  1
  B  B51  1  0.83490700  0.00000000  0.50337000  1
  B  B52  1  0.25196250  0.75567250  0.99322800  1
  B  B53  1  0.25196250  0.24432750  0.99322800  1
  B  B54  1  0.08438800  0.00000000  0.00136500  1
  B  B55  1  0.08264400  0.50000000  0.00429700  1
  B  B56  1  0.41894800  0.50000000  0.99722300  1
  B  B57  1  0.41855700  0.00000000  0.00772600  1
  B  B58  1  0.00183800  0.24693000  0.49522800  1
  B  B59  1  0.00183800  0.75307000  0.49522800  1
  B  B60  1  0.16880200  0.50000000  0.50687800  1
  B  B61  1  0.16876500  0.00000000  0.49505500  1
  B  B62  1  0.33248000  0.00000000  0.50383000  1
  B  B63  1  0.33490700  0.50000000  0.50337000  1
  O  O64  1  0.53490900  0.00000000  0.98207400  1
  O  O65  1  0.53684800  0.50000000  0.98179000  1
  O  O66  1  0.87011300  0.50000000  0.98815400  1
  O  O67  1  0.87143700  0.00000000  0.97499100  1
  O  O68  1  0.94783700  0.00000000  0.86091100  1
  O  O69  1  0.94714900  0.50000000  0.87717700  1
  O  O70  1  0.61517800  0.50000000  0.87362000  1
  O  O71  1  0.61113500  0.00000000  0.86913500  1
  O  O72  1  0.77430100  0.24856500  0.84310300  1
  O  O73  1  0.77430100  0.75143500  0.84310300  1
  O  O74  1  0.68732000  0.50000000  0.65028300  1
  O  O75  1  0.68678600  0.00000000  0.66513300  1
  O  O76  1  0.84897400  0.50000000  0.66095800  1
  O  O77  1  0.85394200  0.00000000  0.65870100  1
  O  O78  1  0.52737450  0.76725950  0.63447200  1
  O  O79  1  0.52737450  0.23274050  0.63447200  1
  O  O80  1  0.95432250  0.22518150  0.50208400  1
  O  O81  1  0.95432250  0.77481850  0.50208400  1
  O  O82  1  0.78743500  0.00000000  0.48330700  1
  O  O83  1  0.78492700  0.50000000  0.47801900  1
  O  O84  1  0.62110400  0.50000000  0.47327000  1
  O  O85  1  0.62042700  0.00000000  0.48672600  1
  O  O86  1  0.69744700  0.50000000  0.35906400  1
  O  O87  1  0.69776600  0.00000000  0.37697800  1
  O  O88  1  0.86169200  0.50000000  0.36999100  1
  O  O89  1  0.86558000  0.00000000  0.37521800  1
  O  O90  1  0.52371000  0.74810400  0.34389200  1
  O  O91  1  0.52371000  0.25189600  0.34389200  1
  O  O92  1  0.93770600  0.00000000  0.15203900  1
  O  O93  1  0.93668700  0.50000000  0.16598800  1
  O  O94  1  0.60352600  0.50000000  0.15670900  1
  O  O95  1  0.59941500  0.00000000  0.16087400  1
  O  O96  1  0.77739450  0.26439350  0.13394600  1
  O  O97  1  0.77739450  0.73560650  0.13394600  1
  O  O98  1  0.70347600  0.73305900  0.99846500  1
  O  O99  1  0.70347600  0.26694100  0.99846500  1
  O  O100  1  0.03490900  0.50000000  0.98207400  1
  O  O101  1  0.03684800  0.00000000  0.98179000  1
  O  O102  1  0.37011300  0.00000000  0.98815400  1
  O  O103  1  0.37143700  0.50000000  0.97499100  1
  O  O104  1  0.44783700  0.50000000  0.86091100  1
  O  O105  1  0.44714900  0.00000000  0.87717700  1
  O  O106  1  0.11517800  0.00000000  0.87362000  1
  O  O107  1  0.11113500  0.50000000  0.86913500  1
  O  O108  1  0.27430100  0.74856500  0.84310300  1
  O  O109  1  0.27430100  0.25143500  0.84310300  1
  O  O110  1  0.18732000  0.00000000  0.65028300  1
  O  O111  1  0.18678600  0.50000000  0.66513300  1
  O  O112  1  0.34897400  0.00000000  0.66095800  1
  O  O113  1  0.35394200  0.50000000  0.65870100  1
  O  O114  1  0.02737450  0.26725950  0.63447200  1
  O  O115  1  0.02737450  0.73274050  0.63447200  1
  O  O116  1  0.45432250  0.72518150  0.50208400  1
  O  O117  1  0.45432250  0.27481850  0.50208400  1
  O  O118  1  0.28743500  0.50000000  0.48330700  1
  O  O119  1  0.28492700  0.00000000  0.47801900  1
  O  O120  1  0.12110400  0.00000000  0.47327000  1
  O  O121  1  0.12042700  0.50000000  0.48672600  1
  O  O122  1  0.19744700  0.00000000  0.35906400  1
  O  O123  1  0.19776600  0.50000000  0.37697800  1
  O  O124  1  0.36169200  0.00000000  0.36999100  1
  O  O125  1  0.36558000  0.50000000  0.37521800  1
  O  O126  1  0.02371000  0.24810400  0.34389200  1
  O  O127  1  0.02371000  0.75189600  0.34389200  1
  O  O128  1  0.43770600  0.50000000  0.15203900  1
  O  O129  1  0.43668700  0.00000000  0.16598800  1
  O  O130  1  0.10352600  0.00000000  0.15670900  1
  O  O131  1  0.09941500  0.50000000  0.16087400  1
  O  O132  1  0.27739450  0.76439350  0.13394600  1
  O  O133  1  0.27739450  0.23560650  0.13394600  1
  O  O134  1  0.20347600  0.23305900  0.99846500  1
  O  O135  1  0.20347600  0.76694100  0.99846500  1
