# generated using pymatgen
data_K3VPCO7
_symmetry_space_group_name_H-M   'P 1'
_cell_length_a   5.69821923
_cell_length_b   6.99911600
_cell_length_c   9.68958954
_cell_angle_alpha   90.00000000
_cell_angle_beta   90.01819386
_cell_angle_gamma   90.00000000
_symmetry_Int_Tables_number   1
_chemical_formula_structural   K3VPCO7
_chemical_formula_sum   'K6 V2 P2 C2 O14'
_cell_volume   386.44500995
_cell_formula_units_Z   2
loop_
 _symmetry_equiv_pos_site_id
 _symmetry_equiv_pos_as_xyz
  1  'x, y, z'
loop_
 _atom_site_type_symbol
 _atom_site_label
 _atom_site_symmetry_multiplicity
 _atom_site_fract_x
 _atom_site_fract_y
 _atom_site_fract_z
 _atom_site_occupancy
  K  K0  1  0.75817950  0.75000000  0.42752900  1
  K  K1  1  0.24182050  0.25000000  0.57247100  1
  K  K2  1  0.25644250  0.98982200  0.21329300  1
  K  K3  1  0.25644250  0.51017800  0.21329300  1
  K  K4  1  0.74355750  0.48982200  0.78670700  1
  K  K5  1  0.74355750  0.01017800  0.78670700  1
  V  V6  1  0.23756650  0.75000000  0.84829200  1
  V  V7  1  0.76243350  0.25000000  0.15170800  1
  P  P8  1  0.73115550  0.75000000  0.08236700  1
  P  P9  1  0.26884450  0.25000000  0.91763300  1
  C  C10  1  0.74216250  0.25000000  0.42078100  1
  C  C11  1  0.25783750  0.75000000  0.57921900  1
  O  O12  1  0.26461250  0.75000000  0.44641300  1
  O  O13  1  0.73538750  0.25000000  0.55358700  1
  O  O14  1  0.94162950  0.25000000  0.35312200  1
  O  O15  1  0.05837050  0.75000000  0.64687800  1
  O  O16  1  0.54980350  0.25000000  0.34578300  1
  O  O17  1  0.45019650  0.75000000  0.65421700  1
  O  O18  1  0.47766550  0.75000000  0.02156700  1
  O  O19  1  0.52233450  0.25000000  0.97843300  1
  O  O20  1  0.08601650  0.25000000  0.03603900  1
  O  O21  1  0.91398350  0.75000000  0.96396100  1
  O  O22  1  0.76312750  0.93053900  0.17555200  1
  O  O23  1  0.76312750  0.56946100  0.17555200  1
  O  O24  1  0.23687250  0.43053900  0.82444800  1
  O  O25  1  0.23687250  0.06946100  0.82444800  1
