# generated using pymatgen
data_Li2MnF4
_symmetry_space_group_name_H-M   'P 1'
_cell_length_a   9.48948600
_cell_length_b   5.47774000
_cell_length_c   6.13432337
_cell_angle_alpha   90.00000000
_cell_angle_beta   90.45138830
_cell_angle_gamma   90.00000000
_symmetry_Int_Tables_number   1
_chemical_formula_structural   Li2MnF4
_chemical_formula_sum   'Li8 Mn4 F16'
_cell_volume   318.85798128
_cell_formula_units_Z   4
loop_
 _symmetry_equiv_pos_site_id
 _symmetry_equiv_pos_as_xyz
  1  'x, y, z'
loop_
 _atom_site_type_symbol
 _atom_site_label
 _atom_site_symmetry_multiplicity
 _atom_site_fract_x
 _atom_site_fract_y
 _atom_site_fract_z
 _atom_site_occupancy
  Li  Li0  1  0.83960550  0.53938550  0.83443100  1
  Li  Li1  1  0.00000000  0.97575100  0.50000000  1
  Li  Li2  1  0.00000000  0.97751700  0.00000000  1
  Li  Li3  1  0.66039450  0.03938550  0.16556900  1
  Li  Li4  1  0.33960550  0.03938550  0.83443100  1
  Li  Li5  1  0.50000000  0.47575100  0.50000000  1
  Li  Li6  1  0.50000000  0.47751700  0.00000000  1
  Li  Li7  1  0.16039450  0.53938550  0.16556900  1
  Mn  Mn8  1  0.84790450  0.43854150  0.32550400  1
  Mn  Mn9  1  0.65209550  0.93854150  0.67449600  1
  Mn  Mn10  1  0.34790450  0.93854150  0.32550400  1
  Mn  Mn11  1  0.15209550  0.43854150  0.67449600  1
  F  F12  1  0.72907050  0.37641250  0.04924900  1
  F  F13  1  0.72601100  0.57552300  0.57353600  1
  F  F14  1  0.98917000  0.72321100  0.25892400  1
  F  F15  1  0.52915850  0.73470950  0.25321500  1
  F  F16  1  0.97084150  0.23470950  0.74678500  1
  F  F17  1  0.51083000  0.22321100  0.74107600  1
  F  F18  1  0.77398900  0.07552300  0.42646400  1
  F  F19  1  0.77092950  0.87641250  0.95075100  1
  F  F20  1  0.22907050  0.87641250  0.04924900  1
  F  F21  1  0.22601100  0.07552300  0.57353600  1
  F  F22  1  0.48917000  0.22321100  0.25892400  1
  F  F23  1  0.02915850  0.23470950  0.25321500  1
  F  F24  1  0.47084150  0.73470950  0.74678500  1
  F  F25  1  0.01083000  0.72321100  0.74107600  1
  F  F26  1  0.27398900  0.57552300  0.42646400  1
  F  F27  1  0.27092950  0.37641250  0.95075100  1
