# generated using pymatgen
data_Li2P5WO15
_symmetry_space_group_name_H-M   'P 1'
_cell_length_a   7.61732200
_cell_length_b   11.44587800
_cell_length_c   13.92492318
_cell_angle_alpha   90.00000000
_cell_angle_beta   102.42122151
_cell_angle_gamma   90.00000000
_symmetry_Int_Tables_number   1
_chemical_formula_structural   Li2P5WO15
_chemical_formula_sum   'Li8 P20 W4 O60'
_cell_volume   1185.65325581
_cell_formula_units_Z   4
loop_
 _symmetry_equiv_pos_site_id
 _symmetry_equiv_pos_as_xyz
  1  'x, y, z'
loop_
 _atom_site_type_symbol
 _atom_site_label
 _atom_site_symmetry_multiplicity
 _atom_site_fract_x
 _atom_site_fract_y
 _atom_site_fract_z
 _atom_site_occupancy
  Li  Li0  1  0.49299950  0.74070650  0.70499400  1
  Li  Li1  1  0.49299950  0.25929350  0.20499400  1
  Li  Li2  1  0.66921550  0.13008450  0.56573800  1
  Li  Li3  1  0.66921550  0.86991550  0.06573800  1
  Li  Li4  1  0.99299950  0.24070650  0.70499400  1
  Li  Li5  1  0.99299950  0.75929350  0.20499400  1
  Li  Li6  1  0.16921550  0.63008450  0.56573800  1
  Li  Li7  1  0.16921550  0.36991550  0.06573800  1
  P  P8  1  0.34848200  0.30248600  0.52786100  1
  P  P9  1  0.35563450  0.93338650  0.55736400  1
  P  P10  1  0.28309100  0.10399300  0.83601300  1
  P  P11  1  0.34848200  0.69751400  0.02786100  1
  P  P12  1  0.35563450  0.06661350  0.05736400  1
  P  P13  1  0.28309100  0.89600700  0.33601300  1
  P  P14  1  0.55045300  0.62509700  0.52989100  1
  P  P15  1  0.55045300  0.37490300  0.02989100  1
  P  P16  1  0.66774100  0.10496700  0.82804800  1
  P  P17  1  0.66774100  0.89503300  0.32804800  1
  P  P18  1  0.84848200  0.80248600  0.52786100  1
  P  P19  1  0.85563450  0.43338650  0.55736400  1
  P  P20  1  0.78309100  0.60399300  0.83601300  1
  P  P21  1  0.84848200  0.19751400  0.02786100  1
  P  P22  1  0.85563450  0.56661350  0.05736400  1
  P  P23  1  0.78309100  0.39600700  0.33601300  1
  P  P24  1  0.05045300  0.12509700  0.52989100  1
  P  P25  1  0.05045300  0.87490300  0.02989100  1
  P  P26  1  0.16774100  0.60496700  0.82804800  1
  P  P27  1  0.16774100  0.39503300  0.32804800  1
  W  W28  1  0.44544500  0.37273200  0.77562500  1
  W  W29  1  0.44544500  0.62726800  0.27562500  1
  W  W30  1  0.94544500  0.87273200  0.77562500  1
  W  W31  1  0.94544500  0.12726800  0.27562500  1
  O  O32  1  0.14331250  0.01373250  0.79990800  1
  O  O33  1  0.14331250  0.98626750  0.29990800  1
  O  O34  1  0.32964800  0.84749100  0.63343200  1
  O  O35  1  0.32964800  0.15250900  0.13343200  1
  O  O36  1  0.19238800  0.02459100  0.54413600  1
  O  O37  1  0.19238800  0.97540900  0.04413600  1
  O  O38  1  0.30110200  0.13427300  0.94897400  1
  O  O39  1  0.30110200  0.86572700  0.44897400  1
  O  O40  1  0.25386500  0.21958200  0.77848400  1
  O  O41  1  0.25386500  0.78041800  0.27848400  1
  O  O42  1  0.46830900  0.77918800  0.99009500  1
  O  O43  1  0.46830900  0.22081200  0.49009500  1
  O  O44  1  0.44475100  0.37493000  0.92574200  1
  O  O45  1  0.52926250  0.99430250  0.56579000  1
  O  O46  1  0.44475100  0.62507000  0.42574200  1
  O  O47  1  0.47340450  0.04769950  0.82774300  1
  O  O48  1  0.52926250  0.00569750  0.06579000  1
  O  O49  1  0.47340450  0.95230050  0.32774300  1
  O  O50  1  0.43667900  0.62174900  0.60471500  1
  O  O51  1  0.43667900  0.37825100  0.10471500  1
  O  O52  1  0.66851700  0.74244300  0.55000500  1
  O  O53  1  0.66851700  0.25755700  0.05000500  1
  O  O54  1  0.64109650  0.22796250  0.78777900  1
  O  O55  1  0.64109650  0.77203750  0.28777900  1
  O  O56  1  0.76542150  0.10336650  0.94194800  1
  O  O57  1  0.76542150  0.89663350  0.44194800  1
  O  O58  1  0.76171150  0.02245850  0.77239700  1
  O  O59  1  0.76171150  0.97754150  0.27239700  1
  O  O60  1  0.42007750  0.37242750  0.61911800  1
  O  O61  1  0.42007750  0.62757250  0.11911800  1
  O  O62  1  0.64331250  0.51373250  0.79990800  1
  O  O63  1  0.64331250  0.48626750  0.29990800  1
  O  O64  1  0.82964800  0.34749100  0.63343200  1
  O  O65  1  0.82964800  0.65250900  0.13343200  1
  O  O66  1  0.69238800  0.52459100  0.54413600  1
  O  O67  1  0.69238800  0.47540900  0.04413600  1
  O  O68  1  0.80110200  0.63427300  0.94897400  1
  O  O69  1  0.80110200  0.36572700  0.44897400  1
  O  O70  1  0.75386500  0.71958200  0.77848400  1
  O  O71  1  0.75386500  0.28041800  0.27848400  1
  O  O72  1  0.96830900  0.27918800  0.99009500  1
  O  O73  1  0.96830900  0.72081200  0.49009500  1
  O  O74  1  0.94475100  0.87493000  0.92574200  1
  O  O75  1  0.02926250  0.49430250  0.56579000  1
  O  O76  1  0.94475100  0.12507000  0.42574200  1
  O  O77  1  0.97340450  0.54769950  0.82774300  1
  O  O78  1  0.02926250  0.50569750  0.06579000  1
  O  O79  1  0.97340450  0.45230050  0.32774300  1
  O  O80  1  0.93667900  0.12174900  0.60471500  1
  O  O81  1  0.93667900  0.87825100  0.10471500  1
  O  O82  1  0.16851700  0.24244300  0.55000500  1
  O  O83  1  0.16851700  0.75755700  0.05000500  1
  O  O84  1  0.14109650  0.72796250  0.78777900  1
  O  O85  1  0.14109650  0.27203750  0.28777900  1
  O  O86  1  0.26542150  0.60336650  0.94194800  1
  O  O87  1  0.26542150  0.39663350  0.44194800  1
  O  O88  1  0.26171150  0.52245850  0.77239700  1
  O  O89  1  0.26171150  0.47754150  0.27239700  1
  O  O90  1  0.92007750  0.87242750  0.61911800  1
  O  O91  1  0.92007750  0.12757250  0.11911800  1
