# generated using pymatgen
data_Mn4OF6
_symmetry_space_group_name_H-M   'P 1'
_cell_length_a   7.44412268
_cell_length_b   7.44412268
_cell_length_c   5.60421300
_cell_angle_alpha   90.00000000
_cell_angle_beta   90.00000000
_cell_angle_gamma   120.00000000
_symmetry_Int_Tables_number   1
_chemical_formula_structural   Mn4OF6
_chemical_formula_sum   'Mn8 O2 F12'
_cell_volume   268.95047042
_cell_formula_units_Z   2
loop_
 _symmetry_equiv_pos_site_id
 _symmetry_equiv_pos_as_xyz
  1  'x, y, z'
loop_
 _atom_site_type_symbol
 _atom_site_label
 _atom_site_symmetry_multiplicity
 _atom_site_fract_x
 _atom_site_fract_y
 _atom_site_fract_z
 _atom_site_occupancy
  Mn  Mn0  1  0.33333333  0.66666667  0.98159600  1
  Mn  Mn1  1  0.63155800  0.81577900  0.50168900  1
  Mn  Mn2  1  0.81577900  0.63155800  0.00168900  1
  Mn  Mn3  1  0.81577900  0.18422100  0.00168900  1
  Mn  Mn4  1  0.66666667  0.33333333  0.48159600  1
  Mn  Mn5  1  0.18422100  0.81577900  0.50168900  1
  Mn  Mn6  1  0.18422100  0.36844200  0.50168900  1
  Mn  Mn7  1  0.36844200  0.18422100  0.00168900  1
  O  O8  1  0.33333333  0.66666667  0.62924500  1
  O  O9  1  0.66666667  0.33333333  0.12924500  1
  F  F10  1  0.13002550  0.86997450  0.89306700  1
  F  F11  1  0.13002550  0.26005100  0.89306700  1
  F  F12  1  0.26005100  0.13002550  0.39306700  1
  F  F13  1  0.73994900  0.86997450  0.89306700  1
  F  F14  1  0.86997450  0.73994900  0.39306700  1
  F  F15  1  0.86997450  0.13002550  0.39306700  1
  F  F16  1  0.08314500  0.54157250  0.22740200  1
  F  F17  1  0.45842750  0.91685500  0.22740200  1
  F  F18  1  0.45842750  0.54157250  0.22740200  1
  F  F19  1  0.54157250  0.45842750  0.72740200  1
  F  F20  1  0.54157250  0.08314500  0.72740200  1
  F  F21  1  0.91685500  0.45842750  0.72740200  1
