# generated using pymatgen
data_Li2(CoO2)3
_symmetry_space_group_name_H-M   'P 1'
_cell_length_a   8.44639200
_cell_length_b   4.87797200
_cell_length_c   10.12380317
_cell_angle_alpha   90.00000000
_cell_angle_beta   106.32051202
_cell_angle_gamma   90.00000000
_symmetry_Int_Tables_number   1
_chemical_formula_structural   Li2(CoO2)3
_chemical_formula_sum   'Li8 Co12 O24'
_cell_volume   400.30579211
_cell_formula_units_Z   4
loop_
 _symmetry_equiv_pos_site_id
 _symmetry_equiv_pos_as_xyz
  1  'x, y, z'
loop_
 _atom_site_type_symbol
 _atom_site_label
 _atom_site_symmetry_multiplicity
 _atom_site_fract_x
 _atom_site_fract_y
 _atom_site_fract_z
 _atom_site_occupancy
  Li  Li0  1  0.00302300  0.41623900  0.75649700  1
  Li  Li1  1  0.66856950  0.58445450  0.25660900  1
  Li  Li2  1  0.66856950  0.41554550  0.75660900  1
  Li  Li3  1  0.50302300  0.08376100  0.25649700  1
  Li  Li4  1  0.50302300  0.91623900  0.75649700  1
  Li  Li5  1  0.16856950  0.08445450  0.25660900  1
  Li  Li6  1  0.16856950  0.91554550  0.75660900  1
  Li  Li7  1  0.00302300  0.58376100  0.25649700  1
  Co  Co8  1  0.91578650  0.58478250  0.99801200  1
  Co  Co9  1  0.41578650  0.91521750  0.49801200  1
  Co  Co10  1  0.58182750  0.58296650  0.99798400  1
  Co  Co11  1  0.08182750  0.91703350  0.49798400  1
  Co  Co12  1  0.75290900  0.08256600  0.00635700  1
  Co  Co13  1  0.75290900  0.91743400  0.50635700  1
  Co  Co14  1  0.41578650  0.08478250  0.99801200  1
  Co  Co15  1  0.91578650  0.41521750  0.49801200  1
  Co  Co16  1  0.08182750  0.08296650  0.99798400  1
  Co  Co17  1  0.58182750  0.41703350  0.49798400  1
  Co  Co18  1  0.25290900  0.58256600  0.00635700  1
  Co  Co19  1  0.25290900  0.41743400  0.50635700  1
  O  O20  1  0.71239850  0.75591050  0.89715200  1
  O  O21  1  0.78479750  0.57845350  0.60351500  1
  O  O22  1  0.55633750  0.75747250  0.39729400  1
  O  O23  1  0.28479750  0.92154650  0.10351500  1
  O  O24  1  0.87757200  0.25169900  0.89710100  1
  O  O25  1  0.45400000  0.58535500  0.60475400  1
  O  O26  1  0.71239850  0.24408950  0.39715200  1
  O  O27  1  0.95400000  0.91464500  0.10475400  1
  O  O28  1  0.05633750  0.74252750  0.89729400  1
  O  O29  1  0.87757200  0.74830100  0.39710100  1
  O  O30  1  0.11558550  0.58578250  0.60314400  1
  O  O31  1  0.61558550  0.91421750  0.10314400  1
  O  O32  1  0.21239850  0.25591050  0.89715200  1
  O  O33  1  0.28479750  0.07845350  0.60351500  1
  O  O34  1  0.05633750  0.25747250  0.39729400  1
  O  O35  1  0.78479750  0.42154650  0.10351500  1
  O  O36  1  0.37757200  0.75169900  0.89710100  1
  O  O37  1  0.95400000  0.08535500  0.60475400  1
  O  O38  1  0.21239850  0.74408950  0.39715200  1
  O  O39  1  0.45400000  0.41464500  0.10475400  1
  O  O40  1  0.55633750  0.24252750  0.89729400  1
  O  O41  1  0.37757200  0.24830100  0.39710100  1
  O  O42  1  0.61558550  0.08578250  0.60314400  1
  O  O43  1  0.11558550  0.41421750  0.10314400  1
