# generated using pymatgen
data_Li2Mn2(SO4)3
_symmetry_space_group_name_H-M   'P 1'
_cell_length_a   13.44248000
_cell_length_b   8.89472600
_cell_length_c   8.91876903
_cell_angle_alpha   90.00000000
_cell_angle_beta   116.45798374
_cell_angle_gamma   90.00000000
_symmetry_Int_Tables_number   1
_chemical_formula_structural   Li2Mn2(SO4)3
_chemical_formula_sum   'Li8 Mn8 S12 O48'
_cell_volume   954.69954382
_cell_formula_units_Z   4
loop_
 _symmetry_equiv_pos_site_id
 _symmetry_equiv_pos_as_xyz
  1  'x, y, z'
loop_
 _atom_site_type_symbol
 _atom_site_label
 _atom_site_symmetry_multiplicity
 _atom_site_fract_x
 _atom_site_fract_y
 _atom_site_fract_z
 _atom_site_occupancy
  Li  Li0  1  0.26808900  0.60161800  0.94721100  1
  Li  Li1  1  0.26808900  0.39838200  0.44721100  1
  Li  Li2  1  0.73191100  0.60161800  0.55278900  1
  Li  Li3  1  0.73191100  0.39838200  0.05278900  1
  Li  Li4  1  0.76808900  0.10161800  0.94721100  1
  Li  Li5  1  0.76808900  0.89838200  0.44721100  1
  Li  Li6  1  0.23191100  0.10161800  0.55278900  1
  Li  Li7  1  0.23191100  0.89838200  0.05278900  1
  Mn  Mn8  1  0.11734550  0.75210550  0.51528700  1
  Mn  Mn9  1  0.11734550  0.24789450  0.01528700  1
  Mn  Mn10  1  0.88265450  0.75210550  0.98471300  1
  Mn  Mn11  1  0.88265450  0.24789450  0.48471300  1
  Mn  Mn12  1  0.61734550  0.25210550  0.51528700  1
  Mn  Mn13  1  0.61734550  0.74789450  0.01528700  1
  Mn  Mn14  1  0.38265450  0.25210550  0.98471300  1
  Mn  Mn15  1  0.38265450  0.74789450  0.48471300  1
  S  S16  1  0.14846650  0.39496050  0.68026000  1
  S  S17  1  0.14846650  0.60503950  0.18026000  1
  S  S18  1  0.00000000  0.93836000  0.75000000  1
  S  S19  1  0.00000000  0.06164000  0.25000000  1
  S  S20  1  0.85153350  0.39496050  0.81974000  1
  S  S21  1  0.85153350  0.60503950  0.31974000  1
  S  S22  1  0.64846650  0.89496050  0.68026000  1
  S  S23  1  0.64846650  0.10503950  0.18026000  1
  S  S24  1  0.50000000  0.43836000  0.75000000  1
  S  S25  1  0.50000000  0.56164000  0.25000000  1
  S  S26  1  0.35153350  0.89496050  0.81974000  1
  S  S27  1  0.35153350  0.10503950  0.31974000  1
  O  O28  1  0.41288750  0.53397150  0.61730400  1
  O  O29  1  0.41288750  0.46602850  0.11730400  1
  O  O30  1  0.19078050  0.31537350  0.57490700  1
  O  O31  1  0.17779750  0.55793150  0.69153100  1
  O  O32  1  0.20680650  0.33720450  0.85970700  1
  O  O33  1  0.19078050  0.68462650  0.07490700  1
  O  O34  1  0.05648750  0.84378050  0.67625100  1
  O  O35  1  0.02872400  0.37279400  0.61903100  1
  O  O36  1  0.17779750  0.44206850  0.19153100  1
  O  O37  1  0.20680650  0.66279550  0.35970700  1
  O  O38  1  0.05648750  0.15621950  0.17625100  1
  O  O39  1  0.97127600  0.37279400  0.88096900  1
  O  O40  1  0.02872400  0.62720600  0.11903100  1
  O  O41  1  0.94351250  0.84378050  0.82374900  1
  O  O42  1  0.79319350  0.33720450  0.64029300  1
  O  O43  1  0.82220250  0.55793150  0.80846900  1
  O  O44  1  0.97127600  0.62720600  0.38096900  1
  O  O45  1  0.94351250  0.15621950  0.32374900  1
  O  O46  1  0.80921950  0.31537350  0.92509300  1
  O  O47  1  0.79319350  0.66279550  0.14029300  1
  O  O48  1  0.82220250  0.44206850  0.30846900  1
  O  O49  1  0.80921950  0.68462650  0.42509300  1
  O  O50  1  0.58711250  0.53397150  0.88269600  1
  O  O51  1  0.58711250  0.46602850  0.38269600  1
  O  O52  1  0.91288750  0.03397150  0.61730400  1
  O  O53  1  0.91288750  0.96602850  0.11730400  1
  O  O54  1  0.69078050  0.81537350  0.57490700  1
  O  O55  1  0.67779750  0.05793150  0.69153100  1
  O  O56  1  0.70680650  0.83720450  0.85970700  1
  O  O57  1  0.69078050  0.18462650  0.07490700  1
  O  O58  1  0.55648750  0.34378050  0.67625100  1
  O  O59  1  0.52872400  0.87279400  0.61903100  1
  O  O60  1  0.67779750  0.94206850  0.19153100  1
  O  O61  1  0.70680650  0.16279550  0.35970700  1
  O  O62  1  0.55648750  0.65621950  0.17625100  1
  O  O63  1  0.47127600  0.87279400  0.88096900  1
  O  O64  1  0.52872400  0.12720600  0.11903100  1
  O  O65  1  0.44351250  0.34378050  0.82374900  1
  O  O66  1  0.29319350  0.83720450  0.64029300  1
  O  O67  1  0.32220250  0.05793150  0.80846900  1
  O  O68  1  0.47127600  0.12720600  0.38096900  1
  O  O69  1  0.44351250  0.65621950  0.32374900  1
  O  O70  1  0.30921950  0.81537350  0.92509300  1
  O  O71  1  0.29319350  0.16279550  0.14029300  1
  O  O72  1  0.32220250  0.94206850  0.30846900  1
  O  O73  1  0.30921950  0.18462650  0.42509300  1
  O  O74  1  0.08711250  0.03397150  0.88269600  1
  O  O75  1  0.08711250  0.96602850  0.38269600  1
