# generated using pymatgen
data_LiVNiO4
_symmetry_space_group_name_H-M   'P 1'
_cell_length_a   5.66100841
_cell_length_b   8.63759604
_cell_length_c   6.26506000
_cell_angle_alpha   90.00000000
_cell_angle_beta   90.00000000
_cell_angle_gamma   90.00000000
_symmetry_Int_Tables_number   1
_chemical_formula_structural   LiVNiO4
_chemical_formula_sum   'Li4 V4 Ni4 O16'
_cell_volume   306.34579539
_cell_formula_units_Z   4
loop_
 _symmetry_equiv_pos_site_id
 _symmetry_equiv_pos_as_xyz
  1  'x, y, z'
loop_
 _atom_site_type_symbol
 _atom_site_label
 _atom_site_symmetry_multiplicity
 _atom_site_fract_x
 _atom_site_fract_y
 _atom_site_fract_z
 _atom_site_occupancy
  Li  Li0  1  0.00000000  0.33551400  0.75000000  1
  Li  Li1  1  0.00000000  0.66448600  0.25000000  1
  Li  Li2  1  0.50000000  0.83551400  0.75000000  1
  Li  Li3  1  0.50000000  0.16448600  0.25000000  1
  V  V4  1  0.00000000  0.35274400  0.25000000  1
  V  V5  1  0.00000000  0.64725600  0.75000000  1
  V  V6  1  0.50000000  0.85274400  0.25000000  1
  V  V7  1  0.50000000  0.14725600  0.75000000  1
  Ni  Ni8  1  0.00000000  0.00000000  0.50000000  1
  Ni  Ni9  1  0.00000000  0.00000000  0.00000000  1
  Ni  Ni10  1  0.50000000  0.50000000  0.50000000  1
  Ni  Ni11  1  0.50000000  0.50000000  0.00000000  1
  O  O12  1  0.00000000  0.23713800  0.02819300  1
  O  O13  1  0.00000000  0.23713800  0.47180700  1
  O  O14  1  0.00000000  0.76286200  0.97180700  1
  O  O15  1  0.00000000  0.76286200  0.52819300  1
  O  O16  1  0.75327950  0.48128550  0.25000000  1
  O  O17  1  0.75327950  0.51871450  0.75000000  1
  O  O18  1  0.24672050  0.48128550  0.25000000  1
  O  O19  1  0.24672050  0.51871450  0.75000000  1
  O  O20  1  0.50000000  0.73713800  0.02819300  1
  O  O21  1  0.50000000  0.73713800  0.47180700  1
  O  O22  1  0.50000000  0.26286200  0.97180700  1
  O  O23  1  0.50000000  0.26286200  0.52819300  1
  O  O24  1  0.25327950  0.98128550  0.25000000  1
  O  O25  1  0.25327950  0.01871450  0.75000000  1
  O  O26  1  0.74672050  0.98128550  0.25000000  1
  O  O27  1  0.74672050  0.01871450  0.75000000  1
