# generated using pymatgen
data_Li3VCrP2(HO5)2
_symmetry_space_group_name_H-M   'P 1'
_cell_length_a   5.17618851
_cell_length_b   5.58458355
_cell_length_c   7.53719986
_cell_angle_alpha   110.66631343
_cell_angle_beta   106.24940326
_cell_angle_gamma   95.57795832
_symmetry_Int_Tables_number   1
_chemical_formula_structural   Li3VCrP2(HO5)2
_chemical_formula_sum   'Li3 V1 Cr1 P2 H2 O10'
_cell_volume   190.99971689
_cell_formula_units_Z   1
loop_
 _symmetry_equiv_pos_site_id
 _symmetry_equiv_pos_as_xyz
  1  'x, y, z'
loop_
 _atom_site_type_symbol
 _atom_site_label
 _atom_site_symmetry_multiplicity
 _atom_site_fract_x
 _atom_site_fract_y
 _atom_site_fract_z
 _atom_site_occupancy
  Li  Li0  1  0.21747150  0.58984350  0.83744200  1
  Li  Li1  1  0.75225150  0.38521700  0.31422700  1
  Li  Li2  1  0.50390050  0.16629650  0.14792200  1
  V  V3  1  0.99797050  0.99580350  0.50152300  1
  Cr  Cr4  1  0.00042200  0.99813100  0.98955000  1
  P  P5  1  0.34167600  0.64723000  0.21708900  1
  P  P6  1  0.66555500  0.36622250  0.75201200  1
  H  H7  1  0.66331600  0.91416800  0.34316900  1
  H  H8  1  0.36003950  0.04602600  0.66826900  1
  O  O9  1  0.16428550  0.94290100  0.73262100  1
  O  O10  1  0.28971900  0.79468550  0.36158600  1
  O  O11  1  0.66423350  0.65267300  0.65965100  1
  O  O12  1  0.63609950  0.77648000  0.04674800  1
  O  O13  1  0.10927250  0.65874000  0.12558500  1
  O  O14  1  0.87673200  0.32698650  0.86119200  1
  O  O15  1  0.36441250  0.23708400  0.92737800  1
  O  O16  1  0.34294250  0.35753300  0.31926700  1
  O  O17  1  0.71651250  0.23540400  0.59620600  1
  O  O18  1  0.82910150  0.05950100  0.25669400  1
