# generated using pymatgen
data_Yb2P4O13
_symmetry_space_group_name_H-M   'P 1'
_cell_length_a   11.97454400
_cell_length_b   6.82153000
_cell_length_c   13.13885613
_cell_angle_alpha   90.00000000
_cell_angle_beta   106.72129230
_cell_angle_gamma   90.00000000
_symmetry_Int_Tables_number   1
_chemical_formula_structural   Yb2P4O13
_chemical_formula_sum   'Yb8 P16 O52'
_cell_volume   1027.86224537
_cell_formula_units_Z   4
loop_
 _symmetry_equiv_pos_site_id
 _symmetry_equiv_pos_as_xyz
  1  'x, y, z'
loop_
 _atom_site_type_symbol
 _atom_site_label
 _atom_site_symmetry_multiplicity
 _atom_site_fract_x
 _atom_site_fract_y
 _atom_site_fract_z
 _atom_site_occupancy
  Yb  Yb0  1  0.67709950  0.99796850  0.54395000  1
  Yb  Yb1  1  0.82290050  0.49796850  0.95605000  1
  Yb  Yb2  1  0.67709950  0.00203150  0.04395000  1
  Yb  Yb3  1  0.82290050  0.50203150  0.45605000  1
  Yb  Yb4  1  0.17709950  0.49796850  0.54395000  1
  Yb  Yb5  1  0.32290050  0.99796850  0.95605000  1
  Yb  Yb6  1  0.17709950  0.50203150  0.04395000  1
  Yb  Yb7  1  0.32290050  0.00203150  0.45605000  1
  P  P8  1  0.98734200  0.15327000  0.63380100  1
  P  P9  1  0.98734200  0.84673000  0.13380100  1
  P  P10  1  0.73130700  0.50925100  0.65962000  1
  P  P11  1  0.76869300  0.00925100  0.84038000  1
  P  P12  1  0.73130700  0.49074900  0.15962000  1
  P  P13  1  0.76869300  0.99074900  0.34038000  1
  P  P14  1  0.51265800  0.65327000  0.86619900  1
  P  P15  1  0.51265800  0.34673000  0.36619900  1
  P  P16  1  0.48734200  0.65327000  0.63380100  1
  P  P17  1  0.48734200  0.34673000  0.13380100  1
  P  P18  1  0.23130700  0.00925100  0.65962000  1
  P  P19  1  0.26869300  0.50925100  0.84038000  1
  P  P20  1  0.23130700  0.99074900  0.15962000  1
  P  P21  1  0.26869300  0.49074900  0.34038000  1
  P  P22  1  0.01265800  0.15327000  0.86619900  1
  P  P23  1  0.01265800  0.84673000  0.36619900  1
  O  O24  1  0.99824050  0.32388450  0.56334900  1
  O  O25  1  0.88201700  0.02203200  0.59880200  1
  O  O26  1  0.99824050  0.67611550  0.06334900  1
  O  O27  1  0.90414800  0.00609000  0.84430300  1
  O  O28  1  0.75503350  0.68365450  0.59646700  1
  O  O29  1  0.74680150  0.32473850  0.59767400  1
  O  O30  1  0.80392450  0.50281150  0.77470000  1
  O  O31  1  0.88201700  0.97796800  0.09880200  1
  O  O32  1  0.90414800  0.99391000  0.34430300  1
  O  O33  1  0.69607550  0.00281150  0.72530000  1
  O  O34  1  0.75319850  0.82473850  0.90232600  1
  O  O35  1  0.74496650  0.18365450  0.90353300  1
  O  O36  1  0.75503350  0.31634550  0.09646700  1
  O  O37  1  0.74680150  0.67526150  0.09767400  1
  O  O38  1  0.80392450  0.49718850  0.27470000  1
  O  O39  1  0.59585200  0.50609000  0.65569700  1
  O  O40  1  0.61798300  0.52203200  0.90119800  1
  O  O41  1  0.69607550  0.99718850  0.22530000  1
  O  O42  1  0.75319850  0.17526150  0.40232600  1
  O  O43  1  0.74496650  0.81634550  0.40353300  1
  O  O44  1  0.00000000  0.24299800  0.75000000  1
  O  O45  1  0.59585200  0.49391000  0.15569700  1
  O  O46  1  0.50175950  0.82388450  0.93665100  1
  O  O47  1  0.61798300  0.47796800  0.40119800  1
  O  O48  1  0.00000000  0.75700200  0.25000000  1
  O  O49  1  0.50175950  0.17611550  0.43665100  1
  O  O50  1  0.49824050  0.82388450  0.56334900  1
  O  O51  1  0.38201700  0.52203200  0.59880200  1
  O  O52  1  0.49824050  0.17611550  0.06334900  1
  O  O53  1  0.40414800  0.50609000  0.84430300  1
  O  O54  1  0.25503350  0.18365450  0.59646700  1
  O  O55  1  0.24680150  0.82473850  0.59767400  1
  O  O56  1  0.30392450  0.00281150  0.77470000  1
  O  O57  1  0.38201700  0.47796800  0.09880200  1
  O  O58  1  0.40414800  0.49391000  0.34430300  1
  O  O59  1  0.19607550  0.50281150  0.72530000  1
  O  O60  1  0.25319850  0.32473850  0.90232600  1
  O  O61  1  0.24496650  0.68365450  0.90353300  1
  O  O62  1  0.25503350  0.81634550  0.09646700  1
  O  O63  1  0.24680150  0.17526150  0.09767400  1
  O  O64  1  0.30392450  0.99718850  0.27470000  1
  O  O65  1  0.09585200  0.00609000  0.65569700  1
  O  O66  1  0.11798300  0.02203200  0.90119800  1
  O  O67  1  0.19607550  0.49718850  0.22530000  1
  O  O68  1  0.25319850  0.67526150  0.40232600  1
  O  O69  1  0.24496650  0.31634550  0.40353300  1
  O  O70  1  0.50000000  0.74299800  0.75000000  1
  O  O71  1  0.09585200  0.99391000  0.15569700  1
  O  O72  1  0.00175950  0.32388450  0.93665100  1
  O  O73  1  0.11798300  0.97796800  0.40119800  1
  O  O74  1  0.50000000  0.25700200  0.25000000  1
  O  O75  1  0.00175950  0.67611550  0.43665100  1
