# generated using pymatgen
data_Mn3Cr3(TeO8)2
_symmetry_space_group_name_H-M   'P 1'
_cell_length_a   10.30906600
_cell_length_b   5.96728200
_cell_length_c   9.21617433
_cell_angle_alpha   90.00000000
_cell_angle_beta   90.27131154
_cell_angle_gamma   90.00000000
_symmetry_Int_Tables_number   1
_chemical_formula_structural   Mn3Cr3(TeO8)2
_chemical_formula_sum   'Mn6 Cr6 Te4 O32'
_cell_volume   566.94599798
_cell_formula_units_Z   2
loop_
 _symmetry_equiv_pos_site_id
 _symmetry_equiv_pos_as_xyz
  1  'x, y, z'
loop_
 _atom_site_type_symbol
 _atom_site_label
 _atom_site_symmetry_multiplicity
 _atom_site_fract_x
 _atom_site_fract_y
 _atom_site_fract_z
 _atom_site_occupancy
  Mn  Mn0  1  0.16878500  0.00000000  0.21075000  1
  Mn  Mn1  1  0.58345850  0.75146950  0.70966800  1
  Mn  Mn2  1  0.58345850  0.24853050  0.70966800  1
  Mn  Mn3  1  0.66878500  0.50000000  0.21075000  1
  Mn  Mn4  1  0.08345850  0.25146950  0.70966800  1
  Mn  Mn5  1  0.08345850  0.74853050  0.70966800  1
  Cr  Cr6  1  0.41576400  0.75334200  0.21056900  1
  Cr  Cr7  1  0.41576400  0.24665800  0.21056900  1
  Cr  Cr8  1  0.83002800  0.00000000  0.71141000  1
  Cr  Cr9  1  0.91576400  0.25334200  0.21056900  1
  Cr  Cr10  1  0.91576400  0.74665800  0.21056900  1
  Cr  Cr11  1  0.33002800  0.50000000  0.71141000  1
  Te  Te12  1  0.33517800  0.00000000  0.48670900  1
  Te  Te13  1  0.66764000  0.00000000  0.98869300  1
  Te  Te14  1  0.83517800  0.50000000  0.48670900  1
  Te  Te15  1  0.16764000  0.50000000  0.98869300  1
  O  O16  1  0.41367750  0.75737050  0.59632400  1
  O  O17  1  0.47879900  0.00000000  0.34554100  1
  O  O18  1  0.32815400  0.00000000  0.10930100  1
  O  O19  1  0.00442500  0.00000000  0.30340700  1
  O  O20  1  0.00437600  0.00000000  0.80185000  1
  O  O21  1  0.41367750  0.24262950  0.59632400  1
  O  O22  1  0.25866850  0.78329050  0.34268000  1
  O  O23  1  0.25866850  0.21670950  0.34268000  1
  O  O24  1  0.82882900  0.00000000  0.09570700  1
  O  O25  1  0.17627800  0.00000000  0.59774500  1
  O  O26  1  0.73943900  0.78234200  0.84487600  1
  O  O27  1  0.73943900  0.21765800  0.84487600  1
  O  O28  1  0.66039100  0.00000000  0.61167100  1
  O  O29  1  0.58741550  0.75747150  0.09764900  1
  O  O30  1  0.51983400  0.00000000  0.84941400  1
  O  O31  1  0.58741550  0.24252850  0.09764900  1
  O  O32  1  0.91367750  0.25737050  0.59632400  1
  O  O33  1  0.97879900  0.50000000  0.34554100  1
  O  O34  1  0.82815400  0.50000000  0.10930100  1
  O  O35  1  0.50442500  0.50000000  0.30340700  1
  O  O36  1  0.50437600  0.50000000  0.80185000  1
  O  O37  1  0.91367750  0.74262950  0.59632400  1
  O  O38  1  0.75866850  0.28329050  0.34268000  1
  O  O39  1  0.75866850  0.71670950  0.34268000  1
  O  O40  1  0.32882900  0.50000000  0.09570700  1
  O  O41  1  0.67627800  0.50000000  0.59774500  1
  O  O42  1  0.23943900  0.28234200  0.84487600  1
  O  O43  1  0.23943900  0.71765800  0.84487600  1
  O  O44  1  0.16039100  0.50000000  0.61167100  1
  O  O45  1  0.08741550  0.25747150  0.09764900  1
  O  O46  1  0.01983400  0.50000000  0.84941400  1
  O  O47  1  0.08741550  0.74252850  0.09764900  1
