# generated using pymatgen
data_Li4Ti3Cr2Fe3O16
_symmetry_space_group_name_H-M   'P 1'
_cell_length_a   10.28663200
_cell_length_b   5.92610200
_cell_length_c   9.60517379
_cell_angle_alpha   90.00000000
_cell_angle_beta   90.43576040
_cell_angle_gamma   90.00000000
_symmetry_Int_Tables_number   1
_chemical_formula_structural   Li4Ti3Cr2Fe3O16
_chemical_formula_sum   'Li8 Ti6 Cr4 Fe6 O32'
_cell_volume   585.51091085
_cell_formula_units_Z   2
loop_
 _symmetry_equiv_pos_site_id
 _symmetry_equiv_pos_as_xyz
  1  'x, y, z'
loop_
 _atom_site_type_symbol
 _atom_site_label
 _atom_site_symmetry_multiplicity
 _atom_site_fract_x
 _atom_site_fract_y
 _atom_site_fract_z
 _atom_site_occupancy
  Li  Li0  1  0.66872100  0.00000000  0.89187100  1
  Li  Li1  1  0.99615800  0.00000000  0.99487200  1
  Li  Li2  1  0.99652800  0.00000000  0.49666200  1
  Li  Li3  1  0.83279500  0.50000000  0.39551000  1
  Li  Li4  1  0.16872100  0.50000000  0.89187100  1
  Li  Li5  1  0.49615800  0.50000000  0.99487200  1
  Li  Li6  1  0.49652800  0.50000000  0.49666200  1
  Li  Li7  1  0.33279500  0.00000000  0.39551000  1
  Ti  Ti8  1  0.58451000  0.24787100  0.21351500  1
  Ti  Ti9  1  0.58451000  0.75212900  0.21351500  1
  Ti  Ti10  1  0.66911300  0.50000000  0.71419900  1
  Ti  Ti11  1  0.08451000  0.74787100  0.21351500  1
  Ti  Ti12  1  0.08451000  0.25212900  0.21351500  1
  Ti  Ti13  1  0.16911300  0.00000000  0.71419900  1
  Cr  Cr14  1  0.66552900  0.00000000  0.48625300  1
  Cr  Cr15  1  0.83630000  0.50000000  0.98254400  1
  Cr  Cr16  1  0.16552900  0.50000000  0.48625300  1
  Cr  Cr17  1  0.33630000  0.00000000  0.98254400  1
  Fe  Fe18  1  0.83074300  0.00000000  0.21366700  1
  Fe  Fe19  1  0.91527600  0.74533700  0.71263900  1
  Fe  Fe20  1  0.91527600  0.25466300  0.71263900  1
  Fe  Fe21  1  0.33074300  0.50000000  0.21366700  1
  Fe  Fe22  1  0.41527600  0.24533700  0.71263900  1
  Fe  Fe23  1  0.41527600  0.75466300  0.71263900  1
  O  O24  1  0.58571850  0.25565950  0.60052500  1
  O  O25  1  0.51918700  0.00000000  0.33691200  1
  O  O26  1  0.66276800  0.00000000  0.10413200  1
  O  O27  1  0.50230500  0.50000000  0.31101200  1
  O  O28  1  0.50052600  0.50000000  0.80907200  1
  O  O29  1  0.58571850  0.74434050  0.60052500  1
  O  O30  1  0.73522000  0.22184900  0.34180900  1
  O  O31  1  0.73522000  0.77815100  0.34180900  1
  O  O32  1  0.66504700  0.50000000  0.10553800  1
  O  O33  1  0.83384800  0.00000000  0.59952900  1
  O  O34  1  0.75677850  0.71595050  0.84096000  1
  O  O35  1  0.75677850  0.28404950  0.84096000  1
  O  O36  1  0.83004900  0.50000000  0.60303600  1
  O  O37  1  0.92271800  0.74951900  0.10153500  1
  O  O38  1  0.98079100  0.50000000  0.84124500  1
  O  O39  1  0.92271800  0.25048100  0.10153500  1
  O  O40  1  0.08571850  0.75565950  0.60052500  1
  O  O41  1  0.01918700  0.50000000  0.33691200  1
  O  O42  1  0.16276800  0.50000000  0.10413200  1
  O  O43  1  0.00230500  0.00000000  0.31101200  1
  O  O44  1  0.00052600  0.00000000  0.80907200  1
  O  O45  1  0.08571850  0.24434050  0.60052500  1
  O  O46  1  0.23522000  0.72184900  0.34180900  1
  O  O47  1  0.23522000  0.27815100  0.34180900  1
  O  O48  1  0.16504700  0.00000000  0.10553800  1
  O  O49  1  0.33384800  0.50000000  0.59952900  1
  O  O50  1  0.25677850  0.21595050  0.84096000  1
  O  O51  1  0.25677850  0.78404950  0.84096000  1
  O  O52  1  0.33004900  0.00000000  0.60303600  1
  O  O53  1  0.42271800  0.24951900  0.10153500  1
  O  O54  1  0.48079100  0.00000000  0.84124500  1
  O  O55  1  0.42271800  0.75048100  0.10153500  1
