# generated using pymatgen
data_Cr4OF11
_symmetry_space_group_name_H-M   'P 1'
_cell_length_a   5.06494076
_cell_length_b   5.33361746
_cell_length_c   16.90602164
_cell_angle_alpha   88.96610033
_cell_angle_beta   97.96394963
_cell_angle_gamma   117.91999572
_symmetry_Int_Tables_number   1
_chemical_formula_structural   Cr4OF11
_chemical_formula_sum   'Cr8 O2 F22'
_cell_volume   399.08259406
_cell_formula_units_Z   2
loop_
 _symmetry_equiv_pos_site_id
 _symmetry_equiv_pos_as_xyz
  1  'x, y, z'
loop_
 _atom_site_type_symbol
 _atom_site_label
 _atom_site_symmetry_multiplicity
 _atom_site_fract_x
 _atom_site_fract_y
 _atom_site_fract_z
 _atom_site_occupancy
  Cr  Cr0  1  0.00615700  0.73993900  0.24600300  1
  Cr  Cr1  1  0.99384300  0.26006100  0.75399700  1
  Cr  Cr2  1  0.24807200  0.87830800  0.62538600  1
  Cr  Cr3  1  0.24207700  0.38492500  0.12769000  1
  Cr  Cr4  1  0.50000000  0.00000000  0.00000000  1
  Cr  Cr5  1  0.50000000  0.50000000  0.50000000  1
  Cr  Cr6  1  0.75792300  0.61507500  0.87231000  1
  Cr  Cr7  1  0.75192800  0.12169200  0.37461400  1
  O  O8  1  0.06372400  0.59272500  0.15685200  1
  O  O9  1  0.93627600  0.40727500  0.84314800  1
  F  F10  1  0.93604100  0.90382700  0.34008600  1
  F  F11  1  0.00670700  0.06203900  0.18804600  1
  F  F12  1  0.99329300  0.93796100  0.81195400  1
  F  F13  1  0.99818100  0.43722700  0.31249700  1
  F  F14  1  0.06395900  0.09617300  0.65991400  1
  F  F15  1  0.06483800  0.78386600  0.96635000  1
  F  F16  1  0.93563700  0.71740000  0.53241200  1
  F  F17  1  0.93516200  0.21613400  0.03365000  1
  F  F18  1  0.43533700  0.96663100  0.28195400  1
  F  F19  1  0.00181900  0.56277300  0.68750300  1
  F  F20  1  0.49260800  0.68628100  0.06309800  1
  F  F21  1  0.06436300  0.28260000  0.46758800  1
  F  F22  1  0.56466300  0.03336900  0.71804600  1
  F  F23  1  0.56692100  0.53327700  0.21823800  1
  F  F24  1  0.56890100  0.83822200  0.90735600  1
  F  F25  1  0.43593200  0.65809500  0.59354000  1
  F  F26  1  0.43307900  0.46672300  0.78176200  1
  F  F27  1  0.43109900  0.16177800  0.09264400  1
  F  F28  1  0.50516100  0.81269600  0.43762700  1
  F  F29  1  0.50739200  0.31371900  0.93690200  1
  F  F30  1  0.49483900  0.18730400  0.56237300  1
  F  F31  1  0.56406800  0.34190500  0.40646000  1
