# generated using pymatgen
data_LiNi6O6F
_symmetry_space_group_name_H-M   'P 1'
_cell_length_a   2.97358200
_cell_length_b   2.97358200
_cell_length_c   29.70661800
_cell_angle_alpha   90.00000000
_cell_angle_beta   90.00000000
_cell_angle_gamma   90.00000000
_symmetry_Int_Tables_number   1
_chemical_formula_structural   LiNi6O6F
_chemical_formula_sum   'Li2 Ni12 O12 F2'
_cell_volume   262.67155796
_cell_formula_units_Z   2
loop_
 _symmetry_equiv_pos_site_id
 _symmetry_equiv_pos_as_xyz
  1  'x, y, z'
loop_
 _atom_site_type_symbol
 _atom_site_label
 _atom_site_symmetry_multiplicity
 _atom_site_fract_x
 _atom_site_fract_y
 _atom_site_fract_z
 _atom_site_occupancy
  Li  Li0  1  0.00000000  0.00000000  0.00000000  1
  Li  Li1  1  0.50000000  0.50000000  0.50000000  1
  Ni  Ni2  1  0.50000000  0.50000000  0.07289900  1
  Ni  Ni3  1  0.00000000  0.00000000  0.14296200  1
  Ni  Ni4  1  0.50000000  0.50000000  0.21445300  1
  Ni  Ni5  1  0.00000000  0.00000000  0.28554700  1
  Ni  Ni6  1  0.50000000  0.50000000  0.35703800  1
  Ni  Ni7  1  0.00000000  0.00000000  0.42710100  1
  Ni  Ni8  1  0.00000000  0.00000000  0.57289900  1
  Ni  Ni9  1  0.50000000  0.50000000  0.64296200  1
  Ni  Ni10  1  0.00000000  0.00000000  0.71445300  1
  Ni  Ni11  1  0.50000000  0.50000000  0.78554700  1
  Ni  Ni12  1  0.00000000  0.00000000  0.85703800  1
  Ni  Ni13  1  0.50000000  0.50000000  0.92710100  1
  O  O14  1  0.00000000  0.00000000  0.07159300  1
  O  O15  1  0.50000000  0.50000000  0.14331000  1
  O  O16  1  0.00000000  0.00000000  0.21441800  1
  O  O17  1  0.50000000  0.50000000  0.28558200  1
  O  O18  1  0.00000000  0.00000000  0.35669000  1
  O  O19  1  0.50000000  0.50000000  0.42840700  1
  O  O20  1  0.50000000  0.50000000  0.57159300  1
  O  O21  1  0.00000000  0.00000000  0.64331000  1
  O  O22  1  0.50000000  0.50000000  0.71441800  1
  O  O23  1  0.00000000  0.00000000  0.78558200  1
  O  O24  1  0.50000000  0.50000000  0.85669000  1
  O  O25  1  0.00000000  0.00000000  0.92840700  1
  F  F26  1  0.50000000  0.50000000  0.00000000  1
  F  F27  1  0.00000000  0.00000000  0.50000000  1
