# generated using pymatgen
data_Ge11N11O5
_symmetry_space_group_name_H-M   'P 1'
_cell_length_a   10.24406800
_cell_length_b   5.91662800
_cell_length_c   10.18740836
_cell_angle_alpha   90.00000000
_cell_angle_beta   109.30554151
_cell_angle_gamma   90.00000000
_symmetry_Int_Tables_number   1
_chemical_formula_structural   Ge11N11O5
_chemical_formula_sum   'Ge22 N22 O10'
_cell_volume   582.74174635
_cell_formula_units_Z   2
loop_
 _symmetry_equiv_pos_site_id
 _symmetry_equiv_pos_as_xyz
  1  'x, y, z'
loop_
 _atom_site_type_symbol
 _atom_site_label
 _atom_site_symmetry_multiplicity
 _atom_site_fract_x
 _atom_site_fract_y
 _atom_site_fract_z
 _atom_site_occupancy
  Ge  Ge0  1  0.93679700  0.00000000  0.31134700  1
  Ge  Ge1  1  0.68706000  0.00000000  0.05999300  1
  Ge  Ge2  1  0.99863800  0.00000000  0.99432400  1
  Ge  Ge3  1  0.68935000  0.74780800  0.81485500  1
  Ge  Ge4  1  0.68115250  0.24599150  0.30587800  1
  Ge  Ge5  1  0.68115250  0.75400850  0.30587800  1
  Ge  Ge6  1  0.37292900  0.00000000  0.12613700  1
  Ge  Ge7  1  0.43644000  0.00000000  0.81292900  1
  Ge  Ge8  1  0.18462100  0.00000000  0.56867800  1
  Ge  Ge9  1  0.51008900  0.00000000  0.50521300  1
  Ge  Ge10  1  0.68935000  0.25219200  0.81485500  1
  Ge  Ge11  1  0.43679700  0.50000000  0.31134700  1
  Ge  Ge12  1  0.18706000  0.50000000  0.05999300  1
  Ge  Ge13  1  0.49863800  0.50000000  0.99432400  1
  Ge  Ge14  1  0.18935000  0.24780800  0.81485500  1
  Ge  Ge15  1  0.18115250  0.74599150  0.30587800  1
  Ge  Ge16  1  0.18115250  0.25400850  0.30587800  1
  Ge  Ge17  1  0.87292900  0.50000000  0.12613700  1
  Ge  Ge18  1  0.93644000  0.50000000  0.81292900  1
  Ge  Ge19  1  0.68462100  0.50000000  0.56867800  1
  Ge  Ge20  1  0.01008900  0.50000000  0.50521300  1
  Ge  Ge21  1  0.18935000  0.75219200  0.81485500  1
  N  N22  1  0.57303800  0.72891800  0.43670300  1
  N  N23  1  0.30820200  0.73567000  0.19274800  1
  N  N24  1  0.57109900  0.00000000  0.18944100  1
  N  N25  1  0.06637900  0.00000000  0.19788800  1
  N  N26  1  0.80060900  0.00000000  0.93069600  1
  N  N27  1  0.56988900  0.00000000  0.70333200  1
  N  N28  1  0.56523750  0.76559250  0.93037600  1
  N  N29  1  0.57303800  0.27108200  0.43670300  1
  N  N30  1  0.56523750  0.23440750  0.93037600  1
  N  N31  1  0.30820200  0.26433000  0.19274800  1
  N  N32  1  0.30925100  0.00000000  0.92865400  1
  N  N33  1  0.07303800  0.22891800  0.43670300  1
  N  N34  1  0.80820200  0.23567000  0.19274800  1
  N  N35  1  0.07109900  0.50000000  0.18944100  1
  N  N36  1  0.56637900  0.50000000  0.19788800  1
  N  N37  1  0.30060900  0.50000000  0.93069600  1
  N  N38  1  0.06988900  0.50000000  0.70333200  1
  N  N39  1  0.06523750  0.26559250  0.93037600  1
  N  N40  1  0.07303800  0.77108200  0.43670300  1
  N  N41  1  0.06523750  0.73440750  0.93037600  1
  N  N42  1  0.80820200  0.76433000  0.19274800  1
  N  N43  1  0.80925100  0.50000000  0.92865400  1
  O  O44  1  0.80121700  0.00000000  0.40816200  1
  O  O45  1  0.30135300  0.00000000  0.43757400  1
  O  O46  1  0.30461450  0.21674450  0.69562500  1
  O  O47  1  0.30461450  0.78325550  0.69562500  1
  O  O48  1  0.08544000  0.00000000  0.69826300  1
  O  O49  1  0.30121700  0.50000000  0.40816200  1
  O  O50  1  0.80135300  0.50000000  0.43757400  1
  O  O51  1  0.80461450  0.71674450  0.69562500  1
  O  O52  1  0.80461450  0.28325550  0.69562500  1
  O  O53  1  0.58544000  0.50000000  0.69826300  1
