# generated using pymatgen
data_Li3Ti2(PO4)3
_symmetry_space_group_name_H-M   'P 1'
_cell_length_a   14.48615600
_cell_length_b   13.32984400
_cell_length_c   9.82348233
_cell_angle_alpha   90.00000000
_cell_angle_beta   95.80657928
_cell_angle_gamma   90.00000000
_symmetry_Int_Tables_number   1
_chemical_formula_structural   Li3Ti2(PO4)3
_chemical_formula_sum   'Li24 Ti16 P24 O96'
_cell_volume   1887.16395984
_cell_formula_units_Z   8
loop_
 _symmetry_equiv_pos_site_id
 _symmetry_equiv_pos_as_xyz
  1  'x, y, z'
loop_
 _atom_site_type_symbol
 _atom_site_label
 _atom_site_symmetry_multiplicity
 _atom_site_fract_x
 _atom_site_fract_y
 _atom_site_fract_z
 _atom_site_occupancy
  Li  Li0  1  0.25295400  0.75798500  0.22880300  1
  Li  Li1  1  0.31284750  0.06206650  0.79750000  1
  Li  Li2  1  0.32860250  0.88415350  0.46750000  1
  Li  Li3  1  0.25025750  0.98653450  0.18246800  1
  Li  Li4  1  0.38617550  0.32096350  0.97554700  1
  Li  Li5  1  0.87039050  0.12904350  0.39540100  1
  Li  Li6  1  0.12960950  0.12904350  0.60459900  1
  Li  Li7  1  0.61382450  0.32096350  0.02445300  1
  Li  Li8  1  0.74974250  0.98653450  0.81753200  1
  Li  Li9  1  0.67139750  0.88415350  0.53250000  1
  Li  Li10  1  0.68715250  0.06206650  0.20250000  1
  Li  Li11  1  0.74704600  0.75798500  0.77119700  1
  Li  Li12  1  0.75295400  0.25798500  0.22880300  1
  Li  Li13  1  0.81284750  0.56206650  0.79750000  1
  Li  Li14  1  0.82860250  0.38415350  0.46750000  1
  Li  Li15  1  0.75025750  0.48653450  0.18246800  1
  Li  Li16  1  0.88617550  0.82096350  0.97554700  1
  Li  Li17  1  0.37039050  0.62904350  0.39540100  1
  Li  Li18  1  0.62960950  0.62904350  0.60459900  1
  Li  Li19  1  0.11382450  0.82096350  0.02445300  1
  Li  Li20  1  0.24974250  0.48653450  0.81753200  1
  Li  Li21  1  0.17139750  0.38415350  0.53250000  1
  Li  Li22  1  0.18715250  0.56206650  0.20250000  1
  Li  Li23  1  0.24704600  0.25798500  0.77119700  1
  Ti  Ti24  1  0.39213900  0.64314900  0.78765400  1
  Ti  Ti25  1  0.39446600  0.35401100  0.28876300  1
  Ti  Ti26  1  0.50000000  0.03565200  0.50000000  1
  Ti  Ti27  1  0.50000000  0.24839200  0.50000000  1
  Ti  Ti28  1  0.50000000  0.74846800  0.00000000  1
  Ti  Ti29  1  0.50000000  0.96214000  0.00000000  1
  Ti  Ti30  1  0.60553400  0.35401100  0.71123700  1
  Ti  Ti31  1  0.60786100  0.64314900  0.21234600  1
  Ti  Ti32  1  0.89213900  0.14314900  0.78765400  1
  Ti  Ti33  1  0.89446600  0.85401100  0.28876300  1
  Ti  Ti34  1  0.00000000  0.53565200  0.50000000  1
  Ti  Ti35  1  0.00000000  0.74839200  0.50000000  1
  Ti  Ti36  1  0.00000000  0.24846800  0.00000000  1
  Ti  Ti37  1  0.00000000  0.46214000  0.00000000  1
  Ti  Ti38  1  0.10553400  0.85401100  0.71123700  1
  Ti  Ti39  1  0.10786100  0.14314900  0.21234600  1
  P  P40  1  0.11497200  0.05759100  0.90132400  1
  P  P41  1  0.11699550  0.93758850  0.40284300  1
  P  P42  1  0.29986200  0.85522000  0.92717600  1
  P  P43  1  0.30064400  0.13941500  0.42781200  1
  P  P44  1  0.48487150  0.16624550  0.80621100  1
  P  P45  1  0.51182800  0.83007100  0.69503700  1
  P  P46  1  0.48817200  0.83007100  0.30496300  1
  P  P47  1  0.51512850  0.16624550  0.19378900  1
  P  P48  1  0.69935600  0.13941500  0.57218800  1
  P  P49  1  0.70013800  0.85522000  0.07282400  1
  P  P50  1  0.88300450  0.93758850  0.59715700  1
  P  P51  1  0.88502800  0.05759100  0.09867600  1
  P  P52  1  0.61497200  0.55759100  0.90132400  1
  P  P53  1  0.61699550  0.43758850  0.40284300  1
  P  P54  1  0.79986200  0.35522000  0.92717600  1
  P  P55  1  0.80064400  0.63941500  0.42781200  1
  P  P56  1  0.98487150  0.66624550  0.80621100  1
  P  P57  1  0.01182800  0.33007100  0.69503700  1
  P  P58  1  0.98817200  0.33007100  0.30496300  1
  P  P59  1  0.01512850  0.66624550  0.19378900  1
  P  P60  1  0.19935600  0.63941500  0.57218800  1
  P  P61  1  0.20013800  0.35522000  0.07282400  1
  P  P62  1  0.38300450  0.43758850  0.59715700  1
  P  P63  1  0.38502800  0.55759100  0.09867600  1
  O  O64  1  0.08107350  0.95060950  0.86377000  1
  O  O65  1  0.07912700  0.03870200  0.34549600  1
  O  O66  1  0.13377850  0.94940950  0.56180400  1
  O  O67  1  0.14753300  0.05591300  0.05787400  1
  O  O68  1  0.18836750  0.09797050  0.81317800  1
  O  O69  1  0.20505400  0.90214000  0.34123300  1
  O  O70  1  0.23645250  0.85409350  0.79244100  1
  O  O71  1  0.24717650  0.15220850  0.55205200  1
  O  O72  1  0.24192200  0.12835200  0.28830000  1
  O  O73  1  0.24772800  0.85349600  0.05674700  1
  O  O74  1  0.36327250  0.75950050  0.92573600  1
  O  O75  1  0.36243550  0.95103450  0.92614300  1
  O  O76  1  0.38772950  0.19449350  0.84496600  1
  O  O77  1  0.36401500  0.04347000  0.44169500  1
  O  O78  1  0.36428250  0.23524650  0.41750200  1
  O  O79  1  0.39547950  0.79579150  0.35318300  1
  O  O80  1  0.43620600  0.74724100  0.66938000  1
  O  O81  1  0.44431850  0.25274650  0.15681400  1
  O  O82  1  0.46957500  0.92577700  0.62662400  1
  O  O83  1  0.47575850  0.14621250  0.64626600  1
  O  O84  1  0.46399900  0.35929800  0.63018200  1
  O  O85  1  0.52966200  0.63142100  0.87501900  1
  O  O86  1  0.47623650  0.06775950  0.13115100  1
  O  O87  1  0.52765850  0.85215050  0.85421300  1
  O  O88  1  0.47234150  0.85215050  0.14578700  1
  O  O89  1  0.52376350  0.06775950  0.86884900  1
  O  O90  1  0.47033800  0.63142100  0.12498100  1
  O  O91  1  0.53600100  0.35929800  0.36981800  1
  O  O92  1  0.52424150  0.14621250  0.35373400  1
  O  O93  1  0.53042500  0.92577700  0.37337600  1
  O  O94  1  0.55568150  0.25274650  0.84318600  1
  O  O95  1  0.56379400  0.74724100  0.33062000  1
  O  O96  1  0.60452050  0.79579150  0.64681700  1
  O  O97  1  0.63571750  0.23524650  0.58249800  1
  O  O98  1  0.63598500  0.04347000  0.55830500  1
  O  O99  1  0.61227050  0.19449350  0.15503400  1
  O  O100  1  0.63756450  0.95103450  0.07385700  1
  O  O101  1  0.63672750  0.75950050  0.07426400  1
  O  O102  1  0.75227200  0.85349600  0.94325300  1
  O  O103  1  0.75807800  0.12835200  0.71170000  1
  O  O104  1  0.75282350  0.15220850  0.44794800  1
  O  O105  1  0.76354750  0.85409350  0.20755900  1
  O  O106  1  0.79494600  0.90214000  0.65876700  1
  O  O107  1  0.81163250  0.09797050  0.18682200  1
  O  O108  1  0.85246700  0.05591300  0.94212600  1
  O  O109  1  0.86622150  0.94940950  0.43819600  1
  O  O110  1  0.92087300  0.03870200  0.65450400  1
  O  O111  1  0.91892650  0.95060950  0.13623000  1
  O  O112  1  0.58107350  0.45060950  0.86377000  1
  O  O113  1  0.57912700  0.53870200  0.34549600  1
  O  O114  1  0.63377850  0.44940950  0.56180400  1
  O  O115  1  0.64753300  0.55591300  0.05787400  1
  O  O116  1  0.68836750  0.59797050  0.81317800  1
  O  O117  1  0.70505400  0.40214000  0.34123300  1
  O  O118  1  0.73645250  0.35409350  0.79244100  1
  O  O119  1  0.74717650  0.65220850  0.55205200  1
  O  O120  1  0.74192200  0.62835200  0.28830000  1
  O  O121  1  0.74772800  0.35349600  0.05674700  1
  O  O122  1  0.86327250  0.25950050  0.92573600  1
  O  O123  1  0.86243550  0.45103450  0.92614300  1
  O  O124  1  0.88772950  0.69449350  0.84496600  1
  O  O125  1  0.86401500  0.54347000  0.44169500  1
  O  O126  1  0.86428250  0.73524650  0.41750200  1
  O  O127  1  0.89547950  0.29579150  0.35318300  1
  O  O128  1  0.93620600  0.24724100  0.66938000  1
  O  O129  1  0.94431850  0.75274650  0.15681400  1
  O  O130  1  0.96957500  0.42577700  0.62662400  1
  O  O131  1  0.97575850  0.64621250  0.64626600  1
  O  O132  1  0.96399900  0.85929800  0.63018200  1
  O  O133  1  0.02966200  0.13142100  0.87501900  1
  O  O134  1  0.97623650  0.56775950  0.13115100  1
  O  O135  1  0.02765850  0.35215050  0.85421300  1
  O  O136  1  0.97234150  0.35215050  0.14578700  1
  O  O137  1  0.02376350  0.56775950  0.86884900  1
  O  O138  1  0.97033800  0.13142100  0.12498100  1
  O  O139  1  0.03600100  0.85929800  0.36981800  1
  O  O140  1  0.02424150  0.64621250  0.35373400  1
  O  O141  1  0.03042500  0.42577700  0.37337600  1
  O  O142  1  0.05568150  0.75274650  0.84318600  1
  O  O143  1  0.06379400  0.24724100  0.33062000  1
  O  O144  1  0.10452050  0.29579150  0.64681700  1
  O  O145  1  0.13571750  0.73524650  0.58249800  1
  O  O146  1  0.13598500  0.54347000  0.55830500  1
  O  O147  1  0.11227050  0.69449350  0.15503400  1
  O  O148  1  0.13756450  0.45103450  0.07385700  1
  O  O149  1  0.13672750  0.25950050  0.07426400  1
  O  O150  1  0.25227200  0.35349600  0.94325300  1
  O  O151  1  0.25807800  0.62835200  0.71170000  1
  O  O152  1  0.25282350  0.65220850  0.44794800  1
  O  O153  1  0.26354750  0.35409350  0.20755900  1
  O  O154  1  0.29494600  0.40214000  0.65876700  1
  O  O155  1  0.31163250  0.59797050  0.18682200  1
  O  O156  1  0.35246700  0.55591300  0.94212600  1
  O  O157  1  0.36622150  0.44940950  0.43819600  1
  O  O158  1  0.42087300  0.53870200  0.65450400  1
  O  O159  1  0.41892650  0.45060950  0.13623000  1
