# generated using pymatgen
data_Li3TiV3O8
_symmetry_space_group_name_H-M   'P 1'
_cell_length_a   12.36830934
_cell_length_b   4.08211627
_cell_length_c   6.63057846
_cell_angle_alpha   90.00000000
_cell_angle_beta   107.47354656
_cell_angle_gamma   90.00000000
_symmetry_Int_Tables_number   1
_chemical_formula_structural   Li3TiV3O8
_chemical_formula_sum   'Li6 Ti2 V6 O16'
_cell_volume   319.32270587
_cell_formula_units_Z   2
loop_
 _symmetry_equiv_pos_site_id
 _symmetry_equiv_pos_as_xyz
  1  'x, y, z'
loop_
 _atom_site_type_symbol
 _atom_site_label
 _atom_site_symmetry_multiplicity
 _atom_site_fract_x
 _atom_site_fract_y
 _atom_site_fract_z
 _atom_site_occupancy
  Li  Li0  1  0.56087025  0.50000000  0.35895100  1
  Li  Li1  1  0.82525275  0.00000000  0.99550300  1
  Li  Li2  1  0.93991150  0.00000000  0.64024700  1
  Li  Li3  1  0.06087025  0.00000000  0.35895100  1
  Li  Li4  1  0.32525275  0.50000000  0.99550300  1
  Li  Li5  1  0.43991150  0.50000000  0.64024700  1
  Ti  Ti6  1  0.70422750  0.00000000  0.28678700  1
  Ti  Ti7  1  0.20422750  0.50000000  0.28678700  1
  V  V8  1  0.61007100  0.00000000  0.69117200  1
  V  V9  1  0.79021825  0.50000000  0.70146100  1
  V  V10  1  0.89036100  0.50000000  0.30461400  1
  V  V11  1  0.11007100  0.50000000  0.69117200  1
  V  V12  1  0.29021825  0.00000000  0.70146100  1
  V  V13  1  0.39036100  0.00000000  0.30461400  1
  O  O14  1  0.66083900  0.00000000  0.01158400  1
  O  O15  1  0.56558350  0.00000000  0.35623300  1
  O  O16  1  0.61819325  0.50000000  0.67015500  1
  O  O17  1  0.77544350  0.00000000  0.67153700  1
  O  O18  1  0.72596125  0.50000000  0.34726900  1
  O  O19  1  0.87730925  0.00000000  0.31628200  1
  O  O20  1  0.93944450  0.50000000  0.63008700  1
  O  O21  1  0.85108750  0.50000000  0.99991600  1
  O  O22  1  0.16083900  0.50000000  0.01158400  1
  O  O23  1  0.06558350  0.50000000  0.35623300  1
  O  O24  1  0.11819325  0.00000000  0.67015500  1
  O  O25  1  0.27544350  0.50000000  0.67153700  1
  O  O26  1  0.22596125  0.00000000  0.34726900  1
  O  O27  1  0.37730925  0.50000000  0.31628200  1
  O  O28  1  0.43944450  0.00000000  0.63008700  1
  O  O29  1  0.35108750  0.00000000  0.99991600  1
