# generated using pymatgen
data_Na9Li7V16O48
_symmetry_space_group_name_H-M   'P 1'
_cell_length_a   10.41452200
_cell_length_b   9.27526000
_cell_length_c   22.51734015
_cell_angle_alpha   90.00000000
_cell_angle_beta   96.65106368
_cell_angle_gamma   90.00000000
_symmetry_Int_Tables_number   1
_chemical_formula_structural   Na9Li7V16O48
_chemical_formula_sum   'Na18 Li14 V32 O96'
_cell_volume   2160.47782405
_cell_formula_units_Z   2
loop_
 _symmetry_equiv_pos_site_id
 _symmetry_equiv_pos_as_xyz
  1  'x, y, z'
loop_
 _atom_site_type_symbol
 _atom_site_label
 _atom_site_symmetry_multiplicity
 _atom_site_fract_x
 _atom_site_fract_y
 _atom_site_fract_z
 _atom_site_occupancy
  Na  Na0  1  0.00000000  0.47711700  0.00000000  1
  Na  Na1  1  0.62534650  0.39822150  0.12524200  1
  Na  Na2  1  0.00000000  0.97640100  0.50000000  1
  Na  Na3  1  0.12500300  0.39860000  0.62500500  1
  Na  Na4  1  0.75001600  0.47634600  0.74995400  1
  Na  Na5  1  0.37465350  0.39822150  0.87475800  1
  Na  Na6  1  0.24998400  0.47634600  0.25004600  1
  Na  Na7  1  0.00000000  0.10406200  0.00000000  1
  Na  Na8  1  0.87499700  0.39860000  0.37499500  1
  Na  Na9  1  0.50000000  0.97711700  0.00000000  1
  Na  Na10  1  0.12534650  0.89822150  0.12524200  1
  Na  Na11  1  0.50000000  0.47640100  0.50000000  1
  Na  Na12  1  0.62500300  0.89860000  0.62500500  1
  Na  Na13  1  0.25001600  0.97634600  0.74995400  1
  Na  Na14  1  0.87465350  0.89822150  0.87475800  1
  Na  Na15  1  0.74998400  0.97634600  0.25004600  1
  Na  Na16  1  0.50000000  0.60406200  0.00000000  1
  Na  Na17  1  0.37499700  0.89860000  0.37499500  1
  Li  Li18  1  0.87500000  0.77414000  0.37499800  1
  Li  Li19  1  0.12526950  0.27449950  0.12527700  1
  Li  Li20  1  0.00000000  0.60085800  0.50000000  1
  Li  Li21  1  0.12500000  0.77414000  0.62500200  1
  Li  Li22  1  0.25001850  0.60087450  0.75000300  1
  Li  Li23  1  0.87473050  0.27449950  0.87472300  1
  Li  Li24  1  0.74998150  0.60087450  0.24999700  1
  Li  Li25  1  0.37500000  0.27414000  0.37499800  1
  Li  Li26  1  0.62526950  0.77449950  0.12527700  1
  Li  Li27  1  0.50000000  0.10085800  0.50000000  1
  Li  Li28  1  0.62500000  0.27414000  0.62500200  1
  Li  Li29  1  0.75001850  0.10087450  0.75000300  1
  Li  Li30  1  0.37473050  0.77449950  0.87472300  1
  Li  Li31  1  0.24998150  0.10087450  0.24999700  1
  V  V32  1  0.78939950  0.77760950  0.00035400  1
  V  V33  1  0.91469150  0.59546350  0.12535700  1
  V  V34  1  0.83544700  0.59567600  0.62474200  1
  V  V35  1  0.96044050  0.77931150  0.74971900  1
  V  V36  1  0.08530850  0.59546350  0.87464300  1
  V  V37  1  0.66522950  0.59526850  0.87451600  1
  V  V38  1  0.21060050  0.77760950  0.99964600  1
  V  V39  1  0.03955950  0.77931150  0.25028100  1
  V  V40  1  0.33477050  0.59526850  0.12548400  1
  V  V41  1  0.16455300  0.59567600  0.37525800  1
  V  V42  1  0.21045800  0.27933600  0.49974400  1
  V  V43  1  0.78954200  0.27933600  0.50025600  1
  V  V44  1  0.91452350  0.09567250  0.62524500  1
  V  V45  1  0.03949250  0.27940850  0.75017400  1
  V  V46  1  0.96050750  0.27940850  0.24982600  1
  V  V47  1  0.08547650  0.09567250  0.37475500  1
  V  V48  1  0.28939950  0.27760950  0.00035400  1
  V  V49  1  0.41469150  0.09546350  0.12535700  1
  V  V50  1  0.33544700  0.09567600  0.62474200  1
  V  V51  1  0.46044050  0.27931150  0.74971900  1
  V  V52  1  0.58530850  0.09546350  0.87464300  1
  V  V53  1  0.16522950  0.09526850  0.87451600  1
  V  V54  1  0.71060050  0.27760950  0.99964600  1
  V  V55  1  0.53955950  0.27931150  0.25028100  1
  V  V56  1  0.83477050  0.09526850  0.12548400  1
  V  V57  1  0.66455300  0.09567600  0.37525800  1
  V  V58  1  0.71045800  0.77933600  0.49974400  1
  V  V59  1  0.28954200  0.77933600  0.50025600  1
  V  V60  1  0.41452350  0.59567250  0.62524500  1
  V  V61  1  0.53949250  0.77940850  0.75017400  1
  V  V62  1  0.46050750  0.77940850  0.24982600  1
  V  V63  1  0.58547650  0.59567250  0.37475500  1
  O  O64  1  0.78252950  0.68790950  0.92791900  1
  O  O65  1  0.71694600  0.68892200  0.57204300  1
  O  O66  1  0.90889150  0.68603250  0.05311100  1
  O  O67  1  0.84193850  0.68608450  0.69703300  1
  O  O68  1  0.96676800  0.42853800  0.11266400  1
  O  O69  1  0.03315300  0.68887400  0.17797700  1
  O  O70  1  0.85749500  0.78284900  0.47495200  1
  O  O71  1  0.96684700  0.68887400  0.82202300  1
  O  O72  1  0.03323200  0.42853800  0.88733600  1
  O  O73  1  0.96675000  0.92873000  0.61265300  1
  O  O74  1  0.98249100  0.59214100  0.59995500  1
  O  O75  1  0.89250850  0.78282050  0.27505400  1
  O  O76  1  0.09110850  0.68603250  0.94688900  1
  O  O77  1  0.14448100  0.28700100  0.02638500  1
  O  O78  1  0.66266300  0.44437600  0.01350300  1
  O  O79  1  0.09172500  0.44634700  0.73763300  1
  O  O80  1  0.10749150  0.78282050  0.72494600  1
  O  O81  1  0.01750900  0.59214100  0.40004500  1
  O  O82  1  0.21747050  0.68790950  0.07208100  1
  O  O83  1  0.03325000  0.92873000  0.38734700  1
  O  O84  1  0.76748750  0.59217750  0.15000500  1
  O  O85  1  0.28292050  0.42820150  0.13764200  1
  O  O86  1  0.71707950  0.42820150  0.86235800  1
  O  O87  1  0.23251250  0.59217750  0.84999500  1
  O  O88  1  0.14250500  0.78284900  0.52504800  1
  O  O89  1  0.15824800  0.44628900  0.51234900  1
  O  O90  1  0.59179600  0.44622500  0.23768700  1
  O  O91  1  0.10747750  0.28283250  0.22496700  1
  O  O92  1  0.33733700  0.44437600  0.98649700  1
  O  O93  1  0.15806150  0.68608450  0.30296700  1
  O  O94  1  0.85551900  0.28700100  0.97361500  1
  O  O95  1  0.26751050  0.59219550  0.65004800  1
  O  O96  1  0.78324350  0.42872550  0.63735400  1
  O  O97  1  0.21675650  0.42872550  0.36264600  1
  O  O98  1  0.73248950  0.59219550  0.34995200  1
  O  O99  1  0.28305400  0.68892200  0.42795700  1
  O  O100  1  0.98317050  0.09171650  0.10241800  1
  O  O101  1  0.89252250  0.28283250  0.77503300  1
  O  O102  1  0.40820400  0.44622500  0.76231300  1
  O  O103  1  0.84175200  0.44628900  0.48765100  1
  O  O104  1  0.90804850  0.18607450  0.55294900  1
  O  O105  1  0.01682950  0.09171650  0.89758200  1
  O  O106  1  0.84135450  0.18636150  0.19739300  1
  O  O107  1  0.90827500  0.44634700  0.26236700  1
  O  O108  1  0.03304750  0.18893250  0.67792300  1
  O  O109  1  0.96695250  0.18893250  0.32207700  1
  O  O110  1  0.15864550  0.18636150  0.80260700  1
  O  O111  1  0.09195150  0.18607450  0.44705100  1
  O  O112  1  0.28252950  0.18790950  0.92791900  1
  O  O113  1  0.21694600  0.18892200  0.57204300  1
  O  O114  1  0.40889150  0.18603250  0.05311100  1
  O  O115  1  0.34193850  0.18608450  0.69703300  1
  O  O116  1  0.46676800  0.92853800  0.11266400  1
  O  O117  1  0.53315300  0.18887400  0.17797700  1
  O  O118  1  0.35749500  0.28284900  0.47495200  1
  O  O119  1  0.46684700  0.18887400  0.82202300  1
  O  O120  1  0.53323200  0.92853800  0.88733600  1
  O  O121  1  0.46675000  0.42873000  0.61265300  1
  O  O122  1  0.48249100  0.09214100  0.59995500  1
  O  O123  1  0.39250850  0.28282050  0.27505400  1
  O  O124  1  0.59110850  0.18603250  0.94688900  1
  O  O125  1  0.64448100  0.78700100  0.02638500  1
  O  O126  1  0.16266300  0.94437600  0.01350300  1
  O  O127  1  0.59172500  0.94634700  0.73763300  1
  O  O128  1  0.60749150  0.28282050  0.72494600  1
  O  O129  1  0.51750900  0.09214100  0.40004500  1
  O  O130  1  0.71747050  0.18790950  0.07208100  1
  O  O131  1  0.53325000  0.42873000  0.38734700  1
  O  O132  1  0.26748750  0.09217750  0.15000500  1
  O  O133  1  0.78292050  0.92820150  0.13764200  1
  O  O134  1  0.21707950  0.92820150  0.86235800  1
  O  O135  1  0.73251250  0.09217750  0.84999500  1
  O  O136  1  0.64250500  0.28284900  0.52504800  1
  O  O137  1  0.65824800  0.94628900  0.51234900  1
  O  O138  1  0.09179600  0.94622500  0.23768700  1
  O  O139  1  0.60747750  0.78283250  0.22496700  1
  O  O140  1  0.83733700  0.94437600  0.98649700  1
  O  O141  1  0.65806150  0.18608450  0.30296700  1
  O  O142  1  0.35551900  0.78700100  0.97361500  1
  O  O143  1  0.76751050  0.09219550  0.65004800  1
  O  O144  1  0.28324350  0.92872550  0.63735400  1
  O  O145  1  0.71675650  0.92872550  0.36264600  1
  O  O146  1  0.23248950  0.09219550  0.34995200  1
  O  O147  1  0.78305400  0.18892200  0.42795700  1
  O  O148  1  0.48317050  0.59171650  0.10241800  1
  O  O149  1  0.39252250  0.78283250  0.77503300  1
  O  O150  1  0.90820400  0.94622500  0.76231300  1
  O  O151  1  0.34175200  0.94628900  0.48765100  1
  O  O152  1  0.40804850  0.68607450  0.55294900  1
  O  O153  1  0.51682950  0.59171650  0.89758200  1
  O  O154  1  0.34135450  0.68636150  0.19739300  1
  O  O155  1  0.40827500  0.94634700  0.26236700  1
  O  O156  1  0.53304750  0.68893250  0.67792300  1
  O  O157  1  0.46695250  0.68893250  0.32207700  1
  O  O158  1  0.65864550  0.68636150  0.80260700  1
  O  O159  1  0.59195150  0.68607450  0.44705100  1
