# generated using pymatgen
data_Li3Mn3CoO8
_symmetry_space_group_name_H-M   'P 1'
_cell_length_a   5.86466206
_cell_length_b   5.86466206
_cell_length_c   14.68581852
_cell_angle_alpha   90.00000000
_cell_angle_beta   90.00000000
_cell_angle_gamma   120.00000000
_symmetry_Int_Tables_number   1
_chemical_formula_structural   Li3Mn3CoO8
_chemical_formula_sum   'Li9 Mn9 Co3 O24'
_cell_volume   437.43625226
_cell_formula_units_Z   3
loop_
 _symmetry_equiv_pos_site_id
 _symmetry_equiv_pos_as_xyz
  1  'x, y, z'
loop_
 _atom_site_type_symbol
 _atom_site_label
 _atom_site_symmetry_multiplicity
 _atom_site_fract_x
 _atom_site_fract_y
 _atom_site_fract_z
 _atom_site_occupancy
  Li  Li0  1  0.83333333  0.66666667  0.16666667  1
  Li  Li1  1  0.83333333  0.16666667  0.16666667  1
  Li  Li2  1  0.33333333  0.16666667  0.16666667  1
  Li  Li3  1  0.50000000  0.00000000  0.50000000  1
  Li  Li4  1  0.50000000  0.50000000  0.50000000  1
  Li  Li5  1  0.00000000  0.50000000  0.50000000  1
  Li  Li6  1  0.16666667  0.33333333  0.83333333  1
  Li  Li7  1  0.16666667  0.83333333  0.83333333  1
  Li  Li8  1  0.66666667  0.83333333  0.83333333  1
  Mn  Mn9  1  0.00000000  0.50000000  0.00000000  1
  Mn  Mn10  1  0.50000000  0.50000000  0.00000000  1
  Mn  Mn11  1  0.50000000  0.00000000  0.00000000  1
  Mn  Mn12  1  0.66666667  0.83333333  0.33333333  1
  Mn  Mn13  1  0.16666667  0.83333333  0.33333333  1
  Mn  Mn14  1  0.16666667  0.33333333  0.33333333  1
  Mn  Mn15  1  0.33333333  0.16666667  0.66666667  1
  Mn  Mn16  1  0.83333333  0.16666667  0.66666667  1
  Mn  Mn17  1  0.83333333  0.66666667  0.66666667  1
  Co  Co18  1  0.00000000  0.00000000  0.00000000  1
  Co  Co19  1  0.66666667  0.33333333  0.33333333  1
  Co  Co20  1  0.33333333  0.66666667  0.66666667  1
  O  O21  1  0.99353067  0.49676533  0.26434633  1
  O  O22  1  0.00000000  0.00000000  0.25041300  1
  O  O23  1  0.50323467  0.00646933  0.26434633  1
  O  O24  1  0.50323467  0.49676533  0.26434633  1
  O  O25  1  0.16343200  0.83656800  0.06898700  1
  O  O26  1  0.16343200  0.32686400  0.06898700  1
  O  O27  1  0.66666667  0.33333333  0.08292033  1
  O  O28  1  0.67313600  0.83656800  0.06898700  1
  O  O29  1  0.66019733  0.83009867  0.59767967  1
  O  O30  1  0.66666667  0.33333333  0.58374633  1
  O  O31  1  0.16990133  0.33980267  0.59767967  1
  O  O32  1  0.16990133  0.83009867  0.59767967  1
  O  O33  1  0.83009867  0.16990133  0.40232033  1
  O  O34  1  0.83009867  0.66019733  0.40232033  1
  O  O35  1  0.33333333  0.66666667  0.41625367  1
  O  O36  1  0.33980267  0.16990133  0.40232033  1
  O  O37  1  0.32686400  0.16343200  0.93101300  1
  O  O38  1  0.33333333  0.66666667  0.91707967  1
  O  O39  1  0.83656800  0.67313600  0.93101300  1
  O  O40  1  0.83656800  0.16343200  0.93101300  1
  O  O41  1  0.49676533  0.50323467  0.73565367  1
  O  O42  1  0.49676533  0.99353067  0.73565367  1
  O  O43  1  0.00000000  0.00000000  0.74958700  1
  O  O44  1  0.00646933  0.50323467  0.73565367  1
