# generated using pymatgen
data_VFe3(PO4)6
_symmetry_space_group_name_H-M   'P 1'
_cell_length_a   8.65463631
_cell_length_b   8.65463631
_cell_length_c   21.95978285
_cell_angle_alpha   90.00000000
_cell_angle_beta   90.00000000
_cell_angle_gamma   120.00000000
_symmetry_Int_Tables_number   1
_chemical_formula_structural   VFe3(PO4)6
_chemical_formula_sum   'V3 Fe9 P18 O72'
_cell_volume   1424.47987590
_cell_formula_units_Z   3
loop_
 _symmetry_equiv_pos_site_id
 _symmetry_equiv_pos_as_xyz
  1  'x, y, z'
loop_
 _atom_site_type_symbol
 _atom_site_label
 _atom_site_symmetry_multiplicity
 _atom_site_fract_x
 _atom_site_fract_y
 _atom_site_fract_z
 _atom_site_occupancy
  V  V0  1  0.00000000  0.00000000  0.14096700  1
  V  V1  1  0.66666667  0.33333333  0.47430033  1
  V  V2  1  0.33333333  0.66666667  0.80763367  1
  Fe  Fe3  1  0.66666667  0.33333333  0.18987033  1
  Fe  Fe4  1  0.33333333  0.66666667  0.30875767  1
  Fe  Fe5  1  0.33333333  0.66666667  0.02450167  1
  Fe  Fe6  1  0.33333333  0.66666667  0.52320367  1
  Fe  Fe7  1  0.00000000  0.00000000  0.64209100  1
  Fe  Fe8  1  0.00000000  0.00000000  0.35783500  1
  Fe  Fe9  1  0.00000000  0.00000000  0.85653700  1
  Fe  Fe10  1  0.66666667  0.33333333  0.97542433  1
  Fe  Fe11  1  0.66666667  0.33333333  0.69116833  1
  P  P12  1  0.00033300  0.28299800  0.24946100  1
  P  P13  1  0.71700200  0.71733500  0.24946100  1
  P  P14  1  0.28266500  0.99966700  0.24946100  1
  P  P15  1  0.38165167  0.33275433  0.08338933  1
  P  P16  1  0.95110267  0.61834833  0.08338933  1
  P  P17  1  0.66724567  0.04889733  0.08338933  1
  P  P18  1  0.66699967  0.61633133  0.58279433  1
  P  P19  1  0.38366867  0.05066833  0.58279433  1
  P  P20  1  0.94933167  0.33300033  0.58279433  1
  P  P21  1  0.04831833  0.66608767  0.41672267  1
  P  P22  1  0.61776933  0.95168167  0.41672267  1
  P  P23  1  0.33391233  0.38223067  0.41672267  1
  P  P24  1  0.33366633  0.94966467  0.91612767  1
  P  P25  1  0.05033533  0.38400167  0.91612767  1
  P  P26  1  0.61599833  0.66633367  0.91612767  1
  P  P27  1  0.71498500  0.99942100  0.75005600  1
  P  P28  1  0.28443600  0.28501500  0.75005600  1
  P  P29  1  0.00057900  0.71556400  0.75005600  1
  O  O30  1  0.70694467  0.16471933  0.02655233  1
  O  O31  1  0.45777467  0.29305533  0.02655233  1
  O  O32  1  0.83526400  0.30372600  0.24339100  1
  O  O33  1  0.83528067  0.54222533  0.02655233  1
  O  O34  1  0.17036767  0.46413133  0.25407233  1
  O  O35  1  0.02084100  0.18707900  0.19253200  1
  O  O36  1  0.69627400  0.53153800  0.24339100  1
  O  O37  1  0.53586867  0.70623633  0.25407233  1
  O  O38  1  0.29376367  0.82963233  0.25407233  1
  O  O39  1  0.49552100  0.36590100  0.14036000  1
  O  O40  1  0.19100233  0.16499767  0.09398867  1
  O  O41  1  0.87038000  0.50447900  0.14036000  1
  O  O42  1  0.81292100  0.83376200  0.19253200  1
  O  O43  1  0.46846200  0.16473600  0.24339100  1
  O  O44  1  0.16623800  0.97915900  0.19253200  1
  O  O45  1  0.35958933  0.49588667  0.07692667  1
  O  O46  1  0.13629733  0.64041067  0.07692667  1
  O  O47  1  0.97399533  0.80899767  0.09398867  1
  O  O48  1  0.63409900  0.12962000  0.14036000  1
  O  O49  1  0.50411333  0.86370267  0.07692667  1
  O  O50  1  0.83079067  0.79696833  0.30684933  1
  O  O51  1  0.83500233  0.02600467  0.09398867  1
  O  O52  1  0.20303167  0.03382233  0.30684933  1
  O  O53  1  0.96617767  0.16920933  0.30684933  1
  O  O54  1  0.37361133  0.49805267  0.35988567  1
  O  O55  1  0.12444133  0.62638867  0.35988567  1
  O  O56  1  0.50193067  0.63705933  0.57672433  1
  O  O57  1  0.50194733  0.87555867  0.35988567  1
  O  O58  1  0.83703433  0.79746467  0.58740567  1
  O  O59  1  0.68750767  0.52041233  0.52586533  1
  O  O60  1  0.36294067  0.86487133  0.57672433  1
  O  O61  1  0.20253533  0.03956967  0.58740567  1
  O  O62  1  0.96043033  0.16296567  0.58740567  1
  O  O63  1  0.16218767  0.69923433  0.47369333  1
  O  O64  1  0.85766900  0.49833100  0.42732200  1
  O  O65  1  0.53704667  0.83781233  0.47369333  1
  O  O66  1  0.47958767  0.16709533  0.52586533  1
  O  O67  1  0.13512867  0.49806933  0.57672433  1
  O  O68  1  0.83290467  0.31249233  0.52586533  1
  O  O69  1  0.02625600  0.82922000  0.41026000  1
  O  O70  1  0.80296400  0.97374400  0.41026000  1
  O  O71  1  0.64066200  0.14233100  0.42732200  1
  O  O72  1  0.30076567  0.46295333  0.47369333  1
  O  O73  1  0.17078000  0.19703600  0.41026000  1
  O  O74  1  0.49745733  0.13030167  0.64018267  1
  O  O75  1  0.50166900  0.35933800  0.42732200  1
  O  O76  1  0.86969833  0.36715567  0.64018267  1
  O  O77  1  0.63284433  0.50254267  0.64018267  1
  O  O78  1  0.04027800  0.83138600  0.69321900  1
  O  O79  1  0.79110800  0.95972200  0.69321900  1
  O  O80  1  0.16859733  0.97039267  0.91005767  1
  O  O81  1  0.16861400  0.20889200  0.69321900  1
  O  O82  1  0.50370100  0.13079800  0.92073900  1
  O  O83  1  0.35417433  0.85374567  0.85919867  1
  O  O84  1  0.02960733  0.19820467  0.91005767  1
  O  O85  1  0.86920200  0.37290300  0.92073900  1
  O  O86  1  0.62709700  0.49629900  0.92073900  1
  O  O87  1  0.82885433  0.03256767  0.80702667  1
  O  O88  1  0.52433567  0.83166433  0.76065533  1
  O  O89  1  0.20371333  0.17114567  0.80702667  1
  O  O90  1  0.14625433  0.50042867  0.85919867  1
  O  O91  1  0.80179533  0.83140267  0.91005767  1
  O  O92  1  0.49957133  0.64582567  0.85919867  1
  O  O93  1  0.69292267  0.16255333  0.74359333  1
  O  O94  1  0.46963067  0.30707733  0.74359333  1
  O  O95  1  0.30732867  0.47566433  0.76065533  1
  O  O96  1  0.96743233  0.79628667  0.80702667  1
  O  O97  1  0.83744667  0.53036933  0.74359333  1
  O  O98  1  0.16412400  0.46363500  0.97351600  1
  O  O99  1  0.16833567  0.69267133  0.76065533  1
  O  O100  1  0.53636500  0.70048900  0.97351600  1
  O  O101  1  0.29951100  0.83587600  0.97351600  1
