# generated using pymatgen
data_LiMnPO4
_symmetry_space_group_name_H-M   'P 1'
_cell_length_a   5.12571400
_cell_length_b   9.10647600
_cell_length_c   8.16300623
_cell_angle_alpha   90.00000000
_cell_angle_beta   95.63666898
_cell_angle_gamma   90.00000000
_symmetry_Int_Tables_number   1
_chemical_formula_structural   LiMnPO4
_chemical_formula_sum   'Li4 Mn4 P4 O16'
_cell_volume   379.18384572
_cell_formula_units_Z   4
loop_
 _symmetry_equiv_pos_site_id
 _symmetry_equiv_pos_as_xyz
  1  'x, y, z'
loop_
 _atom_site_type_symbol
 _atom_site_label
 _atom_site_symmetry_multiplicity
 _atom_site_fract_x
 _atom_site_fract_y
 _atom_site_fract_z
 _atom_site_occupancy
  Li  Li0  1  0.40940400  0.58562100  0.98375300  1
  Li  Li1  1  0.90940400  0.91437900  0.48375300  1
  Li  Li2  1  0.90940400  0.08562100  0.98375300  1
  Li  Li3  1  0.40940400  0.41437900  0.48375300  1
  Mn  Mn4  1  0.45218500  0.80578100  0.28926800  1
  Mn  Mn5  1  0.95218500  0.69421900  0.78926800  1
  Mn  Mn6  1  0.95218500  0.30578100  0.28926800  1
  Mn  Mn7  1  0.45218500  0.19421900  0.78926800  1
  P  P8  1  0.47283950  0.84309650  0.70342200  1
  P  P9  1  0.97283950  0.65690350  0.20342200  1
  P  P10  1  0.97283950  0.34309650  0.70342200  1
  P  P11  1  0.47283950  0.15690350  0.20342200  1
  O  O12  1  0.17035000  0.85826700  0.67955900  1
  O  O13  1  0.59425150  0.80144350  0.54046400  1
  O  O14  1  0.55371000  0.71609400  0.82580500  1
  O  O15  1  0.60498950  0.98765550  0.76912800  1
  O  O16  1  0.67035000  0.64173300  0.17955900  1
  O  O17  1  0.09425150  0.69855650  0.04046400  1
  O  O18  1  0.05371000  0.78390600  0.32580500  1
  O  O19  1  0.10498950  0.51234450  0.26912800  1
  O  O20  1  0.67035000  0.35826700  0.67955900  1
  O  O21  1  0.09425150  0.30144350  0.54046400  1
  O  O22  1  0.05371000  0.21609400  0.82580500  1
  O  O23  1  0.10498950  0.48765550  0.76912800  1
  O  O24  1  0.17035000  0.14173300  0.17955900  1
  O  O25  1  0.59425150  0.19855650  0.04046400  1
  O  O26  1  0.55371000  0.28390600  0.32580500  1
  O  O27  1  0.60498950  0.01234450  0.26912800  1
