# generated using pymatgen
data_Cr3Co(PO4)6
_symmetry_space_group_name_H-M   'P 1'
_cell_length_a   8.51317674
_cell_length_b   8.51317674
_cell_length_c   21.64432800
_cell_angle_alpha   90.00000000
_cell_angle_beta   90.00000000
_cell_angle_gamma   120.00000000
_symmetry_Int_Tables_number   1
_chemical_formula_structural   Cr3Co(PO4)6
_chemical_formula_sum   'Cr9 Co3 P18 O72'
_cell_volume   1358.49497925
_cell_formula_units_Z   3
loop_
 _symmetry_equiv_pos_site_id
 _symmetry_equiv_pos_as_xyz
  1  'x, y, z'
loop_
 _atom_site_type_symbol
 _atom_site_label
 _atom_site_symmetry_multiplicity
 _atom_site_fract_x
 _atom_site_fract_y
 _atom_site_fract_z
 _atom_site_occupancy
  Cr  Cr0  1  0.00000000  0.00000000  0.35736767  1
  Cr  Cr1  1  0.66666667  0.33333333  0.47526033  1
  Cr  Cr2  1  0.00000000  0.00000000  0.64153367  1
  Cr  Cr3  1  0.66666667  0.33333333  0.69070100  1
  Cr  Cr4  1  0.33333333  0.66666667  0.80859367  1
  Cr  Cr5  1  0.66666667  0.33333333  0.97486700  1
  Cr  Cr6  1  0.33333333  0.66666667  0.02403433  1
  Cr  Cr7  1  0.00000000  0.00000000  0.14192700  1
  Cr  Cr8  1  0.33333333  0.66666667  0.30820033  1
  Co  Co9  1  0.33333333  0.66666667  0.52259867  1
  Co  Co10  1  0.00000000  0.00000000  0.85593200  1
  Co  Co11  1  0.66666667  0.33333333  0.18926533  1
  P  P12  1  0.61406333  0.94615867  0.41761667  1
  P  P13  1  0.05384133  0.66790467  0.41761667  1
  P  P14  1  0.33209533  0.38593667  0.41761667  1
  P  P15  1  0.66243967  0.61733333  0.58233833  1
  P  P16  1  0.95489367  0.33756033  0.58233833  1
  P  P17  1  0.38266667  0.04510633  0.58233833  1
  P  P18  1  0.28073000  0.27949200  0.75095000  1
  P  P19  1  0.72050800  0.00123800  0.75095000  1
  P  P20  1  0.99876200  0.71927000  0.75095000  1
  P  P21  1  0.32910633  0.95066667  0.91567167  1
  P  P22  1  0.62156033  0.67089367  0.91567167  1
  P  P23  1  0.04933333  0.37843967  0.91567167  1
  P  P24  1  0.94739667  0.61282533  0.08428333  1
  P  P25  1  0.38717467  0.33457133  0.08428333  1
  P  P26  1  0.66542867  0.05260333  0.08428333  1
  P  P27  1  0.99577300  0.28400000  0.24900500  1
  P  P28  1  0.28822700  0.00422700  0.24900500  1
  P  P29  1  0.71600000  0.71177300  0.24900500  1
  O  O30  1  0.13608967  0.63879333  0.35875433  1
  O  O31  1  0.36120667  0.49729633  0.35875433  1
  O  O32  1  0.50270367  0.86391033  0.35875433  1
  O  O33  1  0.63336467  0.13533533  0.42333433  1
  O  O34  1  0.80654933  0.97480067  0.41110967  1
  O  O35  1  0.53679933  0.83026067  0.47641167  1
  O  O36  1  0.86466467  0.49802933  0.42333433  1
  O  O37  1  0.02519933  0.83174867  0.41110967  1
  O  O38  1  0.16825133  0.19345067  0.41110967  1
  O  O39  1  0.69371600  0.53358600  0.52426400  1
  O  O40  1  0.48964767  0.63300533  0.57817433  1
  O  O41  1  0.83987000  0.30628400  0.52426400  1
  O  O42  1  0.16973933  0.70653867  0.47641167  1
  O  O43  1  0.50197067  0.36663533  0.42333433  1
  O  O44  1  0.29346133  0.46320067  0.47641167  1
  O  O45  1  0.82997633  0.80815767  0.58795167  1
  O  O46  1  0.97818133  0.17002367  0.58795167  1
  O  O47  1  0.14335767  0.51035233  0.57817433  1
  O  O48  1  0.46641400  0.16013000  0.52426400  1
  O  O49  1  0.19184233  0.02181867  0.58795167  1
  O  O50  1  0.36699467  0.85664233  0.57817433  1
  O  O51  1  0.49328167  0.13252433  0.64112133  1
  O  O52  1  0.63924267  0.50671833  0.64112133  1
  O  O53  1  0.86747567  0.36075733  0.64112133  1
  O  O54  1  0.80275633  0.97212667  0.69208767  1
  O  O55  1  0.02787333  0.83062967  0.69208767  1
  O  O56  1  0.16937033  0.19724367  0.69208767  1
  O  O57  1  0.30003133  0.46866867  0.75666767  1
  O  O58  1  0.47321600  0.30813400  0.74444300  1
  O  O59  1  0.20346600  0.16359400  0.80974500  1
  O  O60  1  0.53133133  0.83136267  0.75666767  1
  O  O61  1  0.69186600  0.16508200  0.74444300  1
  O  O62  1  0.83491800  0.52678400  0.74444300  1
  O  O63  1  0.36038267  0.86691933  0.85759733  1
  O  O64  1  0.15631433  0.96633867  0.91150767  1
  O  O65  1  0.50653667  0.63961733  0.85759733  1
  O  O66  1  0.83640600  0.03987200  0.80974500  1
  O  O67  1  0.16863733  0.69996867  0.75666767  1
  O  O68  1  0.96012800  0.79653400  0.80974500  1
  O  O69  1  0.49664300  0.14149100  0.92128500  1
  O  O70  1  0.64484800  0.50335700  0.92128500  1
  O  O71  1  0.81002433  0.84368567  0.91150767  1
  O  O72  1  0.13308067  0.49346333  0.85759733  1
  O  O73  1  0.85850900  0.35515200  0.92128500  1
  O  O74  1  0.03366133  0.18997567  0.91150767  1
  O  O75  1  0.15994833  0.46585767  0.97445467  1
  O  O76  1  0.30590933  0.84005167  0.97445467  1
  O  O77  1  0.53414233  0.69409067  0.97445467  1
  O  O78  1  0.46942300  0.30546000  0.02542100  1
  O  O79  1  0.69454000  0.16396300  0.02542100  1
  O  O80  1  0.83603700  0.53057700  0.02542100  1
  O  O81  1  0.96669800  0.80200200  0.09000100  1
  O  O82  1  0.13988267  0.64146733  0.07777633  1
  O  O83  1  0.87013267  0.49692733  0.14307833  1
  O  O84  1  0.19799800  0.16469600  0.09000100  1
  O  O85  1  0.35853267  0.49841533  0.07777633  1
  O  O86  1  0.50158467  0.86011733  0.07777633  1
  O  O87  1  0.02704933  0.20025267  0.19093067  1
  O  O88  1  0.82298100  0.29967200  0.24484100  1
  O  O89  1  0.17320333  0.97295067  0.19093067  1
  O  O90  1  0.50307267  0.37320533  0.14307833  1
  O  O91  1  0.83530400  0.03330200  0.09000100  1
  O  O92  1  0.62679467  0.12986733  0.14307833  1
  O  O93  1  0.16330967  0.47482433  0.25461833  1
  O  O94  1  0.31151467  0.83669033  0.25461833  1
  O  O95  1  0.47669100  0.17701900  0.24484100  1
  O  O96  1  0.79974733  0.82679667  0.19093067  1
  O  O97  1  0.52517567  0.68848533  0.25461833  1
  O  O98  1  0.70032800  0.52330900  0.24484100  1
  O  O99  1  0.82661500  0.79919100  0.30778800  1
  O  O100  1  0.97257600  0.17338500  0.30778800  1
  O  O101  1  0.20080900  0.02742400  0.30778800  1
