# generated using pymatgen
data_LiV2(PO3)5
_symmetry_space_group_name_H-M   'P 1'
_cell_length_a   5.36153200
_cell_length_b   8.89918600
_cell_length_c   13.62082107
_cell_angle_alpha   90.00000000
_cell_angle_beta   110.79060753
_cell_angle_gamma   90.00000000
_symmetry_Int_Tables_number   1
_chemical_formula_structural   LiV2(PO3)5
_chemical_formula_sum   'Li2 V4 P10 O30'
_cell_volume   607.57534740
_cell_formula_units_Z   2
loop_
 _symmetry_equiv_pos_site_id
 _symmetry_equiv_pos_as_xyz
  1  'x, y, z'
loop_
 _atom_site_type_symbol
 _atom_site_label
 _atom_site_symmetry_multiplicity
 _atom_site_fract_x
 _atom_site_fract_y
 _atom_site_fract_z
 _atom_site_occupancy
  Li  Li0  1  0.88759800  0.00627500  0.45664100  1
  Li  Li1  1  0.88759800  0.99372500  0.95664100  1
  V  V2  1  0.93262400  0.69517000  0.05787900  1
  V  V3  1  0.07314700  0.69541700  0.44548600  1
  V  V4  1  0.93262400  0.30483000  0.55787900  1
  V  V5  1  0.07314700  0.30458300  0.94548600  1
  P  P6  1  0.68004800  0.18472300  0.08659300  1
  P  P7  1  0.53891300  0.48859400  0.14347700  1
  P  P8  1  0.99696400  0.96243400  0.25069700  1
  P  P9  1  0.46281200  0.48706200  0.35763300  1
  P  P10  1  0.32491300  0.18028200  0.41381400  1
  P  P11  1  0.68004800  0.81527700  0.58659300  1
  P  P12  1  0.53891300  0.51140600  0.64347700  1
  P  P13  1  0.99696400  0.03756600  0.75069700  1
  P  P14  1  0.46281200  0.51293800  0.85763300  1
  P  P15  1  0.32491300  0.81971800  0.91381400  1
  O  O16  1  0.88190200  0.17247000  0.03339000  1
  O  O17  1  0.39243700  0.15718100  0.02303800  1
  O  O18  1  0.26155200  0.48475800  0.05937000  1
  O  O19  1  0.72294300  0.35019300  0.13678200  1
  O  O20  1  0.07786200  0.87367400  0.17416000  1
  O  O21  1  0.70358000  0.62647400  0.15247900  1
  O  O22  1  0.75989500  0.08000200  0.18954500  1
  O  O23  1  0.50132800  0.44690800  0.25056400  1
  O  O24  1  0.24449700  0.07590300  0.31119800  1
  O  O25  1  0.29156800  0.62238000  0.34785900  1
  O  O26  1  0.91132100  0.88859300  0.33355700  1
  O  O27  1  0.28495900  0.34585400  0.36497200  1
  O  O28  1  0.73957300  0.48429600  0.44197700  1
  O  O29  1  0.61680500  0.15118900  0.47393200  1
  O  O30  1  0.12815600  0.17049700  0.46935600  1
  O  O31  1  0.88190200  0.82753000  0.53339000  1
  O  O32  1  0.39243700  0.84281900  0.52303800  1
  O  O33  1  0.26155200  0.51524200  0.55937000  1
  O  O34  1  0.72294300  0.64980700  0.63678200  1
  O  O35  1  0.07786200  0.12632600  0.67416000  1
  O  O36  1  0.70358000  0.37352600  0.65247900  1
  O  O37  1  0.75989500  0.91999800  0.68954500  1
  O  O38  1  0.50132800  0.55309200  0.75056400  1
  O  O39  1  0.24449700  0.92409700  0.81119800  1
  O  O40  1  0.29156800  0.37762000  0.84785900  1
  O  O41  1  0.91132100  0.11140700  0.83355700  1
  O  O42  1  0.28495900  0.65414600  0.86497200  1
  O  O43  1  0.73957300  0.51570400  0.94197700  1
  O  O44  1  0.61680500  0.84881100  0.97393200  1
  O  O45  1  0.12815600  0.82950300  0.96935600  1
