# generated using pymatgen
data_CaGd2O4
_symmetry_space_group_name_H-M   'P 1'
_cell_length_a   3.37054400
_cell_length_b   11.24912000
_cell_length_c   11.06238300
_cell_angle_alpha   90.00000000
_cell_angle_beta   90.00000000
_cell_angle_gamma   90.00000000
_symmetry_Int_Tables_number   1
_chemical_formula_structural   CaGd2O4
_chemical_formula_sum   'Ca4 Gd8 O16'
_cell_volume   419.43748537
_cell_formula_units_Z   4
loop_
 _symmetry_equiv_pos_site_id
 _symmetry_equiv_pos_as_xyz
  1  'x, y, z'
loop_
 _atom_site_type_symbol
 _atom_site_label
 _atom_site_symmetry_multiplicity
 _atom_site_fract_x
 _atom_site_fract_y
 _atom_site_fract_z
 _atom_site_occupancy
  Ca  Ca0  1  0.00000000  0.11096500  0.75000000  1
  Ca  Ca1  1  0.50000000  0.38903500  0.25000000  1
  Ca  Ca2  1  0.50000000  0.61096500  0.75000000  1
  Ca  Ca3  1  0.00000000  0.88903500  0.25000000  1
  Gd  Gd4  1  0.00000000  0.36785300  0.92512000  1
  Gd  Gd5  1  0.00000000  0.36785300  0.57488000  1
  Gd  Gd6  1  0.50000000  0.13214700  0.07488000  1
  Gd  Gd7  1  0.50000000  0.13214700  0.42512000  1
  Gd  Gd8  1  0.50000000  0.86785300  0.92512000  1
  Gd  Gd9  1  0.50000000  0.86785300  0.57488000  1
  Gd  Gd10  1  0.00000000  0.63214700  0.07488000  1
  Gd  Gd11  1  0.00000000  0.63214700  0.42512000  1
  O  O12  1  0.00000000  0.00000000  0.50000000  1
  O  O13  1  0.00000000  0.00000000  0.00000000  1
  O  O14  1  0.00000000  0.26673800  0.11396800  1
  O  O15  1  0.00000000  0.47121700  0.75000000  1
  O  O16  1  0.50000000  0.02878300  0.25000000  1
  O  O17  1  0.50000000  0.23326200  0.88603200  1
  O  O18  1  0.00000000  0.26673800  0.38603200  1
  O  O19  1  0.50000000  0.23326200  0.61396800  1
  O  O20  1  0.50000000  0.50000000  0.50000000  1
  O  O21  1  0.50000000  0.50000000  0.00000000  1
  O  O22  1  0.50000000  0.76673800  0.11396800  1
  O  O23  1  0.50000000  0.97121700  0.75000000  1
  O  O24  1  0.00000000  0.52878300  0.25000000  1
  O  O25  1  0.00000000  0.73326200  0.88603200  1
  O  O26  1  0.50000000  0.76673800  0.38603200  1
  O  O27  1  0.00000000  0.73326200  0.61396800  1
