# generated using pymatgen
data_LiFeCuO4
_symmetry_space_group_name_H-M   'P 1'
_cell_length_a   5.54230992
_cell_length_b   5.64619500
_cell_length_c   9.71398327
_cell_angle_alpha   90.00000000
_cell_angle_beta   90.00000000
_cell_angle_gamma   90.00000000
_symmetry_Int_Tables_number   1
_chemical_formula_structural   LiFeCuO4
_chemical_formula_sum   'Li4 Fe4 Cu4 O16'
_cell_volume   303.97931514
_cell_formula_units_Z   4
loop_
 _symmetry_equiv_pos_site_id
 _symmetry_equiv_pos_as_xyz
  1  'x, y, z'
loop_
 _atom_site_type_symbol
 _atom_site_label
 _atom_site_symmetry_multiplicity
 _atom_site_fract_x
 _atom_site_fract_y
 _atom_site_fract_z
 _atom_site_occupancy
  Li  Li0  1  0.00000000  0.75000000  0.14526050  1
  Li  Li1  1  0.50000000  0.75000000  0.35473950  1
  Li  Li2  1  0.50000000  0.25000000  0.64526050  1
  Li  Li3  1  0.00000000  0.25000000  0.85473950  1
  Fe  Fe4  1  0.00000000  0.50000000  0.50000000  1
  Fe  Fe5  1  0.00000000  0.00000000  0.50000000  1
  Fe  Fe6  1  0.50000000  0.00000000  0.00000000  1
  Fe  Fe7  1  0.50000000  0.50000000  0.00000000  1
  Cu  Cu8  1  0.75000000  0.25000000  0.25000000  1
  Cu  Cu9  1  0.25000000  0.25000000  0.25000000  1
  Cu  Cu10  1  0.25000000  0.75000000  0.75000000  1
  Cu  Cu11  1  0.75000000  0.75000000  0.75000000  1
  O  O12  1  0.00000000  0.46807400  0.27618550  1
  O  O13  1  0.27456800  0.75000000  0.01216750  1
  O  O14  1  0.72543200  0.75000000  0.01216750  1
  O  O15  1  0.00000000  0.03192600  0.27618550  1
  O  O16  1  0.50000000  0.46807400  0.22381450  1
  O  O17  1  0.22543200  0.75000000  0.48783250  1
  O  O18  1  0.77456800  0.75000000  0.48783250  1
  O  O19  1  0.50000000  0.03192600  0.22381450  1
  O  O20  1  0.50000000  0.96807400  0.77618550  1
  O  O21  1  0.77456800  0.25000000  0.51216750  1
  O  O22  1  0.22543200  0.25000000  0.51216750  1
  O  O23  1  0.50000000  0.53192600  0.77618550  1
  O  O24  1  0.00000000  0.96807400  0.72381450  1
  O  O25  1  0.72543200  0.25000000  0.98783250  1
  O  O26  1  0.27456800  0.25000000  0.98783250  1
  O  O27  1  0.00000000  0.53192600  0.72381450  1
