# generated using pymatgen
data_U4BiO10
_symmetry_space_group_name_H-M   'P 1'
_cell_length_a   8.60714400
_cell_length_b   8.60714400
_cell_length_c   5.44229200
_cell_angle_alpha   90.00000000
_cell_angle_beta   90.00000000
_cell_angle_gamma   90.00000000
_symmetry_Int_Tables_number   1
_chemical_formula_structural   U4BiO10
_chemical_formula_sum   'U8 Bi2 O20'
_cell_volume   403.18092550
_cell_formula_units_Z   2
loop_
 _symmetry_equiv_pos_site_id
 _symmetry_equiv_pos_as_xyz
  1  'x, y, z'
loop_
 _atom_site_type_symbol
 _atom_site_label
 _atom_site_symmetry_multiplicity
 _atom_site_fract_x
 _atom_site_fract_y
 _atom_site_fract_z
 _atom_site_occupancy
  U  U0  1  0.39938600  0.19910800  0.00000000  1
  U  U1  1  0.60061400  0.80089200  0.00000000  1
  U  U2  1  0.69910800  0.10061400  0.50000000  1
  U  U3  1  0.30089200  0.89938600  0.50000000  1
  U  U4  1  0.89938600  0.69910800  0.50000000  1
  U  U5  1  0.10061400  0.30089200  0.50000000  1
  U  U6  1  0.19910800  0.60061400  0.00000000  1
  U  U7  1  0.80089200  0.39938600  0.00000000  1
  Bi  Bi8  1  0.00000000  0.00000000  0.00000000  1
  Bi  Bi9  1  0.50000000  0.50000000  0.50000000  1
  O  O10  1  0.79246050  0.89850550  0.25684750  1
  O  O11  1  0.79246050  0.89850550  0.74315250  1
  O  O12  1  0.20753950  0.10149450  0.25684750  1
  O  O13  1  0.50000000  0.00000000  0.75000000  1
  O  O14  1  0.50000000  0.00000000  0.25000000  1
  O  O15  1  0.60149450  0.29246050  0.24315250  1
  O  O16  1  0.60149450  0.29246050  0.75684750  1
  O  O17  1  0.20753950  0.10149450  0.74315250  1
  O  O18  1  0.39850550  0.70753950  0.24315250  1
  O  O19  1  0.39850550  0.70753950  0.75684750  1
  O  O20  1  0.29246050  0.39850550  0.75684750  1
  O  O21  1  0.29246050  0.39850550  0.24315250  1
  O  O22  1  0.70753950  0.60149450  0.75684750  1
  O  O23  1  0.00000000  0.50000000  0.25000000  1
  O  O24  1  0.00000000  0.50000000  0.75000000  1
  O  O25  1  0.10149450  0.79246050  0.74315250  1
  O  O26  1  0.10149450  0.79246050  0.25684750  1
  O  O27  1  0.70753950  0.60149450  0.24315250  1
  O  O28  1  0.89850550  0.20753950  0.74315250  1
  O  O29  1  0.89850550  0.20753950  0.25684750  1
