# generated using pymatgen
data_Mn5Fe3O16
_symmetry_space_group_name_H-M   'P 1'
_cell_length_a   10.16522345
_cell_length_b   5.84415172
_cell_length_c   8.89959068
_cell_angle_alpha   90.00000000
_cell_angle_beta   90.61864693
_cell_angle_gamma   90.00000000
_symmetry_Int_Tables_number   1
_chemical_formula_structural   Mn5Fe3O16
_chemical_formula_sum   'Mn10 Fe6 O32'
_cell_volume   528.66812700
_cell_formula_units_Z   2
loop_
 _symmetry_equiv_pos_site_id
 _symmetry_equiv_pos_as_xyz
  1  'x, y, z'
loop_
 _atom_site_type_symbol
 _atom_site_label
 _atom_site_symmetry_multiplicity
 _atom_site_fract_x
 _atom_site_fract_y
 _atom_site_fract_z
 _atom_site_occupancy
  Mn  Mn0  1  0.66773900  0.00000000  0.51274100  1
  Mn  Mn1  1  0.83019800  0.00000000  0.78860500  1
  Mn  Mn2  1  0.83258150  0.50000000  0.01321400  1
  Mn  Mn3  1  0.91595450  0.74874450  0.28939600  1
  Mn  Mn4  1  0.91595450  0.25125550  0.28939600  1
  Mn  Mn5  1  0.16773900  0.50000000  0.51274100  1
  Mn  Mn6  1  0.33019800  0.50000000  0.78860500  1
  Mn  Mn7  1  0.33258150  0.00000000  0.01321400  1
  Mn  Mn8  1  0.41595450  0.24874450  0.28939600  1
  Mn  Mn9  1  0.41595450  0.75125550  0.28939600  1
  Fe  Fe10  1  0.58149200  0.25039300  0.79222600  1
  Fe  Fe11  1  0.58149200  0.74960700  0.79222600  1
  Fe  Fe12  1  0.66502800  0.50000000  0.29295100  1
  Fe  Fe13  1  0.08149200  0.75039300  0.79222600  1
  Fe  Fe14  1  0.08149200  0.24960700  0.79222600  1
  Fe  Fe15  1  0.16502800  0.00000000  0.29295100  1
  O  O16  1  0.58249450  0.24820050  0.39966600  1
  O  O17  1  0.52279850  0.00000000  0.65244400  1
  O  O18  1  0.67030050  0.00000000  0.90136100  1
  O  O19  1  0.99536200  0.00000000  0.68453100  1
  O  O20  1  0.99641150  0.00000000  0.18367900  1
  O  O21  1  0.58249450  0.75179950  0.39966600  1
  O  O22  1  0.74215500  0.21429000  0.65641800  1
  O  O23  1  0.74215500  0.78571000  0.65641800  1
  O  O24  1  0.67035700  0.50000000  0.89877600  1
  O  O25  1  0.83511350  0.00000000  0.39944800  1
  O  O26  1  0.76234450  0.71920450  0.15876400  1
  O  O27  1  0.76234450  0.28079550  0.15876400  1
  O  O28  1  0.83716850  0.50000000  0.39939200  1
  O  O29  1  0.91332550  0.74952150  0.90149700  1
  O  O30  1  0.97844200  0.50000000  0.16141900  1
  O  O31  1  0.91332550  0.25047850  0.90149700  1
  O  O32  1  0.08249450  0.74820050  0.39966600  1
  O  O33  1  0.02279850  0.50000000  0.65244400  1
  O  O34  1  0.17030050  0.50000000  0.90136100  1
  O  O35  1  0.49536200  0.50000000  0.68453100  1
  O  O36  1  0.49641150  0.50000000  0.18367900  1
  O  O37  1  0.08249450  0.25179950  0.39966600  1
  O  O38  1  0.24215500  0.71429000  0.65641800  1
  O  O39  1  0.24215500  0.28571000  0.65641800  1
  O  O40  1  0.17035700  0.00000000  0.89877600  1
  O  O41  1  0.33511350  0.50000000  0.39944800  1
  O  O42  1  0.26234450  0.21920450  0.15876400  1
  O  O43  1  0.26234450  0.78079550  0.15876400  1
  O  O44  1  0.33716850  0.00000000  0.39939200  1
  O  O45  1  0.41332550  0.24952150  0.90149700  1
  O  O46  1  0.47844200  0.00000000  0.16141900  1
  O  O47  1  0.41332550  0.75047850  0.90149700  1
