# generated using pymatgen
data_Li3Cu(NiO2)4
_symmetry_space_group_name_H-M   'P 1'
_cell_length_a   10.09411389
_cell_length_b   5.85057339
_cell_length_c   5.87755256
_cell_angle_alpha   90.00000000
_cell_angle_beta   125.39639963
_cell_angle_gamma   90.00000000
_symmetry_Int_Tables_number   1
_chemical_formula_structural   Li3Cu(NiO2)4
_chemical_formula_sum   'Li6 Cu2 Ni8 O16'
_cell_volume   282.94905597
_cell_formula_units_Z   2
loop_
 _symmetry_equiv_pos_site_id
 _symmetry_equiv_pos_as_xyz
  1  'x, y, z'
loop_
 _atom_site_type_symbol
 _atom_site_label
 _atom_site_symmetry_multiplicity
 _atom_site_fract_x
 _atom_site_fract_y
 _atom_site_fract_z
 _atom_site_occupancy
  Li  Li0  1  0.75000000  0.75000000  0.50000000  1
  Li  Li1  1  0.00000000  0.00000000  0.50000000  1
  Li  Li2  1  0.75000000  0.25000000  0.50000000  1
  Li  Li3  1  0.25000000  0.25000000  0.50000000  1
  Li  Li4  1  0.50000000  0.50000000  0.50000000  1
  Li  Li5  1  0.25000000  0.75000000  0.50000000  1
  Cu  Cu6  1  0.00000000  0.50000000  0.00000000  1
  Cu  Cu7  1  0.50000000  0.00000000  0.00000000  1
  Ni  Ni8  1  0.50000000  0.00000000  0.50000000  1
  Ni  Ni9  1  0.00000000  0.00000000  0.00000000  1
  Ni  Ni10  1  0.25000000  0.25000000  0.00000000  1
  Ni  Ni11  1  0.75000000  0.25000000  0.00000000  1
  Ni  Ni12  1  0.00000000  0.50000000  0.50000000  1
  Ni  Ni13  1  0.50000000  0.50000000  0.00000000  1
  Ni  Ni14  1  0.75000000  0.75000000  0.00000000  1
  Ni  Ni15  1  0.25000000  0.75000000  0.00000000  1
  O  O16  1  0.75430050  0.50000000  0.78742600  1
  O  O17  1  0.01388850  0.74302850  0.77146100  1
  O  O18  1  0.01388850  0.25697150  0.77146100  1
  O  O19  1  0.74953600  0.00000000  0.74491000  1
  O  O20  1  0.75046400  0.50000000  0.25509000  1
  O  O21  1  0.48611150  0.24302850  0.22853900  1
  O  O22  1  0.48611150  0.75697150  0.22853900  1
  O  O23  1  0.74569950  0.00000000  0.21257400  1
  O  O24  1  0.25430050  0.00000000  0.78742600  1
  O  O25  1  0.51388850  0.24302850  0.77146100  1
  O  O26  1  0.51388850  0.75697150  0.77146100  1
  O  O27  1  0.24953600  0.50000000  0.74491000  1
  O  O28  1  0.25046400  0.00000000  0.25509000  1
  O  O29  1  0.98611150  0.74302850  0.22853900  1
  O  O30  1  0.98611150  0.25697150  0.22853900  1
  O  O31  1  0.24569950  0.50000000  0.21257400  1
