# generated using pymatgen
data_Mn3(Ni17O20)2
_symmetry_space_group_name_H-M   'P 1'
_cell_length_a   5.96249833
_cell_length_b   5.96249833
_cell_length_c   42.12019600
_cell_angle_alpha   90.00000000
_cell_angle_beta   90.00000000
_cell_angle_gamma   90.00000000
_symmetry_Int_Tables_number   1
_chemical_formula_structural   Mn3(Ni17O20)2
_chemical_formula_sum   'Mn6 Ni68 O80'
_cell_volume   1497.43135912
_cell_formula_units_Z   2
loop_
 _symmetry_equiv_pos_site_id
 _symmetry_equiv_pos_as_xyz
  1  'x, y, z'
loop_
 _atom_site_type_symbol
 _atom_site_label
 _atom_site_symmetry_multiplicity
 _atom_site_fract_x
 _atom_site_fract_y
 _atom_site_fract_z
 _atom_site_occupancy
  Mn  Mn0  1  0.00000000  0.00000000  0.39966500  1
  Mn  Mn1  1  0.50000000  0.50000000  0.50000000  1
  Mn  Mn2  1  0.00000000  0.00000000  0.60033500  1
  Mn  Mn3  1  0.50000000  0.50000000  0.89966500  1
  Mn  Mn4  1  0.00000000  0.00000000  0.00000000  1
  Mn  Mn5  1  0.50000000  0.50000000  0.10033500  1
  Ni  Ni6  1  0.00000000  0.50000000  0.30017750  1
  Ni  Ni7  1  0.00000000  0.00000000  0.79932450  1
  Ni  Ni8  1  0.50000000  0.00000000  0.30017750  1
  Ni  Ni9  1  0.50000000  0.50000000  0.79993600  1
  Ni  Ni10  1  0.25664950  0.25664950  0.35053350  1
  Ni  Ni11  1  0.74335050  0.25664950  0.35053350  1
  Ni  Ni12  1  0.25664950  0.74335050  0.35053350  1
  Ni  Ni13  1  0.74335050  0.74335050  0.35053350  1
  Ni  Ni14  1  0.50000000  0.00000000  0.40020750  1
  Ni  Ni15  1  0.00000000  0.50000000  0.40020750  1
  Ni  Ni16  1  0.74980200  0.74980200  0.44996700  1
  Ni  Ni17  1  0.25019800  0.74980200  0.44996700  1
  Ni  Ni18  1  0.25019800  0.25019800  0.44996700  1
  Ni  Ni19  1  0.74980200  0.25019800  0.44996700  1
  Ni  Ni20  1  0.00000000  0.50000000  0.50000000  1
  Ni  Ni21  1  0.50000000  0.00000000  0.50000000  1
  Ni  Ni22  1  0.74980200  0.74980200  0.55003300  1
  Ni  Ni23  1  0.25019800  0.25019800  0.55003300  1
  Ni  Ni24  1  0.25019800  0.74980200  0.55003300  1
  Ni  Ni25  1  0.74980200  0.25019800  0.55003300  1
  Ni  Ni26  1  0.50000000  0.00000000  0.59979250  1
  Ni  Ni27  1  0.00000000  0.50000000  0.59979250  1
  Ni  Ni28  1  0.74335050  0.25664950  0.64946650  1
  Ni  Ni29  1  0.74335050  0.74335050  0.64946650  1
  Ni  Ni30  1  0.25664950  0.25664950  0.64946650  1
  Ni  Ni31  1  0.25664950  0.74335050  0.64946650  1
  Ni  Ni32  1  0.50000000  0.00000000  0.69982250  1
  Ni  Ni33  1  0.00000000  0.00000000  0.70006400  1
  Ni  Ni34  1  0.50000000  0.50000000  0.70067550  1
  Ni  Ni35  1  0.00000000  0.50000000  0.69982250  1
  Ni  Ni36  1  0.75000000  0.25000000  0.75000000  1
  Ni  Ni37  1  0.75000000  0.75000000  0.75000000  1
  Ni  Ni38  1  0.25000000  0.25000000  0.75000000  1
  Ni  Ni39  1  0.25000000  0.75000000  0.75000000  1
  Ni  Ni40  1  0.50000000  0.00000000  0.80017750  1
  Ni  Ni41  1  0.50000000  0.50000000  0.29932450  1
  Ni  Ni42  1  0.00000000  0.50000000  0.80017750  1
  Ni  Ni43  1  0.00000000  0.00000000  0.29993600  1
  Ni  Ni44  1  0.75664950  0.75664950  0.85053350  1
  Ni  Ni45  1  0.24335050  0.75664950  0.85053350  1
  Ni  Ni46  1  0.75664950  0.24335050  0.85053350  1
  Ni  Ni47  1  0.24335050  0.24335050  0.85053350  1
  Ni  Ni48  1  0.00000000  0.50000000  0.90020750  1
  Ni  Ni49  1  0.50000000  0.00000000  0.90020750  1
  Ni  Ni50  1  0.24980200  0.24980200  0.94996700  1
  Ni  Ni51  1  0.75019800  0.24980200  0.94996700  1
  Ni  Ni52  1  0.75019800  0.75019800  0.94996700  1
  Ni  Ni53  1  0.24980200  0.75019800  0.94996700  1
  Ni  Ni54  1  0.50000000  0.00000000  0.00000000  1
  Ni  Ni55  1  0.00000000  0.50000000  0.00000000  1
  Ni  Ni56  1  0.24980200  0.24980200  0.05003300  1
  Ni  Ni57  1  0.75019800  0.75019800  0.05003300  1
  Ni  Ni58  1  0.75019800  0.24980200  0.05003300  1
  Ni  Ni59  1  0.24980200  0.75019800  0.05003300  1
  Ni  Ni60  1  0.00000000  0.50000000  0.09979250  1
  Ni  Ni61  1  0.50000000  0.00000000  0.09979250  1
  Ni  Ni62  1  0.24335050  0.75664950  0.14946650  1
  Ni  Ni63  1  0.24335050  0.24335050  0.14946650  1
  Ni  Ni64  1  0.75664950  0.75664950  0.14946650  1
  Ni  Ni65  1  0.75664950  0.24335050  0.14946650  1
  Ni  Ni66  1  0.00000000  0.50000000  0.19982250  1
  Ni  Ni67  1  0.50000000  0.50000000  0.20006400  1
  Ni  Ni68  1  0.00000000  0.00000000  0.20067550  1
  Ni  Ni69  1  0.50000000  0.00000000  0.19982250  1
  Ni  Ni70  1  0.25000000  0.75000000  0.25000000  1
  Ni  Ni71  1  0.25000000  0.25000000  0.25000000  1
  Ni  Ni72  1  0.75000000  0.75000000  0.25000000  1
  Ni  Ni73  1  0.75000000  0.25000000  0.25000000  1
  O  O74  1  0.24742350  0.75257650  0.30013200  1
  O  O75  1  0.75257650  0.75257650  0.30013200  1
  O  O76  1  0.75257650  0.24742350  0.30013200  1
  O  O77  1  0.24742350  0.24742350  0.30013200  1
  O  O78  1  0.50000000  0.50000000  0.34684200  1
  O  O79  1  0.00000000  0.50000000  0.35044950  1
  O  O80  1  0.50000000  0.00000000  0.35044950  1
  O  O81  1  0.00000000  0.00000000  0.35262000  1
  O  O82  1  0.77066900  0.22933100  0.40028450  1
  O  O83  1  0.22933100  0.22933100  0.40028450  1
  O  O84  1  0.22933100  0.77066900  0.40028450  1
  O  O85  1  0.77066900  0.77066900  0.40028450  1
  O  O86  1  0.00000000  0.00000000  0.44520350  1
  O  O87  1  0.50000000  0.00000000  0.45020550  1
  O  O88  1  0.00000000  0.50000000  0.45020550  1
  O  O89  1  0.50000000  0.50000000  0.45416100  1
  O  O90  1  0.27045100  0.72954900  0.50000000  1
  O  O91  1  0.72954900  0.72954900  0.50000000  1
  O  O92  1  0.72954900  0.27045100  0.50000000  1
  O  O93  1  0.27045100  0.27045100  0.50000000  1
  O  O94  1  0.50000000  0.50000000  0.54583900  1
  O  O95  1  0.00000000  0.50000000  0.54979450  1
  O  O96  1  0.50000000  0.00000000  0.54979450  1
  O  O97  1  0.00000000  0.00000000  0.55479650  1
  O  O98  1  0.77066900  0.22933100  0.59971550  1
  O  O99  1  0.22933100  0.22933100  0.59971550  1
  O  O100  1  0.77066900  0.77066900  0.59971550  1
  O  O101  1  0.22933100  0.77066900  0.59971550  1
  O  O102  1  0.00000000  0.00000000  0.64738000  1
  O  O103  1  0.50000000  0.00000000  0.64955050  1
  O  O104  1  0.00000000  0.50000000  0.64955050  1
  O  O105  1  0.50000000  0.50000000  0.65315800  1
  O  O106  1  0.24742350  0.75257650  0.69986800  1
  O  O107  1  0.75257650  0.24742350  0.69986800  1
  O  O108  1  0.24742350  0.24742350  0.69986800  1
  O  O109  1  0.75257650  0.75257650  0.69986800  1
  O  O110  1  0.50000000  0.50000000  0.75008100  1
  O  O111  1  0.00000000  0.50000000  0.75000000  1
  O  O112  1  0.50000000  0.00000000  0.75000000  1
  O  O113  1  0.00000000  0.00000000  0.74991900  1
  O  O114  1  0.74742350  0.25257650  0.80013200  1
  O  O115  1  0.25257650  0.25257650  0.80013200  1
  O  O116  1  0.25257650  0.74742350  0.80013200  1
  O  O117  1  0.74742350  0.74742350  0.80013200  1
  O  O118  1  0.00000000  0.00000000  0.84684200  1
  O  O119  1  0.50000000  0.00000000  0.85044950  1
  O  O120  1  0.00000000  0.50000000  0.85044950  1
  O  O121  1  0.50000000  0.50000000  0.85262000  1
  O  O122  1  0.27066900  0.72933100  0.90028450  1
  O  O123  1  0.72933100  0.72933100  0.90028450  1
  O  O124  1  0.72933100  0.27066900  0.90028450  1
  O  O125  1  0.27066900  0.27066900  0.90028450  1
  O  O126  1  0.50000000  0.50000000  0.94520350  1
  O  O127  1  0.00000000  0.50000000  0.95020550  1
  O  O128  1  0.50000000  0.00000000  0.95020550  1
  O  O129  1  0.00000000  0.00000000  0.95416100  1
  O  O130  1  0.77045100  0.22954900  0.00000000  1
  O  O131  1  0.22954900  0.22954900  0.00000000  1
  O  O132  1  0.22954900  0.77045100  0.00000000  1
  O  O133  1  0.77045100  0.77045100  0.00000000  1
  O  O134  1  0.00000000  0.00000000  0.04583900  1
  O  O135  1  0.50000000  0.00000000  0.04979450  1
  O  O136  1  0.00000000  0.50000000  0.04979450  1
  O  O137  1  0.50000000  0.50000000  0.05479650  1
  O  O138  1  0.27066900  0.72933100  0.09971550  1
  O  O139  1  0.72933100  0.72933100  0.09971550  1
  O  O140  1  0.27066900  0.27066900  0.09971550  1
  O  O141  1  0.72933100  0.27066900  0.09971550  1
  O  O142  1  0.50000000  0.50000000  0.14738000  1
  O  O143  1  0.00000000  0.50000000  0.14955050  1
  O  O144  1  0.50000000  0.00000000  0.14955050  1
  O  O145  1  0.00000000  0.00000000  0.15315800  1
  O  O146  1  0.74742350  0.25257650  0.19986800  1
  O  O147  1  0.25257650  0.74742350  0.19986800  1
  O  O148  1  0.74742350  0.74742350  0.19986800  1
  O  O149  1  0.25257650  0.25257650  0.19986800  1
  O  O150  1  0.00000000  0.00000000  0.25008100  1
  O  O151  1  0.50000000  0.00000000  0.25000000  1
  O  O152  1  0.00000000  0.50000000  0.25000000  1
  O  O153  1  0.50000000  0.50000000  0.24991900  1
