# generated using pymatgen
data_Co3OF5
_symmetry_space_group_name_H-M   'P 1'
_cell_length_a   6.52462135
_cell_length_b   6.81250715
_cell_length_c   9.48302900
_cell_angle_alpha   90.00000000
_cell_angle_beta   90.00000000
_cell_angle_gamma   90.00000000
_symmetry_Int_Tables_number   1
_chemical_formula_structural   Co3OF5
_chemical_formula_sum   'Co12 O4 F20'
_cell_volume   421.51143635
_cell_formula_units_Z   4
loop_
 _symmetry_equiv_pos_site_id
 _symmetry_equiv_pos_as_xyz
  1  'x, y, z'
loop_
 _atom_site_type_symbol
 _atom_site_label
 _atom_site_symmetry_multiplicity
 _atom_site_fract_x
 _atom_site_fract_y
 _atom_site_fract_z
 _atom_site_occupancy
  Co  Co0  1  0.50922900  0.50000000  0.82601700  1
  Co  Co1  1  0.51457900  0.50000000  0.50000000  1
  Co  Co2  1  0.50922900  0.50000000  0.17398300  1
  Co  Co3  1  0.97306900  0.50000000  0.66430900  1
  Co  Co4  1  0.00901300  0.50000000  0.00000000  1
  Co  Co5  1  0.97306900  0.50000000  0.33569100  1
  Co  Co6  1  0.00922900  0.00000000  0.82601700  1
  Co  Co7  1  0.01457900  0.00000000  0.50000000  1
  Co  Co8  1  0.00922900  0.00000000  0.17398300  1
  Co  Co9  1  0.47306900  0.00000000  0.66430900  1
  Co  Co10  1  0.50901300  0.00000000  0.00000000  1
  Co  Co11  1  0.47306900  0.00000000  0.33569100  1
  O  O12  1  0.70305900  0.50000000  0.66271500  1
  O  O13  1  0.70305900  0.50000000  0.33728500  1
  O  O14  1  0.20305900  0.00000000  0.66271500  1
  O  O15  1  0.20305900  0.00000000  0.33728500  1
  F  F16  1  0.70251400  0.50000000  0.00000000  1
  F  F17  1  0.00185850  0.30869750  0.50000000  1
  F  F18  1  0.00234300  0.30479000  0.83050000  1
  F  F19  1  0.00234300  0.30479000  0.16950000  1
  F  F20  1  0.00234300  0.69521000  0.16950000  1
  F  F21  1  0.00234300  0.69521000  0.83050000  1
  F  F22  1  0.00185850  0.69130250  0.50000000  1
  F  F23  1  0.28792400  0.50000000  0.66268700  1
  F  F24  1  0.31424400  0.50000000  0.00000000  1
  F  F25  1  0.28792400  0.50000000  0.33731300  1
  F  F26  1  0.20251400  0.00000000  0.00000000  1
  F  F27  1  0.50185850  0.80869750  0.50000000  1
  F  F28  1  0.50234300  0.80479000  0.83050000  1
  F  F29  1  0.50234300  0.80479000  0.16950000  1
  F  F30  1  0.50234300  0.19521000  0.16950000  1
  F  F31  1  0.50234300  0.19521000  0.83050000  1
  F  F32  1  0.50185850  0.19130250  0.50000000  1
  F  F33  1  0.78792400  0.00000000  0.66268700  1
  F  F34  1  0.81424400  0.00000000  0.00000000  1
  F  F35  1  0.78792400  0.00000000  0.33731300  1
