# generated using pymatgen
data_Li4Ti3Mn5O16
_symmetry_space_group_name_H-M   'P 1'
_cell_length_a   10.22592400
_cell_length_b   5.95191200
_cell_length_c   9.72643304
_cell_angle_alpha   90.00000000
_cell_angle_beta   92.52213475
_cell_angle_gamma   90.00000000
_symmetry_Int_Tables_number   1
_chemical_formula_structural   Li4Ti3Mn5O16
_chemical_formula_sum   'Li8 Ti6 Mn10 O32'
_cell_volume   591.41421183
_cell_formula_units_Z   2
loop_
 _symmetry_equiv_pos_site_id
 _symmetry_equiv_pos_as_xyz
  1  'x, y, z'
loop_
 _atom_site_type_symbol
 _atom_site_label
 _atom_site_symmetry_multiplicity
 _atom_site_fract_x
 _atom_site_fract_y
 _atom_site_fract_z
 _atom_site_occupancy
  Li  Li0  1  0.32488800  0.00000000  0.10680500  1
  Li  Li1  1  0.01001300  0.00000000  0.00433900  1
  Li  Li2  1  0.01315300  0.00000000  0.50392500  1
  Li  Li3  1  0.66276500  0.00000000  0.60687200  1
  Li  Li4  1  0.82488800  0.50000000  0.10680500  1
  Li  Li5  1  0.51001300  0.50000000  0.00433900  1
  Li  Li6  1  0.51315300  0.50000000  0.50392500  1
  Li  Li7  1  0.16276500  0.50000000  0.60687200  1
  Ti  Ti8  1  0.41216600  0.24960800  0.78349900  1
  Ti  Ti9  1  0.41216600  0.75039200  0.78349900  1
  Ti  Ti10  1  0.82969200  0.00000000  0.28902400  1
  Ti  Ti11  1  0.91216600  0.74960800  0.78349900  1
  Ti  Ti12  1  0.91216600  0.25039200  0.78349900  1
  Ti  Ti13  1  0.32969200  0.50000000  0.28902400  1
  Mn  Mn14  1  0.33323900  0.00000000  0.51073400  1
  Mn  Mn15  1  0.16949100  0.00000000  0.79035300  1
  Mn  Mn16  1  0.66019800  0.00000000  0.01304900  1
  Mn  Mn17  1  0.58106850  0.24466350  0.28393600  1
  Mn  Mn18  1  0.58106850  0.75533650  0.28393600  1
  Mn  Mn19  1  0.83323900  0.50000000  0.51073400  1
  Mn  Mn20  1  0.66949100  0.50000000  0.79035300  1
  Mn  Mn21  1  0.16019800  0.50000000  0.01304900  1
  Mn  Mn22  1  0.08106850  0.74466350  0.28393600  1
  Mn  Mn23  1  0.08106850  0.25533650  0.28393600  1
  O  O24  1  0.42409300  0.26405700  0.39343500  1
  O  O25  1  0.48095000  0.00000000  0.66716900  1
  O  O26  1  0.33543400  0.00000000  0.89336000  1
  O  O27  1  0.00357000  0.00000000  0.69013200  1
  O  O28  1  0.99775600  0.00000000  0.18946900  1
  O  O29  1  0.42409300  0.73594300  0.39343500  1
  O  O30  1  0.26277350  0.23138750  0.66341600  1
  O  O31  1  0.26277350  0.76861250  0.66341600  1
  O  O32  1  0.84646900  0.00000000  0.89312600  1
  O  O33  1  0.16702800  0.00000000  0.39163500  1
  O  O34  1  0.73321200  0.21769200  0.16300100  1
  O  O35  1  0.73321200  0.78230800  0.16300100  1
  O  O36  1  0.66967000  0.00000000  0.39296700  1
  O  O37  1  0.58048800  0.24716100  0.90223600  1
  O  O38  1  0.50831600  0.00000000  0.17014900  1
  O  O39  1  0.58048800  0.75283900  0.90223600  1
  O  O40  1  0.92409300  0.76405700  0.39343500  1
  O  O41  1  0.98095000  0.50000000  0.66716900  1
  O  O42  1  0.83543400  0.50000000  0.89336000  1
  O  O43  1  0.50357000  0.50000000  0.69013200  1
  O  O44  1  0.49775600  0.50000000  0.18946900  1
  O  O45  1  0.92409300  0.23594300  0.39343500  1
  O  O46  1  0.76277350  0.73138750  0.66341600  1
  O  O47  1  0.76277350  0.26861250  0.66341600  1
  O  O48  1  0.34646900  0.50000000  0.89312600  1
  O  O49  1  0.66702800  0.50000000  0.39163500  1
  O  O50  1  0.23321200  0.71769200  0.16300100  1
  O  O51  1  0.23321200  0.28230800  0.16300100  1
  O  O52  1  0.16967000  0.50000000  0.39296700  1
  O  O53  1  0.08048800  0.74716100  0.90223600  1
  O  O54  1  0.00831600  0.50000000  0.17014900  1
  O  O55  1  0.08048800  0.25283900  0.90223600  1
