# generated using pymatgen
data_LiFeP2HO7
_symmetry_space_group_name_H-M   'P 1'
_cell_length_a   6.02328141
_cell_length_b   6.76431613
_cell_length_c   7.82687554
_cell_angle_alpha   91.36951524
_cell_angle_beta   97.59521415
_cell_angle_gamma   110.40798204
_symmetry_Int_Tables_number   1
_chemical_formula_structural   LiFeP2HO7
_chemical_formula_sum   'Li2 Fe2 P4 H2 O14'
_cell_volume   295.41340305
_cell_formula_units_Z   2
loop_
 _symmetry_equiv_pos_site_id
 _symmetry_equiv_pos_as_xyz
  1  'x, y, z'
loop_
 _atom_site_type_symbol
 _atom_site_label
 _atom_site_symmetry_multiplicity
 _atom_site_fract_x
 _atom_site_fract_y
 _atom_site_fract_z
 _atom_site_occupancy
  Li  Li0  1  0.42621750  0.85984600  0.11717650  1
  Li  Li1  1  0.57378250  0.14015400  0.88282350  1
  Fe  Fe2  1  0.73900200  0.77175900  0.73910700  1
  Fe  Fe3  1  0.26099800  0.22824100  0.26089300  1
  P  P4  1  0.24744900  0.70454300  0.70648100  1
  P  P5  1  0.75255100  0.29545700  0.29351900  1
  P  P6  1  0.89730050  0.72439400  0.15359650  1
  P  P7  1  0.10269950  0.27560600  0.84640350  1
  H  H8  1  0.19591450  0.05092200  0.69359600  1
  H  H9  1  0.80408550  0.94907800  0.30640400  1
  O  O10  1  0.06155200  0.80518900  0.63907050  1
  O  O11  1  0.93844800  0.19481100  0.36092950  1
  O  O12  1  0.14374750  0.89771600  0.18835000  1
  O  O13  1  0.85625250  0.10228400  0.81165000  1
  O  O14  1  0.40034450  0.81746000  0.87630700  1
  O  O15  1  0.59965550  0.18254000  0.12369300  1
  O  O16  1  0.41734300  0.68991500  0.58081200  1
  O  O17  1  0.58265700  0.31008500  0.41918800  1
  O  O18  1  0.71462500  0.80489900  0.23857150  1
  O  O19  1  0.28537500  0.19510100  0.76142850  1
  O  O20  1  0.07799950  0.46612500  0.73887550  1
  O  O21  1  0.92200050  0.53387500  0.26112450  1
  O  O22  1  0.19820800  0.35408300  0.03288550  1
  O  O23  1  0.80179200  0.64591700  0.96711450  1
