# generated using pymatgen
data_Li2V3P5O18
_symmetry_space_group_name_H-M   'P 1'
_cell_length_a   25.96927200
_cell_length_b   4.86932200
_cell_length_c   12.68615708
_cell_angle_alpha   90.00000000
_cell_angle_beta   92.10085940
_cell_angle_gamma   90.00000000
_symmetry_Int_Tables_number   1
_chemical_formula_structural   Li2V3P5O18
_chemical_formula_sum   'Li8 V12 P20 O72'
_cell_volume   1603.12114495
_cell_formula_units_Z   4
loop_
 _symmetry_equiv_pos_site_id
 _symmetry_equiv_pos_as_xyz
  1  'x, y, z'
loop_
 _atom_site_type_symbol
 _atom_site_label
 _atom_site_symmetry_multiplicity
 _atom_site_fract_x
 _atom_site_fract_y
 _atom_site_fract_z
 _atom_site_occupancy
  Li  Li0  1  0.66605550  0.85686650  0.36711900  1
  Li  Li1  1  0.66605550  0.14313350  0.86711900  1
  Li  Li2  1  0.83394450  0.35686650  0.13288100  1
  Li  Li3  1  0.83394450  0.64313350  0.63288100  1
  Li  Li4  1  0.16605550  0.35686650  0.36711900  1
  Li  Li5  1  0.16605550  0.64313350  0.86711900  1
  Li  Li6  1  0.33394450  0.85686650  0.13288100  1
  Li  Li7  1  0.33394450  0.14313350  0.63288100  1
  V  V8  1  0.69698000  0.45770100  0.12128800  1
  V  V9  1  0.69698000  0.54229900  0.62128800  1
  V  V10  1  0.80302000  0.95770100  0.37871200  1
  V  V11  1  0.80302000  0.04229900  0.87871200  1
  V  V12  1  0.00000000  0.50000000  0.00000000  1
  V  V13  1  0.00000000  0.50000000  0.50000000  1
  V  V14  1  0.19698000  0.95770100  0.12128800  1
  V  V15  1  0.19698000  0.04229900  0.62128800  1
  V  V16  1  0.30302000  0.45770100  0.37871200  1
  V  V17  1  0.30302000  0.54229900  0.87871200  1
  V  V18  1  0.50000000  0.00000000  0.00000000  1
  V  V19  1  0.50000000  0.00000000  0.50000000  1
  P  P20  1  0.56816550  0.49533350  0.09532900  1
  P  P21  1  0.56816550  0.50466650  0.59532900  1
  P  P22  1  0.72716800  0.43099700  0.37282300  1
  P  P23  1  0.72716800  0.56900300  0.87282300  1
  P  P24  1  0.77283200  0.93099700  0.12717700  1
  P  P25  1  0.77283200  0.06900300  0.62717700  1
  P  P26  1  0.93183450  0.99533350  0.40467100  1
  P  P27  1  0.93183450  0.00466650  0.90467100  1
  P  P28  1  0.00000000  0.73065400  0.25000000  1
  P  P29  1  0.00000000  0.26934600  0.75000000  1
  P  P30  1  0.06816550  0.99533350  0.09532900  1
  P  P31  1  0.06816550  0.00466650  0.59532900  1
  P  P32  1  0.22716800  0.93099700  0.37282300  1
  P  P33  1  0.22716800  0.06900300  0.87282300  1
  P  P34  1  0.27283200  0.43099700  0.12717700  1
  P  P35  1  0.27283200  0.56900300  0.62717700  1
  P  P36  1  0.43183450  0.49533350  0.40467100  1
  P  P37  1  0.43183450  0.50466650  0.90467100  1
  P  P38  1  0.50000000  0.23065400  0.25000000  1
  P  P39  1  0.50000000  0.76934600  0.75000000  1
  O  O40  1  0.52313100  0.07557800  0.34384600  1
  O  O41  1  0.54402100  0.67271500  0.50674500  1
  O  O42  1  0.52313100  0.92442200  0.84384600  1
  O  O43  1  0.54262950  0.44033150  0.20853300  1
  O  O44  1  0.54402100  0.32728500  0.00674500  1
  O  O45  1  0.54262950  0.55966850  0.70853300  1
  O  O46  1  0.56254300  0.79810000  0.07024000  1
  O  O47  1  0.56254300  0.20190000  0.57024000  1
  O  O48  1  0.62419850  0.40415350  0.11694600  1
  O  O49  1  0.62419850  0.59584650  0.61694600  1
  O  O50  1  0.69601200  0.55251500  0.46352400  1
  O  O51  1  0.69553250  0.53952450  0.27469400  1
  O  O52  1  0.69601200  0.44748500  0.96352400  1
  O  O53  1  0.69553250  0.46047550  0.77469400  1
  O  O54  1  0.71669550  0.03613950  0.12566200  1
  O  O55  1  0.72801900  0.11079600  0.37723800  1
  O  O56  1  0.71669550  0.96386050  0.62566200  1
  O  O57  1  0.72801900  0.88920400  0.87723800  1
  O  O58  1  0.77198100  0.61079600  0.12276200  1
  O  O59  1  0.78330450  0.53613950  0.37433800  1
  O  O60  1  0.77198100  0.38920400  0.62276200  1
  O  O61  1  0.78330450  0.46386050  0.87433800  1
  O  O62  1  0.80446750  0.03952450  0.22530600  1
  O  O63  1  0.80398800  0.05251500  0.03647600  1
  O  O64  1  0.80446750  0.96047550  0.72530600  1
  O  O65  1  0.80398800  0.94748500  0.53647600  1
  O  O66  1  0.87580150  0.90415350  0.38305400  1
  O  O67  1  0.87580150  0.09584650  0.88305400  1
  O  O68  1  0.93745700  0.29810000  0.42976000  1
  O  O69  1  0.93745700  0.70190000  0.92976000  1
  O  O70  1  0.95737050  0.94033150  0.29146700  1
  O  O71  1  0.95597900  0.17271500  0.99325500  1
  O  O72  1  0.95737050  0.05966850  0.79146700  1
  O  O73  1  0.97686900  0.57557800  0.15615400  1
  O  O74  1  0.95597900  0.82728500  0.49325500  1
  O  O75  1  0.97686900  0.42442200  0.65615400  1
  O  O76  1  0.02313100  0.57557800  0.34384600  1
  O  O77  1  0.04402100  0.17271500  0.50674500  1
  O  O78  1  0.02313100  0.42442200  0.84384600  1
  O  O79  1  0.04262950  0.94033150  0.20853300  1
  O  O80  1  0.04402100  0.82728500  0.00674500  1
  O  O81  1  0.04262950  0.05966850  0.70853300  1
  O  O82  1  0.06254300  0.29810000  0.07024000  1
  O  O83  1  0.06254300  0.70190000  0.57024000  1
  O  O84  1  0.12419850  0.90415350  0.11694600  1
  O  O85  1  0.12419850  0.09584650  0.61694600  1
  O  O86  1  0.19601200  0.05251500  0.46352400  1
  O  O87  1  0.19553250  0.03952450  0.27469400  1
  O  O88  1  0.19601200  0.94748500  0.96352400  1
  O  O89  1  0.19553250  0.96047550  0.77469400  1
  O  O90  1  0.21669550  0.53613950  0.12566200  1
  O  O91  1  0.22801900  0.61079600  0.37723800  1
  O  O92  1  0.21669550  0.46386050  0.62566200  1
  O  O93  1  0.22801900  0.38920400  0.87723800  1
  O  O94  1  0.27198100  0.11079600  0.12276200  1
  O  O95  1  0.28330450  0.03613950  0.37433800  1
  O  O96  1  0.27198100  0.88920400  0.62276200  1
  O  O97  1  0.28330450  0.96386050  0.87433800  1
  O  O98  1  0.30446750  0.53952450  0.22530600  1
  O  O99  1  0.30398800  0.55251500  0.03647600  1
  O  O100  1  0.30446750  0.46047550  0.72530600  1
  O  O101  1  0.30398800  0.44748500  0.53647600  1
  O  O102  1  0.37580150  0.40415350  0.38305400  1
  O  O103  1  0.37580150  0.59584650  0.88305400  1
  O  O104  1  0.43745700  0.79810000  0.42976000  1
  O  O105  1  0.43745700  0.20190000  0.92976000  1
  O  O106  1  0.45737050  0.44033150  0.29146700  1
  O  O107  1  0.45597900  0.67271500  0.99325500  1
  O  O108  1  0.45737050  0.55966850  0.79146700  1
  O  O109  1  0.47686900  0.07557800  0.15615400  1
  O  O110  1  0.45597900  0.32728500  0.49325500  1
  O  O111  1  0.47686900  0.92442200  0.65615400  1
