# generated using pymatgen
data_Fe4OF7
_symmetry_space_group_name_H-M   'P 1'
_cell_length_a   6.52240500
_cell_length_b   4.81167500
_cell_length_c   10.14005721
_cell_angle_alpha   90.00000000
_cell_angle_beta   108.50416869
_cell_angle_gamma   90.00000000
_symmetry_Int_Tables_number   1
_chemical_formula_structural   Fe4OF7
_chemical_formula_sum   'Fe8 O2 F14'
_cell_volume   301.78000634
_cell_formula_units_Z   2
loop_
 _symmetry_equiv_pos_site_id
 _symmetry_equiv_pos_as_xyz
  1  'x, y, z'
loop_
 _atom_site_type_symbol
 _atom_site_label
 _atom_site_symmetry_multiplicity
 _atom_site_fract_x
 _atom_site_fract_y
 _atom_site_fract_z
 _atom_site_occupancy
  Fe  Fe0  1  0.43478000  0.01541900  0.62875800  1
  Fe  Fe1  1  0.18790100  0.99976200  0.12032100  1
  Fe  Fe2  1  0.68852300  0.97920900  0.13255200  1
  Fe  Fe3  1  0.96218200  0.01400700  0.63592400  1
  Fe  Fe4  1  0.56522000  0.51541900  0.37124200  1
  Fe  Fe5  1  0.31147700  0.47920900  0.86744800  1
  Fe  Fe6  1  0.03781800  0.51400700  0.36407600  1
  Fe  Fe7  1  0.81209900  0.49976200  0.87967900  1
  O  O8  1  0.77907100  0.68994600  0.28173900  1
  O  O9  1  0.22092900  0.18994600  0.71826100  1
  F  F10  1  0.51747100  0.69792400  0.77089400  1
  F  F11  1  0.00422700  0.70427200  0.76981500  1
  F  F12  1  0.24594200  0.70334900  0.27754900  1
  F  F13  1  0.65491400  0.82118700  0.53150700  1
  F  F14  1  0.89071100  0.80123600  0.02361700  1
  F  F15  1  0.12500200  0.78744700  0.52581800  1
  F  F16  1  0.38263400  0.78624600  0.01951300  1
  F  F17  1  0.99577300  0.20427200  0.23018500  1
  F  F18  1  0.48252900  0.19792400  0.22910600  1
  F  F19  1  0.75405800  0.20334900  0.72245100  1
  F  F20  1  0.10928900  0.30123600  0.97638300  1
  F  F21  1  0.87499800  0.28744700  0.47418200  1
  F  F22  1  0.61736600  0.28624600  0.98048700  1
  F  F23  1  0.34508600  0.32118700  0.46849300  1
