# generated using pymatgen
data_Li5Fe7O12
_symmetry_space_group_name_H-M   'P 1'
_cell_length_a   5.18443400
_cell_length_b   9.02233200
_cell_length_c   9.87344815
_cell_angle_alpha   90.00000000
_cell_angle_beta   100.46256090
_cell_angle_gamma   90.00000000
_symmetry_Int_Tables_number   1
_chemical_formula_structural   Li5Fe7O12
_chemical_formula_sum   'Li10 Fe14 O24'
_cell_volume   454.15868848
_cell_formula_units_Z   2
loop_
 _symmetry_equiv_pos_site_id
 _symmetry_equiv_pos_as_xyz
  1  'x, y, z'
loop_
 _atom_site_type_symbol
 _atom_site_label
 _atom_site_symmetry_multiplicity
 _atom_site_fract_x
 _atom_site_fract_y
 _atom_site_fract_z
 _atom_site_occupancy
  Li  Li0  1  0.75035750  0.91746950  0.74454700  1
  Li  Li1  1  0.25722800  0.58180600  0.25527900  1
  Li  Li2  1  0.24964250  0.91746950  0.25545300  1
  Li  Li3  1  0.74277200  0.58180600  0.74472100  1
  Li  Li4  1  0.00000000  0.91609100  0.50000000  1
  Li  Li5  1  0.25035750  0.41746950  0.74454700  1
  Li  Li6  1  0.75722800  0.08180600  0.25527900  1
  Li  Li7  1  0.74964250  0.41746950  0.25545300  1
  Li  Li8  1  0.24277200  0.08180600  0.74472100  1
  Li  Li9  1  0.50000000  0.41609100  0.50000000  1
  Fe  Fe10  1  0.50000000  0.57620000  0.00000000  1
  Fe  Fe11  1  0.75760700  0.75429300  0.25115700  1
  Fe  Fe12  1  0.50000000  0.74990300  0.50000000  1
  Fe  Fe13  1  0.24239300  0.75429300  0.74884300  1
  Fe  Fe14  1  0.50000000  0.92297300  0.00000000  1
  Fe  Fe15  1  0.00000000  0.57993900  0.50000000  1
  Fe  Fe16  1  0.00000000  0.75408400  0.00000000  1
  Fe  Fe17  1  0.00000000  0.07620000  0.00000000  1
  Fe  Fe18  1  0.25760700  0.25429300  0.25115700  1
  Fe  Fe19  1  0.00000000  0.24990300  0.50000000  1
  Fe  Fe20  1  0.74239300  0.25429300  0.74884300  1
  Fe  Fe21  1  0.00000000  0.42297300  0.00000000  1
  Fe  Fe22  1  0.50000000  0.07993900  0.50000000  1
  Fe  Fe23  1  0.50000000  0.25408400  0.00000000  1
  O  O24  1  0.64031050  0.59725150  0.38009500  1
  O  O25  1  0.35968950  0.59725150  0.61990500  1
  O  O26  1  0.60704850  0.74366650  0.87763600  1
  O  O27  1  0.39295150  0.74366650  0.12236400  1
  O  O28  1  0.61874600  0.90855700  0.38059100  1
  O  O29  1  0.38125400  0.90855700  0.61940900  1
  O  O30  1  0.14311600  0.58902400  0.87549500  1
  O  O31  1  0.85688400  0.58902400  0.12450500  1
  O  O32  1  0.11941500  0.73993000  0.37691200  1
  O  O33  1  0.88058500  0.73993000  0.62308800  1
  O  O34  1  0.12038950  0.91840950  0.86840900  1
  O  O35  1  0.87961050  0.91840950  0.13159100  1
  O  O36  1  0.14031050  0.09725150  0.38009500  1
  O  O37  1  0.85968950  0.09725150  0.61990500  1
  O  O38  1  0.10704850  0.24366650  0.87763600  1
  O  O39  1  0.89295150  0.24366650  0.12236400  1
  O  O40  1  0.11874600  0.40855700  0.38059100  1
  O  O41  1  0.88125400  0.40855700  0.61940900  1
  O  O42  1  0.64311600  0.08902400  0.87549500  1
  O  O43  1  0.35688400  0.08902400  0.12450500  1
  O  O44  1  0.61941500  0.23993000  0.37691200  1
  O  O45  1  0.38058500  0.23993000  0.62308800  1
  O  O46  1  0.62038950  0.41840950  0.86840900  1
  O  O47  1  0.37961050  0.41840950  0.13159100  1
