# generated using pymatgen
data_Li4Fe3Ni2Sn3O16
_symmetry_space_group_name_H-M   'P 1'
_cell_length_a   10.53104000
_cell_length_b   6.09485600
_cell_length_c   9.75177437
_cell_angle_alpha   90.00000000
_cell_angle_beta   91.11918610
_cell_angle_gamma   90.00000000
_symmetry_Int_Tables_number   1
_chemical_formula_structural   Li4Fe3Ni2Sn3O16
_chemical_formula_sum   'Li8 Fe6 Ni4 Sn6 O32'
_cell_volume   625.79991030
_cell_formula_units_Z   2
loop_
 _symmetry_equiv_pos_site_id
 _symmetry_equiv_pos_as_xyz
  1  'x, y, z'
loop_
 _atom_site_type_symbol
 _atom_site_label
 _atom_site_symmetry_multiplicity
 _atom_site_fract_x
 _atom_site_fract_y
 _atom_site_fract_z
 _atom_site_occupancy
  Li  Li0  1  0.32614800  0.00000000  0.88495300  1
  Li  Li1  1  0.01695300  0.00000000  0.99551600  1
  Li  Li2  1  0.01430000  0.00000000  0.50153900  1
  Li  Li3  1  0.66040000  0.00000000  0.39468700  1
  Li  Li4  1  0.82614800  0.50000000  0.88495300  1
  Li  Li5  1  0.51695300  0.50000000  0.99551600  1
  Li  Li6  1  0.51430000  0.50000000  0.50153900  1
  Li  Li7  1  0.16040000  0.50000000  0.39468700  1
  Fe  Fe8  1  0.16814900  0.00000000  0.21785300  1
  Fe  Fe9  1  0.58345850  0.75429450  0.71517900  1
  Fe  Fe10  1  0.58345850  0.24570550  0.71517900  1
  Fe  Fe11  1  0.66814900  0.50000000  0.21785300  1
  Fe  Fe12  1  0.08345850  0.25429450  0.71517900  1
  Fe  Fe13  1  0.08345850  0.74570550  0.71517900  1
  Ni  Ni14  1  0.33407600  0.00000000  0.49277700  1
  Ni  Ni15  1  0.66762100  0.00000000  0.98800100  1
  Ni  Ni16  1  0.83407600  0.50000000  0.49277700  1
  Ni  Ni17  1  0.16762100  0.50000000  0.98800100  1
  Sn  Sn18  1  0.41424600  0.75340800  0.21378900  1
  Sn  Sn19  1  0.41424600  0.24659200  0.21378900  1
  Sn  Sn20  1  0.83002000  0.00000000  0.71224500  1
  Sn  Sn21  1  0.91424600  0.25340800  0.21378900  1
  Sn  Sn22  1  0.91424600  0.74659200  0.21378900  1
  Sn  Sn23  1  0.33002000  0.50000000  0.71224500  1
  O  O24  1  0.42693000  0.74118300  0.60018200  1
  O  O25  1  0.48084000  0.00000000  0.34215700  1
  O  O26  1  0.32898000  0.00000000  0.09603300  1
  O  O27  1  0.00015900  0.00000000  0.31950800  1
  O  O28  1  0.00333400  0.00000000  0.81388800  1
  O  O29  1  0.42693000  0.25881700  0.60018200  1
  O  O30  1  0.25071700  0.78237200  0.33520900  1
  O  O31  1  0.25071700  0.21762800  0.33520900  1
  O  O32  1  0.84253100  0.00000000  0.09190500  1
  O  O33  1  0.16436700  0.00000000  0.61292900  1
  O  O34  1  0.73309750  0.77442150  0.83601400  1
  O  O35  1  0.73309750  0.22557850  0.83601400  1
  O  O36  1  0.66120600  0.00000000  0.60017800  1
  O  O37  1  0.58679950  0.73416350  0.10615900  1
  O  O38  1  0.51739200  0.00000000  0.83067900  1
  O  O39  1  0.58679950  0.26583650  0.10615900  1
  O  O40  1  0.92693000  0.24118300  0.60018200  1
  O  O41  1  0.98084000  0.50000000  0.34215700  1
  O  O42  1  0.82898000  0.50000000  0.09603300  1
  O  O43  1  0.50015900  0.50000000  0.31950800  1
  O  O44  1  0.50333400  0.50000000  0.81388800  1
  O  O45  1  0.92693000  0.75881700  0.60018200  1
  O  O46  1  0.75071700  0.28237200  0.33520900  1
  O  O47  1  0.75071700  0.71762800  0.33520900  1
  O  O48  1  0.34253100  0.50000000  0.09190500  1
  O  O49  1  0.66436700  0.50000000  0.61292900  1
  O  O50  1  0.23309750  0.27442150  0.83601400  1
  O  O51  1  0.23309750  0.72557850  0.83601400  1
  O  O52  1  0.16120600  0.50000000  0.60017800  1
  O  O53  1  0.08679950  0.23416350  0.10615900  1
  O  O54  1  0.01739200  0.50000000  0.83067900  1
  O  O55  1  0.08679950  0.76583650  0.10615900  1
