# generated using pymatgen
data_LiVO2F
_symmetry_space_group_name_H-M   'P 1'
_cell_length_a   3.50709100
_cell_length_b   4.93465000
_cell_length_c   13.89916000
_cell_angle_alpha   90.00000000
_cell_angle_beta   90.00000000
_cell_angle_gamma   90.00000000
_symmetry_Int_Tables_number   1
_chemical_formula_structural   LiVO2F
_chemical_formula_sum   'Li4 V4 O8 F4'
_cell_volume   240.54256855
_cell_formula_units_Z   4
loop_
 _symmetry_equiv_pos_site_id
 _symmetry_equiv_pos_as_xyz
  1  'x, y, z'
loop_
 _atom_site_type_symbol
 _atom_site_label
 _atom_site_symmetry_multiplicity
 _atom_site_fract_x
 _atom_site_fract_y
 _atom_site_fract_z
 _atom_site_occupancy
  Li  Li0  1  0.75000000  0.12802450  0.17191650  1
  Li  Li1  1  0.25000000  0.62802450  0.32808350  1
  Li  Li2  1  0.75000000  0.37197550  0.67191650  1
  Li  Li3  1  0.25000000  0.87197550  0.82808350  1
  V  V4  1  0.25000000  0.59403850  0.08293450  1
  V  V5  1  0.75000000  0.09403850  0.41706550  1
  V  V6  1  0.25000000  0.90596150  0.58293450  1
  V  V7  1  0.75000000  0.40596150  0.91706550  1
  O  O8  1  0.75000000  0.43064050  0.06147650  1
  O  O9  1  0.25000000  0.92156050  0.11167250  1
  O  O10  1  0.75000000  0.42156050  0.38832750  1
  O  O11  1  0.25000000  0.93064050  0.43852350  1
  O  O12  1  0.75000000  0.06935950  0.56147650  1
  O  O13  1  0.25000000  0.57843950  0.61167250  1
  O  O14  1  0.75000000  0.07843950  0.88832750  1
  O  O15  1  0.25000000  0.56935950  0.93852350  1
  F  F16  1  0.25000000  0.41356650  0.20908850  1
  F  F17  1  0.75000000  0.91356650  0.29091150  1
  F  F18  1  0.25000000  0.08643350  0.70908850  1
  F  F19  1  0.75000000  0.58643350  0.79091150  1
