# generated using pymatgen
data_LiCo(CO3)2
_symmetry_space_group_name_H-M   'P 1'
_cell_length_a   4.63079045
_cell_length_b   4.63079045
_cell_length_c   15.26861636
_cell_angle_alpha   90.00000000
_cell_angle_beta   90.00000000
_cell_angle_gamma   120.00000000
_symmetry_Int_Tables_number   1
_chemical_formula_structural   LiCo(CO3)2
_chemical_formula_sum   'Li3 Co3 C6 O18'
_cell_volume   283.55712995
_cell_formula_units_Z   3
loop_
 _symmetry_equiv_pos_site_id
 _symmetry_equiv_pos_as_xyz
  1  'x, y, z'
loop_
 _atom_site_type_symbol
 _atom_site_label
 _atom_site_symmetry_multiplicity
 _atom_site_fract_x
 _atom_site_fract_y
 _atom_site_fract_z
 _atom_site_occupancy
  Li  Li0  1  0.00000000  0.00000000  0.00000000  1
  Li  Li1  1  0.66666667  0.33333333  0.33333333  1
  Li  Li2  1  0.33333333  0.66666667  0.66666667  1
  Co  Co3  1  0.33333333  0.66666667  0.16666667  1
  Co  Co4  1  1.00000000  0.00000000  0.50000000  1
  Co  Co5  1  0.66666667  0.33333333  0.83333333  1
  C  C6  1  0.66666667  0.33333333  0.08947317  1
  C  C7  1  0.00000000  0.00000000  0.24386017  1
  C  C8  1  0.33333333  0.66666667  0.42280650  1
  C  C9  1  0.66666667  0.33333333  0.57719350  1
  C  C10  1  0.00000000  0.00000000  0.75613983  1
  C  C11  1  0.33333333  0.66666667  0.91052683  1
  O  O12  1  0.71608650  0.98850500  0.24542000  1
  O  O13  1  0.39424817  0.04941983  0.08791333  1
  O  O14  1  0.65517167  0.60575183  0.08791333  1
  O  O15  1  0.01149500  0.72758150  0.24542000  1
  O  O16  1  0.27241850  0.28391350  0.24542000  1
  O  O17  1  0.95058017  0.34482833  0.08791333  1
  O  O18  1  0.38275317  0.32183833  0.57875333  1
  O  O19  1  0.06091483  0.38275317  0.42124667  1
  O  O20  1  0.32183833  0.93908517  0.42124667  1
  O  O21  1  0.67816167  0.06091483  0.57875333  1
  O  O22  1  0.93908517  0.61724683  0.57875333  1
  O  O23  1  0.61724683  0.67816167  0.42124667  1
  O  O24  1  0.04941983  0.65517167  0.91208667  1
  O  O25  1  0.72758150  0.71608650  0.75458000  1
  O  O26  1  0.98850500  0.27241850  0.75458000  1
  O  O27  1  0.34482833  0.39424817  0.91208667  1
  O  O28  1  0.60575183  0.95058017  0.91208667  1
  O  O29  1  0.28391350  0.01149500  0.75458000  1
