# generated using pymatgen
data_LiV3Zn2O8
_symmetry_space_group_name_H-M   'P 1'
_cell_length_a   5.97367178
_cell_length_b   5.97367178
_cell_length_c   14.60459996
_cell_angle_alpha   90.00000000
_cell_angle_beta   90.00000000
_cell_angle_gamma   120.00000000
_symmetry_Int_Tables_number   1
_chemical_formula_structural   LiV3Zn2O8
_chemical_formula_sum   'Li3 V9 Zn6 O24'
_cell_volume   451.33915428
_cell_formula_units_Z   3
loop_
 _symmetry_equiv_pos_site_id
 _symmetry_equiv_pos_as_xyz
  1  'x, y, z'
loop_
 _atom_site_type_symbol
 _atom_site_label
 _atom_site_symmetry_multiplicity
 _atom_site_fract_x
 _atom_site_fract_y
 _atom_site_fract_z
 _atom_site_occupancy
  Li  Li0  1  0.33333333  0.66666667  0.16666667  1
  Li  Li1  1  1.00000000  1.00000000  0.50000000  1
  Li  Li2  1  0.66666667  0.33333333  0.83333333  1
  V  V3  1  0.16666667  0.33333333  0.33333333  1
  V  V4  1  0.50000000  0.50000000  0.00000000  1
  V  V5  1  0.00000000  0.50000000  0.00000000  1
  V  V6  1  0.83333333  0.66666667  0.66666667  1
  V  V7  1  0.16666667  0.83333333  0.33333333  1
  V  V8  1  0.66666667  0.83333333  0.33333333  1
  V  V9  1  0.50000000  0.00000000  0.00000000  1
  V  V10  1  0.83333333  0.16666667  0.66666667  1
  V  V11  1  0.33333333  0.16666667  0.66666667  1
  Zn  Zn12  1  0.33333333  0.66666667  0.78722767  1
  Zn  Zn13  1  0.33333333  0.66666667  0.54610567  1
  Zn  Zn14  1  0.00000000  0.00000000  0.12056100  1
  Zn  Zn15  1  0.00000000  0.00000000  0.87943900  1
  Zn  Zn16  1  0.66666667  0.33333333  0.45389433  1
  Zn  Zn17  1  0.66666667  0.33333333  0.21277233  1
  O  O18  1  0.33333333  0.66666667  0.40923067  1
  O  O19  1  0.02461333  0.51230667  0.26121967  1
  O  O20  1  0.64205333  0.82102667  0.07211367  1
  O  O21  1  0.17897333  0.35794667  0.07211367  1
  O  O22  1  0.17897333  0.82102667  0.07211367  1
  O  O23  1  0.33333333  0.66666667  0.92410267  1
  O  O24  1  0.48769333  0.51230667  0.26121967  1
  O  O25  1  0.48769333  0.97538667  0.26121967  1
  O  O26  1  0.00000000  0.00000000  0.74256400  1
  O  O27  1  0.69128000  0.84564000  0.59455300  1
  O  O28  1  0.30872000  0.15436000  0.40544700  1
  O  O29  1  0.84564000  0.69128000  0.40544700  1
  O  O30  1  0.84564000  0.15436000  0.40544700  1
  O  O31  1  0.00000000  0.00000000  0.25743600  1
  O  O32  1  0.15436000  0.84564000  0.59455300  1
  O  O33  1  0.15436000  0.30872000  0.59455300  1
  O  O34  1  0.66666667  0.33333333  0.07589733  1
  O  O35  1  0.35794667  0.17897333  0.92788633  1
  O  O36  1  0.97538667  0.48769333  0.73878033  1
  O  O37  1  0.51230667  0.02461333  0.73878033  1
  O  O38  1  0.51230667  0.48769333  0.73878033  1
  O  O39  1  0.66666667  0.33333333  0.59076933  1
  O  O40  1  0.82102667  0.17897333  0.92788633  1
  O  O41  1  0.82102667  0.64205333  0.92788633  1
