# generated using pymatgen
data_LiFe(PO3)4
_symmetry_space_group_name_H-M   'P 1'
_cell_length_a   11.79851600
_cell_length_b   8.29764200
_cell_length_c   10.06200433
_cell_angle_alpha   90.00000000
_cell_angle_beta   119.12626181
_cell_angle_gamma   90.00000000
_symmetry_Int_Tables_number   1
_chemical_formula_structural   LiFe(PO3)4
_chemical_formula_sum   'Li4 Fe4 P16 O48'
_cell_volume   860.50610854
_cell_formula_units_Z   4
loop_
 _symmetry_equiv_pos_site_id
 _symmetry_equiv_pos_as_xyz
  1  'x, y, z'
loop_
 _atom_site_type_symbol
 _atom_site_label
 _atom_site_symmetry_multiplicity
 _atom_site_fract_x
 _atom_site_fract_y
 _atom_site_fract_z
 _atom_site_occupancy
  Li  Li0  1  0.25305300  0.25414700  0.00024700  1
  Li  Li1  1  0.25305300  0.74585300  0.50024700  1
  Li  Li2  1  0.75305300  0.75414700  0.00024700  1
  Li  Li3  1  0.75305300  0.24585300  0.50024700  1
  Fe  Fe4  1  0.00173100  0.94979200  0.24928400  1
  Fe  Fe5  1  0.50173100  0.55020800  0.74928400  1
  Fe  Fe6  1  0.50173100  0.44979200  0.24928400  1
  Fe  Fe7  1  0.00173100  0.05020800  0.74928400  1
  P  P8  1  0.51209550  0.24164850  0.97738400  1
  P  P9  1  0.20332800  0.51224400  0.19858800  1
  P  P10  1  0.80066700  0.51376100  0.30190300  1
  P  P11  1  0.99197300  0.74228700  0.51991500  1
  P  P12  1  0.51209550  0.75835150  0.47738400  1
  P  P13  1  0.70332800  0.98775600  0.69858800  1
  P  P14  1  0.30066700  0.98623900  0.80190300  1
  P  P15  1  0.99197300  0.25771300  0.01991500  1
  P  P16  1  0.01209550  0.74164850  0.97738400  1
  P  P17  1  0.70332800  0.01224400  0.19858800  1
  P  P18  1  0.30066700  0.01376100  0.30190300  1
  P  P19  1  0.49197300  0.24228700  0.51991500  1
  P  P20  1  0.01209550  0.25835150  0.47738400  1
  P  P21  1  0.20332800  0.48775600  0.69858800  1
  P  P22  1  0.80066700  0.48623900  0.80190300  1
  P  P23  1  0.49197300  0.75771300  0.01991500  1
  O  O24  1  0.96074350  0.77134250  0.08707600  1
  O  O25  1  0.27156600  0.91974600  0.65493400  1
  O  O26  1  0.19516200  0.92720500  0.31998700  1
  O  O27  1  0.41854000  0.12006800  0.84657400  1
  O  O28  1  0.14535200  0.64356900  0.06118800  1
  O  O29  1  0.03645450  0.88320750  0.90246700  1
  O  O30  1  0.85719650  0.64703450  0.43792200  1
  O  O31  1  0.77156600  0.58025400  0.15493400  1
  O  O32  1  0.46074350  0.72865750  0.58707600  1
  O  O33  1  0.97160950  0.88566250  0.59583000  1
  O  O34  1  0.30881550  0.42824550  0.17881600  1
  O  O35  1  0.41854000  0.87993200  0.34657400  1
  O  O36  1  0.08373300  0.61815600  0.64904400  1
  O  O37  1  0.19516200  0.07279500  0.81998700  1
  O  O38  1  0.53645450  0.61679250  0.40246700  1
  O  O39  1  0.04300050  0.77029550  0.40956500  1
  O  O40  1  0.73035150  0.92312650  0.84718200  1
  O  O41  1  0.64535200  0.85643100  0.56118800  1
  O  O42  1  0.47160950  0.61433750  0.09583000  1
  O  O43  1  0.35719650  0.85296550  0.93792200  1
  O  O44  1  0.08373300  0.38184400  0.14904400  1
  O  O45  1  0.30881550  0.57175450  0.67881600  1
  O  O46  1  0.23035150  0.57687350  0.34718200  1
  O  O47  1  0.54300050  0.72970450  0.90956500  1
  O  O48  1  0.46074350  0.27134250  0.08707600  1
  O  O49  1  0.77156600  0.41974600  0.65493400  1
  O  O50  1  0.69516200  0.42720500  0.31998700  1
  O  O51  1  0.91854000  0.62006800  0.84657400  1
  O  O52  1  0.64535200  0.14356900  0.06118800  1
  O  O53  1  0.53645450  0.38320750  0.90246700  1
  O  O54  1  0.35719650  0.14703450  0.43792200  1
  O  O55  1  0.27156600  0.08025400  0.15493400  1
  O  O56  1  0.96074350  0.22865750  0.58707600  1
  O  O57  1  0.47160950  0.38566250  0.59583000  1
  O  O58  1  0.80881550  0.92824550  0.17881600  1
  O  O59  1  0.91854000  0.37993200  0.34657400  1
  O  O60  1  0.58373300  0.11815600  0.64904400  1
  O  O61  1  0.69516200  0.57279500  0.81998700  1
  O  O62  1  0.03645450  0.11679250  0.40246700  1
  O  O63  1  0.54300050  0.27029550  0.40956500  1
  O  O64  1  0.23035150  0.42312650  0.84718200  1
  O  O65  1  0.14535200  0.35643100  0.56118800  1
  O  O66  1  0.97160950  0.11433750  0.09583000  1
  O  O67  1  0.85719650  0.35296550  0.93792200  1
  O  O68  1  0.58373300  0.88184400  0.14904400  1
  O  O69  1  0.80881550  0.07175450  0.67881600  1
  O  O70  1  0.73035150  0.07687350  0.34718200  1
  O  O71  1  0.04300050  0.22970450  0.90956500  1
