# generated using pymatgen
data_LiVF6
_symmetry_space_group_name_H-M   'P 1'
_cell_length_a   5.37307600
_cell_length_b   9.47775800
_cell_length_c   8.66994500
_cell_angle_alpha   90.00000000
_cell_angle_beta   90.00000000
_cell_angle_gamma   90.00000000
_symmetry_Int_Tables_number   1
_chemical_formula_structural   LiVF6
_chemical_formula_sum   'Li4 V4 F24'
_cell_volume   441.51446990
_cell_formula_units_Z   4
loop_
 _symmetry_equiv_pos_site_id
 _symmetry_equiv_pos_as_xyz
  1  'x, y, z'
loop_
 _atom_site_type_symbol
 _atom_site_label
 _atom_site_symmetry_multiplicity
 _atom_site_fract_x
 _atom_site_fract_y
 _atom_site_fract_z
 _atom_site_occupancy
  Li  Li0  1  0.50000000  0.05797700  0.97499000  1
  Li  Li1  1  0.00000000  0.44202300  0.47499000  1
  Li  Li2  1  0.00000000  0.55797700  0.97499000  1
  Li  Li3  1  0.50000000  0.94202300  0.47499000  1
  V  V4  1  0.00000000  0.11701000  0.25735200  1
  V  V5  1  0.50000000  0.38299000  0.75735200  1
  V  V6  1  0.50000000  0.61701000  0.25735200  1
  V  V7  1  0.00000000  0.88299000  0.75735200  1
  F  F8  1  0.75813650  0.08838750  0.40176700  1
  F  F9  1  0.00000000  0.06624900  0.71534500  1
  F  F10  1  0.76067000  0.14710200  0.11173900  1
  F  F11  1  0.24186350  0.08838750  0.40176700  1
  F  F12  1  0.23933000  0.14710200  0.11173900  1
  F  F13  1  0.00000000  0.30576000  0.30530200  1
  F  F14  1  0.50000000  0.19424000  0.80530200  1
  F  F15  1  0.26067000  0.35289800  0.61173900  1
  F  F16  1  0.25813650  0.41161250  0.90176700  1
  F  F17  1  0.73933000  0.35289800  0.61173900  1
  F  F18  1  0.50000000  0.43375100  0.21534500  1
  F  F19  1  0.74186350  0.41161250  0.90176700  1
  F  F20  1  0.25813650  0.58838750  0.40176700  1
  F  F21  1  0.50000000  0.56624900  0.71534500  1
  F  F22  1  0.26067000  0.64710200  0.11173900  1
  F  F23  1  0.74186350  0.58838750  0.40176700  1
  F  F24  1  0.73933000  0.64710200  0.11173900  1
  F  F25  1  0.50000000  0.80576000  0.30530200  1
  F  F26  1  0.00000000  0.69424000  0.80530200  1
  F  F27  1  0.76067000  0.85289800  0.61173900  1
  F  F28  1  0.75813650  0.91161250  0.90176700  1
  F  F29  1  0.23933000  0.85289800  0.61173900  1
  F  F30  1  0.00000000  0.93375100  0.21534500  1
  F  F31  1  0.24186350  0.91161250  0.90176700  1
