# generated using pymatgen
data_Li4Cr2Co3Sn3O16
_symmetry_space_group_name_H-M   'P 1'
_cell_length_a   10.30543331
_cell_length_b   6.00709476
_cell_length_c   9.54484730
_cell_angle_alpha   90.00000000
_cell_angle_beta   90.85198514
_cell_angle_gamma   90.00000000
_symmetry_Int_Tables_number   1
_chemical_formula_structural   Li4Cr2Co3Sn3O16
_chemical_formula_sum   'Li8 Cr4 Co6 Sn6 O32'
_cell_volume   590.81526548
_cell_formula_units_Z   2
loop_
 _symmetry_equiv_pos_site_id
 _symmetry_equiv_pos_as_xyz
  1  'x, y, z'
loop_
 _atom_site_type_symbol
 _atom_site_label
 _atom_site_symmetry_multiplicity
 _atom_site_fract_x
 _atom_site_fract_y
 _atom_site_fract_z
 _atom_site_occupancy
  Li  Li0  1  0.67353550  0.00000000  0.11396000  1
  Li  Li1  1  0.97018450  0.00000000  0.00834700  1
  Li  Li2  1  0.97997700  0.00000000  0.49680400  1
  Li  Li3  1  0.33366100  0.00000000  0.60095400  1
  Li  Li4  1  0.17353550  0.50000000  0.11396000  1
  Li  Li5  1  0.47018450  0.50000000  0.00834700  1
  Li  Li6  1  0.47997700  0.50000000  0.49680400  1
  Li  Li7  1  0.83366100  0.50000000  0.60095400  1
  Cr  Cr8  1  0.66373500  0.00000000  0.50965300  1
  Cr  Cr9  1  0.33479050  0.00000000  0.01861700  1
  Cr  Cr10  1  0.16373500  0.50000000  0.50965300  1
  Cr  Cr11  1  0.83479050  0.50000000  0.01861700  1
  Co  Co12  1  0.82654650  0.00000000  0.78319800  1
  Co  Co13  1  0.41171950  0.25199450  0.28884800  1
  Co  Co14  1  0.41171950  0.74800550  0.28884800  1
  Co  Co15  1  0.32654650  0.50000000  0.78319800  1
  Co  Co16  1  0.91171950  0.75199450  0.28884800  1
  Co  Co17  1  0.91171950  0.24800550  0.28884800  1
  Sn  Sn18  1  0.58158850  0.25158450  0.78728800  1
  Sn  Sn19  1  0.58158850  0.74841550  0.78728800  1
  Sn  Sn20  1  0.16523800  0.00000000  0.28720000  1
  Sn  Sn21  1  0.08158850  0.75158450  0.78728800  1
  Sn  Sn22  1  0.08158850  0.24841550  0.78728800  1
  Sn  Sn23  1  0.66523800  0.50000000  0.28720000  1
  O  O24  1  0.56815750  0.25512950  0.40050700  1
  O  O25  1  0.51554450  0.00000000  0.64928400  1
  O  O26  1  0.67426600  0.00000000  0.90095100  1
  O  O27  1  0.98579200  0.00000000  0.68283000  1
  O  O28  1  0.98493800  0.00000000  0.19287200  1
  O  O29  1  0.56815750  0.74487050  0.40050700  1
  O  O30  1  0.74327000  0.22095300  0.65634300  1
  O  O31  1  0.74327000  0.77904700  0.65634300  1
  O  O32  1  0.15881000  0.00000000  0.91280400  1
  O  O33  1  0.82998900  0.00000000  0.38531000  1
  O  O34  1  0.26768850  0.23104650  0.16019600  1
  O  O35  1  0.26768850  0.76895350  0.16019600  1
  O  O36  1  0.34144250  0.00000000  0.39261600  1
  O  O37  1  0.41010750  0.26060550  0.89899400  1
  O  O38  1  0.47854700  0.00000000  0.17317500  1
  O  O39  1  0.41010750  0.73939450  0.89899400  1
  O  O40  1  0.06815750  0.75512950  0.40050700  1
  O  O41  1  0.01554450  0.50000000  0.64928400  1
  O  O42  1  0.17426600  0.50000000  0.90095100  1
  O  O43  1  0.48579200  0.50000000  0.68283000  1
  O  O44  1  0.48493800  0.50000000  0.19287200  1
  O  O45  1  0.06815750  0.24487050  0.40050700  1
  O  O46  1  0.24327000  0.72095300  0.65634300  1
  O  O47  1  0.24327000  0.27904700  0.65634300  1
  O  O48  1  0.65881000  0.50000000  0.91280400  1
  O  O49  1  0.32998900  0.50000000  0.38531000  1
  O  O50  1  0.76768850  0.73104650  0.16019600  1
  O  O51  1  0.76768850  0.26895350  0.16019600  1
  O  O52  1  0.84144250  0.50000000  0.39261600  1
  O  O53  1  0.91010750  0.76060550  0.89899400  1
  O  O54  1  0.97854700  0.50000000  0.17317500  1
  O  O55  1  0.91010750  0.23939450  0.89899400  1
