# generated using pymatgen
data_FeOF
_symmetry_space_group_name_H-M   'P 1'
_cell_length_a   9.51866800
_cell_length_b   3.09866500
_cell_length_c   14.24224890
_cell_angle_alpha   90.00000000
_cell_angle_beta   90.36493987
_cell_angle_gamma   90.00000000
_symmetry_Int_Tables_number   1
_chemical_formula_structural   FeOF
_chemical_formula_sum   'Fe12 O12 F12'
_cell_volume   420.06893703
_cell_formula_units_Z   12
loop_
 _symmetry_equiv_pos_site_id
 _symmetry_equiv_pos_as_xyz
  1  'x, y, z'
loop_
 _atom_site_type_symbol
 _atom_site_label
 _atom_site_symmetry_multiplicity
 _atom_site_fract_x
 _atom_site_fract_y
 _atom_site_fract_z
 _atom_site_occupancy
  Fe  Fe0  1  0.99368700  0.00000000  0.99580200  1
  Fe  Fe1  1  0.50621700  0.00000000  0.99288300  1
  Fe  Fe2  1  0.75031200  0.50000000  0.85010100  1
  Fe  Fe3  1  0.21604200  0.50000000  0.83203300  1
  Fe  Fe4  1  0.99996600  0.00000000  0.66599800  1
  Fe  Fe5  1  0.50187900  0.00000000  0.65598200  1
  Fe  Fe6  1  0.27523000  0.50000000  0.49931500  1
  Fe  Fe7  1  0.75605800  0.50000000  0.51522600  1
  Fe  Fe8  1  0.00228800  0.00000000  0.32038700  1
  Fe  Fe9  1  0.48629900  0.00000000  0.33224600  1
  Fe  Fe10  1  0.77901800  0.50000000  0.16527100  1
  Fe  Fe11  1  0.25217500  0.50000000  0.18029800  1
  O  O12  1  0.59034500  0.50000000  0.93578700  1
  O  O13  1  0.09687400  0.50000000  0.93509600  1
  O  O14  1  0.84410300  0.00000000  0.89498800  1
  O  O15  1  0.14234800  0.00000000  0.76149100  1
  O  O16  1  0.59711900  0.50000000  0.60175200  1
  O  O17  1  0.85448200  0.00000000  0.56875100  1
  O  O18  1  0.34228300  0.00000000  0.56831600  1
  O  O19  1  0.40678100  0.50000000  0.39744200  1
  O  O20  1  0.09859100  0.50000000  0.27066400  1
  O  O21  1  0.84570800  0.00000000  0.23411600  1
  O  O22  1  0.35441300  0.00000000  0.22745700  1
  O  O23  1  0.90413000  0.50000000  0.06364500  1
  F  F24  1  0.34261900  0.00000000  0.89673500  1
  F  F25  1  0.64958100  0.00000000  0.76825600  1
  F  F26  1  0.89619400  0.50000000  0.72989400  1
  F  F27  1  0.40377500  0.50000000  0.73561700  1
  F  F28  1  0.09535600  0.50000000  0.59796100  1
  F  F29  1  0.66047800  0.00000000  0.43396300  1
  F  F30  1  0.14908600  0.00000000  0.43756200  1
  F  F31  1  0.90255100  0.50000000  0.40117000  1
  F  F32  1  0.60053200  0.50000000  0.26808000  1
  F  F33  1  0.64600100  0.00000000  0.10237800  1
  F  F34  1  0.15863100  0.00000000  0.10222400  1
  F  F35  1  0.39884800  0.50000000  0.06111100  1
