# generated using pymatgen
data_NaFe9Si6B3H2O31
_symmetry_space_group_name_H-M   'P 1'
_cell_length_a   10.77075800
_cell_length_b   16.36973800
_cell_length_c   7.60828012
_cell_angle_alpha   90.00000000
_cell_angle_beta   118.35244366
_cell_angle_gamma   90.00000000
_symmetry_Int_Tables_number   1
_chemical_formula_structural   NaFe9Si6B3H2O31
_chemical_formula_sum   'Na2 Fe18 Si12 B6 H4 O62'
_cell_volume   1180.53374436
_cell_formula_units_Z   2
loop_
 _symmetry_equiv_pos_site_id
 _symmetry_equiv_pos_as_xyz
  1  'x, y, z'
loop_
 _atom_site_type_symbol
 _atom_site_label
 _atom_site_symmetry_multiplicity
 _atom_site_fract_x
 _atom_site_fract_y
 _atom_site_fract_z
 _atom_site_occupancy
  Na  Na0  1  0.00358000  0.00000000  0.23744900  1
  Na  Na1  1  0.50358000  0.50000000  0.23744900  1
  Fe  Fe2  1  0.44489400  0.89347000  0.90468300  1
  Fe  Fe3  1  0.44667450  0.22044950  0.57889500  1
  Fe  Fe4  1  0.90933800  0.91249500  0.58664300  1
  Fe  Fe5  1  0.18984300  0.00000000  0.76677800  1
  Fe  Fe6  1  0.60529800  0.83317700  0.34857300  1
  Fe  Fe7  1  0.44489400  0.10653000  0.90468300  1
  Fe  Fe8  1  0.90933800  0.08750500  0.58664300  1
  Fe  Fe9  1  0.44667450  0.77955050  0.57889500  1
  Fe  Fe10  1  0.60529800  0.16682300  0.34857300  1
  Fe  Fe11  1  0.94489400  0.39347000  0.90468300  1
  Fe  Fe12  1  0.94667450  0.72044950  0.57889500  1
  Fe  Fe13  1  0.40933800  0.41249500  0.58664300  1
  Fe  Fe14  1  0.68984300  0.50000000  0.76677800  1
  Fe  Fe15  1  0.10529800  0.33317700  0.34857300  1
  Fe  Fe16  1  0.94489400  0.60653000  0.90468300  1
  Fe  Fe17  1  0.40933800  0.58750500  0.58664300  1
  Fe  Fe18  1  0.94667450  0.27955050  0.57889500  1
  Fe  Fe19  1  0.10529800  0.66682300  0.34857300  1
  Si  Si20  1  0.71882000  0.09517300  0.81252600  1
  Si  Si21  1  0.49780400  0.68920200  0.99919000  1
  Si  Si22  1  0.28146400  0.90675400  0.18861500  1
  Si  Si23  1  0.49780400  0.31079800  0.99919000  1
  Si  Si24  1  0.71882000  0.90482700  0.81252600  1
  Si  Si25  1  0.28146400  0.09324600  0.18861500  1
  Si  Si26  1  0.21882000  0.59517300  0.81252600  1
  Si  Si27  1  0.99780400  0.18920200  0.99919000  1
  Si  Si28  1  0.78146400  0.40675400  0.18861500  1
  Si  Si29  1  0.99780400  0.81079800  0.99919000  1
  Si  Si30  1  0.21882000  0.40482700  0.81252600  1
  Si  Si31  1  0.78146400  0.59324600  0.18861500  1
  B  B32  1  0.16444100  0.83636100  0.56531600  1
  B  B33  1  0.67358500  0.00000000  0.23829200  1
  B  B34  1  0.16444100  0.16363900  0.56531600  1
  B  B35  1  0.66444100  0.33636100  0.56531600  1
  B  B36  1  0.17358500  0.50000000  0.23829200  1
  B  B37  1  0.66444100  0.66363900  0.56531600  1
  H  H38  1  0.81500050  0.81547250  0.26541100  1
  H  H39  1  0.81500050  0.18452750  0.26541100  1
  H  H40  1  0.31500050  0.31547250  0.26541100  1
  H  H41  1  0.31500050  0.68452750  0.26541100  1
  O  O42  1  0.36381800  0.63665400  0.99456100  1
  O  O43  1  0.42077950  0.14145050  0.35544400  1
  O  O44  1  0.57870300  0.85963600  0.79483000  1
  O  O45  1  0.30936200  0.83436300  0.64674500  1
  O  O46  1  0.58991300  0.26380600  0.49980700  1
  O  O47  1  0.72524300  0.00000000  0.88656300  1
  O  O48  1  0.63728700  0.63865800  0.16355600  1
  O  O49  1  0.28646500  0.90939300  0.97770100  1
  O  O50  1  0.48771700  0.31020400  0.77862800  1
  O  O51  1  0.38470400  0.00000000  0.78111500  1
  O  O52  1  0.30734150  0.30726350  0.38713800  1
  O  O53  1  0.09363700  0.90879400  0.55195700  1
  O  O54  1  0.50005600  0.78216400  0.07661500  1
  O  O55  1  0.57870300  0.14036400  0.79483000  1
  O  O56  1  0.28646500  0.09060700  0.97770100  1
  O  O57  1  0.72296000  0.89921300  0.60123500  1
  O  O58  1  0.01205500  0.00000000  0.78528700  1
  O  O59  1  0.30936200  0.16563700  0.64674500  1
  O  O60  1  0.60006000  0.92746600  0.17527200  1
  O  O61  1  0.09363700  0.09120600  0.55195700  1
  O  O62  1  0.81752600  0.00000000  0.36340000  1
  O  O63  1  0.60006000  0.07253400  0.17527200  1
  O  O64  1  0.58991300  0.73619400  0.49980700  1
  O  O65  1  0.72296000  0.10078700  0.60123500  1
  O  O66  1  0.48771700  0.68979600  0.77862800  1
  O  O67  1  0.30734150  0.69273650  0.38713800  1
  O  O68  1  0.36381800  0.36334600  0.99456100  1
  O  O69  1  0.26979700  0.00000000  0.26253200  1
  O  O70  1  0.42077950  0.85854950  0.35544400  1
  O  O71  1  0.50005600  0.21783600  0.07661500  1
  O  O72  1  0.63728700  0.36134200  0.16355600  1
  O  O73  1  0.86381800  0.13665400  0.99456100  1
  O  O74  1  0.92077950  0.64145050  0.35544400  1
  O  O75  1  0.07870300  0.35963600  0.79483000  1
  O  O76  1  0.80936200  0.33436300  0.64674500  1
  O  O77  1  0.08991300  0.76380600  0.49980700  1
  O  O78  1  0.22524300  0.50000000  0.88656300  1
  O  O79  1  0.13728700  0.13865800  0.16355600  1
  O  O80  1  0.78646500  0.40939300  0.97770100  1
  O  O81  1  0.98771700  0.81020400  0.77862800  1
  O  O82  1  0.88470400  0.50000000  0.78111500  1
  O  O83  1  0.80734150  0.80726350  0.38713800  1
  O  O84  1  0.59363700  0.40879400  0.55195700  1
  O  O85  1  0.00005600  0.28216400  0.07661500  1
  O  O86  1  0.07870300  0.64036400  0.79483000  1
  O  O87  1  0.78646500  0.59060700  0.97770100  1
  O  O88  1  0.22296000  0.39921300  0.60123500  1
  O  O89  1  0.51205500  0.50000000  0.78528700  1
  O  O90  1  0.80936200  0.66563700  0.64674500  1
  O  O91  1  0.10006000  0.42746600  0.17527200  1
  O  O92  1  0.59363700  0.59120600  0.55195700  1
  O  O93  1  0.31752600  0.50000000  0.36340000  1
  O  O94  1  0.10006000  0.57253400  0.17527200  1
  O  O95  1  0.08991300  0.23619400  0.49980700  1
  O  O96  1  0.22296000  0.60078700  0.60123500  1
  O  O97  1  0.98771700  0.18979600  0.77862800  1
  O  O98  1  0.80734150  0.19273650  0.38713800  1
  O  O99  1  0.86381800  0.86334600  0.99456100  1
  O  O100  1  0.76979700  0.50000000  0.26253200  1
  O  O101  1  0.92077950  0.35854950  0.35544400  1
  O  O102  1  0.00005600  0.71783600  0.07661500  1
  O  O103  1  0.13728700  0.86134200  0.16355600  1
