# generated using pymatgen
data_Li3MnO4
_symmetry_space_group_name_H-M   'P 1'
_cell_length_a   8.20462200
_cell_length_b   8.20462200
_cell_length_c   8.20462200
_cell_angle_alpha   90.00000000
_cell_angle_beta   90.00000000
_cell_angle_gamma   90.00000000
_symmetry_Int_Tables_number   1
_chemical_formula_structural   Li3MnO4
_chemical_formula_sum   'Li24 Mn8 O32'
_cell_volume   552.30087547
_cell_formula_units_Z   8
loop_
 _symmetry_equiv_pos_site_id
 _symmetry_equiv_pos_as_xyz
  1  'x, y, z'
loop_
 _atom_site_type_symbol
 _atom_site_label
 _atom_site_symmetry_multiplicity
 _atom_site_fract_x
 _atom_site_fract_y
 _atom_site_fract_z
 _atom_site_occupancy
  Li  Li0  1  0.87255200  0.12744800  0.61128200  1
  Li  Li1  1  0.37255200  0.88871800  0.37255200  1
  Li  Li2  1  0.88871800  0.37255200  0.37255200  1
  Li  Li3  1  0.37255200  0.37255200  0.88871800  1
  Li  Li4  1  0.12744800  0.38871800  0.12744800  1
  Li  Li5  1  0.38871800  0.12744800  0.12744800  1
  Li  Li6  1  0.12744800  0.12744800  0.38871800  1
  Li  Li7  1  0.61128200  0.87255200  0.12744800  1
  Li  Li8  1  0.12744800  0.87255200  0.61128200  1
  Li  Li9  1  0.87255200  0.61128200  0.12744800  1
  Li  Li10  1  0.12744800  0.61128200  0.87255200  1
  Li  Li11  1  0.61128200  0.12744800  0.87255200  1
  Li  Li12  1  0.37255200  0.62744800  0.11128200  1
  Li  Li13  1  0.87255200  0.38871800  0.87255200  1
  Li  Li14  1  0.38871800  0.87255200  0.87255200  1
  Li  Li15  1  0.87255200  0.87255200  0.38871800  1
  Li  Li16  1  0.62744800  0.88871800  0.62744800  1
  Li  Li17  1  0.88871800  0.62744800  0.62744800  1
  Li  Li18  1  0.62744800  0.62744800  0.88871800  1
  Li  Li19  1  0.11128200  0.37255200  0.62744800  1
  Li  Li20  1  0.62744800  0.37255200  0.11128200  1
  Li  Li21  1  0.37255200  0.11128200  0.62744800  1
  Li  Li22  1  0.62744800  0.11128200  0.37255200  1
  Li  Li23  1  0.11128200  0.62744800  0.37255200  1
  Mn  Mn24  1  0.36853000  0.36853000  0.36853000  1
  Mn  Mn25  1  0.13147000  0.13147000  0.86853000  1
  Mn  Mn26  1  0.86853000  0.13147000  0.13147000  1
  Mn  Mn27  1  0.13147000  0.86853000  0.13147000  1
  Mn  Mn28  1  0.86853000  0.86853000  0.86853000  1
  Mn  Mn29  1  0.63147000  0.63147000  0.36853000  1
  Mn  Mn30  1  0.36853000  0.63147000  0.63147000  1
  Mn  Mn31  1  0.63147000  0.36853000  0.63147000  1
  O  O32  1  0.11374100  0.11374100  0.11374100  1
  O  O33  1  0.35541500  0.87894000  0.12106000  1
  O  O34  1  0.38625900  0.61374100  0.38625900  1
  O  O35  1  0.87894000  0.12106000  0.35541500  1
  O  O36  1  0.12106000  0.87894000  0.35541500  1
  O  O37  1  0.35541500  0.12106000  0.87894000  1
  O  O38  1  0.12106000  0.12106000  0.64458500  1
  O  O39  1  0.12106000  0.35541500  0.87894000  1
  O  O40  1  0.87894000  0.35541500  0.12106000  1
  O  O41  1  0.12106000  0.64458500  0.12106000  1
  O  O42  1  0.64458500  0.12106000  0.12106000  1
  O  O43  1  0.61374100  0.38625900  0.38625900  1
  O  O44  1  0.14458500  0.37894000  0.37894000  1
  O  O45  1  0.37894000  0.14458500  0.37894000  1
  O  O46  1  0.37894000  0.37894000  0.14458500  1
  O  O47  1  0.38625900  0.38625900  0.61374100  1
  O  O48  1  0.61374100  0.61374100  0.61374100  1
  O  O49  1  0.85541500  0.37894000  0.62106000  1
  O  O50  1  0.88625900  0.11374100  0.88625900  1
  O  O51  1  0.37894000  0.62106000  0.85541500  1
  O  O52  1  0.62106000  0.37894000  0.85541500  1
  O  O53  1  0.85541500  0.62106000  0.37894000  1
  O  O54  1  0.62106000  0.62106000  0.14458500  1
  O  O55  1  0.62106000  0.85541500  0.37894000  1
  O  O56  1  0.37894000  0.85541500  0.62106000  1
  O  O57  1  0.62106000  0.14458500  0.62106000  1
  O  O58  1  0.14458500  0.62106000  0.62106000  1
  O  O59  1  0.11374100  0.88625900  0.88625900  1
  O  O60  1  0.64458500  0.87894000  0.87894000  1
  O  O61  1  0.87894000  0.64458500  0.87894000  1
  O  O62  1  0.87894000  0.87894000  0.64458500  1
  O  O63  1  0.88625900  0.88625900  0.11374100  1
