# generated using pymatgen
data_LiMn3(NiO4)2
_symmetry_space_group_name_H-M   'P 1'
_cell_length_a   5.84588000
_cell_length_b   5.91297400
_cell_length_c   8.52874200
_cell_angle_alpha   90.00000000
_cell_angle_beta   90.00000000
_cell_angle_gamma   90.00000000
_symmetry_Int_Tables_number   1
_chemical_formula_structural   LiMn3(NiO4)2
_chemical_formula_sum   'Li2 Mn6 Ni4 O16'
_cell_volume   294.80907119
_cell_formula_units_Z   2
loop_
 _symmetry_equiv_pos_site_id
 _symmetry_equiv_pos_as_xyz
  1  'x, y, z'
loop_
 _atom_site_type_symbol
 _atom_site_label
 _atom_site_symmetry_multiplicity
 _atom_site_fract_x
 _atom_site_fract_y
 _atom_site_fract_z
 _atom_site_occupancy
  Li  Li0  1  0.50000000  0.50000000  0.11482100  1
  Li  Li1  1  0.00000000  0.00000000  0.61482100  1
  Mn  Mn2  1  0.00000000  0.50000000  0.38472900  1
  Mn  Mn3  1  0.74618800  0.00000000  0.25363300  1
  Mn  Mn4  1  0.25381200  0.00000000  0.25363300  1
  Mn  Mn5  1  0.50000000  0.00000000  0.88472900  1
  Mn  Mn6  1  0.24618800  0.50000000  0.75363300  1
  Mn  Mn7  1  0.75381200  0.50000000  0.75363300  1
  Ni  Ni8  1  0.50000000  0.75230500  0.49885800  1
  Ni  Ni9  1  0.50000000  0.24769500  0.49885800  1
  Ni  Ni10  1  0.00000000  0.25230500  0.99885800  1
  Ni  Ni11  1  0.00000000  0.74769500  0.99885800  1
  O  O12  1  0.77172400  0.00000000  0.02347900  1
  O  O13  1  0.22827600  0.00000000  0.02347900  1
  O  O14  1  0.00000000  0.21915400  0.24688900  1
  O  O15  1  0.00000000  0.78084600  0.24688900  1
  O  O16  1  0.50000000  0.21802850  0.25142550  1
  O  O17  1  0.50000000  0.78197150  0.25142550  1
  O  O18  1  0.73071000  0.00000000  0.47594100  1
  O  O19  1  0.26929000  0.00000000  0.47594100  1
  O  O20  1  0.27172400  0.50000000  0.52347900  1
  O  O21  1  0.72827600  0.50000000  0.52347900  1
  O  O22  1  0.50000000  0.71915400  0.74688900  1
  O  O23  1  0.50000000  0.28084600  0.74688900  1
  O  O24  1  0.00000000  0.71802850  0.75142550  1
  O  O25  1  0.00000000  0.28197150  0.75142550  1
  O  O26  1  0.23071000  0.50000000  0.97594100  1
  O  O27  1  0.76929000  0.50000000  0.97594100  1
