# generated using pymatgen
data_LiVF4
_symmetry_space_group_name_H-M   'P 1'
_cell_length_a   10.77508400
_cell_length_b   6.07269400
_cell_length_c   5.12095670
_cell_angle_alpha   90.00000000
_cell_angle_beta   111.21552048
_cell_angle_gamma   90.00000000
_symmetry_Int_Tables_number   1
_chemical_formula_structural   LiVF4
_chemical_formula_sum   'Li4 V4 F16'
_cell_volume   312.37357512
_cell_formula_units_Z   4
loop_
 _symmetry_equiv_pos_site_id
 _symmetry_equiv_pos_as_xyz
  1  'x, y, z'
loop_
 _atom_site_type_symbol
 _atom_site_label
 _atom_site_symmetry_multiplicity
 _atom_site_fract_x
 _atom_site_fract_y
 _atom_site_fract_z
 _atom_site_occupancy
  Li  Li0  1  0.25000000  0.75000000  0.00000000  1
  Li  Li1  1  0.25000000  0.25000000  0.50000000  1
  Li  Li2  1  0.75000000  0.25000000  0.00000000  1
  Li  Li3  1  0.75000000  0.75000000  0.50000000  1
  V  V4  1  0.00000000  0.85032300  0.25000000  1
  V  V5  1  0.00000000  0.14967700  0.75000000  1
  V  V6  1  0.50000000  0.35032300  0.25000000  1
  V  V7  1  0.50000000  0.64967700  0.75000000  1
  F  F8  1  0.10103550  0.10944950  0.17377900  1
  F  F9  1  0.12469850  0.66753850  0.18730500  1
  F  F10  1  0.10103550  0.89055050  0.67377900  1
  F  F11  1  0.12469850  0.33246150  0.68730500  1
  F  F12  1  0.37530150  0.83246150  0.81269500  1
  F  F13  1  0.39896450  0.39055050  0.82622100  1
  F  F14  1  0.37530150  0.16753850  0.31269500  1
  F  F15  1  0.39896450  0.60944950  0.32622100  1
  F  F16  1  0.60103550  0.60944950  0.17377900  1
  F  F17  1  0.62469850  0.16753850  0.18730500  1
  F  F18  1  0.60103550  0.39055050  0.67377900  1
  F  F19  1  0.62469850  0.83246150  0.68730500  1
  F  F20  1  0.87530150  0.33246150  0.81269500  1
  F  F21  1  0.89896450  0.89055050  0.82622100  1
  F  F22  1  0.87530150  0.66753850  0.31269500  1
  F  F23  1  0.89896450  0.10944950  0.32622100  1
