# generated using pymatgen
data_CdCoO3
_symmetry_space_group_name_H-M   'P 1'
_cell_length_a   10.23105838
_cell_length_b   9.07849602
_cell_length_c   5.13142508
_cell_angle_alpha   90.00000000
_cell_angle_beta   96.03494044
_cell_angle_gamma   90.00000000
_symmetry_Int_Tables_number   1
_chemical_formula_structural   CdCoO3
_chemical_formula_sum   'Cd8 Co8 O24'
_cell_volume   473.97877518
_cell_formula_units_Z   8
loop_
 _symmetry_equiv_pos_site_id
 _symmetry_equiv_pos_as_xyz
  1  'x, y, z'
loop_
 _atom_site_type_symbol
 _atom_site_label
 _atom_site_symmetry_multiplicity
 _atom_site_fract_x
 _atom_site_fract_y
 _atom_site_fract_z
 _atom_site_occupancy
  Cd  Cd0  1  0.71174550  0.88749150  0.77530500  1
  Cd  Cd1  1  0.71174550  0.11250850  0.27530500  1
  Cd  Cd2  1  0.28825450  0.88749150  0.72469500  1
  Cd  Cd3  1  0.28825450  0.11250850  0.22469500  1
  Cd  Cd4  1  0.21174550  0.38749150  0.77530500  1
  Cd  Cd5  1  0.21174550  0.61250850  0.27530500  1
  Cd  Cd6  1  0.78825450  0.38749150  0.72469500  1
  Cd  Cd7  1  0.78825450  0.61250850  0.22469500  1
  Co  Co8  1  0.50000000  0.75870200  0.25000000  1
  Co  Co9  1  0.50000000  0.42337600  0.25000000  1
  Co  Co10  1  0.50000000  0.24129800  0.75000000  1
  Co  Co11  1  0.50000000  0.57662400  0.75000000  1
  Co  Co12  1  0.00000000  0.25870200  0.25000000  1
  Co  Co13  1  0.00000000  0.92337600  0.25000000  1
  Co  Co14  1  0.00000000  0.74129800  0.75000000  1
  Co  Co15  1  0.00000000  0.07662400  0.75000000  1
  O  O16  1  0.90720650  0.91865950  0.56270000  1
  O  O17  1  0.90720650  0.08134050  0.06270000  1
  O  O18  1  0.09279350  0.91865950  0.93730000  1
  O  O19  1  0.09279350  0.08134050  0.43730000  1
  O  O20  1  0.62679850  0.11379150  0.85867400  1
  O  O21  1  0.62679850  0.88620850  0.35867400  1
  O  O22  1  0.37320150  0.11379150  0.64132600  1
  O  O23  1  0.37320150  0.88620850  0.14132600  1
  O  O24  1  0.60678700  0.70593800  0.94583600  1
  O  O25  1  0.60678700  0.29406200  0.44583600  1
  O  O26  1  0.39321300  0.70593800  0.55416400  1
  O  O27  1  0.39321300  0.29406200  0.05416400  1
  O  O28  1  0.40720650  0.41865950  0.56270000  1
  O  O29  1  0.40720650  0.58134050  0.06270000  1
  O  O30  1  0.59279350  0.41865950  0.93730000  1
  O  O31  1  0.59279350  0.58134050  0.43730000  1
  O  O32  1  0.12679850  0.61379150  0.85867400  1
  O  O33  1  0.12679850  0.38620850  0.35867400  1
  O  O34  1  0.87320150  0.61379150  0.64132600  1
  O  O35  1  0.87320150  0.38620850  0.14132600  1
  O  O36  1  0.10678700  0.20593800  0.94583600  1
  O  O37  1  0.10678700  0.79406200  0.44583600  1
  O  O38  1  0.89321300  0.20593800  0.55416400  1
  O  O39  1  0.89321300  0.79406200  0.05416400  1
