# generated using pymatgen
data_MnCo3O8
_symmetry_space_group_name_H-M   'P 1'
_cell_length_a   5.63065434
_cell_length_b   5.63065434
_cell_length_c   14.11676238
_cell_angle_alpha   90.00000000
_cell_angle_beta   90.00000000
_cell_angle_gamma   120.00000000
_symmetry_Int_Tables_number   1
_chemical_formula_structural   MnCo3O8
_chemical_formula_sum   'Mn3 Co9 O24'
_cell_volume   387.59973409
_cell_formula_units_Z   3
loop_
 _symmetry_equiv_pos_site_id
 _symmetry_equiv_pos_as_xyz
  1  'x, y, z'
loop_
 _atom_site_type_symbol
 _atom_site_label
 _atom_site_symmetry_multiplicity
 _atom_site_fract_x
 _atom_site_fract_y
 _atom_site_fract_z
 _atom_site_occupancy
  Mn  Mn0  1  0.33333333  0.66666667  0.16666667  1
  Mn  Mn1  1  1.00000000  1.00000000  0.50000000  1
  Mn  Mn2  1  0.66666667  0.33333333  0.83333333  1
  Co  Co3  1  0.50000000  0.50000000  0.00000000  1
  Co  Co4  1  0.00000000  0.50000000  0.00000000  1
  Co  Co5  1  0.50000000  0.00000000  0.00000000  1
  Co  Co6  1  0.16666667  0.83333333  0.33333333  1
  Co  Co7  1  0.66666667  0.83333333  0.33333333  1
  Co  Co8  1  0.16666667  0.33333333  0.33333333  1
  Co  Co9  1  0.83333333  0.16666667  0.66666667  1
  Co  Co10  1  0.33333333  0.16666667  0.66666667  1
  Co  Co11  1  0.83333333  0.66666667  0.66666667  1
  O  O12  1  0.03718000  0.51859000  0.25737600  1
  O  O13  1  0.48141000  0.51859000  0.25737600  1
  O  O14  1  0.00000000  0.00000000  0.26466600  1
  O  O15  1  0.48141000  0.96282000  0.25737600  1
  O  O16  1  0.18525667  0.37051333  0.07595733  1
  O  O17  1  0.66666667  0.33333333  0.06866733  1
  O  O18  1  0.18525667  0.81474333  0.07595733  1
  O  O19  1  0.62948667  0.81474333  0.07595733  1
  O  O20  1  0.70384667  0.85192333  0.59070933  1
  O  O21  1  0.14807667  0.85192333  0.59070933  1
  O  O22  1  0.66666667  0.33333333  0.59799933  1
  O  O23  1  0.14807667  0.29615333  0.59070933  1
  O  O24  1  0.85192333  0.70384667  0.40929067  1
  O  O25  1  0.33333333  0.66666667  0.40200067  1
  O  O26  1  0.85192333  0.14807667  0.40929067  1
  O  O27  1  0.29615333  0.14807667  0.40929067  1
  O  O28  1  0.37051333  0.18525667  0.92404267  1
  O  O29  1  0.81474333  0.18525667  0.92404267  1
  O  O30  1  0.33333333  0.66666667  0.93133267  1
  O  O31  1  0.81474333  0.62948667  0.92404267  1
  O  O32  1  0.51859000  0.03718000  0.74262400  1
  O  O33  1  0.00000000  0.00000000  0.73533400  1
  O  O34  1  0.51859000  0.48141000  0.74262400  1
  O  O35  1  0.96282000  0.48141000  0.74262400  1
