# generated using pymatgen
data_Li4Nb3V3Cr2O16
_symmetry_space_group_name_H-M   'P 1'
_cell_length_a   10.46307953
_cell_length_b   6.03676020
_cell_length_c   9.80421333
_cell_angle_alpha   90.00000000
_cell_angle_beta   90.83526020
_cell_angle_gamma   90.00000000
_symmetry_Int_Tables_number   1
_chemical_formula_structural   Li4Nb3V3Cr2O16
_chemical_formula_sum   'Li8 Nb6 V6 Cr4 O32'
_cell_volume   619.19872567
_cell_formula_units_Z   2
loop_
 _symmetry_equiv_pos_site_id
 _symmetry_equiv_pos_as_xyz
  1  'x, y, z'
loop_
 _atom_site_type_symbol
 _atom_site_label
 _atom_site_symmetry_multiplicity
 _atom_site_fract_x
 _atom_site_fract_y
 _atom_site_fract_z
 _atom_site_occupancy
  Li  Li0  1  0.66655900  0.00000000  0.10214600  1
  Li  Li1  1  0.50796050  0.50000000  0.00631400  1
  Li  Li2  1  0.50870100  0.50000000  0.50469100  1
  Li  Li3  1  0.83441750  0.50000000  0.61313800  1
  Li  Li4  1  0.16655900  0.50000000  0.10214600  1
  Li  Li5  1  0.00796050  0.00000000  0.00631400  1
  Li  Li6  1  0.00870100  0.00000000  0.50469100  1
  Li  Li7  1  0.33441750  0.00000000  0.61313800  1
  Nb  Nb8  1  0.83136450  0.00000000  0.78631500  1
  Nb  Nb9  1  0.91146200  0.73727000  0.28755100  1
  Nb  Nb10  1  0.91146200  0.26273000  0.28755100  1
  Nb  Nb11  1  0.33136450  0.50000000  0.78631500  1
  Nb  Nb12  1  0.41146200  0.23727000  0.28755100  1
  Nb  Nb13  1  0.41146200  0.76273000  0.28755100  1
  V  V14  1  0.58647100  0.24549600  0.78726900  1
  V  V15  1  0.58647100  0.75450400  0.78726900  1
  V  V16  1  0.67320350  0.50000000  0.28815700  1
  V  V17  1  0.08647100  0.74549600  0.78726900  1
  V  V18  1  0.08647100  0.25450400  0.78726900  1
  V  V19  1  0.17320350  0.00000000  0.28815700  1
  Cr  Cr20  1  0.66123900  0.00000000  0.51851600  1
  Cr  Cr21  1  0.83023700  0.50000000  0.01030600  1
  Cr  Cr22  1  0.16123900  0.50000000  0.51851600  1
  Cr  Cr23  1  0.33023700  0.00000000  0.01030600  1
  O  O24  1  0.57603050  0.24413150  0.39939700  1
  O  O25  1  0.52072300  0.00000000  0.66287200  1
  O  O26  1  0.67311000  0.00000000  0.89985400  1
  O  O27  1  0.99789000  0.00000000  0.68655800  1
  O  O28  1  0.99781150  0.00000000  0.18962600  1
  O  O29  1  0.57603050  0.75586850  0.39939700  1
  O  O30  1  0.74170900  0.21802100  0.65824000  1
  O  O31  1  0.74170900  0.78197900  0.65824000  1
  O  O32  1  0.66254950  0.50000000  0.89719800  1
  O  O33  1  0.83134550  0.00000000  0.39881400  1
  O  O34  1  0.76363500  0.72443100  0.15292500  1
  O  O35  1  0.76363500  0.27556900  0.15292500  1
  O  O36  1  0.83390300  0.50000000  0.41400300  1
  O  O37  1  0.91438800  0.75428900  0.89679400  1
  O  O38  1  0.98121700  0.50000000  0.14931700  1
  O  O39  1  0.91438800  0.24571100  0.89679400  1
  O  O40  1  0.07603050  0.74413150  0.39939700  1
  O  O41  1  0.02072300  0.50000000  0.66287200  1
  O  O42  1  0.17311000  0.50000000  0.89985400  1
  O  O43  1  0.49789000  0.50000000  0.68655800  1
  O  O44  1  0.49781150  0.50000000  0.18962600  1
  O  O45  1  0.07603050  0.25586850  0.39939700  1
  O  O46  1  0.24170900  0.71802100  0.65824000  1
  O  O47  1  0.24170900  0.28197900  0.65824000  1
  O  O48  1  0.16254950  0.00000000  0.89719800  1
  O  O49  1  0.33134550  0.50000000  0.39881400  1
  O  O50  1  0.26363500  0.22443100  0.15292500  1
  O  O51  1  0.26363500  0.77556900  0.15292500  1
  O  O52  1  0.33390300  0.00000000  0.41400300  1
  O  O53  1  0.41438800  0.25428900  0.89679400  1
  O  O54  1  0.48121700  0.00000000  0.14931700  1
  O  O55  1  0.41438800  0.74571100  0.89679400  1
