# generated using pymatgen
data_LiV6O7F5
_symmetry_space_group_name_H-M   'P 1'
_cell_length_a   6.58826400
_cell_length_b   9.28484100
_cell_length_c   9.61386788
_cell_angle_alpha   90.00000000
_cell_angle_beta   133.21312776
_cell_angle_gamma   90.00000000
_symmetry_Int_Tables_number   1
_chemical_formula_structural   LiV6O7F5
_chemical_formula_sum   'Li2 V12 O14 F10'
_cell_volume   428.60673153
_cell_formula_units_Z   2
loop_
 _symmetry_equiv_pos_site_id
 _symmetry_equiv_pos_as_xyz
  1  'x, y, z'
loop_
 _atom_site_type_symbol
 _atom_site_label
 _atom_site_symmetry_multiplicity
 _atom_site_fract_x
 _atom_site_fract_y
 _atom_site_fract_z
 _atom_site_occupancy
  Li  Li0  1  0.50673900  0.76458300  0.24857800  1
  Li  Li1  1  0.50673900  0.23541700  0.74857800  1
  V  V2  1  0.04672500  0.50261100  0.02089700  1
  V  V3  1  0.50339500  0.00018300  0.00666100  1
  V  V4  1  0.03059500  0.17067100  0.02435100  1
  V  V5  1  0.98654900  0.82857400  0.00020100  1
  V  V6  1  0.03059500  0.82932900  0.52435100  1
  V  V7  1  0.98654900  0.17142600  0.50020100  1
  V  V8  1  0.04672500  0.49738900  0.52089700  1
  V  V9  1  0.47014500  0.67313800  0.48474700  1
  V  V10  1  0.46408300  0.32684200  0.46349200  1
  V  V11  1  0.50339500  0.99981700  0.50666100  1
  V  V12  1  0.46408300  0.67315800  0.96349200  1
  V  V13  1  0.47014500  0.32686200  0.98474700  1
  O  O14  1  0.20424200  0.67155800  0.19850300  1
  O  O15  1  0.19758300  0.33640200  0.19289200  1
  O  O16  1  0.68821700  0.83557500  0.99567000  1
  O  O17  1  0.69459500  0.16616000  0.99632600  1
  O  O18  1  0.69459500  0.83384000  0.49632600  1
  O  O19  1  0.68821700  0.16442500  0.49567000  1
  O  O20  1  0.20424200  0.32844200  0.69850300  1
  O  O21  1  0.19758300  0.66359800  0.69289200  1
  O  O22  1  0.29370500  0.16317900  0.50134500  1
  O  O23  1  0.30206200  0.83939500  0.50569400  1
  O  O24  1  0.31575600  0.49633800  0.50121700  1
  O  O25  1  0.29370500  0.83682100  0.00134500  1
  O  O26  1  0.30206200  0.16060500  0.00569400  1
  O  O27  1  0.31575600  0.50366200  0.00121700  1
  F  F28  1  0.70122400  0.50142200  0.49052800  1
  F  F29  1  0.80642000  0.66788800  0.30621200  1
  F  F30  1  0.79860200  0.33688800  0.30030400  1
  F  F31  1  0.80338200  0.99663000  0.31015800  1
  F  F32  1  0.80642000  0.33211200  0.80621200  1
  F  F33  1  0.79860200  0.66311200  0.80030400  1
  F  F34  1  0.19792500  0.99483100  0.20255000  1
  F  F35  1  0.19792500  0.00516900  0.70255000  1
  F  F36  1  0.70122400  0.49857800  0.99052800  1
  F  F37  1  0.80338200  0.00337000  0.81015800  1
