# generated using pymatgen
data_Li2FeSi3O8
_symmetry_space_group_name_H-M   'P 1'
_cell_length_a   5.10320700
_cell_length_b   6.29378540
_cell_length_c   6.29812783
_cell_angle_alpha   76.45197655
_cell_angle_beta   72.65964449
_cell_angle_gamma   74.40858295
_symmetry_Int_Tables_number   1
_chemical_formula_structural   Li2FeSi3O8
_chemical_formula_sum   'Li2 Fe1 Si3 O8'
_cell_volume   183.35467800
_cell_formula_units_Z   1
loop_
 _symmetry_equiv_pos_site_id
 _symmetry_equiv_pos_as_xyz
  1  'x, y, z'
loop_
 _atom_site_type_symbol
 _atom_site_label
 _atom_site_symmetry_multiplicity
 _atom_site_fract_x
 _atom_site_fract_y
 _atom_site_fract_z
 _atom_site_occupancy
  Li  Li0  1  0.71986900  0.85440000  0.35825600  1
  Li  Li1  1  0.21851500  0.12083250  0.69226600  1
  Fe  Fe2  1  0.34929600  0.62678850  0.70924200  1
  Si  Si3  1  0.70145000  0.81967200  0.88371050  1
  Si  Si4  1  0.67302900  0.39901850  0.24372700  1
  Si  Si5  1  0.28061900  0.19403150  0.11289350  1
  O  O6  1  0.01256300  0.86841900  0.81938450  1
  O  O7  1  0.94728000  0.17810500  0.24046500  1
  O  O8  1  0.56114300  0.88187000  0.67171650  1
  O  O9  1  0.64458500  0.54509600  0.42860800  1
  O  O10  1  0.29695500  0.32284700  0.85959300  1
  O  O11  1  0.71137600  0.55000650  0.98981700  1
  O  O12  1  0.49276600  0.94411650  0.10459500  1
  O  O13  1  0.39055500  0.29339750  0.28712500  1
