# generated using pymatgen
data_Li2CrFeO4
_symmetry_space_group_name_H-M   'P 1'
_cell_length_a   5.92586400
_cell_length_b   5.94942200
_cell_length_c   8.44120800
_cell_angle_alpha   90.00000000
_cell_angle_beta   90.00000000
_cell_angle_gamma   90.00000000
_symmetry_Int_Tables_number   1
_chemical_formula_structural   Li2CrFeO4
_chemical_formula_sum   'Li8 Cr4 Fe4 O16'
_cell_volume   297.59871869
_cell_formula_units_Z   4
loop_
 _symmetry_equiv_pos_site_id
 _symmetry_equiv_pos_as_xyz
  1  'x, y, z'
loop_
 _atom_site_type_symbol
 _atom_site_label
 _atom_site_symmetry_multiplicity
 _atom_site_fract_x
 _atom_site_fract_y
 _atom_site_fract_z
 _atom_site_occupancy
  Li  Li0  1  0.25000000  0.75000000  0.75000000  1
  Li  Li1  1  0.75000000  0.75000000  0.75000000  1
  Li  Li2  1  0.50000000  0.50000000  0.00000000  1
  Li  Li3  1  0.50000000  0.00000000  0.00000000  1
  Li  Li4  1  0.75000000  0.25000000  0.25000000  1
  Li  Li5  1  0.25000000  0.25000000  0.25000000  1
  Li  Li6  1  0.00000000  0.00000000  0.50000000  1
  Li  Li7  1  0.00000000  0.50000000  0.50000000  1
  Cr  Cr8  1  0.00000000  0.00000000  0.00000000  1
  Cr  Cr9  1  0.00000000  0.50000000  0.00000000  1
  Cr  Cr10  1  0.50000000  0.50000000  0.50000000  1
  Cr  Cr11  1  0.50000000  0.00000000  0.50000000  1
  Fe  Fe12  1  0.25000000  0.25000000  0.75000000  1
  Fe  Fe13  1  0.75000000  0.25000000  0.75000000  1
  Fe  Fe14  1  0.75000000  0.75000000  0.25000000  1
  Fe  Fe15  1  0.25000000  0.75000000  0.25000000  1
  O  O16  1  0.73516400  0.25000000  0.50709800  1
  O  O17  1  0.26483600  0.25000000  0.50709800  1
  O  O18  1  0.00000000  0.48705750  0.75841950  1
  O  O19  1  0.00000000  0.01294250  0.75841950  1
  O  O20  1  0.50000000  0.48705750  0.74158050  1
  O  O21  1  0.50000000  0.01294250  0.74158050  1
  O  O22  1  0.23516400  0.25000000  0.99290200  1
  O  O23  1  0.76483600  0.25000000  0.99290200  1
  O  O24  1  0.23516400  0.75000000  0.00709800  1
  O  O25  1  0.76483600  0.75000000  0.00709800  1
  O  O26  1  0.50000000  0.98705750  0.25841950  1
  O  O27  1  0.50000000  0.51294250  0.25841950  1
  O  O28  1  0.00000000  0.98705750  0.24158050  1
  O  O29  1  0.00000000  0.51294250  0.24158050  1
  O  O30  1  0.73516400  0.75000000  0.49290200  1
  O  O31  1  0.26483600  0.75000000  0.49290200  1
