# generated using pymatgen
data_Li2MnOF3
_symmetry_space_group_name_H-M   'P 1'
_cell_length_a   2.88397119
_cell_length_b   5.02475994
_cell_length_c   10.27410330
_cell_angle_alpha   90.00000000
_cell_angle_beta   90.00000000
_cell_angle_gamma   90.00000000
_symmetry_Int_Tables_number   1
_chemical_formula_structural   Li2MnOF3
_chemical_formula_sum   'Li4 Mn2 O2 F6'
_cell_volume   148.88473192
_cell_formula_units_Z   2
loop_
 _symmetry_equiv_pos_site_id
 _symmetry_equiv_pos_as_xyz
  1  'x, y, z'
loop_
 _atom_site_type_symbol
 _atom_site_label
 _atom_site_symmetry_multiplicity
 _atom_site_fract_x
 _atom_site_fract_y
 _atom_site_fract_z
 _atom_site_occupancy
  Li  Li0  1  0.50000000  0.74082975  0.27154900  1
  Li  Li1  1  0.50000000  0.25917025  0.77154900  1
  Li  Li2  1  0.50000000  0.25335775  0.20762100  1
  Li  Li3  1  0.50000000  0.74664225  0.70762100  1
  Mn  Mn4  1  0.00000000  0.27333775  0.50573250  1
  Mn  Mn5  1  0.00000000  0.72666225  0.00573250  1
  O  O6  1  0.50000000  0.45450275  0.58238400  1
  O  O7  1  0.50000000  0.54549725  0.08238400  1
  F  F8  1  0.00000000  0.47958175  0.32055300  1
  F  F9  1  0.00000000  0.52041825  0.82055300  1
  F  F10  1  0.00000000  0.98817225  0.18581300  1
  F  F11  1  0.00000000  0.01182775  0.68581300  1
  F  F12  1  0.50000000  0.95250225  0.92621150  1
  F  F13  1  0.50000000  0.04749775  0.42621150  1
