# generated using pymatgen
data_LiFeSiO4
_symmetry_space_group_name_H-M   'P 1'
_cell_length_a   8.71254213
_cell_length_b   8.71254213
_cell_length_c   8.09886200
_cell_angle_alpha   90.00000000
_cell_angle_beta   90.00000000
_cell_angle_gamma   120.00000000
_symmetry_Int_Tables_number   1
_chemical_formula_structural   LiFeSiO4
_chemical_formula_sum   'Li6 Fe6 Si6 O24'
_cell_volume   532.40780407
_cell_formula_units_Z   6
loop_
 _symmetry_equiv_pos_site_id
 _symmetry_equiv_pos_as_xyz
  1  'x, y, z'
loop_
 _atom_site_type_symbol
 _atom_site_label
 _atom_site_symmetry_multiplicity
 _atom_site_fract_x
 _atom_site_fract_y
 _atom_site_fract_z
 _atom_site_occupancy
  Li  Li0  1  0.66666667  0.33333333  0.76364100  1
  Li  Li1  1  0.66666667  0.33333333  0.21546000  1
  Li  Li2  1  0.00000000  0.00000000  0.61301300  1
  Li  Li3  1  0.00000000  0.00000000  0.11301300  1
  Li  Li4  1  0.33333333  0.66666667  0.26364100  1
  Li  Li5  1  0.33333333  0.66666667  0.71546000  1
  Fe  Fe6  1  0.68815700  0.65881200  0.90325200  1
  Fe  Fe7  1  0.34118800  0.02934500  0.90325200  1
  Fe  Fe8  1  0.97065500  0.31184300  0.90325200  1
  Fe  Fe9  1  0.02934500  0.68815700  0.40325200  1
  Fe  Fe10  1  0.65881200  0.97065500  0.40325200  1
  Fe  Fe11  1  0.31184300  0.34118800  0.40325200  1
  Si  Si12  1  0.68525000  0.64534700  0.51765100  1
  Si  Si13  1  0.35465300  0.03990300  0.51765100  1
  Si  Si14  1  0.96009700  0.31475000  0.51765100  1
  Si  Si15  1  0.03990300  0.68525000  0.01765100  1
  Si  Si16  1  0.64534700  0.96009700  0.01765100  1
  Si  Si17  1  0.31475000  0.35465300  0.01765100  1
  O  O18  1  0.90962800  0.77306000  0.01596200  1
  O  O19  1  0.73097700  0.58489300  0.69573600  1
  O  O20  1  0.52931700  0.43676600  0.99730500  1
  O  O21  1  0.77906800  0.58410600  0.37401500  1
  O  O22  1  0.41589400  0.19496200  0.37401500  1
  O  O23  1  0.90744900  0.47068300  0.99730500  1
  O  O24  1  0.22694000  0.13656800  0.01596200  1
  O  O25  1  0.41510700  0.14608400  0.69573600  1
  O  O26  1  0.85391600  0.26902300  0.69573600  1
  O  O27  1  0.56323400  0.09255100  0.99730500  1
  O  O28  1  0.13656800  0.90962800  0.51596200  1
  O  O29  1  0.80503800  0.22093200  0.37401500  1
  O  O30  1  0.19496200  0.77906800  0.87401500  1
  O  O31  1  0.86343200  0.09037200  0.01596200  1
  O  O32  1  0.43676600  0.90744900  0.49730500  1
  O  O33  1  0.14608400  0.73097700  0.19573600  1
  O  O34  1  0.58489300  0.85391600  0.19573600  1
  O  O35  1  0.77306000  0.86343200  0.51596200  1
  O  O36  1  0.09255100  0.52931700  0.49730500  1
  O  O37  1  0.58410600  0.80503800  0.87401500  1
  O  O38  1  0.22093200  0.41589400  0.87401500  1
  O  O39  1  0.47068300  0.56323400  0.49730500  1
  O  O40  1  0.26902300  0.41510700  0.19573600  1
  O  O41  1  0.09037200  0.22694000  0.51596200  1
