# generated using pymatgen
data_La9Ni5O19
_symmetry_space_group_name_H-M   'P 1'
_cell_length_a   5.44748200
_cell_length_b   12.47949400
_cell_length_c   28.04005800
_cell_angle_alpha   90.00000000
_cell_angle_beta   90.00000000
_cell_angle_gamma   90.00000000
_symmetry_Int_Tables_number   1
_chemical_formula_structural   La9Ni5O19
_chemical_formula_sum   'La36 Ni20 O76'
_cell_volume   1906.21414586
_cell_formula_units_Z   4
loop_
 _symmetry_equiv_pos_site_id
 _symmetry_equiv_pos_as_xyz
  1  'x, y, z'
loop_
 _atom_site_type_symbol
 _atom_site_label
 _atom_site_symmetry_multiplicity
 _atom_site_fract_x
 _atom_site_fract_y
 _atom_site_fract_z
 _atom_site_occupancy
  La  La0  1  0.00000000  0.59668100  0.00000000  1
  La  La1  1  0.00000000  0.64462250  0.41100550  1
  La  La2  1  0.00000000  0.86120900  0.30012900  1
  La  La3  1  0.50000000  0.86581600  0.39577900  1
  La  La4  1  0.50000000  0.63945650  0.29837250  1
  La  La5  1  0.50000000  0.86120900  0.19987100  1
  La  La6  1  0.00000000  0.63945650  0.20162750  1
  La  La7  1  0.50000000  0.64462250  0.08899450  1
  La  La8  1  0.00000000  0.86581600  0.10422100  1
  La  La9  1  0.00000000  0.09668100  0.50000000  1
  La  La10  1  0.00000000  0.14462250  0.91100550  1
  La  La11  1  0.00000000  0.36120900  0.80012900  1
  La  La12  1  0.50000000  0.36581600  0.89577900  1
  La  La13  1  0.50000000  0.13945650  0.79837250  1
  La  La14  1  0.50000000  0.36120900  0.69987100  1
  La  La15  1  0.00000000  0.13945650  0.70162750  1
  La  La16  1  0.50000000  0.14462250  0.58899450  1
  La  La17  1  0.00000000  0.36581600  0.60422100  1
  La  La18  1  0.50000000  0.09668100  0.00000000  1
  La  La19  1  0.50000000  0.14462250  0.41100550  1
  La  La20  1  0.50000000  0.36120900  0.30012900  1
  La  La21  1  0.00000000  0.36581600  0.39577900  1
  La  La22  1  0.00000000  0.13945650  0.29837250  1
  La  La23  1  0.00000000  0.36120900  0.19987100  1
  La  La24  1  0.50000000  0.13945650  0.20162750  1
  La  La25  1  0.00000000  0.14462250  0.08899450  1
  La  La26  1  0.50000000  0.36581600  0.10422100  1
  La  La27  1  0.50000000  0.59668100  0.50000000  1
  La  La28  1  0.50000000  0.64462250  0.91100550  1
  La  La29  1  0.50000000  0.86120900  0.80012900  1
  La  La30  1  0.00000000  0.86581600  0.89577900  1
  La  La31  1  0.00000000  0.63945650  0.79837250  1
  La  La32  1  0.00000000  0.86120900  0.69987100  1
  La  La33  1  0.50000000  0.63945650  0.70162750  1
  La  La34  1  0.00000000  0.64462250  0.58899450  1
  La  La35  1  0.50000000  0.86581600  0.60422100  1
  Ni  Ni36  1  0.00000000  0.99055700  0.39967100  1
  Ni  Ni37  1  0.00000000  0.99312600  0.00000000  1
  Ni  Ni38  1  0.00000000  0.50710050  0.30011050  1
  Ni  Ni39  1  0.50000000  0.50710050  0.19988950  1
  Ni  Ni40  1  0.50000000  0.99055700  0.10032900  1
  Ni  Ni41  1  0.00000000  0.49055700  0.89967100  1
  Ni  Ni42  1  0.00000000  0.49312600  0.50000000  1
  Ni  Ni43  1  0.00000000  0.00710050  0.80011050  1
  Ni  Ni44  1  0.50000000  0.00710050  0.69988950  1
  Ni  Ni45  1  0.50000000  0.49055700  0.60032900  1
  Ni  Ni46  1  0.50000000  0.49055700  0.39967100  1
  Ni  Ni47  1  0.50000000  0.49312600  0.00000000  1
  Ni  Ni48  1  0.50000000  0.00710050  0.30011050  1
  Ni  Ni49  1  0.00000000  0.00710050  0.19988950  1
  Ni  Ni50  1  0.00000000  0.49055700  0.10032900  1
  Ni  Ni51  1  0.50000000  0.99055700  0.89967100  1
  Ni  Ni52  1  0.50000000  0.99312600  0.50000000  1
  Ni  Ni53  1  0.50000000  0.50710050  0.80011050  1
  Ni  Ni54  1  0.00000000  0.50710050  0.69988950  1
  Ni  Ni55  1  0.00000000  0.99055700  0.60032900  1
  O  O56  1  0.50000000  0.65581500  0.00000000  1
  O  O57  1  0.26108250  0.98711500  0.44700750  1
  O  O58  1  0.75100300  0.51916650  0.35015850  1
  O  O59  1  0.73891750  0.98711500  0.44700750  1
  O  O60  1  0.00000000  0.82326550  0.38306450  1
  O  O61  1  0.24899700  0.51916650  0.35015850  1
  O  O62  1  0.50000000  0.68614350  0.41663050  1
  O  O63  1  0.75000000  0.99198200  0.25000000  1
  O  O64  1  0.00000000  0.82580100  0.19277100  1
  O  O65  1  0.50000000  0.82580100  0.30722900  1
  O  O66  1  0.25000000  0.99198200  0.25000000  1
  O  O67  1  0.00000000  0.67894550  0.28744450  1
  O  O68  1  0.25100300  0.51916650  0.14984150  1
  O  O69  1  0.50000000  0.67894550  0.21255550  1
  O  O70  1  0.76108250  0.98711500  0.05299250  1
  O  O71  1  0.74899700  0.51916650  0.14984150  1
  O  O72  1  0.50000000  0.82326550  0.11693550  1
  O  O73  1  0.23891750  0.98711500  0.05299250  1
  O  O74  1  0.00000000  0.68614350  0.08336950  1
  O  O75  1  0.50000000  0.15581500  0.50000000  1
  O  O76  1  0.26108250  0.48711500  0.94700750  1
  O  O77  1  0.75100300  0.01916650  0.85015850  1
  O  O78  1  0.73891750  0.48711500  0.94700750  1
  O  O79  1  0.00000000  0.32326550  0.88306450  1
  O  O80  1  0.24899700  0.01916650  0.85015850  1
  O  O81  1  0.50000000  0.18614350  0.91663050  1
  O  O82  1  0.75000000  0.49198200  0.75000000  1
  O  O83  1  0.00000000  0.32580100  0.69277100  1
  O  O84  1  0.50000000  0.32580100  0.80722900  1
  O  O85  1  0.25000000  0.49198200  0.75000000  1
  O  O86  1  0.00000000  0.17894550  0.78744450  1
  O  O87  1  0.25100300  0.01916650  0.64984150  1
  O  O88  1  0.50000000  0.17894550  0.71255550  1
  O  O89  1  0.76108250  0.48711500  0.55299250  1
  O  O90  1  0.74899700  0.01916650  0.64984150  1
  O  O91  1  0.50000000  0.32326550  0.61693550  1
  O  O92  1  0.23891750  0.48711500  0.55299250  1
  O  O93  1  0.00000000  0.18614350  0.58336950  1
  O  O94  1  0.00000000  0.15581500  0.00000000  1
  O  O95  1  0.76108250  0.48711500  0.44700750  1
  O  O96  1  0.25100300  0.01916650  0.35015850  1
  O  O97  1  0.23891750  0.48711500  0.44700750  1
  O  O98  1  0.50000000  0.32326550  0.38306450  1
  O  O99  1  0.74899700  0.01916650  0.35015850  1
  O  O100  1  0.00000000  0.18614350  0.41663050  1
  O  O101  1  0.25000000  0.49198200  0.25000000  1
  O  O102  1  0.50000000  0.32580100  0.19277100  1
  O  O103  1  0.00000000  0.32580100  0.30722900  1
  O  O104  1  0.75000000  0.49198200  0.25000000  1
  O  O105  1  0.50000000  0.17894550  0.28744450  1
  O  O106  1  0.75100300  0.01916650  0.14984150  1
  O  O107  1  0.00000000  0.17894550  0.21255550  1
  O  O108  1  0.26108250  0.48711500  0.05299250  1
  O  O109  1  0.24899700  0.01916650  0.14984150  1
  O  O110  1  0.00000000  0.32326550  0.11693550  1
  O  O111  1  0.73891750  0.48711500  0.05299250  1
  O  O112  1  0.50000000  0.18614350  0.08336950  1
  O  O113  1  0.00000000  0.65581500  0.50000000  1
  O  O114  1  0.76108250  0.98711500  0.94700750  1
  O  O115  1  0.25100300  0.51916650  0.85015850  1
  O  O116  1  0.23891750  0.98711500  0.94700750  1
  O  O117  1  0.50000000  0.82326550  0.88306450  1
  O  O118  1  0.74899700  0.51916650  0.85015850  1
  O  O119  1  0.00000000  0.68614350  0.91663050  1
  O  O120  1  0.25000000  0.99198200  0.75000000  1
  O  O121  1  0.50000000  0.82580100  0.69277100  1
  O  O122  1  0.00000000  0.82580100  0.80722900  1
  O  O123  1  0.75000000  0.99198200  0.75000000  1
  O  O124  1  0.50000000  0.67894550  0.78744450  1
  O  O125  1  0.75100300  0.51916650  0.64984150  1
  O  O126  1  0.00000000  0.67894550  0.71255550  1
  O  O127  1  0.26108250  0.98711500  0.55299250  1
  O  O128  1  0.24899700  0.51916650  0.64984150  1
  O  O129  1  0.00000000  0.82326550  0.61693550  1
  O  O130  1  0.73891750  0.98711500  0.55299250  1
  O  O131  1  0.50000000  0.68614350  0.58336950  1
