# generated using pymatgen
data_Li4Mn3Nb3(SnO8)2
_symmetry_space_group_name_H-M   'P 1'
_cell_length_a   10.98056200
_cell_length_b   6.13513000
_cell_length_c   10.07127244
_cell_angle_alpha   90.00000000
_cell_angle_beta   91.51949068
_cell_angle_gamma   90.00000000
_symmetry_Int_Tables_number   1
_chemical_formula_structural   Li4Mn3Nb3(SnO8)2
_chemical_formula_sum   'Li8 Mn6 Nb6 Sn4 O32'
_cell_volume   678.23459958
_cell_formula_units_Z   2
loop_
 _symmetry_equiv_pos_site_id
 _symmetry_equiv_pos_as_xyz
  1  'x, y, z'
loop_
 _atom_site_type_symbol
 _atom_site_label
 _atom_site_symmetry_multiplicity
 _atom_site_fract_x
 _atom_site_fract_y
 _atom_site_fract_z
 _atom_site_occupancy
  Li  Li0  1  0.67113400  0.00000000  0.09204500  1
  Li  Li1  1  0.50259200  0.50000000  0.00372700  1
  Li  Li2  1  0.50467100  0.50000000  0.51659500  1
  Li  Li3  1  0.84479500  0.50000000  0.60726300  1
  Li  Li4  1  0.17113400  0.50000000  0.09204500  1
  Li  Li5  1  0.00259200  0.00000000  0.00372700  1
  Li  Li6  1  0.00467100  0.00000000  0.51659500  1
  Li  Li7  1  0.34479500  0.00000000  0.60726300  1
  Mn  Mn8  1  0.58481800  0.75553000  0.78927400  1
  Mn  Mn9  1  0.58481800  0.24447000  0.78927400  1
  Mn  Mn10  1  0.66650200  0.50000000  0.28595700  1
  Mn  Mn11  1  0.08481800  0.25553000  0.78927400  1
  Mn  Mn12  1  0.08481800  0.74447000  0.78927400  1
  Mn  Mn13  1  0.16650200  0.00000000  0.28595700  1
  Nb  Nb14  1  0.82936300  0.00000000  0.78320200  1
  Nb  Nb15  1  0.91221800  0.25397200  0.28697000  1
  Nb  Nb16  1  0.91221800  0.74602800  0.28697000  1
  Nb  Nb17  1  0.32936300  0.50000000  0.78320200  1
  Nb  Nb18  1  0.41221800  0.75397200  0.28697000  1
  Nb  Nb19  1  0.41221800  0.24602800  0.28697000  1
  Sn  Sn20  1  0.65939800  0.00000000  0.51807900  1
  Sn  Sn21  1  0.82471200  0.50000000  0.00094100  1
  Sn  Sn22  1  0.15939800  0.50000000  0.51807900  1
  Sn  Sn23  1  0.32471200  0.00000000  0.00094100  1
  O  O24  1  0.57049300  0.75295900  0.39978800  1
  O  O25  1  0.52259600  0.00000000  0.65013100  1
  O  O26  1  0.68644300  0.00000000  0.89801600  1
  O  O27  1  0.98898500  0.00000000  0.69662900  1
  O  O28  1  0.99353800  0.00000000  0.18716100  1
  O  O29  1  0.57049300  0.24704100  0.39978800  1
  O  O30  1  0.75317950  0.78300150  0.65140100  1
  O  O31  1  0.75317950  0.21699850  0.65140100  1
  O  O32  1  0.65791500  0.50000000  0.91559500  1
  O  O33  1  0.82959900  0.00000000  0.39581500  1
  O  O34  1  0.77116250  0.27211750  0.16045400  1
  O  O35  1  0.77116250  0.72788250  0.16045400  1
  O  O36  1  0.83959300  0.50000000  0.40049700  1
  O  O37  1  0.90752600  0.24539000  0.90255300  1
  O  O38  1  0.98047000  0.50000000  0.15961100  1
  O  O39  1  0.90752600  0.75461000  0.90255300  1
  O  O40  1  0.07049300  0.25295900  0.39978800  1
  O  O41  1  0.02259600  0.50000000  0.65013100  1
  O  O42  1  0.18644300  0.50000000  0.89801600  1
  O  O43  1  0.48898500  0.50000000  0.69662900  1
  O  O44  1  0.49353800  0.50000000  0.18716100  1
  O  O45  1  0.07049300  0.74704100  0.39978800  1
  O  O46  1  0.25317950  0.28300150  0.65140100  1
  O  O47  1  0.25317950  0.71699850  0.65140100  1
  O  O48  1  0.15791500  0.00000000  0.91559500  1
  O  O49  1  0.32959900  0.50000000  0.39581500  1
  O  O50  1  0.27116250  0.77211750  0.16045400  1
  O  O51  1  0.27116250  0.22788250  0.16045400  1
  O  O52  1  0.33959300  0.00000000  0.40049700  1
  O  O53  1  0.40752600  0.74539000  0.90255300  1
  O  O54  1  0.48047000  0.00000000  0.15961100  1
  O  O55  1  0.40752600  0.25461000  0.90255300  1
