# generated using pymatgen
data_Ti3VCo2(PO4)6
_symmetry_space_group_name_H-M   'P 1'
_cell_length_a   8.67202207
_cell_length_b   8.67202207
_cell_length_c   21.12045040
_cell_angle_alpha   90.00000000
_cell_angle_beta   90.00000000
_cell_angle_gamma   120.00000000
_symmetry_Int_Tables_number   1
_chemical_formula_structural   Ti3VCo2(PO4)6
_chemical_formula_sum   'Ti9 V3 Co6 P18 O72'
_cell_volume   1375.54421894
_cell_formula_units_Z   3
loop_
 _symmetry_equiv_pos_site_id
 _symmetry_equiv_pos_as_xyz
  1  'x, y, z'
loop_
 _atom_site_type_symbol
 _atom_site_label
 _atom_site_symmetry_multiplicity
 _atom_site_fract_x
 _atom_site_fract_y
 _atom_site_fract_z
 _atom_site_occupancy
  Ti  Ti0  1  0.33333333  0.66666667  0.02394767  1
  Ti  Ti1  1  0.33333333  0.66666667  0.80955367  1
  Ti  Ti2  1  0.33333333  0.66666667  0.30954567  1
  Ti  Ti3  1  0.00000000  0.00000000  0.35728100  1
  Ti  Ti4  1  0.00000000  0.00000000  0.14288700  1
  Ti  Ti5  1  0.00000000  0.00000000  0.64287900  1
  Ti  Ti6  1  0.66666667  0.33333333  0.69061433  1
  Ti  Ti7  1  0.66666667  0.33333333  0.47622033  1
  Ti  Ti8  1  0.66666667  0.33333333  0.97621233  1
  V  V9  1  0.33333333  0.66666667  0.52513367  1
  V  V10  1  0.00000000  0.00000000  0.85846700  1
  V  V11  1  0.66666667  0.33333333  0.19180033  1
  Co  Co12  1  0.33333333  0.66666667  0.66663667  1
  Co  Co13  1  0.33333333  0.66666667  0.16589067  1
  Co  Co14  1  0.00000000  0.00000000  0.99997000  1
  Co  Co15  1  0.00000000  0.00000000  0.49922400  1
  Co  Co16  1  0.66666667  0.33333333  0.33330333  1
  Co  Co17  1  0.66666667  0.33333333  0.83255733  1
  P  P18  1  0.95808567  0.33317733  0.08388633  1
  P  P19  1  0.37509167  0.04191433  0.08388633  1
  P  P20  1  0.66682267  0.62490833  0.08388633  1
  P  P21  1  0.00031667  0.70776733  0.25009733  1
  P  P22  1  0.29223267  0.29254933  0.25009733  1
  P  P23  1  0.70745067  0.99968333  0.25009733  1
  P  P24  1  0.62475233  0.66651067  0.41721967  1
  P  P25  1  0.04175833  0.37524767  0.41721967  1
  P  P26  1  0.33348933  0.95824167  0.41721967  1
  P  P27  1  0.66698333  0.04110067  0.58343067  1
  P  P28  1  0.95889933  0.62588267  0.58343067  1
  P  P29  1  0.37411733  0.33301667  0.58343067  1
  P  P30  1  0.29141900  0.99984400  0.75055300  1
  P  P31  1  0.70842500  0.70858100  0.75055300  1
  P  P32  1  0.00015600  0.29157500  0.75055300  1
  P  P33  1  0.33365000  0.37443400  0.91676400  1
  P  P34  1  0.62556600  0.95921600  0.91676400  1
  P  P35  1  0.04078400  0.66635000  0.91676400  1
  O  O36  1  0.14451367  0.47785833  0.35655733  1
  O  O37  1  0.33334467  0.85548633  0.35655733  1
  O  O38  1  0.52214167  0.66665533  0.35655733  1
  O  O39  1  0.97824433  0.16347567  0.07787767  1
  O  O40  1  0.86184700  0.33382900  0.14340700  1
  O  O41  1  0.14904000  0.49980100  0.08657400  1
  O  O42  1  0.18523133  0.02175567  0.07787767  1
  O  O43  1  0.35076100  0.85096000  0.08657400  1
  O  O44  1  0.33085900  0.47672200  0.85670800  1
  O  O45  1  0.50019900  0.64923900  0.08657400  1
  O  O46  1  0.83309967  0.52167933  0.25682533  1
  O  O47  1  0.52327800  0.85413700  0.85670800  1
  O  O48  1  0.47198200  0.13815300  0.14340700  1
  O  O49  1  0.83652433  0.81476867  0.07787767  1
  O  O50  1  0.16979733  0.68993767  0.24489367  1
  O  O51  1  0.66617100  0.52801800  0.14340700  1
  O  O52  1  0.31006233  0.47985967  0.24489367  1
  O  O53  1  0.47832067  0.31142033  0.25682533  1
  O  O54  1  0.52014033  0.83020267  0.24489367  1
  O  O55  1  0.14586300  0.66914100  0.85670800  1
  O  O56  1  0.68857967  0.16690033  0.25682533  1
  O  O57  1  0.14242500  0.66137700  0.97627500  1
  O  O58  1  0.33862300  0.48104800  0.97627500  1
  O  O59  1  0.51895200  0.85757500  0.97627500  1
  O  O60  1  0.81118033  0.81119167  0.68989067  1
  O  O61  1  0.00001133  0.18881967  0.68989067  1
  O  O62  1  0.18880833  0.99998867  0.68989067  1
  O  O63  1  0.64491100  0.49680900  0.41121100  1
  O  O64  1  0.52851367  0.66716233  0.47674033  1
  O  O65  1  0.81570667  0.83313433  0.41990733  1
  O  O66  1  0.85189800  0.35508900  0.41121100  1
  O  O67  1  0.01742767  0.18429333  0.41990733  1
  O  O68  1  0.99752567  0.81005533  0.19004133  1
  O  O69  1  0.16686567  0.98257233  0.41990733  1
  O  O70  1  0.49976633  0.85501267  0.59015867  1
  O  O71  1  0.18994467  0.18747033  0.19004133  1
  O  O72  1  0.13864867  0.47148633  0.47674033  1
  O  O73  1  0.50319100  0.14810200  0.41121100  1
  O  O74  1  0.83646400  0.02327100  0.57822700  1
  O  O75  1  0.33283767  0.86135133  0.47674033  1
  O  O76  1  0.97672900  0.81319300  0.57822700  1
  O  O77  1  0.14498733  0.64475367  0.59015867  1
  O  O78  1  0.18680700  0.16353600  0.57822700  1
  O  O79  1  0.81252967  0.00247433  0.19004133  1
  O  O80  1  0.35524633  0.50023367  0.59015867  1
  O  O81  1  0.80909167  0.99471033  0.30960833  1
  O  O82  1  0.00528967  0.81438133  0.30960833  1
  O  O83  1  0.18561867  0.19090833  0.30960833  1
  O  O84  1  0.47784700  0.14452500  0.02322400  1
  O  O85  1  0.66667800  0.52215300  0.02322400  1
  O  O86  1  0.85547500  0.33332200  0.02322400  1
  O  O87  1  0.31157767  0.83014233  0.74454433  1
  O  O88  1  0.19518033  0.00049567  0.81007367  1
  O  O89  1  0.48237333  0.16646767  0.75324067  1
  O  O90  1  0.51856467  0.68842233  0.74454433  1
  O  O91  1  0.68409433  0.51762667  0.75324067  1
  O  O92  1  0.66419233  0.14338867  0.52337467  1
  O  O93  1  0.83353233  0.31590567  0.75324067  1
  O  O94  1  0.16643300  0.18834600  0.92349200  1
  O  O95  1  0.85661133  0.52080367  0.52337467  1
  O  O96  1  0.80531533  0.80481967  0.81007367  1
  O  O97  1  0.16985767  0.48143533  0.74454433  1
  O  O98  1  0.50313067  0.35660433  0.91156033  1
  O  O99  1  0.99950433  0.19468467  0.81007367  1
  O  O100  1  0.64339567  0.14652633  0.91156033  1
  O  O101  1  0.81165400  0.97808700  0.92349200  1
  O  O102  1  0.85347367  0.49686933  0.91156033  1
  O  O103  1  0.47919633  0.33580767  0.52337467  1
  O  O104  1  0.02191300  0.83356700  0.92349200  1
  O  O105  1  0.47575833  0.32804367  0.64294167  1
  O  O106  1  0.67195633  0.14771467  0.64294167  1
  O  O107  1  0.85228533  0.52424167  0.64294167  1
