# generated using pymatgen
data_Li2VP2HO8
_symmetry_space_group_name_H-M   'P 1'
_cell_length_a   4.84049643
_cell_length_b   8.13465761
_cell_length_c   8.68514397
_cell_angle_alpha   97.57944749
_cell_angle_beta   102.11713201
_cell_angle_gamma   105.51663338
_symmetry_Int_Tables_number   1
_chemical_formula_structural   Li2VP2HO8
_chemical_formula_sum   'Li4 V2 P4 H2 O16'
_cell_volume   315.69430049
_cell_formula_units_Z   2
loop_
 _symmetry_equiv_pos_site_id
 _symmetry_equiv_pos_as_xyz
  1  'x, y, z'
loop_
 _atom_site_type_symbol
 _atom_site_label
 _atom_site_symmetry_multiplicity
 _atom_site_fract_x
 _atom_site_fract_y
 _atom_site_fract_z
 _atom_site_occupancy
  Li  Li0  1  0.22073700  0.14018200  0.77034250  1
  Li  Li1  1  0.77926300  0.85981800  0.22965750  1
  Li  Li2  1  0.67050000  0.37162200  0.61749850  1
  Li  Li3  1  0.32950000  0.62837800  0.38250150  1
  V  V4  1  0.40567500  0.18447050  0.21315550  1
  V  V5  1  0.59432500  0.81552950  0.78684450  1
  P  P6  1  0.83999100  0.23382850  0.94237650  1
  P  P7  1  0.16000900  0.76617150  0.05762350  1
  P  P8  1  0.09139300  0.24359300  0.42438350  1
  P  P9  1  0.90860700  0.75640700  0.57561650  1
  H  H10  1  0.87087500  0.44989200  0.13126900  1
  H  H11  1  0.12912500  0.55010800  0.86873100  1
  O  O12  1  0.57763000  0.06803200  0.86334150  1
  O  O13  1  0.42237000  0.93196800  0.13665850  1
  O  O14  1  0.09626300  0.07118600  0.31745200  1
  O  O15  1  0.90373700  0.92881400  0.68254800  1
  O  O16  1  0.12865500  0.19043250  0.00747250  1
  O  O17  1  0.87134500  0.80956750  0.99252750  1
  O  O18  1  0.76660300  0.25028850  0.40557350  1
  O  O19  1  0.23339700  0.74971150  0.59442650  1
  O  O20  1  0.89302200  0.36260900  0.83181500  1
  O  O21  1  0.10697800  0.63739100  0.16818500  1
  O  O22  1  0.24524200  0.26332900  0.59982300  1
  O  O23  1  0.75475800  0.73667100  0.40017700  1
  O  O24  1  0.73758200  0.32216250  0.09101400  1
  O  O25  1  0.26241800  0.67783750  0.90898600  1
  O  O26  1  0.27831500  0.37964250  0.34472450  1
  O  O27  1  0.72168500  0.62035750  0.65527550  1
