# generated using pymatgen
data_CoOF
_symmetry_space_group_name_H-M   'P 1'
_cell_length_a   6.25069000
_cell_length_b   7.21871000
_cell_length_c   2.91224400
_cell_angle_alpha   90.00000000
_cell_angle_beta   90.00000000
_cell_angle_gamma   90.00000000
_symmetry_Int_Tables_number   1
_chemical_formula_structural   CoOF
_chemical_formula_sum   'Co4 O4 F4'
_cell_volume   131.40603616
_cell_formula_units_Z   4
loop_
 _symmetry_equiv_pos_site_id
 _symmetry_equiv_pos_as_xyz
  1  'x, y, z'
loop_
 _atom_site_type_symbol
 _atom_site_label
 _atom_site_symmetry_multiplicity
 _atom_site_fract_x
 _atom_site_fract_y
 _atom_site_fract_z
 _atom_site_occupancy
  Co  Co0  1  0.00000000  0.00000000  0.00000000  1
  Co  Co1  1  0.50000000  0.00000000  0.50000000  1
  Co  Co2  1  0.50000000  0.50000000  0.00000000  1
  Co  Co3  1  0.00000000  0.50000000  0.50000000  1
  O  O4  1  0.30994800  0.00000000  0.00000000  1
  O  O5  1  0.69005200  0.00000000  0.00000000  1
  O  O6  1  0.80994800  0.50000000  0.00000000  1
  O  O7  1  0.19005200  0.50000000  0.00000000  1
  F  F8  1  0.50000000  0.30951700  0.50000000  1
  F  F9  1  0.50000000  0.69048300  0.50000000  1
  F  F10  1  0.00000000  0.80951700  0.50000000  1
  F  F11  1  0.00000000  0.19048300  0.50000000  1
