# generated using pymatgen
data_Li4Fe(PO4)2
_symmetry_space_group_name_H-M   'P 1'
_cell_length_a   4.93434665
_cell_length_b   5.23208367
_cell_length_c   6.25447389
_cell_angle_alpha   94.98945334
_cell_angle_beta   94.65299643
_cell_angle_gamma   98.94481562
_symmetry_Int_Tables_number   1
_chemical_formula_structural   Li4Fe(PO4)2
_chemical_formula_sum   'Li4 Fe1 P2 O8'
_cell_volume   158.16649916
_cell_formula_units_Z   1
loop_
 _symmetry_equiv_pos_site_id
 _symmetry_equiv_pos_as_xyz
  1  'x, y, z'
loop_
 _atom_site_type_symbol
 _atom_site_label
 _atom_site_symmetry_multiplicity
 _atom_site_fract_x
 _atom_site_fract_y
 _atom_site_fract_z
 _atom_site_occupancy
  Li  Li0  1  0.15984200  0.29415400  0.51898100  1
  Li  Li1  1  0.84015800  0.70584600  0.48101900  1
  Li  Li2  1  0.33525350  0.61150050  0.19989500  1
  Li  Li3  1  0.66474650  0.38849950  0.80010500  1
  Fe  Fe4  1  0.00000000  0.00000000  0.00000000  1
  P  P5  1  0.36609000  0.82234950  0.72965750  1
  P  P6  1  0.63391000  0.17765050  0.27034250  1
  O  O7  1  0.21860550  0.68802950  0.91197000  1
  O  O8  1  0.78139450  0.31197050  0.08803000  1
  O  O9  1  0.24460250  0.67832100  0.50789050  1
  O  O10  1  0.75539750  0.32167900  0.49210950  1
  O  O11  1  0.31873800  0.19200500  0.24060200  1
  O  O12  1  0.68126200  0.80799500  0.75939800  1
  O  O13  1  0.30247300  0.10656550  0.74926850  1
  O  O14  1  0.69752700  0.89343450  0.25073150  1
