# generated using pymatgen
data_V3(O2F)2
_symmetry_space_group_name_H-M   'P 1'
_cell_length_a   4.73741294
_cell_length_b   4.71532200
_cell_length_c   10.01222197
_cell_angle_alpha   90.00000000
_cell_angle_beta   116.46177240
_cell_angle_gamma   90.00000000
_symmetry_Int_Tables_number   1
_chemical_formula_structural   V3(O2F)2
_chemical_formula_sum   'V6 O8 F4'
_cell_volume   200.22513652
_cell_formula_units_Z   2
loop_
 _symmetry_equiv_pos_site_id
 _symmetry_equiv_pos_as_xyz
  1  'x, y, z'
loop_
 _atom_site_type_symbol
 _atom_site_label
 _atom_site_symmetry_multiplicity
 _atom_site_fract_x
 _atom_site_fract_y
 _atom_site_fract_z
 _atom_site_occupancy
  V  V0  1  0.50000000  0.50000000  0.00000000  1
  V  V1  1  0.11982150  0.97706500  0.15396400  1
  V  V2  1  0.88017850  0.02293500  0.84603600  1
  V  V3  1  0.50000000  0.00000000  0.50000000  1
  V  V4  1  0.88017850  0.47706500  0.34603600  1
  V  V5  1  0.11982150  0.52293500  0.65396400  1
  O  O6  1  0.20849150  0.80091900  0.00440200  1
  O  O7  1  0.79150850  0.30091900  0.49559800  1
  O  O8  1  0.20849150  0.69908100  0.50440200  1
  O  O9  1  0.79150850  0.19908100  0.99559800  1
  O  O10  1  0.86123850  0.81704700  0.67136700  1
  O  O11  1  0.13876150  0.31704700  0.82863300  1
  O  O12  1  0.86123850  0.68295300  0.17136700  1
  O  O13  1  0.13876150  0.18295300  0.32863300  1
  F  F14  1  0.53157350  0.78734600  0.32866300  1
  F  F15  1  0.46842650  0.28734600  0.17133700  1
  F  F16  1  0.53157350  0.71265400  0.82866300  1
  F  F17  1  0.46842650  0.21265400  0.67133700  1
