# generated using pymatgen
data_LiMn2Si2O7
_symmetry_space_group_name_H-M   'P 1'
_cell_length_a   5.18319874
_cell_length_b   8.39019000
_cell_length_c   13.62878391
_cell_angle_alpha   90.00000000
_cell_angle_beta   92.17438763
_cell_angle_gamma   90.00000000
_symmetry_Int_Tables_number   1
_chemical_formula_structural   LiMn2Si2O7
_chemical_formula_sum   'Li4 Mn8 Si8 O28'
_cell_volume   592.26210790
_cell_formula_units_Z   4
loop_
 _symmetry_equiv_pos_site_id
 _symmetry_equiv_pos_as_xyz
  1  'x, y, z'
loop_
 _atom_site_type_symbol
 _atom_site_label
 _atom_site_symmetry_multiplicity
 _atom_site_fract_x
 _atom_site_fract_y
 _atom_site_fract_z
 _atom_site_occupancy
  Li  Li0  1  0.53193750  0.81690650  0.08463800  1
  Li  Li1  1  0.53193750  0.18309350  0.58463800  1
  Li  Li2  1  0.03193750  0.31690650  0.08463800  1
  Li  Li3  1  0.03193750  0.68309350  0.58463800  1
  Mn  Mn4  1  0.51914950  0.46951950  0.74475100  1
  Mn  Mn5  1  0.51914950  0.53048050  0.24475100  1
  Mn  Mn6  1  0.04945200  0.99862600  0.98094600  1
  Mn  Mn7  1  0.04945200  0.00137400  0.48094600  1
  Mn  Mn8  1  0.01914950  0.96951950  0.74475100  1
  Mn  Mn9  1  0.01914950  0.03048050  0.24475100  1
  Mn  Mn10  1  0.54945200  0.49862600  0.98094600  1
  Mn  Mn11  1  0.54945200  0.50137400  0.48094600  1
  Si  Si12  1  0.53763250  0.17615550  0.14503700  1
  Si  Si13  1  0.53763250  0.82384450  0.64503700  1
  Si  Si14  1  0.55601600  0.15627000  0.35788000  1
  Si  Si15  1  0.55601600  0.84373000  0.85788000  1
  Si  Si16  1  0.03763250  0.67615550  0.14503700  1
  Si  Si17  1  0.03763250  0.32384450  0.64503700  1
  Si  Si18  1  0.05601600  0.65627000  0.35788000  1
  Si  Si19  1  0.05601600  0.34373000  0.85788000  1
  O  O20  1  0.27152300  0.92984700  0.84908100  1
  O  O21  1  0.27152300  0.07015300  0.34908100  1
  O  O22  1  0.22888750  0.87553350  0.64105600  1
  O  O23  1  0.22888750  0.12446650  0.14105600  1
  O  O24  1  0.58883750  0.73298250  0.75550700  1
  O  O25  1  0.58883750  0.26701750  0.25550700  1
  O  O26  1  0.59732950  0.25878250  0.45581900  1
  O  O27  1  0.59732950  0.74121750  0.95581900  1
  O  O28  1  0.63464000  0.30259300  0.06665300  1
  O  O29  1  0.63464000  0.69740700  0.56665300  1
  O  O30  1  0.78442350  0.01948550  0.35274900  1
  O  O31  1  0.78442350  0.98051450  0.85274900  1
  O  O32  1  0.72324350  0.01526250  0.14791800  1
  O  O33  1  0.72324350  0.98473750  0.64791800  1
  O  O34  1  0.77152300  0.42984700  0.84908100  1
  O  O35  1  0.77152300  0.57015300  0.34908100  1
  O  O36  1  0.72888750  0.37553350  0.64105600  1
  O  O37  1  0.72888750  0.62446650  0.14105600  1
  O  O38  1  0.08883750  0.23298250  0.75550700  1
  O  O39  1  0.08883750  0.76701750  0.25550700  1
  O  O40  1  0.09732950  0.75878250  0.45581900  1
  O  O41  1  0.09732950  0.24121750  0.95581900  1
  O  O42  1  0.13464000  0.80259300  0.06665300  1
  O  O43  1  0.13464000  0.19740700  0.56665300  1
  O  O44  1  0.28442350  0.51948550  0.35274900  1
  O  O45  1  0.28442350  0.48051450  0.85274900  1
  O  O46  1  0.22324350  0.51526250  0.14791800  1
  O  O47  1  0.22324350  0.48473750  0.64791800  1
