# generated using pymatgen
data_Li3NiPCO7
_symmetry_space_group_name_H-M   'P 1'
_cell_length_a   6.39644279
_cell_length_b   8.35604266
_cell_length_c   9.89314113
_cell_angle_alpha   94.99706256
_cell_angle_beta   90.26786868
_cell_angle_gamma   90.25857771
_symmetry_Int_Tables_number   1
_chemical_formula_structural   Li3NiPCO7
_chemical_formula_sum   'Li12 Ni4 P4 C4 O28'
_cell_volume   526.75601362
_cell_formula_units_Z   4
loop_
 _symmetry_equiv_pos_site_id
 _symmetry_equiv_pos_as_xyz
  1  'x, y, z'
loop_
 _atom_site_type_symbol
 _atom_site_label
 _atom_site_symmetry_multiplicity
 _atom_site_fract_x
 _atom_site_fract_y
 _atom_site_fract_z
 _atom_site_occupancy
  Li  Li0  1  0.74701400  0.89741900  0.38901200  1
  Li  Li1  1  0.74601600  0.90374800  0.87890900  1
  Li  Li2  1  0.50978600  0.72460200  0.13185200  1
  Li  Li3  1  0.99379600  0.72442300  0.61172700  1
  Li  Li4  1  0.50857100  0.72396100  0.61126000  1
  Li  Li5  1  0.25203400  0.65557300  0.39920600  1
  Li  Li6  1  0.47221400  0.28138700  0.37947800  1
  Li  Li7  1  0.02732600  0.28187500  0.37904800  1
  Li  Li8  1  0.47776900  0.27758200  0.87382200  1
  Li  Li9  1  0.02118700  0.27650600  0.87374400  1
  Li  Li10  1  0.24942300  0.09452900  0.11856400  1
  Li  Li11  1  0.25080800  0.10120700  0.61393600  1
  Ni  Ni12  1  0.99491300  0.72726100  0.13768900  1
  Ni  Ni13  1  0.25096500  0.66581000  0.89388300  1
  Ni  Ni14  1  0.75044700  0.33319100  0.10348800  1
  Ni  Ni15  1  0.75098600  0.33263200  0.60306000  1
  P  P16  1  0.75298600  0.58910700  0.36166500  1
  P  P17  1  0.74913400  0.58470900  0.86350200  1
  P  P18  1  0.24760300  0.40994100  0.14139800  1
  P  P19  1  0.25049000  0.41672800  0.64146800  1
  C  C20  1  0.24204800  0.96242600  0.34971600  1
  C  C21  1  0.24833100  0.95934000  0.85126700  1
  C  C22  1  0.75393600  0.03906500  0.14780500  1
  C  C23  1  0.75017300  0.03975000  0.64877900  1
  O  O24  1  0.24976800  0.92757300  0.47228100  1
  O  O25  1  0.75979800  0.88996900  0.18070000  1
  O  O26  1  0.24847300  0.92250700  0.97613700  1
  O  O27  1  0.23127500  0.84859700  0.24917600  1
  O  O28  1  0.75000600  0.89163200  0.67772900  1
  O  O29  1  0.24735000  0.84165100  0.75654800  1
  O  O30  1  0.94225100  0.69255800  0.41083400  1
  O  O31  1  0.56004200  0.69040700  0.40367500  1
  O  O32  1  0.93755300  0.69044900  0.92321900  1
  O  O33  1  0.56253400  0.69094500  0.91460600  1
  O  O34  1  0.24318500  0.58089800  0.08705200  1
  O  O35  1  0.76447900  0.56591700  0.19967400  1
  O  O36  1  0.25163500  0.58187200  0.58784300  1
  O  O37  1  0.75757900  0.56359200  0.70653800  1
  O  O38  1  0.24837400  0.43142700  0.29663300  1
  O  O39  1  0.74995200  0.41945800  0.41207800  1
  O  O40  1  0.24983900  0.43617800  0.80056000  1
  O  O41  1  0.74900900  0.41722200  0.91640100  1
  O  O42  1  0.06138800  0.30456200  0.08475100  1
  O  O43  1  0.43801000  0.31344000  0.08363000  1
  O  O44  1  0.43795700  0.30976000  0.59085400  1
  O  O45  1  0.06299000  0.30861500  0.58946500  1
  O  O46  1  0.74753100  0.15450400  0.24271000  1
  O  O47  1  0.24971500  0.11060200  0.31834100  1
  O  O48  1  0.75072300  0.15628000  0.74516200  1
  O  O49  1  0.75103200  0.07235400  0.02342500  1
  O  O50  1  0.25006600  0.10639900  0.82086500  1
  O  O51  1  0.74953100  0.07786100  0.52483600  1
