# generated using pymatgen
data_AlVO3
_symmetry_space_group_name_H-M   'P 1'
_cell_length_a   5.05776900
_cell_length_b   5.23369100
_cell_length_c   6.97899200
_cell_angle_alpha   90.00000000
_cell_angle_beta   90.00000000
_cell_angle_gamma   90.00000000
_symmetry_Int_Tables_number   1
_chemical_formula_structural   AlVO3
_chemical_formula_sum   'Al4 V4 O12'
_cell_volume   184.73950211
_cell_formula_units_Z   4
loop_
 _symmetry_equiv_pos_site_id
 _symmetry_equiv_pos_as_xyz
  1  'x, y, z'
loop_
 _atom_site_type_symbol
 _atom_site_label
 _atom_site_symmetry_multiplicity
 _atom_site_fract_x
 _atom_site_fract_y
 _atom_site_fract_z
 _atom_site_occupancy
  Al  Al0  1  0.00000000  0.50000000  0.50000000  1
  Al  Al1  1  0.00000000  0.50000000  0.00000000  1
  Al  Al2  1  0.50000000  0.00000000  0.50000000  1
  Al  Al3  1  0.50000000  0.00000000  0.00000000  1
  V  V4  1  0.99161000  0.94193800  0.25000000  1
  V  V5  1  0.50839000  0.44193800  0.25000000  1
  V  V6  1  0.49161000  0.55806200  0.75000000  1
  V  V7  1  0.00839000  0.05806200  0.75000000  1
  O  O8  1  0.11193200  0.43681300  0.75000000  1
  O  O9  1  0.16833900  0.17449700  0.05389750  1
  O  O10  1  0.16833900  0.17449700  0.44610250  1
  O  O11  1  0.33166100  0.67449700  0.44610250  1
  O  O12  1  0.33166100  0.67449700  0.05389750  1
  O  O13  1  0.38806800  0.93681300  0.75000000  1
  O  O14  1  0.61193200  0.06318700  0.25000000  1
  O  O15  1  0.66833900  0.32550300  0.94610250  1
  O  O16  1  0.66833900  0.32550300  0.55389750  1
  O  O17  1  0.83166100  0.82550300  0.55389750  1
  O  O18  1  0.83166100  0.82550300  0.94610250  1
  O  O19  1  0.88806800  0.56318700  0.25000000  1
