# generated using pymatgen
data_TiV2Fe3(PO4)6
_symmetry_space_group_name_H-M   'P 1'
_cell_length_a   8.66034210
_cell_length_b   8.66034210
_cell_length_c   20.68687911
_cell_angle_alpha   90.00000000
_cell_angle_beta   90.00000000
_cell_angle_gamma   120.00000000
_symmetry_Int_Tables_number   1
_chemical_formula_structural   TiV2Fe3(PO4)6
_chemical_formula_sum   'Ti3 V6 Fe9 P18 O72'
_cell_volume   1343.67953739
_cell_formula_units_Z   3
loop_
 _symmetry_equiv_pos_site_id
 _symmetry_equiv_pos_as_xyz
  1  'x, y, z'
loop_
 _atom_site_type_symbol
 _atom_site_label
 _atom_site_symmetry_multiplicity
 _atom_site_fract_x
 _atom_site_fract_y
 _atom_site_fract_z
 _atom_site_occupancy
  Ti  Ti0  1  0.33333333  0.66666667  0.52094367  1
  Ti  Ti1  1  0.00000000  0.00000000  0.85427700  1
  Ti  Ti2  1  0.66666667  0.33333333  0.18761033  1
  V  V3  1  0.33333333  0.66666667  0.66732267  1
  V  V4  1  0.33333333  0.66666667  0.16749067  1
  V  V5  1  0.00000000  0.00000000  0.00065600  1
  V  V6  1  0.00000000  0.00000000  0.50082400  1
  V  V7  1  0.66666667  0.33333333  0.33398933  1
  V  V8  1  0.66666667  0.33333333  0.83415733  1
  Fe  Fe9  1  0.33333333  0.66666667  0.02088167  1
  Fe  Fe10  1  0.33333333  0.66666667  0.81301967  1
  Fe  Fe11  1  0.33333333  0.66666667  0.31210267  1
  Fe  Fe12  1  0.00000000  0.00000000  0.35421500  1
  Fe  Fe13  1  0.00000000  0.00000000  0.14635300  1
  Fe  Fe14  1  0.00000000  0.00000000  0.64543600  1
  Fe  Fe15  1  0.66666667  0.33333333  0.68754833  1
  Fe  Fe16  1  0.66666667  0.33333333  0.47968633  1
  Fe  Fe17  1  0.66666667  0.33333333  0.97876933  1
  P  P18  1  0.96346867  0.33338533  0.08275233  1
  P  P19  1  0.36991667  0.03653133  0.08275233  1
  P  P20  1  0.66661467  0.63008333  0.08275233  1
  P  P21  1  0.00029533  0.70390167  0.24977867  1
  P  P22  1  0.29609833  0.29639367  0.24977867  1
  P  P23  1  0.70360633  0.99970467  0.24977867  1
  P  P24  1  0.63013533  0.66671867  0.41608567  1
  P  P25  1  0.03658333  0.36986467  0.41608567  1
  P  P26  1  0.33328133  0.96341667  0.41608567  1
  P  P27  1  0.66696200  0.03723500  0.58311200  1
  P  P28  1  0.96276500  0.62972700  0.58311200  1
  P  P29  1  0.37027300  0.33303800  0.58311200  1
  P  P30  1  0.29680200  0.00005200  0.74941900  1
  P  P31  1  0.70325000  0.70319800  0.74941900  1
  P  P32  1  0.99994800  0.29675000  0.74941900  1
  P  P33  1  0.33362867  0.37056833  0.91644533  1
  P  P34  1  0.62943167  0.96306033  0.91644533  1
  P  P35  1  0.03693967  0.66637133  0.91644533  1
  O  O36  1  0.14100100  0.46255500  0.35540400  1
  O  O37  1  0.32155400  0.85899900  0.35540400  1
  O  O38  1  0.53744500  0.67844600  0.35540400  1
  O  O39  1  0.98646300  0.16766200  0.07504800  1
  O  O40  1  0.51629400  0.65481800  0.47644400  1
  O  O41  1  0.15011267  0.50088133  0.09440733  1
  O  O42  1  0.18119900  0.01353700  0.07504800  1
  O  O43  1  0.35076867  0.84988733  0.09440733  1
  O  O44  1  0.98891500  0.79612900  0.18881200  1
  O  O45  1  0.49911867  0.64923133  0.09440733  1
  O  O46  1  0.83284800  0.51112100  0.25758700  1
  O  O47  1  0.20387100  0.19278600  0.18881200  1
  O  O48  1  0.13852400  0.48370600  0.47644400  1
  O  O49  1  0.83233800  0.81880100  0.07504800  1
  O  O50  1  0.16559800  0.67845300  0.24105700  1
  O  O51  1  0.34518200  0.86147600  0.47644400  1
  O  O52  1  0.32154700  0.48714500  0.24105700  1
  O  O53  1  0.48887900  0.32172700  0.25758700  1
  O  O54  1  0.51285500  0.83440200  0.24105700  1
  O  O55  1  0.80721400  0.01108500  0.18881200  1
  O  O56  1  0.67827300  0.16715200  0.25758700  1
  O  O57  1  0.13125900  0.66097100  0.97811900  1
  O  O58  1  0.33902900  0.47028800  0.97811900  1
  O  O59  1  0.52971200  0.86874100  0.97811900  1
  O  O60  1  0.80766767  0.79588833  0.68873733  1
  O  O61  1  0.98822067  0.19233233  0.68873733  1
  O  O62  1  0.20411167  0.01177933  0.68873733  1
  O  O63  1  0.65312967  0.50099533  0.40838133  1
  O  O64  1  0.18296067  0.98815133  0.80977733  1
  O  O65  1  0.81677933  0.83421467  0.42774067  1
  O  O66  1  0.84786567  0.34687033  0.40838133  1
  O  O67  1  0.01743533  0.18322067  0.42774067  1
  O  O68  1  0.65558167  0.12946233  0.52214533  1
  O  O69  1  0.16578533  0.98256467  0.42774067  1
  O  O70  1  0.49951467  0.84445433  0.59092033  1
  O  O71  1  0.87053767  0.52611933  0.52214533  1
  O  O72  1  0.80519067  0.81703933  0.80977733  1
  O  O73  1  0.49900467  0.15213433  0.40838133  1
  O  O74  1  0.83226467  0.01178633  0.57439033  1
  O  O75  1  0.01184867  0.19480933  0.80977733  1
  O  O76  1  0.98821367  0.82047833  0.57439033  1
  O  O77  1  0.15554567  0.65506033  0.59092033  1
  O  O78  1  0.17952167  0.16773533  0.57439033  1
  O  O79  1  0.47388067  0.34441833  0.52214533  1
  O  O80  1  0.34493967  0.50048533  0.59092033  1
  O  O81  1  0.79792567  0.99430433  0.31145233  1
  O  O82  1  0.00569567  0.80362133  0.31145233  1
  O  O83  1  0.19637867  0.20207433  0.31145233  1
  O  O84  1  0.47433433  0.12922167  0.02207067  1
  O  O85  1  0.65488733  0.52566567  0.02207067  1
  O  O86  1  0.87077833  0.34511267  0.02207067  1
  O  O87  1  0.31979633  0.83432867  0.74171467  1
  O  O88  1  0.84962733  0.32148467  0.14311067  1
  O  O89  1  0.48344600  0.16754800  0.76107400  1
  O  O90  1  0.51453233  0.68020367  0.74171467  1
  O  O91  1  0.68410200  0.51655400  0.76107400  1
  O  O92  1  0.32224833  0.46279567  0.85547867  1
  O  O93  1  0.83245200  0.31589800  0.76107400  1
  O  O94  1  0.16618133  0.17778767  0.92425367  1
  O  O95  1  0.53720433  0.85945267  0.85547867  1
  O  O96  1  0.47185733  0.15037267  0.14311067  1
  O  O97  1  0.16567133  0.48546767  0.74171467  1
  O  O98  1  0.49893133  0.34511967  0.90772367  1
  O  O99  1  0.67851533  0.52814267  0.14311067  1
  O  O100  1  0.65488033  0.15381167  0.90772367  1
  O  O101  1  0.82221233  0.98839367  0.92425367  1
  O  O102  1  0.84618833  0.50106867  0.90772367  1
  O  O103  1  0.14054733  0.67775167  0.85547867  1
  O  O104  1  0.01160633  0.83381867  0.92425367  1
  O  O105  1  0.46459233  0.32763767  0.64478567  1
  O  O106  1  0.67236233  0.13695467  0.64478567  1
  O  O107  1  0.86304533  0.53540767  0.64478567  1
