# generated using pymatgen
data_U4O7
_symmetry_space_group_name_H-M   'P 1'
_cell_length_a   12.12703600
_cell_length_b   5.46801600
_cell_length_c   10.85360445
_cell_angle_alpha   90.00000000
_cell_angle_beta   116.52696872
_cell_angle_gamma   90.00000000
_symmetry_Int_Tables_number   1
_chemical_formula_structural   U4O7
_chemical_formula_sum   'U16 O28'
_cell_volume   643.94331255
_cell_formula_units_Z   4
loop_
 _symmetry_equiv_pos_site_id
 _symmetry_equiv_pos_as_xyz
  1  'x, y, z'
loop_
 _atom_site_type_symbol
 _atom_site_label
 _atom_site_symmetry_multiplicity
 _atom_site_fract_x
 _atom_site_fract_y
 _atom_site_fract_z
 _atom_site_occupancy
  U  U0  1  0.62940400  0.48245000  0.68371200  1
  U  U1  1  0.62823850  0.00954050  0.94438200  1
  U  U2  1  0.37176150  0.00954050  0.55561800  1
  U  U3  1  0.37059600  0.51755000  0.31628800  1
  U  U4  1  0.87059600  0.98245000  0.81628800  1
  U  U5  1  0.37176150  0.99045950  0.05561800  1
  U  U6  1  0.62823850  0.99045950  0.44438200  1
  U  U7  1  0.12940400  0.01755000  0.18371200  1
  U  U8  1  0.12940400  0.98245000  0.68371200  1
  U  U9  1  0.12823850  0.50954050  0.94438200  1
  U  U10  1  0.87176150  0.50954050  0.55561800  1
  U  U11  1  0.87059600  0.01755000  0.31628800  1
  U  U12  1  0.37059600  0.48245000  0.81628800  1
  U  U13  1  0.87176150  0.49045950  0.05561800  1
  U  U14  1  0.12823850  0.49045950  0.44438200  1
  U  U15  1  0.62940400  0.51755000  0.18371200  1
  O  O16  1  0.73904000  0.74646100  0.86898100  1
  O  O17  1  0.75077450  0.24711350  0.87624800  1
  O  O18  1  0.50307150  0.25026650  0.48882300  1
  O  O19  1  0.50307150  0.74973350  0.98882300  1
  O  O20  1  0.50000000  0.24578000  0.75000000  1
  O  O21  1  0.49692850  0.74973350  0.51117700  1
  O  O22  1  0.49692850  0.25026650  0.01117700  1
  O  O23  1  0.24922550  0.75288650  0.12375200  1
  O  O24  1  0.25077450  0.25288650  0.37624800  1
  O  O25  1  0.26096000  0.25353900  0.13101900  1
  O  O26  1  0.23904000  0.75353900  0.36898100  1
  O  O27  1  0.74922550  0.74711350  0.62375200  1
  O  O28  1  0.76096000  0.24646100  0.63101900  1
  O  O29  1  0.50000000  0.75422000  0.25000000  1
  O  O30  1  0.23904000  0.24646100  0.86898100  1
  O  O31  1  0.25077450  0.74711350  0.87624800  1
  O  O32  1  0.00307150  0.75026650  0.48882300  1
  O  O33  1  0.00307150  0.24973350  0.98882300  1
  O  O34  1  0.00000000  0.74578000  0.75000000  1
  O  O35  1  0.99692850  0.24973350  0.51117700  1
  O  O36  1  0.99692850  0.75026650  0.01117700  1
  O  O37  1  0.74922550  0.25288650  0.12375200  1
  O  O38  1  0.75077450  0.75288650  0.37624800  1
  O  O39  1  0.76096000  0.75353900  0.13101900  1
  O  O40  1  0.73904000  0.25353900  0.36898100  1
  O  O41  1  0.24922550  0.24711350  0.62375200  1
  O  O42  1  0.26096000  0.74646100  0.63101900  1
  O  O43  1  0.00000000  0.25422000  0.25000000  1
