# generated using pymatgen
data_NaFe5O8
_symmetry_space_group_name_H-M   'P 1'
_cell_length_a   6.03454862
_cell_length_b   6.03454862
_cell_length_c   14.94169737
_cell_angle_alpha   90.00000000
_cell_angle_beta   90.00000000
_cell_angle_gamma   120.00000000
_symmetry_Int_Tables_number   1
_chemical_formula_structural   NaFe5O8
_chemical_formula_sum   'Na3 Fe15 O24'
_cell_volume   471.21613091
_cell_formula_units_Z   3
loop_
 _symmetry_equiv_pos_site_id
 _symmetry_equiv_pos_as_xyz
  1  'x, y, z'
loop_
 _atom_site_type_symbol
 _atom_site_label
 _atom_site_symmetry_multiplicity
 _atom_site_fract_x
 _atom_site_fract_y
 _atom_site_fract_z
 _atom_site_occupancy
  Na  Na0  1  0.66666667  0.33333333  0.83333333  1
  Na  Na1  1  0.33333333  0.66666667  0.16666667  1
  Na  Na2  1  1.00000000  1.00000000  0.50000000  1
  Fe  Fe3  1  0.50000000  0.50000000  0.00000000  1
  Fe  Fe4  1  0.00000000  0.00000000  0.11737567  1
  Fe  Fe5  1  0.00000000  0.50000000  0.00000000  1
  Fe  Fe6  1  0.00000000  0.00000000  0.88262433  1
  Fe  Fe7  1  0.50000000  0.00000000  0.00000000  1
  Fe  Fe8  1  0.16666667  0.83333333  0.33333333  1
  Fe  Fe9  1  0.66666667  0.33333333  0.45070900  1
  Fe  Fe10  1  0.66666667  0.83333333  0.33333333  1
  Fe  Fe11  1  0.66666667  0.33333333  0.21595767  1
  Fe  Fe12  1  0.16666667  0.33333333  0.33333333  1
  Fe  Fe13  1  0.83333333  0.16666667  0.66666667  1
  Fe  Fe14  1  0.33333333  0.66666667  0.78404233  1
  Fe  Fe15  1  0.33333333  0.16666667  0.66666667  1
  Fe  Fe16  1  0.33333333  0.66666667  0.54929100  1
  Fe  Fe17  1  0.83333333  0.66666667  0.66666667  1
  O  O18  1  0.83006567  0.66013133  0.92831333  1
  O  O19  1  0.66666667  0.33333333  0.08015467  1
  O  O20  1  0.33333333  0.66666667  0.91984533  1
  O  O21  1  0.16993433  0.83006567  0.07168667  1
  O  O22  1  0.66013133  0.83006567  0.07168667  1
  O  O23  1  0.16993433  0.33986867  0.07168667  1
  O  O24  1  0.33986867  0.16993433  0.92831333  1
  O  O25  1  0.83006567  0.16993433  0.92831333  1
  O  O26  1  0.49673233  0.99346467  0.26164667  1
  O  O27  1  0.33333333  0.66666667  0.41348800  1
  O  O28  1  0.00000000  0.00000000  0.25317867  1
  O  O29  1  0.83660100  0.16339900  0.40502000  1
  O  O30  1  0.32679800  0.16339900  0.40502000  1
  O  O31  1  0.83660100  0.67320200  0.40502000  1
  O  O32  1  0.00653533  0.50326767  0.26164667  1
  O  O33  1  0.49673233  0.50326767  0.26164667  1
  O  O34  1  0.16339900  0.32679800  0.59498000  1
  O  O35  1  0.00000000  0.00000000  0.74682133  1
  O  O36  1  0.66666667  0.33333333  0.58651200  1
  O  O37  1  0.50326767  0.49673233  0.73835333  1
  O  O38  1  0.99346467  0.49673233  0.73835333  1
  O  O39  1  0.50326767  0.00653533  0.73835333  1
  O  O40  1  0.67320200  0.83660100  0.59498000  1
  O  O41  1  0.16339900  0.83660100  0.59498000  1
