# generated using pymatgen
data_Bi12O16F5
_symmetry_space_group_name_H-M   'P 1'
_cell_length_a   27.43193600
_cell_length_b   3.80799200
_cell_length_c   10.44098958
_cell_angle_alpha   90.00000000
_cell_angle_beta   100.94707736
_cell_angle_gamma   90.00000000
_symmetry_Int_Tables_number   1
_chemical_formula_structural   Bi12O16F5
_chemical_formula_sum   'Bi24 O32 F10'
_cell_volume   1070.82501482
_cell_formula_units_Z   2
loop_
 _symmetry_equiv_pos_site_id
 _symmetry_equiv_pos_as_xyz
  1  'x, y, z'
loop_
 _atom_site_type_symbol
 _atom_site_label
 _atom_site_symmetry_multiplicity
 _atom_site_fract_x
 _atom_site_fract_y
 _atom_site_fract_z
 _atom_site_occupancy
  Bi  Bi0  1  0.81722700  0.49986900  0.93470800  1
  Bi  Bi1  1  0.56406150  0.50566350  0.92565000  1
  Bi  Bi2  1  0.94511900  0.50667500  0.76544700  1
  Bi  Bi3  1  0.68346950  0.50700750  0.75112000  1
  Bi  Bi4  1  0.56910000  0.01436900  0.60654300  1
  Bi  Bi5  1  0.80702950  0.53342850  0.56068500  1
  Bi  Bi6  1  0.69297050  0.03342850  0.43931500  1
  Bi  Bi7  1  0.93090000  0.51436900  0.39345700  1
  Bi  Bi8  1  0.81653050  0.00700750  0.24888000  1
  Bi  Bi9  1  0.55488100  0.00667500  0.23455300  1
  Bi  Bi10  1  0.93593850  0.00566350  0.07435000  1
  Bi  Bi11  1  0.68277300  0.99986900  0.06529200  1
  Bi  Bi12  1  0.31722700  0.99986900  0.93470800  1
  Bi  Bi13  1  0.06406150  0.00566350  0.92565000  1
  Bi  Bi14  1  0.44511900  0.00667500  0.76544700  1
  Bi  Bi15  1  0.18346950  0.00700750  0.75112000  1
  Bi  Bi16  1  0.06910000  0.51436900  0.60654300  1
  Bi  Bi17  1  0.30702950  0.03342850  0.56068500  1
  Bi  Bi18  1  0.19297050  0.53342850  0.43931500  1
  Bi  Bi19  1  0.43090000  0.01436900  0.39345700  1
  Bi  Bi20  1  0.31653050  0.50700750  0.24888000  1
  Bi  Bi21  1  0.05488100  0.50667500  0.23455300  1
  Bi  Bi22  1  0.43593850  0.50566350  0.07435000  1
  Bi  Bi23  1  0.18277300  0.49986900  0.06529200  1
  O  O24  1  0.65499100  0.50006900  0.95993300  1
  O  O25  1  0.90355100  0.50437200  0.93038400  1
  O  O26  1  0.97206750  0.99670150  0.87405500  1
  O  O27  1  0.71465400  0.00391200  0.87944200  1
  O  O28  1  0.53396200  0.00849500  0.78219400  1
  O  O29  1  0.59840400  0.51166200  0.70948200  1
  O  O30  1  0.65417900  0.00844200  0.61828500  1
  O  O31  1  0.72328450  0.50586450  0.55138100  1
  O  O32  1  0.77671550  0.00586450  0.44861900  1
  O  O33  1  0.84582100  0.50844200  0.38171500  1
  O  O34  1  0.90159600  0.01166200  0.29051800  1
  O  O35  1  0.96603800  0.50849500  0.21780600  1
  O  O36  1  0.78534600  0.50391200  0.12055800  1
  O  O37  1  0.52793250  0.49670150  0.12594500  1
  O  O38  1  0.59644900  0.00437200  0.06961600  1
  O  O39  1  0.84500900  0.00006900  0.04006700  1
  O  O40  1  0.15499100  0.00006900  0.95993300  1
  O  O41  1  0.40355100  0.00437200  0.93038400  1
  O  O42  1  0.47206750  0.49670150  0.87405500  1
  O  O43  1  0.21465400  0.50391200  0.87944200  1
  O  O44  1  0.03396200  0.50849500  0.78219400  1
  O  O45  1  0.09840400  0.01166200  0.70948200  1
  O  O46  1  0.15417900  0.50844200  0.61828500  1
  O  O47  1  0.22328450  0.00586450  0.55138100  1
  O  O48  1  0.27671550  0.50586450  0.44861900  1
  O  O49  1  0.34582100  0.00844200  0.38171500  1
  O  O50  1  0.40159600  0.51166200  0.29051800  1
  O  O51  1  0.46603800  0.00849500  0.21780600  1
  O  O52  1  0.28534600  0.00391200  0.12055800  1
  O  O53  1  0.02793250  0.99670150  0.12594500  1
  O  O54  1  0.09644900  0.50437200  0.06961600  1
  O  O55  1  0.34500900  0.50006900  0.04006700  1
  F  F56  1  0.79821500  0.96537900  0.73162500  1
  F  F57  1  0.89085600  0.95767400  0.63078700  1
  F  F58  1  0.00000000  0.00563300  0.50000000  1
  F  F59  1  0.60914400  0.45767400  0.36921300  1
  F  F60  1  0.70178500  0.46537900  0.26837500  1
  F  F61  1  0.29821500  0.46537900  0.73162500  1
  F  F62  1  0.39085600  0.45767400  0.63078700  1
  F  F63  1  0.50000000  0.50563300  0.50000000  1
  F  F64  1  0.10914400  0.95767400  0.36921300  1
  F  F65  1  0.20178500  0.96537900  0.26837500  1
