# generated using pymatgen
data_Li4Co3Sn2Sb3O16
_symmetry_space_group_name_H-M   'P 1'
_cell_length_a   10.80897182
_cell_length_b   6.20323439
_cell_length_c   9.91434203
_cell_angle_alpha   90.00000000
_cell_angle_beta   90.83321811
_cell_angle_gamma   90.00000000
_symmetry_Int_Tables_number   1
_chemical_formula_structural   Li4Co3Sn2Sb3O16
_chemical_formula_sum   'Li8 Co6 Sn4 Sb6 O32'
_cell_volume   664.69214904
_cell_formula_units_Z   2
loop_
 _symmetry_equiv_pos_site_id
 _symmetry_equiv_pos_as_xyz
  1  'x, y, z'
loop_
 _atom_site_type_symbol
 _atom_site_label
 _atom_site_symmetry_multiplicity
 _atom_site_fract_x
 _atom_site_fract_y
 _atom_site_fract_z
 _atom_site_occupancy
  Li  Li0  1  0.66107825  0.00000000  0.88527200  1
  Li  Li1  1  0.98808700  0.00000000  0.98261100  1
  Li  Li2  1  0.99321400  0.00000000  0.50270500  1
  Li  Li3  1  0.82496825  0.50000000  0.40798600  1
  Li  Li4  1  0.16107825  0.50000000  0.88527200  1
  Li  Li5  1  0.48808700  0.50000000  0.98261100  1
  Li  Li6  1  0.49321400  0.50000000  0.50270500  1
  Li  Li7  1  0.32496825  0.00000000  0.40798600  1
  Co  Co8  1  0.91758750  0.25590850  0.71165900  1
  Co  Co9  1  0.91758750  0.74409150  0.71165900  1
  Co  Co10  1  0.83106300  0.00000000  0.21419500  1
  Co  Co11  1  0.41758750  0.75590850  0.71165900  1
  Co  Co12  1  0.41758750  0.24409150  0.71165900  1
  Co  Co13  1  0.33106300  0.50000000  0.21419500  1
  Sn  Sn14  1  0.67800350  0.00000000  0.50300600  1
  Sn  Sn15  1  0.84493625  0.50000000  0.97755500  1
  Sn  Sn16  1  0.17800350  0.50000000  0.50300600  1
  Sn  Sn17  1  0.34493625  0.00000000  0.97755500  1
  Sb  Sb18  1  0.67186125  0.50000000  0.71462000  1
  Sb  Sb19  1  0.58487850  0.75287000  0.21570100  1
  Sb  Sb20  1  0.58487850  0.24713000  0.21570100  1
  Sb  Sb21  1  0.17186125  0.00000000  0.71462000  1
  Sb  Sb22  1  0.08487850  0.25287000  0.21570100  1
  Sb  Sb23  1  0.08487850  0.74713000  0.21570100  1
  O  O24  1  0.51613925  0.00000000  0.33888300  1
  O  O25  1  0.66026925  0.00000000  0.10520900  1
  O  O26  1  0.50324050  0.50000000  0.31515700  1
  O  O27  1  0.50957875  0.50000000  0.80245400  1
  O  O28  1  0.66161775  0.50000000  0.10328200  1
  O  O29  1  0.84267725  0.00000000  0.59528000  1
  O  O30  1  0.82417500  0.50000000  0.60618100  1
  O  O31  1  0.98463950  0.50000000  0.84210500  1
  O  O32  1  0.58921850  0.73876500  0.59427100  1
  O  O33  1  0.58921850  0.26123500  0.59427100  1
  O  O34  1  0.73507000  0.77521750  0.33964700  1
  O  O35  1  0.73507000  0.22478250  0.33964700  1
  O  O36  1  0.75172800  0.28020800  0.84348700  1
  O  O37  1  0.75172800  0.71979200  0.84348700  1
  O  O38  1  0.92353125  0.24352825  0.10088700  1
  O  O39  1  0.92353125  0.75647175  0.10088700  1
  O  O40  1  0.01613925  0.50000000  0.33888300  1
  O  O41  1  0.16026925  0.50000000  0.10520900  1
  O  O42  1  0.00324050  0.00000000  0.31515700  1
  O  O43  1  0.00957875  0.00000000  0.80245400  1
  O  O44  1  0.16161775  0.00000000  0.10328200  1
  O  O45  1  0.34267725  0.50000000  0.59528000  1
  O  O46  1  0.32417500  0.00000000  0.60618100  1
  O  O47  1  0.48463950  0.00000000  0.84210500  1
  O  O48  1  0.08921850  0.23876500  0.59427100  1
  O  O49  1  0.08921850  0.76123500  0.59427100  1
  O  O50  1  0.23507000  0.27521750  0.33964700  1
  O  O51  1  0.23507000  0.72478250  0.33964700  1
  O  O52  1  0.25172800  0.78020800  0.84348700  1
  O  O53  1  0.25172800  0.21979200  0.84348700  1
  O  O54  1  0.42353125  0.74352825  0.10088700  1
  O  O55  1  0.42353125  0.25647175  0.10088700  1
