# generated using pymatgen
data_Ti3CoNi2(PO4)6
_symmetry_space_group_name_H-M   'P 1'
_cell_length_a   8.63325801
_cell_length_b   8.63325801
_cell_length_c   20.65095125
_cell_angle_alpha   90.00000000
_cell_angle_beta   90.00000000
_cell_angle_gamma   120.00000000
_symmetry_Int_Tables_number   1
_chemical_formula_structural   Ti3CoNi2(PO4)6
_chemical_formula_sum   'Ti9 Co3 Ni6 P18 O72'
_cell_volume   1332.96925825
_cell_formula_units_Z   3
loop_
 _symmetry_equiv_pos_site_id
 _symmetry_equiv_pos_as_xyz
  1  'x, y, z'
loop_
 _atom_site_type_symbol
 _atom_site_label
 _atom_site_symmetry_multiplicity
 _atom_site_fract_x
 _atom_site_fract_y
 _atom_site_fract_z
 _atom_site_occupancy
  Ti  Ti0  1  0.33333333  0.66666667  0.52359967  1
  Ti  Ti1  1  0.33333333  0.66666667  0.31176167  1
  Ti  Ti2  1  0.33333333  0.66666667  0.02099467  1
  Ti  Ti3  1  0.00000000  0.00000000  0.85693300  1
  Ti  Ti4  1  0.00000000  0.00000000  0.64509500  1
  Ti  Ti5  1  0.00000000  0.00000000  0.35432800  1
  Ti  Ti6  1  0.66666667  0.33333333  0.19026633  1
  Ti  Ti7  1  0.66666667  0.33333333  0.97842833  1
  Ti  Ti8  1  0.66666667  0.33333333  0.68766133  1
  Co  Co9  1  0.33333333  0.66666667  0.81077167  1
  Co  Co10  1  0.00000000  0.00000000  0.14410500  1
  Co  Co11  1  0.66666667  0.33333333  0.47743833  1
  Ni  Ni12  1  0.33333333  0.66666667  0.66925967  1
  Ni  Ni13  1  0.33333333  0.66666667  0.16763467  1
  Ni  Ni14  1  0.00000000  0.00000000  0.00259300  1
  Ni  Ni15  1  0.00000000  0.00000000  0.50096800  1
  Ni  Ni16  1  0.66666667  0.33333333  0.33592633  1
  Ni  Ni17  1  0.66666667  0.33333333  0.83430133  1
  P  P18  1  0.37045967  0.33349833  0.08337133  1
  P  P19  1  0.96303867  0.62954033  0.08337133  1
  P  P20  1  0.66650167  0.03696133  0.08337133  1
  P  P21  1  0.99922767  0.29606733  0.24852633  1
  P  P22  1  0.70393267  0.70316033  0.24852633  1
  P  P23  1  0.29683967  0.00077233  0.24852633  1
  P  P24  1  0.03712633  0.66683167  0.41670467  1
  P  P25  1  0.62970533  0.96287367  0.41670467  1
  P  P26  1  0.33316833  0.37029467  0.41670467  1
  P  P27  1  0.66589433  0.62940067  0.58185967  1
  P  P28  1  0.37059933  0.03649367  0.58185967  1
  P  P29  1  0.96350633  0.33410567  0.58185967  1
  P  P30  1  0.70379300  0.00016500  0.75003800  1
  P  P31  1  0.29637200  0.29620700  0.75003800  1
  P  P32  1  0.99983500  0.70362800  0.75003800  1
  P  P33  1  0.33256100  0.96273400  0.91519300  1
  P  P34  1  0.03726600  0.36982700  0.91519300  1
  P  P35  1  0.63017300  0.66743900  0.91519300  1
  O  O36  1  0.31672333  0.47111867  0.35732867  1
  O  O37  1  0.15439533  0.68327667  0.35732867  1
  O  O38  1  0.83131267  0.31739433  0.25920333  1
  O  O39  1  0.52888133  0.84560467  0.35732867  1
  O  O40  1  0.99553800  0.20255800  0.18747900  1
  O  O41  1  0.16701433  0.48866267  0.24501567  1
  O  O42  1  0.68260567  0.51391833  0.25920333  1
  O  O43  1  0.51133733  0.67835167  0.24501567  1
  O  O44  1  0.14182400  0.66253800  0.47732100  1
  O  O45  1  0.32164833  0.83298567  0.24501567  1
  O  O46  1  0.18883933  0.16956167  0.07195267  1
  O  O47  1  0.52071400  0.85817600  0.47732100  1
  O  O48  1  0.79744200  0.79298000  0.18747900  1
  O  O49  1  0.48608167  0.16868733  0.25920333  1
  O  O50  1  0.35519200  0.50514600  0.09189000  1
  O  O51  1  0.20702000  0.00446200  0.18747900  1
  O  O52  1  0.14995400  0.64480800  0.09189000  1
  O  O53  1  0.98072233  0.81116067  0.07195267  1
  O  O54  1  0.49485400  0.85004600  0.09189000  1
  O  O55  1  0.33746200  0.47928600  0.47732100  1
  O  O56  1  0.14146467  0.47962833  0.97657133  1
  O  O57  1  0.83043833  0.01927767  0.07195267  1
  O  O58  1  0.52037167  0.66183633  0.97657133  1
  O  O59  1  0.33816367  0.85853533  0.97657133  1
  O  O60  1  0.98339000  0.80445200  0.69066200  1
  O  O61  1  0.82106200  0.01661000  0.69066200  1
  O  O62  1  0.49797933  0.65072767  0.59253667  1
  O  O63  1  0.19554800  0.17893800  0.69066200  1
  O  O64  1  0.66220467  0.53589133  0.52081233  1
  O  O65  1  0.83368100  0.82199600  0.57834900  1
  O  O66  1  0.34927233  0.84725167  0.59253667  1
  O  O67  1  0.17800400  0.01168500  0.57834900  1
  O  O68  1  0.80849067  0.99587133  0.81065433  1
  O  O69  1  0.98831500  0.16631900  0.57834900  1
  O  O70  1  0.85550600  0.50289500  0.40528600  1
  O  O71  1  0.18738067  0.19150933  0.81065433  1
  O  O72  1  0.46410867  0.12631333  0.52081233  1
  O  O73  1  0.15274833  0.50202067  0.59253667  1
  O  O74  1  0.02185867  0.83847933  0.42522333  1
  O  O75  1  0.87368667  0.33779533  0.52081233  1
  O  O76  1  0.81662067  0.97814133  0.42522333  1
  O  O77  1  0.64738900  0.14449400  0.40528600  1
  O  O78  1  0.16152067  0.18337933  0.42522333  1
  O  O79  1  0.00412867  0.81261933  0.81065433  1
  O  O80  1  0.80813133  0.81296167  0.30990467  1
  O  O81  1  0.49710500  0.35261100  0.40528600  1
  O  O82  1  0.18703833  0.99516967  0.30990467  1
  O  O83  1  0.00483033  0.19186867  0.30990467  1
  O  O84  1  0.65005667  0.13778533  0.02399533  1
  O  O85  1  0.48772867  0.34994333  0.02399533  1
  O  O86  1  0.16464600  0.98406100  0.92587000  1
  O  O87  1  0.86221467  0.51227133  0.02399533  1
  O  O88  1  0.32887133  0.86922467  0.85414567  1
  O  O89  1  0.50034767  0.15532933  0.91168233  1
  O  O90  1  0.01593900  0.18058500  0.92587000  1
  O  O91  1  0.84467067  0.34501833  0.91168233  1
  O  O92  1  0.47515733  0.32920467  0.14398767  1
  O  O93  1  0.65498167  0.49965233  0.91168233  1
  O  O94  1  0.52217267  0.83622833  0.73861933  1
  O  O95  1  0.85404733  0.52484267  0.14398767  1
  O  O96  1  0.13077533  0.45964667  0.85414567  1
  O  O97  1  0.81941500  0.83535400  0.92587000  1
  O  O98  1  0.68852533  0.17181267  0.75855667  1
  O  O99  1  0.54035333  0.67112867  0.85414567  1
  O  O100  1  0.48328733  0.31147467  0.75855667  1
  O  O101  1  0.31405567  0.47782733  0.73861933  1
  O  O102  1  0.82818733  0.51671267  0.75855667  1
  O  O103  1  0.67079533  0.14595267  0.14398767  1
  O  O104  1  0.47479800  0.14629500  0.64323800  1
  O  O105  1  0.16377167  0.68594433  0.73861933  1
  O  O106  1  0.85370500  0.32850300  0.64323800  1
  O  O107  1  0.67149700  0.52520200  0.64323800  1
