# generated using pymatgen
data_Sb(PO3)4
_symmetry_space_group_name_H-M   'P 1'
_cell_length_a   12.28050600
_cell_length_b   8.56150200
_cell_length_c   10.30361624
_cell_angle_alpha   90.00000000
_cell_angle_beta   117.92579924
_cell_angle_gamma   90.00000000
_symmetry_Int_Tables_number   1
_chemical_formula_structural   Sb(PO3)4
_chemical_formula_sum   'Sb4 P16 O48'
_cell_volume   957.17072958
_cell_formula_units_Z   4
loop_
 _symmetry_equiv_pos_site_id
 _symmetry_equiv_pos_as_xyz
  1  'x, y, z'
loop_
 _atom_site_type_symbol
 _atom_site_label
 _atom_site_symmetry_multiplicity
 _atom_site_fract_x
 _atom_site_fract_y
 _atom_site_fract_z
 _atom_site_occupancy
  Sb  Sb0  1  0.75000000  0.75000000  0.00000000  1
  Sb  Sb1  1  0.25000000  0.75000000  0.50000000  1
  Sb  Sb2  1  0.25000000  0.25000000  0.00000000  1
  Sb  Sb3  1  0.75000000  0.25000000  0.50000000  1
  P  P4  1  0.81784500  0.50562700  0.31027200  1
  P  P5  1  0.99171200  0.73653400  0.52751800  1
  P  P6  1  0.50828800  0.23653400  0.97248200  1
  P  P7  1  0.31784500  0.99437300  0.81027200  1
  P  P8  1  0.18215500  0.50562700  0.18972800  1
  P  P9  1  0.99171200  0.26346600  0.02751800  1
  P  P10  1  0.50828800  0.76346600  0.47248200  1
  P  P11  1  0.68215500  0.99437300  0.68972800  1
  P  P12  1  0.31784500  0.00562700  0.31027200  1
  P  P13  1  0.49171200  0.23653400  0.52751800  1
  P  P14  1  0.00828800  0.73653400  0.97248200  1
  P  P15  1  0.81784500  0.49437300  0.81027200  1
  P  P16  1  0.68215500  0.00562700  0.18972800  1
  P  P17  1  0.49171200  0.76346600  0.02751800  1
  P  P18  1  0.00828800  0.26346600  0.47248200  1
  P  P19  1  0.18215500  0.49437300  0.68972800  1
  O  O20  1  0.73109850  0.93118950  0.84411500  1
  O  O21  1  0.55773100  0.76035700  0.93079600  1
  O  O22  1  0.06708050  0.60341550  0.65569300  1
  O  O23  1  0.05773100  0.73964300  0.43079600  1
  O  O24  1  0.86396150  0.64139350  0.42910200  1
  O  O25  1  0.21972400  0.91596100  0.33163900  1
  O  O26  1  0.96625850  0.87558350  0.59065700  1
  O  O27  1  0.26890150  0.93118950  0.65588500  1
  O  O28  1  0.36396150  0.85860650  0.92910200  1
  O  O29  1  0.28027600  0.41596100  0.16836100  1
  O  O30  1  0.43291950  0.10341550  0.84430700  1
  O  O31  1  0.53374150  0.37558350  0.90934300  1
  O  O32  1  0.96625850  0.12441650  0.09065700  1
  O  O33  1  0.06708050  0.39658450  0.15569300  1
  O  O34  1  0.21972400  0.08403900  0.83163900  1
  O  O35  1  0.13603850  0.64139350  0.07089800  1
  O  O36  1  0.23109850  0.56881050  0.34411500  1
  O  O37  1  0.53374150  0.62441650  0.40934300  1
  O  O38  1  0.28027600  0.58403900  0.66836100  1
  O  O39  1  0.63603850  0.85860650  0.57089800  1
  O  O40  1  0.44226900  0.76035700  0.56920400  1
  O  O41  1  0.43291950  0.89658450  0.34430700  1
  O  O42  1  0.94226900  0.73964300  0.06920400  1
  O  O43  1  0.76890150  0.56881050  0.15588500  1
  O  O44  1  0.23109850  0.43118950  0.84411500  1
  O  O45  1  0.05773100  0.26035700  0.93079600  1
  O  O46  1  0.56708050  0.10341550  0.65569300  1
  O  O47  1  0.55773100  0.23964300  0.43079600  1
  O  O48  1  0.36396150  0.14139350  0.42910200  1
  O  O49  1  0.71972400  0.41596100  0.33163900  1
  O  O50  1  0.46625850  0.37558350  0.59065700  1
  O  O51  1  0.76890150  0.43118950  0.65588500  1
  O  O52  1  0.86396150  0.35860650  0.92910200  1
  O  O53  1  0.78027600  0.91596100  0.16836100  1
  O  O54  1  0.93291950  0.60341550  0.84430700  1
  O  O55  1  0.03374150  0.87558350  0.90934300  1
  O  O56  1  0.46625850  0.62441650  0.09065700  1
  O  O57  1  0.56708050  0.89658450  0.15569300  1
  O  O58  1  0.71972400  0.58403900  0.83163900  1
  O  O59  1  0.63603850  0.14139350  0.07089800  1
  O  O60  1  0.73109850  0.06881050  0.34411500  1
  O  O61  1  0.03374150  0.12441650  0.40934300  1
  O  O62  1  0.78027600  0.08403900  0.66836100  1
  O  O63  1  0.13603850  0.35860650  0.57089800  1
  O  O64  1  0.94226900  0.26035700  0.56920400  1
  O  O65  1  0.93291950  0.39658450  0.34430700  1
  O  O66  1  0.44226900  0.23964300  0.06920400  1
  O  O67  1  0.26890150  0.06881050  0.15588500  1
