# generated using pymatgen
data_Li4Nb2V3Co3O16
_symmetry_space_group_name_H-M   'P 1'
_cell_length_a   10.38529600
_cell_length_b   5.97153600
_cell_length_c   9.78845845
_cell_angle_alpha   90.00000000
_cell_angle_beta   90.55332481
_cell_angle_gamma   90.00000000
_symmetry_Int_Tables_number   1
_chemical_formula_structural   Li4Nb2V3Co3O16
_chemical_formula_sum   'Li8 Nb4 V6 Co6 O32'
_cell_volume   607.01438556
_cell_formula_units_Z   2
loop_
 _symmetry_equiv_pos_site_id
 _symmetry_equiv_pos_as_xyz
  1  'x, y, z'
loop_
 _atom_site_type_symbol
 _atom_site_label
 _atom_site_symmetry_multiplicity
 _atom_site_fract_x
 _atom_site_fract_y
 _atom_site_fract_z
 _atom_site_occupancy
  Li  Li0  1  0.66668500  0.00000000  0.09704500  1
  Li  Li1  1  0.99458500  0.00000000  0.00455900  1
  Li  Li2  1  0.99606200  0.00000000  0.51228700  1
  Li  Li3  1  0.83790000  0.50000000  0.60061600  1
  Li  Li4  1  0.16668500  0.50000000  0.09704500  1
  Li  Li5  1  0.49458500  0.50000000  0.00455900  1
  Li  Li6  1  0.49606200  0.50000000  0.51228700  1
  Li  Li7  1  0.33790000  0.00000000  0.60061600  1
  Nb  Nb8  1  0.65319700  0.00000000  0.51123100  1
  Nb  Nb9  1  0.83383200  0.50000000  0.00011800  1
  Nb  Nb10  1  0.15319700  0.50000000  0.51123100  1
  Nb  Nb11  1  0.33383200  0.00000000  0.00011800  1
  V  V12  1  0.82403100  0.00000000  0.77188100  1
  V  V13  1  0.90793300  0.25493800  0.28229800  1
  V  V14  1  0.90793300  0.74506200  0.28229800  1
  V  V15  1  0.32403100  0.50000000  0.77188100  1
  V  V16  1  0.40793300  0.75493800  0.28229800  1
  V  V17  1  0.40793300  0.24506200  0.28229800  1
  Co  Co18  1  0.58837100  0.75311500  0.78831300  1
  Co  Co19  1  0.58837100  0.24688500  0.78831300  1
  Co  Co20  1  0.66900900  0.50000000  0.29138900  1
  Co  Co21  1  0.08837100  0.25311500  0.78831300  1
  Co  Co22  1  0.08837100  0.74688500  0.78831300  1
  Co  Co23  1  0.16900900  0.00000000  0.29138900  1
  O  O24  1  0.57791050  0.75090750  0.40495300  1
  O  O25  1  0.52147200  0.00000000  0.65078500  1
  O  O26  1  0.68528600  0.00000000  0.89122800  1
  O  O27  1  0.98987200  0.00000000  0.70142300  1
  O  O28  1  0.99092600  0.00000000  0.19374100  1
  O  O29  1  0.57791050  0.24909250  0.40495300  1
  O  O30  1  0.74996800  0.78236100  0.64738600  1
  O  O31  1  0.74996800  0.21763900  0.64738600  1
  O  O32  1  0.66607800  0.50000000  0.91868000  1
  O  O33  1  0.83448500  0.00000000  0.39719900  1
  O  O34  1  0.76713700  0.27092200  0.16308900  1
  O  O35  1  0.76713700  0.72907800  0.16308900  1
  O  O36  1  0.85118000  0.50000000  0.39559700  1
  O  O37  1  0.91214450  0.25324750  0.90956200  1
  O  O38  1  0.98097800  0.50000000  0.16462700  1
  O  O39  1  0.91214450  0.74675250  0.90956200  1
  O  O40  1  0.07791050  0.25090750  0.40495300  1
  O  O41  1  0.02147200  0.50000000  0.65078500  1
  O  O42  1  0.18528600  0.50000000  0.89122800  1
  O  O43  1  0.48987200  0.50000000  0.70142300  1
  O  O44  1  0.49092600  0.50000000  0.19374100  1
  O  O45  1  0.07791050  0.74909250  0.40495300  1
  O  O46  1  0.24996800  0.28236100  0.64738600  1
  O  O47  1  0.24996800  0.71763900  0.64738600  1
  O  O48  1  0.16607800  0.00000000  0.91868000  1
  O  O49  1  0.33448500  0.50000000  0.39719900  1
  O  O50  1  0.26713700  0.77092200  0.16308900  1
  O  O51  1  0.26713700  0.22907800  0.16308900  1
  O  O52  1  0.35118000  0.00000000  0.39559700  1
  O  O53  1  0.41214450  0.75324750  0.90956200  1
  O  O54  1  0.48097800  0.00000000  0.16462700  1
  O  O55  1  0.41214450  0.24675250  0.90956200  1
