# generated using pymatgen
data_Li12V3CrP4(CO7)4
_symmetry_space_group_name_H-M   'P 1'
_cell_length_a   8.54037400
_cell_length_b   6.58877500
_cell_length_c   10.00941861
_cell_angle_alpha   90.00000000
_cell_angle_beta   94.98406459
_cell_angle_gamma   90.00000000
_symmetry_Int_Tables_number   1
_chemical_formula_structural   Li12V3CrP4(CO7)4
_chemical_formula_sum   'Li12 V3 Cr1 P4 C4 O28'
_cell_volume   561.10636632
_cell_formula_units_Z   1
loop_
 _symmetry_equiv_pos_site_id
 _symmetry_equiv_pos_as_xyz
  1  'x, y, z'
loop_
 _atom_site_type_symbol
 _atom_site_label
 _atom_site_symmetry_multiplicity
 _atom_site_fract_x
 _atom_site_fract_y
 _atom_site_fract_z
 _atom_site_occupancy
  Li  Li0  1  0.10164100  0.00000000  0.61884700  1
  Li  Li1  1  0.09563400  0.00000000  0.11584400  1
  Li  Li2  1  0.27898400  0.77652700  0.87539000  1
  Li  Li3  1  0.27898400  0.22347300  0.87539000  1
  Li  Li4  1  0.27716700  0.77833400  0.37534100  1
  Li  Li5  1  0.27716700  0.22166600  0.37534100  1
  Li  Li6  1  0.72199300  0.27285000  0.62559500  1
  Li  Li7  1  0.72199300  0.72715000  0.62559500  1
  Li  Li8  1  0.72172300  0.27570900  0.12399100  1
  Li  Li9  1  0.72172300  0.72429100  0.12399100  1
  Li  Li10  1  0.90341000  0.50000000  0.88384400  1
  Li  Li11  1  0.90618600  0.50000000  0.38323600  1
  V  V12  1  0.32924700  0.50000000  0.60448900  1
  V  V13  1  0.32837000  0.50000000  0.10318900  1
  V  V14  1  0.67026400  0.00000000  0.89693700  1
  Cr  Cr15  1  0.66596300  0.00000000  0.39238600  1
  P  P16  1  0.41260000  0.00000000  0.64068100  1
  P  P17  1  0.40817700  0.00000000  0.13824300  1
  P  P18  1  0.58880500  0.50000000  0.86005400  1
  P  P19  1  0.58699700  0.50000000  0.35907600  1
  C  C20  1  0.03543300  0.50000000  0.65144200  1
  C  C21  1  0.03519600  0.50000000  0.15141400  1
  C  C22  1  0.96359100  0.00000000  0.84893000  1
  C  C23  1  0.96935600  0.00000000  0.35203000  1
  O  O24  1  0.07508500  0.50000000  0.52875600  1
  O  O25  1  0.10930700  0.00000000  0.82141400  1
  O  O26  1  0.07403900  0.50000000  0.02838500  1
  O  O27  1  0.14845400  0.50000000  0.74821900  1
  O  O28  1  0.11274900  0.00000000  0.31698900  1
  O  O29  1  0.14845900  0.50000000  0.24773900  1
  O  O30  1  0.30980300  0.81730300  0.58781700  1
  O  O31  1  0.30980300  0.18269700  0.58781700  1
  O  O32  1  0.30734100  0.81685400  0.08302100  1
  O  O33  1  0.30734100  0.18314600  0.08302100  1
  O  O34  1  0.42266400  0.50000000  0.91069200  1
  O  O35  1  0.43107000  0.00000000  0.79759600  1
  O  O36  1  0.42183900  0.50000000  0.41089700  1
  O  O37  1  0.42158700  0.00000000  0.29420600  1
  O  O38  1  0.56887500  0.50000000  0.70330000  1
  O  O39  1  0.57850700  0.00000000  0.58985300  1
  O  O40  1  0.56797100  0.50000000  0.20260300  1
  O  O41  1  0.57665000  0.00000000  0.09129100  1
  O  O42  1  0.69157600  0.68263600  0.91298100  1
  O  O43  1  0.69157600  0.31736400  0.91298100  1
  O  O44  1  0.68880300  0.31461600  0.41123400  1
  O  O45  1  0.68880300  0.68538400  0.41123400  1
  O  O46  1  0.85040700  0.00000000  0.75291900  1
  O  O47  1  0.88998400  0.50000000  0.67848800  1
  O  O48  1  0.85217700  0.00000000  0.25841900  1
  O  O49  1  0.92488400  0.00000000  0.97199600  1
  O  O50  1  0.88988700  0.50000000  0.17896400  1
  O  O51  1  0.93974900  0.00000000  0.47589400  1
