# generated using pymatgen
data_Na2CoO3
_symmetry_space_group_name_H-M   'P 1'
_cell_length_a   6.28174262
_cell_length_b   10.81010224
_cell_length_c   5.15877900
_cell_angle_alpha   90.00000000
_cell_angle_beta   90.00000000
_cell_angle_gamma   90.00000000
_symmetry_Int_Tables_number   1
_chemical_formula_structural   Na2CoO3
_chemical_formula_sum   'Na8 Co4 O12'
_cell_volume   350.31349112
_cell_formula_units_Z   4
loop_
 _symmetry_equiv_pos_site_id
 _symmetry_equiv_pos_as_xyz
  1  'x, y, z'
loop_
 _atom_site_type_symbol
 _atom_site_label
 _atom_site_symmetry_multiplicity
 _atom_site_fract_x
 _atom_site_fract_y
 _atom_site_fract_z
 _atom_site_occupancy
  Na  Na0  1  0.67080550  0.66271500  0.51970300  1
  Na  Na1  1  0.32919450  0.66271500  0.01970300  1
  Na  Na2  1  0.67080550  0.33728500  0.51970300  1
  Na  Na3  1  0.32919450  0.33728500  0.01970300  1
  Na  Na4  1  0.17080550  0.16271500  0.51970300  1
  Na  Na5  1  0.82919450  0.16271500  0.01970300  1
  Na  Na6  1  0.17080550  0.83728500  0.51970300  1
  Na  Na7  1  0.82919450  0.83728500  0.01970300  1
  Co  Co8  1  0.83588050  0.50000000  0.05180850  1
  Co  Co9  1  0.16411950  0.50000000  0.55180850  1
  Co  Co10  1  0.33588050  0.00000000  0.05180850  1
  Co  Co11  1  0.66411950  0.00000000  0.55180850  1
  O  O12  1  0.90154700  0.50000000  0.39687000  1
  O  O13  1  0.09845300  0.50000000  0.89687000  1
  O  O14  1  0.69511650  0.63695400  0.98467900  1
  O  O15  1  0.30488350  0.63695400  0.48467900  1
  O  O16  1  0.69511650  0.36304600  0.98467900  1
  O  O17  1  0.30488350  0.36304600  0.48467900  1
  O  O18  1  0.40154700  0.00000000  0.39687000  1
  O  O19  1  0.59845300  0.00000000  0.89687000  1
  O  O20  1  0.19511650  0.13695400  0.98467900  1
  O  O21  1  0.80488350  0.13695400  0.48467900  1
  O  O22  1  0.19511650  0.86304600  0.98467900  1
  O  O23  1  0.80488350  0.86304600  0.48467900  1
