# generated using pymatgen
data_LiFePO4
_symmetry_space_group_name_H-M   'P 1'
_cell_length_a   9.60227287
_cell_length_b   4.95935900
_cell_length_c   6.36935207
_cell_angle_alpha   90.00000000
_cell_angle_beta   93.47451807
_cell_angle_gamma   90.00000000
_symmetry_Int_Tables_number   1
_chemical_formula_structural   LiFePO4
_chemical_formula_sum   'Li4 Fe4 P4 O16'
_cell_volume   302.75812971
_cell_formula_units_Z   4
loop_
 _symmetry_equiv_pos_site_id
 _symmetry_equiv_pos_as_xyz
  1  'x, y, z'
loop_
 _atom_site_type_symbol
 _atom_site_label
 _atom_site_symmetry_multiplicity
 _atom_site_fract_x
 _atom_site_fract_y
 _atom_site_fract_z
 _atom_site_occupancy
  Li  Li0  1  0.32216875  0.99822675  0.25188650  1
  Li  Li1  1  0.17783125  0.49822675  0.74811350  1
  Li  Li2  1  0.82216875  0.49822675  0.25188650  1
  Li  Li3  1  0.67783125  0.99822675  0.74811350  1
  Fe  Fe4  1  0.50000000  0.51592950  0.00000000  1
  Fe  Fe5  1  0.00000000  0.03908000  0.50000000  1
  Fe  Fe6  1  0.00000000  0.01592950  0.00000000  1
  Fe  Fe7  1  0.50000000  0.53908000  0.50000000  1
  P  P8  1  0.31263375  0.99355325  0.75613550  1
  P  P9  1  0.18736625  0.49355325  0.24386450  1
  P  P10  1  0.81263375  0.49355325  0.75613550  1
  P  P11  1  0.68736625  0.99355325  0.24386450  1
  O  O12  1  0.35248600  0.44872600  0.25877950  1
  O  O13  1  0.14751400  0.94872600  0.74122050  1
  O  O14  1  0.36752100  0.86294550  0.55804550  1
  O  O15  1  0.13247900  0.36294550  0.44195450  1
  O  O16  1  0.36448925  0.84795125  0.95913650  1
  O  O17  1  0.13551075  0.34795125  0.04086350  1
  O  O18  1  0.35899475  0.29520025  0.76594550  1
  O  O19  1  0.14100525  0.79520025  0.23405450  1
  O  O20  1  0.85248600  0.94872600  0.25877950  1
  O  O21  1  0.64751400  0.44872600  0.74122050  1
  O  O22  1  0.86752100  0.36294550  0.55804550  1
  O  O23  1  0.63247900  0.86294550  0.44195450  1
  O  O24  1  0.86448925  0.34795125  0.95913650  1
  O  O25  1  0.63551075  0.84795125  0.04086350  1
  O  O26  1  0.85899475  0.79520025  0.76594550  1
  O  O27  1  0.64100525  0.29520025  0.23405450  1
