# generated using pymatgen
data_Li3Mn2Ni5O12
_symmetry_space_group_name_H-M   'P 1'
_cell_length_a   4.94132600
_cell_length_b   8.81875000
_cell_length_c   9.78186916
_cell_angle_alpha   90.00000000
_cell_angle_beta   100.87008794
_cell_angle_gamma   90.00000000
_symmetry_Int_Tables_number   1
_chemical_formula_structural   Li3Mn2Ni5O12
_chemical_formula_sum   'Li6 Mn4 Ni10 O24'
_cell_volume   418.60963024
_cell_formula_units_Z   2
loop_
 _symmetry_equiv_pos_site_id
 _symmetry_equiv_pos_as_xyz
  1  'x, y, z'
loop_
 _atom_site_type_symbol
 _atom_site_label
 _atom_site_symmetry_multiplicity
 _atom_site_fract_x
 _atom_site_fract_y
 _atom_site_fract_z
 _atom_site_occupancy
  Li  Li0  1  0.25178750  0.57511450  0.75494600  1
  Li  Li1  1  0.74821250  0.57511450  0.24505400  1
  Li  Li2  1  0.00000000  0.91664900  0.00000000  1
  Li  Li3  1  0.75178750  0.07511450  0.75494600  1
  Li  Li4  1  0.24821250  0.07511450  0.24505400  1
  Li  Li5  1  0.50000000  0.41664900  0.00000000  1
  Mn  Mn6  1  0.00000000  0.74849100  0.50000000  1
  Mn  Mn7  1  0.50000000  0.75600200  0.00000000  1
  Mn  Mn8  1  0.50000000  0.24849100  0.50000000  1
  Mn  Mn9  1  0.00000000  0.25600200  0.00000000  1
  Ni  Ni10  1  0.00000000  0.57982700  0.00000000  1
  Ni  Ni11  1  0.24751400  0.75330300  0.24647000  1
  Ni  Ni12  1  0.50000000  0.57907600  0.50000000  1
  Ni  Ni13  1  0.75248600  0.75330300  0.75353000  1
  Ni  Ni14  1  0.50000000  0.91372800  0.50000000  1
  Ni  Ni15  1  0.50000000  0.07982700  0.00000000  1
  Ni  Ni16  1  0.74751400  0.25330300  0.24647000  1
  Ni  Ni17  1  0.00000000  0.07907600  0.50000000  1
  Ni  Ni18  1  0.25248600  0.25330300  0.75353000  1
  Ni  Ni19  1  0.00000000  0.41372800  0.50000000  1
  O  O20  1  0.36040400  0.60345100  0.11095800  1
  O  O21  1  0.10926000  0.59641700  0.38584400  1
  O  O22  1  0.12865550  0.72946250  0.88860600  1
  O  O23  1  0.89074000  0.59641700  0.61415600  1
  O  O24  1  0.63959600  0.60345100  0.88904200  1
  O  O25  1  0.87134450  0.72946250  0.11139400  1
  O  O26  1  0.62992500  0.74833400  0.38644200  1
  O  O27  1  0.85212100  0.90555000  0.61071000  1
  O  O28  1  0.37007500  0.74833400  0.61355800  1
  O  O29  1  0.62035650  0.91333950  0.89150800  1
  O  O30  1  0.37964350  0.91333950  0.10849200  1
  O  O31  1  0.14787900  0.90555000  0.38929000  1
  O  O32  1  0.86040400  0.10345100  0.11095800  1
  O  O33  1  0.60926000  0.09641700  0.38584400  1
  O  O34  1  0.62865550  0.22946250  0.88860600  1
  O  O35  1  0.39074000  0.09641700  0.61415600  1
  O  O36  1  0.13959600  0.10345100  0.88904200  1
  O  O37  1  0.37134450  0.22946250  0.11139400  1
  O  O38  1  0.12992500  0.24833400  0.38644200  1
  O  O39  1  0.35212100  0.40555000  0.61071000  1
  O  O40  1  0.87007500  0.24833400  0.61355800  1
  O  O41  1  0.12035650  0.41333950  0.89150800  1
  O  O42  1  0.87964350  0.41333950  0.10849200  1
  O  O43  1  0.64787900  0.40555000  0.38929000  1
