# generated using pymatgen
data_Na3VBAsO7
_symmetry_space_group_name_H-M   'P 1'
_cell_length_a   5.39896173
_cell_length_b   6.76265800
_cell_length_c   9.16232543
_cell_angle_alpha   90.00000000
_cell_angle_beta   91.67074252
_cell_angle_gamma   90.00000000
_symmetry_Int_Tables_number   1
_chemical_formula_structural   Na3VBAsO7
_chemical_formula_sum   'Na6 V2 B2 As2 O14'
_cell_volume   334.38648812
_cell_formula_units_Z   2
loop_
 _symmetry_equiv_pos_site_id
 _symmetry_equiv_pos_as_xyz
  1  'x, y, z'
loop_
 _atom_site_type_symbol
 _atom_site_label
 _atom_site_symmetry_multiplicity
 _atom_site_fract_x
 _atom_site_fract_y
 _atom_site_fract_z
 _atom_site_occupancy
  Na  Na0  1  0.24252700  0.75000000  0.07348900  1
  Na  Na1  1  0.75747300  0.25000000  0.92651100  1
  Na  Na2  1  0.75196100  0.00084400  0.24065600  1
  Na  Na3  1  0.75196100  0.49915600  0.24065600  1
  Na  Na4  1  0.24803900  0.50084400  0.75934400  1
  Na  Na5  1  0.24803900  0.99915600  0.75934400  1
  V  V6  1  0.78257000  0.75000000  0.67241900  1
  V  V7  1  0.21743000  0.25000000  0.32758100  1
  B  B8  1  0.27322800  0.25000000  0.06252300  1
  B  B9  1  0.72677200  0.75000000  0.93747700  1
  As  As10  1  0.28532500  0.75000000  0.42337000  1
  As  As11  1  0.71467500  0.25000000  0.57663000  1
  O  O12  1  0.68231100  0.75000000  0.08150600  1
  O  O13  1  0.31768900  0.25000000  0.91849400  1
  O  O14  1  0.03858300  0.25000000  0.12456900  1
  O  O15  1  0.96141700  0.75000000  0.87543100  1
  O  O16  1  0.46561800  0.25000000  0.17277800  1
  O  O17  1  0.53438200  0.75000000  0.82722200  1
  O  O18  1  0.59966800  0.75000000  0.46124500  1
  O  O19  1  0.40033200  0.25000000  0.53875500  1
  O  O20  1  0.87155800  0.25000000  0.41652400  1
  O  O21  1  0.12844200  0.75000000  0.58347600  1
  O  O22  1  0.20531500  0.94682500  0.31145200  1
  O  O23  1  0.20531500  0.55317500  0.31145200  1
  O  O24  1  0.79468500  0.44682500  0.68854800  1
  O  O25  1  0.79468500  0.05317500  0.68854800  1
