# generated using pymatgen
data_TiSb3(PO4)6
_symmetry_space_group_name_H-M   'P 1'
_cell_length_a   8.71885594
_cell_length_b   8.71885594
_cell_length_c   22.22417712
_cell_angle_alpha   90.00000000
_cell_angle_beta   90.00000000
_cell_angle_gamma   120.00000000
_symmetry_Int_Tables_number   1
_chemical_formula_structural   TiSb3(PO4)6
_chemical_formula_sum   'Ti3 Sb9 P18 O72'
_cell_volume   1463.10443008
_cell_formula_units_Z   3
loop_
 _symmetry_equiv_pos_site_id
 _symmetry_equiv_pos_as_xyz
  1  'x, y, z'
loop_
 _atom_site_type_symbol
 _atom_site_label
 _atom_site_symmetry_multiplicity
 _atom_site_fract_x
 _atom_site_fract_y
 _atom_site_fract_z
 _atom_site_occupancy
  Ti  Ti0  1  0.66666667  0.33333333  0.19257633  1
  Ti  Ti1  1  0.33333333  0.66666667  0.52590967  1
  Ti  Ti2  1  0.00000000  0.00000000  0.85924300  1
  Sb  Sb3  1  0.00000000  0.00000000  0.14292700  1
  Sb  Sb4  1  0.33333333  0.66666667  0.02393267  1
  Sb  Sb5  1  0.33333333  0.66666667  0.31103067  1
  Sb  Sb6  1  0.66666667  0.33333333  0.47626033  1
  Sb  Sb7  1  0.00000000  0.00000000  0.35726600  1
  Sb  Sb8  1  0.00000000  0.00000000  0.64436400  1
  Sb  Sb9  1  0.33333333  0.66666667  0.80959367  1
  Sb  Sb10  1  0.66666667  0.33333333  0.69059933  1
  Sb  Sb11  1  0.66666667  0.33333333  0.97769733  1
  P  P12  1  0.38138800  0.04667500  0.08472800  1
  P  P13  1  0.66528700  0.61861200  0.08472800  1
  P  P14  1  0.95332500  0.33471300  0.08472800  1
  P  P15  1  0.71143900  0.00160200  0.24995400  1
  P  P16  1  0.99839800  0.70983700  0.24995400  1
  P  P17  1  0.29016300  0.28856100  0.24995400  1
  P  P18  1  0.04805467  0.38000833  0.41806133  1
  P  P19  1  0.33195367  0.95194533  0.41806133  1
  P  P20  1  0.61999167  0.66804633  0.41806133  1
  P  P21  1  0.37810567  0.33493533  0.58328733  1
  P  P22  1  0.66506467  0.04317033  0.58328733  1
  P  P23  1  0.95682967  0.62189433  0.58328733  1
  P  P24  1  0.71472133  0.71334167  0.75139467  1
  P  P25  1  0.99862033  0.28527867  0.75139467  1
  P  P26  1  0.28665833  0.00137967  0.75139467  1
  P  P27  1  0.04477233  0.66826867  0.91662067  1
  P  P28  1  0.33173133  0.37650367  0.91662067  1
  P  P29  1  0.62349633  0.95522767  0.91662067  1
  O  O30  1  0.20711100  0.17419300  0.30758400  1
  O  O31  1  0.82580700  0.03291800  0.30758400  1
  O  O32  1  0.19378133  0.02452167  0.08812167  1
  O  O33  1  0.96708200  0.79288900  0.30758400  1
  O  O34  1  0.36360000  0.85992100  0.07899200  1
  O  O35  1  0.49570900  0.13721100  0.13949100  1
  O  O36  1  0.83074033  0.80621867  0.08812167  1
  O  O37  1  0.49632100  0.63640000  0.07899200  1
  O  O38  1  0.14007900  0.50367900  0.07899200  1
  O  O39  1  0.79239300  0.96585700  0.19354000  1
  O  O40  1  0.69444267  0.16655333  0.24205533  1
  O  O41  1  0.03414300  0.82653600  0.19354000  1
  O  O42  1  0.64150200  0.50429100  0.13949100  1
  O  O43  1  0.97547833  0.16925967  0.08812167  1
  O  O44  1  0.86278900  0.35849800  0.13949100  1
  O  O45  1  0.52775867  0.83321133  0.25534933  1
  O  O46  1  0.16678867  0.69454733  0.25534933  1
  O  O47  1  0.83344667  0.52788933  0.24205533  1
  O  O48  1  0.17346400  0.20760700  0.19354000  1
  O  O49  1  0.30545267  0.47224133  0.25534933  1
  O  O50  1  0.69701300  0.54409100  0.02558500  1
  O  O51  1  0.47211067  0.30555733  0.24205533  1
  O  O52  1  0.84707800  0.30298700  0.02558500  1
  O  O53  1  0.45590900  0.15292200  0.02558500  1
  O  O54  1  0.87377767  0.50752633  0.64091733  1
  O  O55  1  0.49247367  0.36625133  0.64091733  1
  O  O56  1  0.86044800  0.35785500  0.42145500  1
  O  O57  1  0.63374867  0.12622233  0.64091733  1
  O  O58  1  0.03026667  0.19325433  0.41232533  1
  O  O59  1  0.16237567  0.47054433  0.47282433  1
  O  O60  1  0.49740700  0.13955200  0.42145500  1
  O  O61  1  0.16298767  0.96973333  0.41232533  1
  O  O62  1  0.80674567  0.83701233  0.41232533  1
  O  O63  1  0.45905967  0.29919033  0.52687333  1
  O  O64  1  0.36110933  0.49988667  0.57538867  1
  O  O65  1  0.70080967  0.15986933  0.52687333  1
  O  O66  1  0.30816867  0.83762433  0.47282433  1
  O  O67  1  0.64214500  0.50259300  0.42145500  1
  O  O68  1  0.52945567  0.69183133  0.47282433  1
  O  O69  1  0.19442533  0.16654467  0.58868267  1
  O  O70  1  0.83345533  0.02788067  0.58868267  1
  O  O71  1  0.50011333  0.86122267  0.57538867  1
  O  O72  1  0.84013067  0.54094033  0.52687333  1
  O  O73  1  0.97211933  0.80557467  0.58868267  1
  O  O74  1  0.36367967  0.87742433  0.35891833  1
  O  O75  1  0.13877733  0.63889067  0.57538867  1
  O  O76  1  0.51374467  0.63632033  0.35891833  1
  O  O77  1  0.12257567  0.48625533  0.35891833  1
  O  O78  1  0.54044433  0.84085967  0.97425067  1
  O  O79  1  0.15914033  0.69958467  0.97425067  1
  O  O80  1  0.52711467  0.69118833  0.75478833  1
  O  O81  1  0.30041533  0.45955567  0.97425067  1
  O  O82  1  0.69693333  0.52658767  0.74565867  1
  O  O83  1  0.82904233  0.80387767  0.80615767  1
  O  O84  1  0.16407367  0.47288533  0.75478833  1
  O  O85  1  0.82965433  0.30306667  0.74565867  1
  O  O86  1  0.47341233  0.17034567  0.74565867  1
  O  O87  1  0.12572633  0.63252367  0.86020667  1
  O  O88  1  0.02777600  0.83322000  0.90872200  1
  O  O89  1  0.36747633  0.49320267  0.86020667  1
  O  O90  1  0.97483533  0.17095767  0.80615767  1
  O  O91  1  0.30881167  0.83592633  0.75478833  1
  O  O92  1  0.19612233  0.02516467  0.80615767  1
  O  O93  1  0.86109200  0.49987800  0.92201600  1
  O  O94  1  0.50012200  0.36121400  0.92201600  1
  O  O95  1  0.16678000  0.19455600  0.90872200  1
  O  O96  1  0.50679733  0.87427367  0.86020667  1
  O  O97  1  0.63878600  0.13890800  0.92201600  1
  O  O98  1  0.03034633  0.21075767  0.69225167  1
  O  O99  1  0.80544400  0.97222400  0.90872200  1
  O  O100  1  0.18041133  0.96965367  0.69225167  1
  O  O101  1  0.78924233  0.81958867  0.69225167  1
