# generated using pymatgen
data_Li2FeSn(PO4)2
_symmetry_space_group_name_H-M   'P 1'
_cell_length_a   4.85920234
_cell_length_b   6.27544314
_cell_length_c   11.29848453
_cell_angle_alpha   90.00000000
_cell_angle_beta   90.54268587
_cell_angle_gamma   90.00000000
_symmetry_Int_Tables_number   1
_chemical_formula_structural   Li2FeSn(PO4)2
_chemical_formula_sum   'Li4 Fe2 Sn2 P4 O16'
_cell_volume   344.51655551
_cell_formula_units_Z   2
loop_
 _symmetry_equiv_pos_site_id
 _symmetry_equiv_pos_as_xyz
  1  'x, y, z'
loop_
 _atom_site_type_symbol
 _atom_site_label
 _atom_site_symmetry_multiplicity
 _atom_site_fract_x
 _atom_site_fract_y
 _atom_site_fract_z
 _atom_site_occupancy
  Li  Li0  1  0.50000000  0.00000000  0.00000000  1
  Li  Li1  1  0.50000000  0.50000000  0.00000000  1
  Li  Li2  1  0.00000000  0.00000000  0.50000000  1
  Li  Li3  1  0.00000000  0.50000000  0.50000000  1
  Fe  Fe4  1  0.44739850  0.75000000  0.70528100  1
  Fe  Fe5  1  0.55260150  0.25000000  0.29471900  1
  Sn  Sn6  1  0.98636200  0.25000000  0.77961350  1
  Sn  Sn7  1  0.01363800  0.75000000  0.22038650  1
  P  P8  1  0.85598200  0.75000000  0.88796450  1
  P  P9  1  0.14401800  0.25000000  0.11203550  1
  P  P10  1  0.42069700  0.25000000  0.57668650  1
  P  P11  1  0.57930300  0.75000000  0.42331350  1
  O  O12  1  0.23801800  0.25000000  0.98093750  1
  O  O13  1  0.76198200  0.75000000  0.01906250  1
  O  O14  1  0.16876800  0.75000000  0.87134050  1
  O  O15  1  0.83123200  0.25000000  0.12865950  1
  O  O16  1  0.73802950  0.25000000  0.58114200  1
  O  O17  1  0.26197050  0.75000000  0.41885800  1
  O  O18  1  0.70546350  0.75000000  0.55029400  1
  O  O19  1  0.29453650  0.25000000  0.44970600  1
  O  O20  1  0.70841750  0.94707250  0.82824100  1
  O  O21  1  0.70841750  0.55292750  0.82824100  1
  O  O22  1  0.29158250  0.44707250  0.17175900  1
  O  O23  1  0.29158250  0.05292750  0.17175900  1
  O  O24  1  0.29538200  0.45066550  0.64121050  1
  O  O25  1  0.29538200  0.04933450  0.64121050  1
  O  O26  1  0.70461800  0.95066550  0.35878950  1
  O  O27  1  0.70461800  0.54933450  0.35878950  1
