# generated using pymatgen
data_Li12Mn3CrP4(CO7)4
_symmetry_space_group_name_H-M   'P 1'
_cell_length_a   8.58611700
_cell_length_b   6.56663700
_cell_length_c   10.00993226
_cell_angle_alpha   90.00000000
_cell_angle_beta   94.42421931
_cell_angle_gamma   90.00000000
_symmetry_Int_Tables_number   1
_chemical_formula_structural   Li12Mn3CrP4(CO7)4
_chemical_formula_sum   'Li12 Mn3 Cr1 P4 C4 O28'
_cell_volume   562.69741761
_cell_formula_units_Z   1
loop_
 _symmetry_equiv_pos_site_id
 _symmetry_equiv_pos_as_xyz
  1  'x, y, z'
loop_
 _atom_site_type_symbol
 _atom_site_label
 _atom_site_symmetry_multiplicity
 _atom_site_fract_x
 _atom_site_fract_y
 _atom_site_fract_z
 _atom_site_occupancy
  Li  Li0  1  0.09213800  0.00000000  0.62093900  1
  Li  Li1  1  0.09240600  0.00000000  0.12012000  1
  Li  Li2  1  0.27321900  0.77793400  0.87719200  1
  Li  Li3  1  0.27321900  0.22206600  0.87719200  1
  Li  Li4  1  0.27342200  0.77870800  0.37664200  1
  Li  Li5  1  0.27342200  0.22129200  0.37664200  1
  Li  Li6  1  0.72697600  0.27621600  0.62373100  1
  Li  Li7  1  0.72697600  0.72378400  0.62373100  1
  Li  Li8  1  0.72666800  0.27650500  0.12296900  1
  Li  Li9  1  0.72666800  0.72349500  0.12296900  1
  Li  Li10  1  0.90835000  0.50000000  0.87957700  1
  Li  Li11  1  0.90989600  0.50000000  0.37908400  1
  Mn  Mn12  1  0.34023000  0.50000000  0.61135400  1
  Mn  Mn13  1  0.33974400  0.50000000  0.11015700  1
  Mn  Mn14  1  0.65913600  0.00000000  0.88932600  1
  Cr  Cr15  1  0.66500300  0.00000000  0.39220100  1
  P  P16  1  0.40999000  0.00000000  0.63953100  1
  P  P17  1  0.40993400  0.00000000  0.14042700  1
  P  P18  1  0.58974200  0.50000000  0.86017100  1
  P  P19  1  0.58841400  0.50000000  0.35908000  1
  C  C20  1  0.03299900  0.50000000  0.64765900  1
  C  C21  1  0.03303500  0.50000000  0.14801500  1
  C  C22  1  0.96679200  0.00000000  0.85224900  1
  C  C23  1  0.96800200  0.00000000  0.35299800  1
  O  O24  1  0.06930800  0.50000000  0.52511600  1
  O  O25  1  0.11203400  0.00000000  0.82208000  1
  O  O26  1  0.06915000  0.50000000  0.02524000  1
  O  O27  1  0.14388600  0.50000000  0.74463300  1
  O  O28  1  0.11226000  0.00000000  0.32062700  1
  O  O29  1  0.14404400  0.50000000  0.24478700  1
  O  O30  1  0.31075600  0.81545300  0.58565400  1
  O  O31  1  0.31075600  0.18454700  0.58565400  1
  O  O32  1  0.31091400  0.81535100  0.08517500  1
  O  O33  1  0.31091400  0.18464900  0.08517500  1
  O  O34  1  0.42115900  0.50000000  0.90549200  1
  O  O35  1  0.42314900  0.00000000  0.79633900  1
  O  O36  1  0.42085600  0.50000000  0.40590400  1
  O  O37  1  0.42046400  0.00000000  0.29650000  1
  O  O38  1  0.57664500  0.50000000  0.70332800  1
  O  O39  1  0.57848400  0.00000000  0.59384300  1
  O  O40  1  0.57635100  0.50000000  0.20275000  1
  O  O41  1  0.57828500  0.00000000  0.09394900  1
  O  O42  1  0.68914700  0.68443100  0.91418500  1
  O  O43  1  0.68914700  0.31556900  0.91418500  1
  O  O44  1  0.68728700  0.31366800  0.41276700  1
  O  O45  1  0.68728700  0.68633200  0.41276700  1
  O  O46  1  0.85580300  0.00000000  0.75539600  1
  O  O47  1  0.88766400  0.50000000  0.67757900  1
  O  O48  1  0.85476000  0.00000000  0.25782700  1
  O  O49  1  0.93073000  0.00000000  0.97496100  1
  O  O50  1  0.88784700  0.50000000  0.17813200  1
  O  O51  1  0.93453000  0.00000000  0.47599600  1
