# generated using pymatgen
data_Li2FeP2HO8
_symmetry_space_group_name_H-M   'P 1'
_cell_length_a   4.86922633
_cell_length_b   8.11439900
_cell_length_c   7.59255293
_cell_angle_alpha   90.00000000
_cell_angle_beta   104.31823093
_cell_angle_gamma   90.00000000
_symmetry_Int_Tables_number   1
_chemical_formula_structural   Li2FeP2HO8
_chemical_formula_sum   'Li4 Fe2 P4 H2 O16'
_cell_volume   290.66967783
_cell_formula_units_Z   2
loop_
 _symmetry_equiv_pos_site_id
 _symmetry_equiv_pos_as_xyz
  1  'x, y, z'
loop_
 _atom_site_type_symbol
 _atom_site_label
 _atom_site_symmetry_multiplicity
 _atom_site_fract_x
 _atom_site_fract_y
 _atom_site_fract_z
 _atom_site_occupancy
  Li  Li0  1  0.63267350  0.13344500  0.09285350  1
  Li  Li1  1  0.36732650  0.63344500  0.90714650  1
  Li  Li2  1  0.14563800  0.36547450  0.59103800  1
  Li  Li3  1  0.85436200  0.86547450  0.40896200  1
  Fe  Fe4  1  0.74889900  0.49999600  0.25459100  1
  Fe  Fe5  1  0.25110100  0.99999600  0.74540900  1
  P  P6  1  0.61883650  0.15162600  0.48131650  1
  P  P7  1  0.38116350  0.65162600  0.51868350  1
  P  P8  1  0.11824250  0.34465050  0.98763550  1
  P  P9  1  0.88175750  0.84465050  0.01236450  1
  H  H10  1  0.21798800  0.98869250  0.23720800  1
  H  H11  1  0.78201200  0.48869250  0.76279200  1
  O  O12  1  0.63499450  0.95472150  0.91046350  1
  O  O13  1  0.36500550  0.45472150  0.08953650  1
  O  O14  1  0.73527600  0.32097750  0.43781600  1
  O  O15  1  0.26472400  0.82097750  0.56218400  1
  O  O16  1  0.59938600  0.67500450  0.40218400  1
  O  O17  1  0.40061400  0.17500450  0.59781600  1
  O  O18  1  0.49380950  0.05854050  0.30175950  1
  O  O19  1  0.50619050  0.55854050  0.69824050  1
  O  O20  1  0.23088650  0.17902500  0.93556250  1
  O  O21  1  0.76911350  0.67902500  0.06443750  1
  O  O22  1  0.10668300  0.82353100  0.90295600  1
  O  O23  1  0.89331700  0.32353100  0.09704400  1
  O  O24  1  0.99180650  0.43961300  0.80250350  1
  O  O25  1  0.00819350  0.93961300  0.19749650  1
  O  O26  1  0.13179400  0.54481100  0.40916400  1
  O  O27  1  0.86820600  0.04481100  0.59083600  1
