# generated using pymatgen
data_Li2Ni2(SO4)3
_symmetry_space_group_name_H-M   'P 1'
_cell_length_a   12.94672000
_cell_length_b   8.53468800
_cell_length_c   8.74660989
_cell_angle_alpha   90.00000000
_cell_angle_beta   116.10215705
_cell_angle_gamma   90.00000000
_symmetry_Int_Tables_number   1
_chemical_formula_structural   Li2Ni2(SO4)3
_chemical_formula_sum   'Li8 Ni8 S12 O48'
_cell_volume   867.89827299
_cell_formula_units_Z   4
loop_
 _symmetry_equiv_pos_site_id
 _symmetry_equiv_pos_as_xyz
  1  'x, y, z'
loop_
 _atom_site_type_symbol
 _atom_site_label
 _atom_site_symmetry_multiplicity
 _atom_site_fract_x
 _atom_site_fract_y
 _atom_site_fract_z
 _atom_site_occupancy
  Li  Li0  1  0.26736650  0.59425150  0.94537800  1
  Li  Li1  1  0.26736650  0.40574850  0.44537800  1
  Li  Li2  1  0.73263350  0.59425150  0.55462200  1
  Li  Li3  1  0.73263350  0.40574850  0.05462200  1
  Li  Li4  1  0.76736650  0.09425150  0.94537800  1
  Li  Li5  1  0.76736650  0.90574850  0.44537800  1
  Li  Li6  1  0.23263350  0.09425150  0.55462200  1
  Li  Li7  1  0.23263350  0.90574850  0.05462200  1
  Ni  Ni8  1  0.12197700  0.75267700  0.51784800  1
  Ni  Ni9  1  0.12197700  0.24732300  0.01784800  1
  Ni  Ni10  1  0.87802300  0.75267700  0.98215200  1
  Ni  Ni11  1  0.87802300  0.24732300  0.48215200  1
  Ni  Ni12  1  0.62197700  0.25267700  0.51784800  1
  Ni  Ni13  1  0.62197700  0.74732300  0.01784800  1
  Ni  Ni14  1  0.37802300  0.25267700  0.98215200  1
  Ni  Ni15  1  0.37802300  0.74732300  0.48215200  1
  S  S16  1  0.14424500  0.39454300  0.67701400  1
  S  S17  1  0.14424500  0.60545700  0.17701400  1
  S  S18  1  0.00000000  0.94089300  0.75000000  1
  S  S19  1  0.00000000  0.05910700  0.25000000  1
  S  S20  1  0.85575500  0.39454300  0.82298600  1
  S  S21  1  0.85575500  0.60545700  0.32298600  1
  S  S22  1  0.64424500  0.89454300  0.67701400  1
  S  S23  1  0.64424500  0.10545700  0.17701400  1
  S  S24  1  0.50000000  0.44089300  0.75000000  1
  S  S25  1  0.50000000  0.55910700  0.25000000  1
  S  S26  1  0.35575500  0.89454300  0.82298600  1
  S  S27  1  0.35575500  0.10545700  0.32298600  1
  O  O28  1  0.41004600  0.53993400  0.61473900  1
  O  O29  1  0.41004600  0.46006600  0.11473900  1
  O  O30  1  0.18851250  0.31186750  0.57106800  1
  O  O31  1  0.17506500  0.56389800  0.68860100  1
  O  O32  1  0.20595850  0.33767650  0.86175400  1
  O  O33  1  0.18851250  0.68813250  0.07106800  1
  O  O34  1  0.05985150  0.84288650  0.67707200  1
  O  O35  1  0.02143500  0.37097800  0.61714300  1
  O  O36  1  0.17506500  0.43610200  0.18860100  1
  O  O37  1  0.20595850  0.66232350  0.36175400  1
  O  O38  1  0.05985150  0.15711350  0.17707200  1
  O  O39  1  0.97856500  0.37097800  0.88285700  1
  O  O40  1  0.02143500  0.62902200  0.11714300  1
  O  O41  1  0.94014850  0.84288650  0.82292800  1
  O  O42  1  0.79404150  0.33767650  0.63824600  1
  O  O43  1  0.82493500  0.56389800  0.81139900  1
  O  O44  1  0.97856500  0.62902200  0.38285700  1
  O  O45  1  0.94014850  0.15711350  0.32292800  1
  O  O46  1  0.81148750  0.31186750  0.92893200  1
  O  O47  1  0.79404150  0.66232350  0.13824600  1
  O  O48  1  0.82493500  0.43610200  0.31139900  1
  O  O49  1  0.81148750  0.68813250  0.42893200  1
  O  O50  1  0.58995400  0.53993400  0.88526100  1
  O  O51  1  0.58995400  0.46006600  0.38526100  1
  O  O52  1  0.91004600  0.03993400  0.61473900  1
  O  O53  1  0.91004600  0.96006600  0.11473900  1
  O  O54  1  0.68851250  0.81186750  0.57106800  1
  O  O55  1  0.67506500  0.06389800  0.68860100  1
  O  O56  1  0.70595850  0.83767650  0.86175400  1
  O  O57  1  0.68851250  0.18813250  0.07106800  1
  O  O58  1  0.55985150  0.34288650  0.67707200  1
  O  O59  1  0.52143500  0.87097800  0.61714300  1
  O  O60  1  0.67506500  0.93610200  0.18860100  1
  O  O61  1  0.70595850  0.16232350  0.36175400  1
  O  O62  1  0.55985150  0.65711350  0.17707200  1
  O  O63  1  0.47856500  0.87097800  0.88285700  1
  O  O64  1  0.52143500  0.12902200  0.11714300  1
  O  O65  1  0.44014850  0.34288650  0.82292800  1
  O  O66  1  0.29404150  0.83767650  0.63824600  1
  O  O67  1  0.32493500  0.06389800  0.81139900  1
  O  O68  1  0.47856500  0.12902200  0.38285700  1
  O  O69  1  0.44014850  0.65711350  0.32292800  1
  O  O70  1  0.31148750  0.81186750  0.92893200  1
  O  O71  1  0.29404150  0.16232350  0.13824600  1
  O  O72  1  0.32493500  0.93610200  0.31139900  1
  O  O73  1  0.31148750  0.18813250  0.42893200  1
  O  O74  1  0.08995400  0.03993400  0.88526100  1
  O  O75  1  0.08995400  0.96006600  0.38526100  1
