# generated using pymatgen
data_Li4Ti3Cr3(SnO8)2
_symmetry_space_group_name_H-M   'P 1'
_cell_length_a   10.32848800
_cell_length_b   5.97359800
_cell_length_c   9.81762276
_cell_angle_alpha   90.00000000
_cell_angle_beta   90.09934651
_cell_angle_gamma   90.00000000
_symmetry_Int_Tables_number   1
_chemical_formula_structural   Li4Ti3Cr3(SnO8)2
_chemical_formula_sum   'Li8 Ti6 Cr6 Sn4 O32'
_cell_volume   605.72908807
_cell_formula_units_Z   2
loop_
 _symmetry_equiv_pos_site_id
 _symmetry_equiv_pos_as_xyz
  1  'x, y, z'
loop_
 _atom_site_type_symbol
 _atom_site_label
 _atom_site_symmetry_multiplicity
 _atom_site_fract_x
 _atom_site_fract_y
 _atom_site_fract_z
 _atom_site_occupancy
  Li  Li0  1  0.33459400  0.00000000  0.89288500  1
  Li  Li1  1  0.00089200  0.00000000  0.99244200  1
  Li  Li2  1  0.00089200  0.00000000  0.49408800  1
  Li  Li3  1  0.66646400  0.00000000  0.39673400  1
  Li  Li4  1  0.83459400  0.50000000  0.89288500  1
  Li  Li5  1  0.50089200  0.50000000  0.99244200  1
  Li  Li6  1  0.50089200  0.50000000  0.49408800  1
  Li  Li7  1  0.16646400  0.50000000  0.39673400  1
  Ti  Ti8  1  0.82969100  0.00000000  0.71530500  1
  Ti  Ti9  1  0.41521100  0.75547500  0.21522900  1
  Ti  Ti10  1  0.41521100  0.24452500  0.21522900  1
  Ti  Ti11  1  0.32969100  0.50000000  0.71530500  1
  Ti  Ti12  1  0.91521100  0.25547500  0.21522900  1
  Ti  Ti13  1  0.91521100  0.74452500  0.21522900  1
  Cr  Cr14  1  0.17021100  0.00000000  0.21364900  1
  Cr  Cr15  1  0.58507850  0.75358950  0.71429600  1
  Cr  Cr16  1  0.58507850  0.24641050  0.71429600  1
  Cr  Cr17  1  0.67021100  0.50000000  0.21364900  1
  Cr  Cr18  1  0.08507850  0.25358950  0.71429600  1
  Cr  Cr19  1  0.08507850  0.74641050  0.71429600  1
  Sn  Sn20  1  0.33029500  0.00000000  0.49375900  1
  Sn  Sn21  1  0.66394600  0.00000000  0.98841200  1
  Sn  Sn22  1  0.83029500  0.50000000  0.49375900  1
  Sn  Sn23  1  0.16394600  0.50000000  0.98841200  1
  O  O24  1  0.41651100  0.73923300  0.60171400  1
  O  O25  1  0.48148400  0.00000000  0.33974700  1
  O  O26  1  0.33652300  0.00000000  0.10504800  1
  O  O27  1  0.00081400  0.00000000  0.30902600  1
  O  O28  1  0.99764900  0.00000000  0.80883500  1
  O  O29  1  0.41651100  0.26076700  0.60171400  1
  O  O30  1  0.26077600  0.77440600  0.33740200  1
  O  O31  1  0.26077600  0.22559400  0.33740200  1
  O  O32  1  0.83664400  0.00000000  0.10169900  1
  O  O33  1  0.15893300  0.00000000  0.59930900  1
  O  O34  1  0.74468050  0.77770550  0.83740000  1
  O  O35  1  0.74468050  0.22229450  0.83740000  1
  O  O36  1  0.67160700  0.00000000  0.60660600  1
  O  O37  1  0.57835300  0.74261200  0.10071600  1
  O  O38  1  0.51761600  0.00000000  0.83680200  1
  O  O39  1  0.57835300  0.25738800  0.10071600  1
  O  O40  1  0.91651100  0.23923300  0.60171400  1
  O  O41  1  0.98148400  0.50000000  0.33974700  1
  O  O42  1  0.83652300  0.50000000  0.10504800  1
  O  O43  1  0.50081400  0.50000000  0.30902600  1
  O  O44  1  0.49764900  0.50000000  0.80883500  1
  O  O45  1  0.91651100  0.76076700  0.60171400  1
  O  O46  1  0.76077600  0.27440600  0.33740200  1
  O  O47  1  0.76077600  0.72559400  0.33740200  1
  O  O48  1  0.33664400  0.50000000  0.10169900  1
  O  O49  1  0.65893300  0.50000000  0.59930900  1
  O  O50  1  0.24468050  0.27770550  0.83740000  1
  O  O51  1  0.24468050  0.72229450  0.83740000  1
  O  O52  1  0.17160700  0.50000000  0.60660600  1
  O  O53  1  0.07835300  0.24261200  0.10071600  1
  O  O54  1  0.01761600  0.50000000  0.83680200  1
  O  O55  1  0.07835300  0.75738800  0.10071600  1
