# generated using pymatgen
data_Sr3Co3O8
_symmetry_space_group_name_H-M   'P 1'
_cell_length_a   7.93585600
_cell_length_b   7.91361200
_cell_length_c   11.96652028
_cell_angle_alpha   90.00000000
_cell_angle_beta   108.56650915
_cell_angle_gamma   90.00000000
_symmetry_Int_Tables_number   1
_chemical_formula_structural   Sr3Co3O8
_chemical_formula_sum   'Sr12 Co12 O32'
_cell_volume   712.40013296
_cell_formula_units_Z   4
loop_
 _symmetry_equiv_pos_site_id
 _symmetry_equiv_pos_as_xyz
  1  'x, y, z'
loop_
 _atom_site_type_symbol
 _atom_site_label
 _atom_site_symmetry_multiplicity
 _atom_site_fract_x
 _atom_site_fract_y
 _atom_site_fract_z
 _atom_site_occupancy
  Sr  Sr0  1  0.75000000  0.25000000  0.00000000  1
  Sr  Sr1  1  0.75000000  0.75000000  0.00000000  1
  Sr  Sr2  1  0.58522550  0.75672250  0.67174500  1
  Sr  Sr3  1  0.41477450  0.75672250  0.32825500  1
  Sr  Sr4  1  0.41477450  0.24327750  0.32825500  1
  Sr  Sr5  1  0.58522550  0.24327750  0.67174500  1
  Sr  Sr6  1  0.25000000  0.75000000  0.00000000  1
  Sr  Sr7  1  0.25000000  0.25000000  0.00000000  1
  Sr  Sr8  1  0.08522550  0.25672250  0.67174500  1
  Sr  Sr9  1  0.91477450  0.25672250  0.32825500  1
  Sr  Sr10  1  0.91477450  0.74327750  0.32825500  1
  Sr  Sr11  1  0.08522550  0.74327750  0.67174500  1
  Co  Co12  1  0.58719400  0.00000000  0.16259200  1
  Co  Co13  1  0.41280600  0.00000000  0.83740800  1
  Co  Co14  1  0.26341800  0.00000000  0.50441100  1
  Co  Co15  1  0.08615400  0.00000000  0.17887000  1
  Co  Co16  1  0.91384600  0.00000000  0.82113000  1
  Co  Co17  1  0.73658200  0.00000000  0.49558900  1
  Co  Co18  1  0.08719400  0.50000000  0.16259200  1
  Co  Co19  1  0.91280600  0.50000000  0.83740800  1
  Co  Co20  1  0.76341800  0.50000000  0.50441100  1
  Co  Co21  1  0.58615400  0.50000000  0.17887000  1
  Co  Co22  1  0.41384600  0.50000000  0.82113000  1
  Co  Co23  1  0.23658200  0.50000000  0.49558900  1
  O  O24  1  0.50000000  0.00000000  0.00000000  1
  O  O25  1  0.75000000  0.75000000  0.50000000  1
  O  O26  1  0.41772750  0.27408750  0.84297200  1
  O  O27  1  0.16649500  0.00000000  0.85455500  1
  O  O28  1  0.66406500  0.00000000  0.82342700  1
  O  O29  1  0.50000000  0.00000000  0.50000000  1
  O  O30  1  0.58227250  0.27408750  0.15702800  1
  O  O31  1  0.41772750  0.72591250  0.84297200  1
  O  O32  1  0.75000000  0.25000000  0.50000000  1
  O  O33  1  0.30250200  0.00000000  0.66520700  1
  O  O34  1  0.88003600  0.00000000  0.64916300  1
  O  O35  1  0.11996400  0.00000000  0.35083700  1
  O  O36  1  0.69749800  0.00000000  0.33479300  1
  O  O37  1  0.83350500  0.00000000  0.14544500  1
  O  O38  1  0.33593500  0.00000000  0.17657300  1
  O  O39  1  0.58227250  0.72591250  0.15702800  1
  O  O40  1  0.00000000  0.50000000  0.00000000  1
  O  O41  1  0.25000000  0.25000000  0.50000000  1
  O  O42  1  0.91772750  0.77408750  0.84297200  1
  O  O43  1  0.66649500  0.50000000  0.85455500  1
  O  O44  1  0.16406500  0.50000000  0.82342700  1
  O  O45  1  0.00000000  0.50000000  0.50000000  1
  O  O46  1  0.08227250  0.77408750  0.15702800  1
  O  O47  1  0.91772750  0.22591250  0.84297200  1
  O  O48  1  0.25000000  0.75000000  0.50000000  1
  O  O49  1  0.80250200  0.50000000  0.66520700  1
  O  O50  1  0.38003600  0.50000000  0.64916300  1
  O  O51  1  0.61996400  0.50000000  0.35083700  1
  O  O52  1  0.19749800  0.50000000  0.33479300  1
  O  O53  1  0.33350500  0.50000000  0.14544500  1
  O  O54  1  0.83593500  0.50000000  0.17657300  1
  O  O55  1  0.08227250  0.22591250  0.15702800  1
