# generated using pymatgen
data_Li4Y3CrO8
_symmetry_space_group_name_H-M   'P 1'
_cell_length_a   6.17196161
_cell_length_b   10.00997333
_cell_length_c   6.18525800
_cell_angle_alpha   90.00000000
_cell_angle_beta   90.00000000
_cell_angle_gamma   90.00000000
_symmetry_Int_Tables_number   1
_chemical_formula_structural   Li4Y3CrO8
_chemical_formula_sum   'Li8 Y6 Cr2 O16'
_cell_volume   382.13248262
_cell_formula_units_Z   2
loop_
 _symmetry_equiv_pos_site_id
 _symmetry_equiv_pos_as_xyz
  1  'x, y, z'
loop_
 _atom_site_type_symbol
 _atom_site_label
 _atom_site_symmetry_multiplicity
 _atom_site_fract_x
 _atom_site_fract_y
 _atom_site_fract_z
 _atom_site_occupancy
  Li  Li0  1  0.00000000  0.00000000  0.00000000  1
  Li  Li1  1  0.50000000  0.00000000  0.50000000  1
  Li  Li2  1  0.25000000  0.25000000  0.24691100  1
  Li  Li3  1  0.25000000  0.75000000  0.75308900  1
  Li  Li4  1  0.50000000  0.50000000  0.00000000  1
  Li  Li5  1  0.00000000  0.50000000  0.50000000  1
  Li  Li6  1  0.75000000  0.75000000  0.24691100  1
  Li  Li7  1  0.75000000  0.25000000  0.75308900  1
  Y  Y8  1  0.50000000  0.00000000  0.00000000  1
  Y  Y9  1  0.75000000  0.25000000  0.25821800  1
  Y  Y10  1  0.75000000  0.75000000  0.74178200  1
  Y  Y11  1  0.00000000  0.50000000  0.00000000  1
  Y  Y12  1  0.25000000  0.75000000  0.25821800  1
  Y  Y13  1  0.25000000  0.25000000  0.74178200  1
  Cr  Cr14  1  0.00000000  0.00000000  0.50000000  1
  Cr  Cr15  1  0.50000000  0.50000000  0.50000000  1
  O  O16  1  0.50000000  0.22512700  0.00000000  1
  O  O17  1  0.50000000  0.77487300  0.00000000  1
  O  O18  1  0.50000000  0.70667188  0.50000000  1
  O  O19  1  0.50000000  0.29332812  0.50000000  1
  O  O20  1  0.75770325  0.01449225  0.26337900  1
  O  O21  1  0.24229675  0.98550775  0.26337900  1
  O  O22  1  0.24229675  0.01449225  0.73662100  1
  O  O23  1  0.75770325  0.98550775  0.73662100  1
  O  O24  1  0.00000000  0.72512700  0.00000000  1
  O  O25  1  0.00000000  0.27487300  0.00000000  1
  O  O26  1  0.00000000  0.20667188  0.50000000  1
  O  O27  1  0.00000000  0.79332812  0.50000000  1
  O  O28  1  0.25770325  0.51449225  0.26337900  1
  O  O29  1  0.74229675  0.48550775  0.26337900  1
  O  O30  1  0.74229675  0.51449225  0.73662100  1
  O  O31  1  0.25770325  0.48550775  0.73662100  1
