# generated using pymatgen
data_Li3V(CO3)3
_symmetry_space_group_name_H-M   'P 1'
_cell_length_a   7.43554000
_cell_length_b   9.36734000
_cell_length_c   10.22378500
_cell_angle_alpha   90.00000000
_cell_angle_beta   90.00000000
_cell_angle_gamma   90.00000000
_symmetry_Int_Tables_number   1
_chemical_formula_structural   Li3V(CO3)3
_chemical_formula_sum   'Li12 V4 C12 O36'
_cell_volume   712.09921342
_cell_formula_units_Z   4
loop_
 _symmetry_equiv_pos_site_id
 _symmetry_equiv_pos_as_xyz
  1  'x, y, z'
loop_
 _atom_site_type_symbol
 _atom_site_label
 _atom_site_symmetry_multiplicity
 _atom_site_fract_x
 _atom_site_fract_y
 _atom_site_fract_z
 _atom_site_occupancy
  Li  Li0  1  0.10555000  0.00000000  0.00000000  1
  Li  Li1  1  0.37750050  0.97956950  0.25000000  1
  Li  Li2  1  0.44651100  0.72167500  0.25000000  1
  Li  Li3  1  0.10555000  0.00000000  0.50000000  1
  Li  Li4  1  0.44651100  0.27832500  0.75000000  1
  Li  Li5  1  0.37750050  0.02043050  0.75000000  1
  Li  Li6  1  0.60555000  0.50000000  0.00000000  1
  Li  Li7  1  0.87750050  0.47956950  0.25000000  1
  Li  Li8  1  0.94651100  0.22167500  0.25000000  1
  Li  Li9  1  0.60555000  0.50000000  0.50000000  1
  Li  Li10  1  0.94651100  0.77832500  0.75000000  1
  Li  Li11  1  0.87750050  0.52043050  0.75000000  1
  V  V12  1  0.39778650  0.28486950  0.25000000  1
  V  V13  1  0.39778650  0.71513050  0.75000000  1
  V  V14  1  0.89778650  0.78486950  0.25000000  1
  V  V15  1  0.89778650  0.21513050  0.75000000  1
  C  C16  1  0.36677050  0.20748350  0.01599500  1
  C  C17  1  0.72587150  0.01658750  0.25000000  1
  C  C18  1  0.36677050  0.20748350  0.48400500  1
  C  C19  1  0.36677050  0.79251650  0.51599500  1
  C  C20  1  0.72587150  0.98341250  0.75000000  1
  C  C21  1  0.36677050  0.79251650  0.98400500  1
  C  C22  1  0.86677050  0.70748350  0.01599500  1
  C  C23  1  0.22587150  0.51658750  0.25000000  1
  C  C24  1  0.86677050  0.70748350  0.48400500  1
  C  C25  1  0.86677050  0.29251650  0.51599500  1
  C  C26  1  0.22587150  0.48341250  0.75000000  1
  C  C27  1  0.86677050  0.29251650  0.98400500  1
  O  O28  1  0.45410400  0.32201800  0.05296700  1
  O  O29  1  0.29157300  0.13773300  0.11518100  1
  O  O30  1  0.35089300  0.83295300  0.10066900  1
  O  O31  1  0.63481050  0.13075350  0.25000000  1
  O  O32  1  0.90369800  0.01454600  0.25000000  1
  O  O33  1  0.65275000  0.88964400  0.25000000  1
  O  O34  1  0.35089300  0.83295300  0.39933100  1
  O  O35  1  0.29157300  0.13773300  0.38481900  1
  O  O36  1  0.45410400  0.32201800  0.44703300  1
  O  O37  1  0.45410400  0.67798200  0.55296700  1
  O  O38  1  0.29157300  0.86226700  0.61518100  1
  O  O39  1  0.35089300  0.16704700  0.60066900  1
  O  O40  1  0.65275000  0.11035600  0.75000000  1
  O  O41  1  0.63481050  0.86924650  0.75000000  1
  O  O42  1  0.90369800  0.98545400  0.75000000  1
  O  O43  1  0.35089300  0.16704700  0.89933100  1
  O  O44  1  0.29157300  0.86226700  0.88481900  1
  O  O45  1  0.45410400  0.67798200  0.94703300  1
  O  O46  1  0.95410400  0.82201800  0.05296700  1
  O  O47  1  0.79157300  0.63773300  0.11518100  1
  O  O48  1  0.85089300  0.33295300  0.10066900  1
  O  O49  1  0.13481050  0.63075350  0.25000000  1
  O  O50  1  0.40369800  0.51454600  0.25000000  1
  O  O51  1  0.15275000  0.38964400  0.25000000  1
  O  O52  1  0.85089300  0.33295300  0.39933100  1
  O  O53  1  0.79157300  0.63773300  0.38481900  1
  O  O54  1  0.95410400  0.82201800  0.44703300  1
  O  O55  1  0.95410400  0.17798200  0.55296700  1
  O  O56  1  0.79157300  0.36226700  0.61518100  1
  O  O57  1  0.85089300  0.66704700  0.60066900  1
  O  O58  1  0.15275000  0.61035600  0.75000000  1
  O  O59  1  0.13481050  0.36924650  0.75000000  1
  O  O60  1  0.40369800  0.48545400  0.75000000  1
  O  O61  1  0.85089300  0.66704700  0.89933100  1
  O  O62  1  0.79157300  0.36226700  0.88481900  1
  O  O63  1  0.95410400  0.17798200  0.94703300  1
