# generated using pymatgen
data_MnCr2Fe3(PO4)6
_symmetry_space_group_name_H-M   'P 1'
_cell_length_a   8.63670484
_cell_length_b   8.63670484
_cell_length_c   20.36873689
_cell_angle_alpha   90.00000000
_cell_angle_beta   90.00000000
_cell_angle_gamma   120.00000000
_symmetry_Int_Tables_number   1
_chemical_formula_structural   MnCr2Fe3(PO4)6
_chemical_formula_sum   'Mn3 Cr6 Fe9 P18 O72'
_cell_volume   1315.80303941
_cell_formula_units_Z   3
loop_
 _symmetry_equiv_pos_site_id
 _symmetry_equiv_pos_as_xyz
  1  'x, y, z'
loop_
 _atom_site_type_symbol
 _atom_site_label
 _atom_site_symmetry_multiplicity
 _atom_site_fract_x
 _atom_site_fract_y
 _atom_site_fract_z
 _atom_site_occupancy
  Mn  Mn0  1  0.33333333  0.66666667  0.81177567  1
  Mn  Mn1  1  0.00000000  0.00000000  0.14510900  1
  Mn  Mn2  1  0.66666667  0.33333333  0.47844233  1
  Cr  Cr3  1  0.33333333  0.66666667  0.66617867  1
  Cr  Cr4  1  0.33333333  0.66666667  0.16715067  1
  Cr  Cr5  1  0.00000000  0.00000000  0.99951200  1
  Cr  Cr6  1  0.00000000  0.00000000  0.50048400  1
  Cr  Cr7  1  0.66666667  0.33333333  0.33284533  1
  Cr  Cr8  1  0.66666667  0.33333333  0.83381733  1
  Fe  Fe9  1  0.33333333  0.66666667  0.52034667  1
  Fe  Fe10  1  0.33333333  0.66666667  0.31352767  1
  Fe  Fe11  1  0.33333333  0.66666667  0.02010567  1
  Fe  Fe12  1  0.00000000  0.00000000  0.85368000  1
  Fe  Fe13  1  0.00000000  0.00000000  0.64686100  1
  Fe  Fe14  1  0.00000000  0.00000000  0.35343900  1
  Fe  Fe15  1  0.66666667  0.33333333  0.18701333  1
  Fe  Fe16  1  0.66666667  0.33333333  0.98019433  1
  Fe  Fe17  1  0.66666667  0.33333333  0.68677233  1
  P  P18  1  0.66628067  0.03420733  0.08384333  1
  P  P19  1  0.36792667  0.33371933  0.08384333  1
  P  P20  1  0.96579267  0.63207333  0.08384333  1
  P  P21  1  0.70095667  0.70170733  0.24977833  1
  P  P22  1  0.29829267  0.99924933  0.24977833  1
  P  P23  1  0.00075067  0.29904333  0.24977833  1
  P  P24  1  0.33294733  0.36754067  0.41717667  1
  P  P25  1  0.03459333  0.66705267  0.41717667  1
  P  P26  1  0.63245933  0.96540667  0.41717667  1
  P  P27  1  0.36762333  0.03504067  0.58311167  1
  P  P28  1  0.96495933  0.33258267  0.58311167  1
  P  P29  1  0.66741733  0.63237667  0.58311167  1
  P  P30  1  0.99961400  0.70087400  0.75051000  1
  P  P31  1  0.70126000  0.00038600  0.75051000  1
  P  P32  1  0.29912600  0.29874000  0.75051000  1
  P  P33  1  0.03429000  0.36837400  0.91644500  1
  P  P34  1  0.63162600  0.66591600  0.91644500  1
  P  P35  1  0.33408400  0.96571000  0.91644500  1
  O  O36  1  0.53961367  0.85998433  0.35553433  1
  O  O37  1  0.32037067  0.46038633  0.35553433  1
  O  O38  1  0.67615467  0.51014833  0.26150033  1
  O  O39  1  0.14001567  0.67962933  0.35553433  1
  O  O40  1  0.80148367  0.79192033  0.18732733  1
  O  O41  1  0.50792867  0.67425233  0.23911733  1
  O  O42  1  0.48985167  0.16600633  0.26150033  1
  O  O43  1  0.32574767  0.83367633  0.23911733  1
  O  O44  1  0.67957000  0.13977000  0.14537700  1
  O  O45  1  0.16632367  0.49207133  0.23911733  1
  O  O46  1  0.83294033  0.01007867  0.07159567  1
  O  O47  1  0.46020000  0.32043000  0.14537700  1
  O  O48  1  0.20807967  0.00956333  0.18732733  1
  O  O49  1  0.83399367  0.32384533  0.26150033  1
  O  O50  1  0.50055600  0.84242700  0.09511500  1
  O  O51  1  0.99043667  0.19851633  0.18732733  1
  O  O52  1  0.34187100  0.49944400  0.09511500  1
  O  O53  1  0.17713833  0.16705967  0.07159567  1
  O  O54  1  0.15757300  0.65812900  0.09511500  1
  O  O55  1  0.86023000  0.53980000  0.14537700  1
  O  O56  1  0.52509767  0.65258733  0.97778333  1
  O  O57  1  0.98992133  0.82286167  0.07159567  1
  O  O58  1  0.34741267  0.87251033  0.97778333  1
  O  O59  1  0.12748967  0.47490233  0.97778333  1
  O  O60  1  0.20628033  0.19331767  0.68886767  1
  O  O61  1  0.98703733  0.79371967  0.68886767  1
  O  O62  1  0.34282133  0.84348167  0.59483367  1
  O  O63  1  0.80668233  0.01296267  0.68886767  1
  O  O64  1  0.46815033  0.12525367  0.52066067  1
  O  O65  1  0.17459533  0.00758567  0.57245067  1
  O  O66  1  0.15651833  0.49933967  0.59483367  1
  O  O67  1  0.99241433  0.16700967  0.57245067  1
  O  O68  1  0.34623667  0.47310333  0.47871033  1
  O  O69  1  0.83299033  0.82540467  0.57245067  1
  O  O70  1  0.49960700  0.34341200  0.40492900  1
  O  O71  1  0.12686667  0.65376333  0.47871033  1
  O  O72  1  0.87474633  0.34289667  0.52066067  1
  O  O73  1  0.50066033  0.65717867  0.59483367  1
  O  O74  1  0.16722267  0.17576033  0.42844833  1
  O  O75  1  0.65710333  0.53184967  0.52066067  1
  O  O76  1  0.00853767  0.83277733  0.42844833  1
  O  O77  1  0.84380500  0.50039300  0.40492900  1
  O  O78  1  0.82423967  0.99146233  0.42844833  1
  O  O79  1  0.52689667  0.87313333  0.47871033  1
  O  O80  1  0.19176433  0.98592067  0.31111667  1
  O  O81  1  0.65658800  0.15619500  0.40492900  1
  O  O82  1  0.01407933  0.20584367  0.31111667  1
  O  O83  1  0.79415633  0.80823567  0.31111667  1
  O  O84  1  0.87294700  0.52665100  0.02220100  1
  O  O85  1  0.65370400  0.12705300  0.02220100  1
  O  O86  1  0.00948800  0.17681500  0.92816700  1
  O  O87  1  0.47334900  0.34629600  0.02220100  1
  O  O88  1  0.13481700  0.45858700  0.85399400  1
  O  O89  1  0.84126200  0.34091900  0.90578400  1
  O  O90  1  0.82318500  0.83267300  0.92816700  1
  O  O91  1  0.65908100  0.50034300  0.90578400  1
  O  O92  1  0.01290333  0.80643667  0.81204367  1
  O  O93  1  0.49965700  0.15873800  0.90578400  1
  O  O94  1  0.16627367  0.67674533  0.73826233  1
  O  O95  1  0.79353333  0.98709667  0.81204367  1
  O  O96  1  0.54141300  0.67623000  0.85399400  1
  O  O97  1  0.16732700  0.99051200  0.92816700  1
  O  O98  1  0.83388933  0.50909367  0.76178167  1
  O  O99  1  0.32377000  0.86518300  0.85399400  1
  O  O100  1  0.67520433  0.16611067  0.76178167  1
  O  O101  1  0.51047167  0.83372633  0.73826233  1
  O  O102  1  0.49090633  0.32479567  0.76178167  1
  O  O103  1  0.19356333  0.20646667  0.81204367  1
  O  O104  1  0.85843100  0.31925400  0.64445000  1
  O  O105  1  0.32325467  0.48952833  0.73826233  1
  O  O106  1  0.68074600  0.53917700  0.64445000  1
  O  O107  1  0.46082300  0.14156900  0.64445000  1
