# generated using pymatgen
data_Cr2Fe3Te(PO4)6
_symmetry_space_group_name_H-M   'P 1'
_cell_length_a   8.75033636
_cell_length_b   8.75033636
_cell_length_c   20.81756003
_cell_angle_alpha   90.00000000
_cell_angle_beta   90.00000000
_cell_angle_gamma   120.00000000
_symmetry_Int_Tables_number   1
_chemical_formula_structural   Cr2Fe3Te(PO4)6
_chemical_formula_sum   'Cr6 Fe9 Te3 P18 O72'
_cell_volume   1380.41589818
_cell_formula_units_Z   3
loop_
 _symmetry_equiv_pos_site_id
 _symmetry_equiv_pos_as_xyz
  1  'x, y, z'
loop_
 _atom_site_type_symbol
 _atom_site_label
 _atom_site_symmetry_multiplicity
 _atom_site_fract_x
 _atom_site_fract_y
 _atom_site_fract_z
 _atom_site_occupancy
  Cr  Cr0  1  0.33333333  0.66666667  0.66360267  1
  Cr  Cr1  1  0.33333333  0.66666667  0.16805167  1
  Cr  Cr2  1  0.00000000  0.00000000  0.99693600  1
  Cr  Cr3  1  0.00000000  0.00000000  0.50138500  1
  Cr  Cr4  1  0.66666667  0.33333333  0.33026933  1
  Cr  Cr5  1  0.66666667  0.33333333  0.83471833  1
  Fe  Fe6  1  0.33333333  0.66666667  0.51869467  1
  Fe  Fe7  1  0.33333333  0.66666667  0.31417067  1
  Fe  Fe8  1  0.33333333  0.66666667  0.02075367  1
  Fe  Fe9  1  0.00000000  0.00000000  0.85202800  1
  Fe  Fe10  1  0.00000000  0.00000000  0.64750400  1
  Fe  Fe11  1  0.00000000  0.00000000  0.35408700  1
  Fe  Fe12  1  0.66666667  0.33333333  0.18536133  1
  Fe  Fe13  1  0.66666667  0.33333333  0.98083733  1
  Fe  Fe14  1  0.66666667  0.33333333  0.68742033  1
  Te  Te15  1  0.33333333  0.66666667  0.81422167  1
  Te  Te16  1  0.00000000  0.00000000  0.14755500  1
  Te  Te17  1  0.66666667  0.33333333  0.48088833  1
  P  P18  1  0.00120867  0.30697533  0.25239433  1
  P  P19  1  0.69302467  0.69423333  0.25239433  1
  P  P20  1  0.37476700  0.34067800  0.08291300  1
  P  P21  1  0.96591100  0.62523300  0.08291300  1
  P  P22  1  0.65932200  0.03408900  0.08291300  1
  P  P23  1  0.30576667  0.99879133  0.25239433  1
  P  P24  1  0.66787533  0.64030867  0.58572767  1
  P  P25  1  0.35969133  0.02756667  0.58572767  1
  P  P26  1  0.04143367  0.67401133  0.41624633  1
  P  P27  1  0.63257767  0.95856633  0.41624633  1
  P  P28  1  0.32598867  0.36742233  0.41624633  1
  P  P29  1  0.97243333  0.33212467  0.58572767  1
  P  P30  1  0.33454200  0.97364200  0.91906100  1
  P  P31  1  0.02635800  0.36090000  0.91906100  1
  P  P32  1  0.70810033  0.00734467  0.74957967  1
  P  P33  1  0.29924433  0.29189967  0.74957967  1
  P  P34  1  0.99265533  0.70075567  0.74957967  1
  P  P35  1  0.63910000  0.66545800  0.91906100  1
  O  O36  1  0.31283067  0.45918033  0.35628733  1
  O  O37  1  0.14634967  0.68716933  0.35628733  1
  O  O38  1  0.83469767  0.32683033  0.26076533  1
  O  O39  1  0.54081967  0.85365033  0.35628733  1
  O  O40  1  0.99044300  0.21325000  0.18790800  1
  O  O41  1  0.16522133  0.49376767  0.24309667  1
  O  O42  1  0.67316967  0.50786733  0.26076533  1
  O  O43  1  0.50623233  0.67145367  0.24309667  1
  O  O44  1  0.46119233  0.32196167  0.14404767  1
  O  O45  1  0.32854633  0.83477867  0.24309667  1
  O  O46  1  0.18503700  0.17217700  0.07022100  1
  O  O47  1  0.86076933  0.53880767  0.14404767  1
  O  O48  1  0.78675000  0.77719300  0.18790800  1
  O  O49  1  0.49213267  0.16530233  0.26076533  1
  O  O50  1  0.34682067  0.50177433  0.09339133  1
  O  O51  1  0.22280700  0.00955700  0.18790800  1
  O  O52  1  0.15495367  0.65317933  0.09339133  1
  O  O53  1  0.98714000  0.81496300  0.07022100  1
  O  O54  1  0.49822567  0.84504633  0.09339133  1
  O  O55  1  0.67803833  0.13923067  0.14404767  1
  O  O56  1  0.13292833  0.47381867  0.97581067  1
  O  O57  1  0.82782300  0.01286000  0.07022100  1
  O  O58  1  0.52618133  0.65910967  0.97581067  1
  O  O59  1  0.34089033  0.86707167  0.97581067  1
  O  O60  1  0.97949733  0.79251367  0.68962067  1
  O  O61  1  0.81301633  0.02050267  0.68962067  1
  O  O62  1  0.50136433  0.66016367  0.59409867  1
  O  O63  1  0.20748633  0.18698367  0.68962067  1
  O  O64  1  0.65710967  0.54658333  0.52124133  1
  O  O65  1  0.83188800  0.82710100  0.57643000  1
  O  O66  1  0.33983633  0.84120067  0.59409867  1
  O  O67  1  0.17289900  0.00478700  0.57643000  1
  O  O68  1  0.12785900  0.65529500  0.47738100  1
  O  O69  1  0.99521300  0.16811200  0.57643000  1
  O  O70  1  0.85170367  0.50551033  0.40355433  1
  O  O71  1  0.52743600  0.87214100  0.47738100  1
  O  O72  1  0.45341667  0.11052633  0.52124133  1
  O  O73  1  0.15879933  0.49863567  0.59409867  1
  O  O74  1  0.01348733  0.83510767  0.42672467  1
  O  O75  1  0.88947367  0.34289033  0.52124133  1
  O  O76  1  0.82162033  0.98651267  0.42672467  1
  O  O77  1  0.65380667  0.14829633  0.40355433  1
  O  O78  1  0.16489233  0.17837967  0.42672467  1
  O  O79  1  0.34470500  0.47256400  0.47738100  1
  O  O80  1  0.79959500  0.80715200  0.30914400  1
  O  O81  1  0.49448967  0.34619333  0.40355433  1
  O  O82  1  0.19284800  0.99244300  0.30914400  1
  O  O83  1  0.00755700  0.20040500  0.30914400  1
  O  O84  1  0.64616400  0.12584700  0.02295400  1
  O  O85  1  0.47968300  0.35383600  0.02295400  1
  O  O86  1  0.16803100  0.99349700  0.92743200  1
  O  O87  1  0.87415300  0.52031700  0.02295400  1
  O  O88  1  0.32377633  0.87991667  0.85457467  1
  O  O89  1  0.49855467  0.16043433  0.90976333  1
  O  O90  1  0.00650300  0.17453400  0.92743200  1
  O  O91  1  0.83956567  0.33812033  0.90976333  1
  O  O92  1  0.79452567  0.98862833  0.81071433  1
  O  O93  1  0.66187967  0.50144533  0.90976333  1
  O  O94  1  0.51837033  0.83884367  0.73688767  1
  O  O95  1  0.19410267  0.20547433  0.81071433  1
  O  O96  1  0.12008333  0.44385967  0.85457467  1
  O  O97  1  0.82546600  0.83196900  0.92743200  1
  O  O98  1  0.68015400  0.16844100  0.76005800  1
  O  O99  1  0.55614033  0.67622367  0.85457467  1
  O  O100  1  0.48828700  0.31984600  0.76005800  1
  O  O101  1  0.32047333  0.48162967  0.73688767  1
  O  O102  1  0.83155900  0.51171300  0.76005800  1
  O  O103  1  0.01137167  0.80589733  0.81071433  1
  O  O104  1  0.46626167  0.14048533  0.64247733  1
  O  O105  1  0.16115633  0.67952667  0.73688767  1
  O  O106  1  0.85951467  0.32577633  0.64247733  1
  O  O107  1  0.67422367  0.53373833  0.64247733  1
