# generated using pymatgen
data_VF5
_symmetry_space_group_name_H-M   'P 1'
_cell_length_a   8.60633800
_cell_length_b   6.78707600
_cell_length_c   6.27629999
_cell_angle_alpha   90.00000000
_cell_angle_beta   109.03384969
_cell_angle_gamma   90.00000000
_symmetry_Int_Tables_number   1
_chemical_formula_structural   VF5
_chemical_formula_sum   'V4 F20'
_cell_volume   346.56638701
_cell_formula_units_Z   4
loop_
 _symmetry_equiv_pos_site_id
 _symmetry_equiv_pos_as_xyz
  1  'x, y, z'
loop_
 _atom_site_type_symbol
 _atom_site_label
 _atom_site_symmetry_multiplicity
 _atom_site_fract_x
 _atom_site_fract_y
 _atom_site_fract_z
 _atom_site_occupancy
  V  V0  1  0.00000000  0.41019200  0.25000000  1
  V  V1  1  0.00000000  0.58980800  0.75000000  1
  V  V2  1  0.50000000  0.91019200  0.25000000  1
  V  V3  1  0.50000000  0.08980800  0.75000000  1
  F  F4  1  0.99899350  0.65494950  0.05699700  1
  F  F5  1  0.21501300  0.44681200  0.34661700  1
  F  F6  1  0.00000000  0.15207200  0.25000000  1
  F  F7  1  0.78498700  0.44681200  0.15338300  1
  F  F8  1  0.00100650  0.65494950  0.44300300  1
  F  F9  1  0.99899350  0.34505050  0.55699700  1
  F  F10  1  0.21501300  0.55318800  0.84661700  1
  F  F11  1  0.00000000  0.84792800  0.75000000  1
  F  F12  1  0.78498700  0.55318800  0.65338300  1
  F  F13  1  0.00100650  0.34505050  0.94300300  1
  F  F14  1  0.49899350  0.15494950  0.05699700  1
  F  F15  1  0.71501300  0.94681200  0.34661700  1
  F  F16  1  0.50000000  0.65207200  0.25000000  1
  F  F17  1  0.28498700  0.94681200  0.15338300  1
  F  F18  1  0.50100650  0.15494950  0.44300300  1
  F  F19  1  0.49899350  0.84505050  0.55699700  1
  F  F20  1  0.71501300  0.05318800  0.84661700  1
  F  F21  1  0.50000000  0.34792800  0.75000000  1
  F  F22  1  0.28498700  0.05318800  0.65338300  1
  F  F23  1  0.50100650  0.84505050  0.94300300  1
