# generated using pymatgen
data_Li4Mn3Cu3(SnO8)2
_symmetry_space_group_name_H-M   'P 1'
_cell_length_a   10.34008054
_cell_length_b   5.90008281
_cell_length_c   9.68288621
_cell_angle_alpha   90.00000000
_cell_angle_beta   91.05433975
_cell_angle_gamma   90.00000000
_symmetry_Int_Tables_number   1
_chemical_formula_structural   Li4Mn3Cu3(SnO8)2
_chemical_formula_sum   'Li8 Mn6 Cu6 Sn4 O32'
_cell_volume   590.62703374
_cell_formula_units_Z   2
loop_
 _symmetry_equiv_pos_site_id
 _symmetry_equiv_pos_as_xyz
  1  'x, y, z'
loop_
 _atom_site_type_symbol
 _atom_site_label
 _atom_site_symmetry_multiplicity
 _atom_site_fract_x
 _atom_site_fract_y
 _atom_site_fract_z
 _atom_site_occupancy
  Li  Li0  1  0.17026900  0.50000000  0.10341400  1
  Li  Li1  1  0.49929900  0.50000000  0.00349100  1
  Li  Li2  1  0.49943900  0.50000000  0.50784100  1
  Li  Li3  1  0.33694850  0.00000000  0.60992100  1
  Li  Li4  1  0.67026900  0.00000000  0.10341400  1
  Li  Li5  1  0.99929900  0.00000000  0.00349100  1
  Li  Li6  1  0.99943900  0.00000000  0.50784100  1
  Li  Li7  1  0.83694850  0.50000000  0.60992100  1
  Mn  Mn8  1  0.32984000  0.50000000  0.78465700  1
  Mn  Mn9  1  0.41539950  0.24590650  0.28507900  1
  Mn  Mn10  1  0.41539950  0.75409350  0.28507900  1
  Mn  Mn11  1  0.82984000  0.00000000  0.78465700  1
  Mn  Mn12  1  0.91539950  0.74590650  0.28507900  1
  Mn  Mn13  1  0.91539950  0.25409350  0.28507900  1
  Cu  Cu14  1  0.08413050  0.74393750  0.78580900  1
  Cu  Cu15  1  0.08413050  0.25606250  0.78580900  1
  Cu  Cu16  1  0.16979000  0.00000000  0.28481200  1
  Cu  Cu17  1  0.58413050  0.24393750  0.78580900  1
  Cu  Cu18  1  0.58413050  0.75606250  0.78580900  1
  Cu  Cu19  1  0.66979000  0.50000000  0.28481200  1
  Sn  Sn20  1  0.16294800  0.50000000  0.51074400  1
  Sn  Sn21  1  0.32849750  0.00000000  0.00471200  1
  Sn  Sn22  1  0.66294800  0.00000000  0.51074400  1
  Sn  Sn23  1  0.82849750  0.50000000  0.00471200  1
  O  O24  1  0.07380800  0.75808200  0.40000100  1
  O  O25  1  0.01793850  0.50000000  0.66010900  1
  O  O26  1  0.17552650  0.50000000  0.89206400  1
  O  O27  1  0.49275900  0.50000000  0.69439900  1
  O  O28  1  0.49200850  0.50000000  0.19173800  1
  O  O29  1  0.07380800  0.24191800  0.40000100  1
  O  O30  1  0.24983800  0.72057900  0.66057200  1
  O  O31  1  0.24983800  0.27942100  0.66057200  1
  O  O32  1  0.15525950  0.00000000  0.90317200  1
  O  O33  1  0.33859850  0.50000000  0.39375000  1
  O  O34  1  0.26706650  0.23040850  0.16277900  1
  O  O35  1  0.26706650  0.76959150  0.16277900  1
  O  O36  1  0.34281500  0.00000000  0.38969900  1
  O  O37  1  0.41370400  0.26341500  0.90040200  1
  O  O38  1  0.48439550  0.00000000  0.16916200  1
  O  O39  1  0.41370400  0.73658500  0.90040200  1
  O  O40  1  0.57380800  0.25808200  0.40000100  1
  O  O41  1  0.51793850  0.00000000  0.66010900  1
  O  O42  1  0.67552650  0.00000000  0.89206400  1
  O  O43  1  0.99275900  0.00000000  0.69439900  1
  O  O44  1  0.99200850  0.00000000  0.19173800  1
  O  O45  1  0.57380800  0.74191800  0.40000100  1
  O  O46  1  0.74983800  0.22057900  0.66057200  1
  O  O47  1  0.74983800  0.77942100  0.66057200  1
  O  O48  1  0.65525950  0.50000000  0.90317200  1
  O  O49  1  0.83859850  0.00000000  0.39375000  1
  O  O50  1  0.76706650  0.73040850  0.16277900  1
  O  O51  1  0.76706650  0.26959150  0.16277900  1
  O  O52  1  0.84281500  0.50000000  0.38969900  1
  O  O53  1  0.91370400  0.76341500  0.90040200  1
  O  O54  1  0.98439550  0.50000000  0.16916200  1
  O  O55  1  0.91370400  0.23658500  0.90040200  1
