# generated using pymatgen
data_LiV2F7
_symmetry_space_group_name_H-M   'P 1'
_cell_length_a   13.93865400
_cell_length_b   7.31995800
_cell_length_c   5.22515787
_cell_angle_alpha   90.00000000
_cell_angle_beta   106.33478108
_cell_angle_gamma   90.00000000
_symmetry_Int_Tables_number   1
_chemical_formula_structural   LiV2F7
_chemical_formula_sum   'Li4 V8 F28'
_cell_volume   511.60502773
_cell_formula_units_Z   4
loop_
 _symmetry_equiv_pos_site_id
 _symmetry_equiv_pos_as_xyz
  1  'x, y, z'
loop_
 _atom_site_type_symbol
 _atom_site_label
 _atom_site_symmetry_multiplicity
 _atom_site_fract_x
 _atom_site_fract_y
 _atom_site_fract_z
 _atom_site_occupancy
  Li  Li0  1  0.00000000  0.47981300  0.25000000  1
  Li  Li1  1  0.00000000  0.52018700  0.75000000  1
  Li  Li2  1  0.50000000  0.97981300  0.25000000  1
  Li  Li3  1  0.50000000  0.02018700  0.75000000  1
  V  V4  1  0.16748100  0.18114200  0.74169100  1
  V  V5  1  0.16748100  0.81885800  0.24169100  1
  V  V6  1  0.33251900  0.31885800  0.25830900  1
  V  V7  1  0.33251900  0.68114200  0.75830900  1
  V  V8  1  0.66748100  0.68114200  0.74169100  1
  V  V9  1  0.66748100  0.31885800  0.24169100  1
  V  V10  1  0.83251900  0.81885800  0.25830900  1
  V  V11  1  0.83251900  0.18114200  0.75830900  1
  F  F12  1  0.05431950  0.33179250  0.55457100  1
  F  F13  1  0.05431950  0.66820750  0.05457100  1
  F  F14  1  0.11964300  0.96853600  0.49075900  1
  F  F15  1  0.11964300  0.03146400  0.99075900  1
  F  F16  1  0.19703150  0.38531850  0.00834100  1
  F  F17  1  0.19703150  0.61468150  0.50834100  1
  F  F18  1  0.25000000  0.25000000  0.50000000  1
  F  F19  1  0.25000000  0.75000000  0.00000000  1
  F  F20  1  0.30296850  0.88531850  0.49165900  1
  F  F21  1  0.30296850  0.11468150  0.99165900  1
  F  F22  1  0.38035700  0.53146400  0.50924100  1
  F  F23  1  0.38035700  0.46853600  0.00924100  1
  F  F24  1  0.44568050  0.16820750  0.44542900  1
  F  F25  1  0.44568050  0.83179250  0.94542900  1
  F  F26  1  0.55431950  0.83179250  0.55457100  1
  F  F27  1  0.55431950  0.16820750  0.05457100  1
  F  F28  1  0.61964300  0.46853600  0.49075900  1
  F  F29  1  0.61964300  0.53146400  0.99075900  1
  F  F30  1  0.69703150  0.88531850  0.00834100  1
  F  F31  1  0.69703150  0.11468150  0.50834100  1
  F  F32  1  0.75000000  0.75000000  0.50000000  1
  F  F33  1  0.75000000  0.25000000  0.00000000  1
  F  F34  1  0.80296850  0.38531850  0.49165900  1
  F  F35  1  0.80296850  0.61468150  0.99165900  1
  F  F36  1  0.88035700  0.03146400  0.50924100  1
  F  F37  1  0.88035700  0.96853600  0.00924100  1
  F  F38  1  0.94568050  0.66820750  0.44542900  1
  F  F39  1  0.94568050  0.33179250  0.94542900  1
