# generated using pymatgen
data_LiV2O2F3
_symmetry_space_group_name_H-M   'P 1'
_cell_length_a   3.85706600
_cell_length_b   10.06405400
_cell_length_c   10.14447400
_cell_angle_alpha   90.00000000
_cell_angle_beta   90.00000000
_cell_angle_gamma   90.00000000
_symmetry_Int_Tables_number   1
_chemical_formula_structural   LiV2O2F3
_chemical_formula_sum   'Li4 V8 O8 F12'
_cell_volume   393.78535667
_cell_formula_units_Z   4
loop_
 _symmetry_equiv_pos_site_id
 _symmetry_equiv_pos_as_xyz
  1  'x, y, z'
loop_
 _atom_site_type_symbol
 _atom_site_label
 _atom_site_symmetry_multiplicity
 _atom_site_fract_x
 _atom_site_fract_y
 _atom_site_fract_z
 _atom_site_occupancy
  Li  Li0  1  0.00000000  0.19390300  0.25000000  1
  Li  Li1  1  0.50000000  0.30609700  0.75000000  1
  Li  Li2  1  0.50000000  0.69390300  0.25000000  1
  Li  Li3  1  0.00000000  0.80609700  0.75000000  1
  V  V4  1  0.00000000  0.14855350  0.55768600  1
  V  V5  1  0.00000000  0.14855350  0.94231400  1
  V  V6  1  0.50000000  0.35144650  0.05768600  1
  V  V7  1  0.50000000  0.35144650  0.44231400  1
  V  V8  1  0.50000000  0.64855350  0.55768600  1
  V  V9  1  0.50000000  0.64855350  0.94231400  1
  V  V10  1  0.00000000  0.85144650  0.05768600  1
  V  V11  1  0.00000000  0.85144650  0.44231400  1
  O  O12  1  0.00000000  0.31321250  0.44059500  1
  O  O13  1  0.00000000  0.31321250  0.05940500  1
  O  O14  1  0.50000000  0.18678750  0.94059500  1
  O  O15  1  0.50000000  0.18678750  0.55940500  1
  O  O16  1  0.50000000  0.81321250  0.44059500  1
  O  O17  1  0.50000000  0.81321250  0.05940500  1
  O  O18  1  0.00000000  0.68678750  0.94059500  1
  O  O19  1  0.00000000  0.68678750  0.55940500  1
  F  F20  1  0.00000000  0.04649250  0.11758400  1
  F  F21  1  0.00000000  0.04649250  0.38241600  1
  F  F22  1  0.00000000  0.22998200  0.75000000  1
  F  F23  1  0.50000000  0.27001800  0.25000000  1
  F  F24  1  0.50000000  0.45350750  0.61758400  1
  F  F25  1  0.50000000  0.45350750  0.88241600  1
  F  F26  1  0.50000000  0.54649250  0.11758400  1
  F  F27  1  0.50000000  0.54649250  0.38241600  1
  F  F28  1  0.50000000  0.72998200  0.75000000  1
  F  F29  1  0.00000000  0.77001800  0.25000000  1
  F  F30  1  0.00000000  0.95350750  0.61758400  1
  F  F31  1  0.00000000  0.95350750  0.88241600  1
