# generated using pymatgen
data_Cr3(OF)2
_symmetry_space_group_name_H-M   'P 1'
_cell_length_a   8.36895100
_cell_length_b   8.70024400
_cell_length_c   10.92516689
_cell_angle_alpha   90.00000000
_cell_angle_beta   106.20755087
_cell_angle_gamma   90.00000000
_symmetry_Int_Tables_number   1
_chemical_formula_structural   Cr3(OF)2
_chemical_formula_sum   'Cr24 O16 F16'
_cell_volume   763.86740507
_cell_formula_units_Z   8
loop_
 _symmetry_equiv_pos_site_id
 _symmetry_equiv_pos_as_xyz
  1  'x, y, z'
loop_
 _atom_site_type_symbol
 _atom_site_label
 _atom_site_symmetry_multiplicity
 _atom_site_fract_x
 _atom_site_fract_y
 _atom_site_fract_z
 _atom_site_occupancy
  Cr  Cr0  1  0.07642800  0.20277900  0.63826600  1
  Cr  Cr1  1  0.09967600  0.57418200  0.62165000  1
  Cr  Cr2  1  0.23397600  0.81488500  0.83185400  1
  Cr  Cr3  1  0.07642800  0.29722100  0.13826600  1
  Cr  Cr4  1  0.31041900  0.48100200  0.93295400  1
  Cr  Cr5  1  0.09967600  0.92581800  0.12165000  1
  Cr  Cr6  1  0.23397600  0.68511500  0.33185400  1
  Cr  Cr7  1  0.45587800  0.07724900  0.73209400  1
  Cr  Cr8  1  0.31041900  0.01899800  0.43295400  1
  Cr  Cr9  1  0.59693000  0.85329800  0.99146900  1
  Cr  Cr10  1  0.40307000  0.35329800  0.50853100  1
  Cr  Cr11  1  0.54412200  0.57724900  0.76790600  1
  Cr  Cr12  1  0.45587800  0.42275100  0.23209400  1
  Cr  Cr13  1  0.59693000  0.64670200  0.49146900  1
  Cr  Cr14  1  0.40307000  0.14670200  0.00853100  1
  Cr  Cr15  1  0.68958100  0.98100200  0.56704600  1
  Cr  Cr16  1  0.54412200  0.92275100  0.26790600  1
  Cr  Cr17  1  0.76602400  0.31488500  0.66814600  1
  Cr  Cr18  1  0.90032400  0.07418200  0.87835000  1
  Cr  Cr19  1  0.68958100  0.51899800  0.06704600  1
  Cr  Cr20  1  0.92357200  0.70277900  0.86173400  1
  Cr  Cr21  1  0.76602400  0.18511500  0.16814600  1
  Cr  Cr22  1  0.90032400  0.42581800  0.37835000  1
  Cr  Cr23  1  0.92357200  0.79722100  0.36173400  1
  O  O24  1  0.06518500  0.89420900  0.92473600  1
  O  O25  1  0.11933600  0.60560000  0.81427200  1
  O  O26  1  0.06518500  0.60579100  0.42473600  1
  O  O27  1  0.11933600  0.89440000  0.31427200  1
  O  O28  1  0.40515600  0.97836900  0.88246000  1
  O  O29  1  0.49763600  0.63371900  0.93423300  1
  O  O30  1  0.50236400  0.13371900  0.56576700  1
  O  O31  1  0.40515600  0.52163100  0.38246000  1
  O  O32  1  0.59484400  0.47836900  0.61754000  1
  O  O33  1  0.49763600  0.86628100  0.43423300  1
  O  O34  1  0.50236400  0.36628100  0.06576700  1
  O  O35  1  0.59484400  0.02163100  0.11754000  1
  O  O36  1  0.88066400  0.10560000  0.68572800  1
  O  O37  1  0.93481500  0.39420900  0.57526400  1
  O  O38  1  0.88066400  0.39440000  0.18572800  1
  O  O39  1  0.93481500  0.10579100  0.07526400  1
  F  F40  1  0.19140700  0.26830600  0.91258000  1
  F  F41  1  0.21627900  0.01012800  0.63652200  1
  F  F42  1  0.19140700  0.23169400  0.41258000  1
  F  F43  1  0.29284300  0.32982100  0.67872400  1
  F  F44  1  0.21627900  0.48987200  0.13652200  1
  F  F45  1  0.32718500  0.69614600  0.67746600  1
  F  F46  1  0.29284300  0.17017900  0.17872400  1
  F  F47  1  0.67281500  0.19614600  0.82253400  1
  F  F48  1  0.32718500  0.80385400  0.17746600  1
  F  F49  1  0.70715700  0.82982100  0.82127600  1
  F  F50  1  0.67281500  0.30385400  0.32253400  1
  F  F51  1  0.78372100  0.51012800  0.86347800  1
  F  F52  1  0.70715700  0.67017900  0.32127600  1
  F  F53  1  0.80859300  0.76830600  0.58742000  1
  F  F54  1  0.78372100  0.98987200  0.36347800  1
  F  F55  1  0.80859300  0.73169400  0.08742000  1
