# generated using pymatgen
data_Li4Cr5O10
_symmetry_space_group_name_H-M   'P 1'
_cell_length_a   6.64146733
_cell_length_b   6.64655712
_cell_length_c   8.91757699
_cell_angle_alpha   85.33716423
_cell_angle_beta   81.19423692
_cell_angle_gamma   72.03830254
_symmetry_Int_Tables_number   1
_chemical_formula_structural   Li4Cr5O10
_chemical_formula_sum   'Li8 Cr10 O20'
_cell_volume   369.80528663
_cell_formula_units_Z   2
loop_
 _symmetry_equiv_pos_site_id
 _symmetry_equiv_pos_as_xyz
  1  'x, y, z'
loop_
 _atom_site_type_symbol
 _atom_site_label
 _atom_site_symmetry_multiplicity
 _atom_site_fract_x
 _atom_site_fract_y
 _atom_site_fract_z
 _atom_site_occupancy
  Li  Li0  1  0.14730350  0.80791300  0.54781850  1
  Li  Li1  1  0.64382950  0.80931800  0.04425450  1
  Li  Li2  1  0.35617050  0.19068200  0.95574550  1
  Li  Li3  1  0.85269650  0.19208700  0.45218150  1
  Li  Li4  1  0.45457050  0.39261000  0.65212950  1
  Li  Li5  1  0.95902250  0.38914300  0.15271550  1
  Li  Li6  1  0.04097750  0.61085700  0.84728450  1
  Li  Li7  1  0.54542950  0.60739000  0.34787050  1
  Cr  Cr8  1  0.50000000  0.00000000  0.50000000  1
  Cr  Cr9  1  0.00000000  0.00000000  0.00000000  1
  Cr  Cr10  1  0.19889950  0.39407400  0.39935150  1
  Cr  Cr11  1  0.69802050  0.39570600  0.90034150  1
  Cr  Cr12  1  0.30197950  0.60429400  0.09965850  1
  Cr  Cr13  1  0.80110050  0.60592600  0.60064850  1
  Cr  Cr14  1  0.09573850  0.19761000  0.70067650  1
  Cr  Cr15  1  0.59504250  0.19803300  0.20151650  1
  Cr  Cr16  1  0.40495750  0.80196700  0.79848350  1
  Cr  Cr17  1  0.90426150  0.80239000  0.29932350  1
  O  O18  1  0.17746850  0.11067000  0.49176450  1
  O  O19  1  0.68266750  0.11102200  0.98864750  1
  O  O20  1  0.31733250  0.88897800  0.01135250  1
  O  O21  1  0.82253150  0.88933000  0.50823550  1
  O  O22  1  0.20538750  0.68454200  0.32025050  1
  O  O23  1  0.71749250  0.68023800  0.81987150  1
  O  O24  1  0.28250750  0.31976200  0.18012850  1
  O  O25  1  0.79461250  0.31545800  0.67974950  1
  O  O26  1  0.11593450  0.48360400  0.62086850  1
  O  O27  1  0.61628350  0.48839000  0.11983350  1
  O  O28  1  0.38371650  0.51161000  0.88016650  1
  O  O29  1  0.88406550  0.51639600  0.37913150  1
  O  O30  1  0.39795950  0.09978900  0.71707450  1
  O  O31  1  0.90959050  0.08351100  0.22053750  1
  O  O32  1  0.09040950  0.91648900  0.77946250  1
  O  O33  1  0.60204050  0.90021100  0.28292550  1
  O  O34  1  0.01677150  0.28697500  0.91580750  1
  O  O35  1  0.51375150  0.28993100  0.42142050  1
  O  O36  1  0.48624850  0.71006900  0.57857950  1
  O  O37  1  0.98322850  0.71302500  0.08419250  1
