# generated using pymatgen
data_LiCoSnO4
_symmetry_space_group_name_H-M   'P 1'
_cell_length_a   6.01856600
_cell_length_b   6.27655800
_cell_length_c   8.68631400
_cell_angle_alpha   90.00000000
_cell_angle_beta   90.00000000
_cell_angle_gamma   90.00000000
_symmetry_Int_Tables_number   1
_chemical_formula_structural   LiCoSnO4
_chemical_formula_sum   'Li4 Co4 Sn4 O16'
_cell_volume   328.13314294
_cell_formula_units_Z   4
loop_
 _symmetry_equiv_pos_site_id
 _symmetry_equiv_pos_as_xyz
  1  'x, y, z'
loop_
 _atom_site_type_symbol
 _atom_site_label
 _atom_site_symmetry_multiplicity
 _atom_site_fract_x
 _atom_site_fract_y
 _atom_site_fract_z
 _atom_site_occupancy
  Li  Li0  1  0.50000000  0.75000000  0.37568400  1
  Li  Li1  1  0.50000000  0.25000000  0.62431600  1
  Li  Li2  1  0.00000000  0.25000000  0.87568400  1
  Li  Li3  1  0.00000000  0.75000000  0.12431600  1
  Co  Co4  1  0.25000000  0.25000000  0.25000000  1
  Co  Co5  1  0.75000000  0.25000000  0.25000000  1
  Co  Co6  1  0.75000000  0.75000000  0.75000000  1
  Co  Co7  1  0.25000000  0.75000000  0.75000000  1
  Sn  Sn8  1  0.50000000  0.00000000  0.00000000  1
  Sn  Sn9  1  0.00000000  0.00000000  0.50000000  1
  Sn  Sn10  1  0.00000000  0.50000000  0.50000000  1
  Sn  Sn11  1  0.50000000  0.50000000  0.00000000  1
  O  O12  1  0.50000000  0.96745000  0.75990400  1
  O  O13  1  0.00000000  0.03255000  0.25990400  1
  O  O14  1  0.76837900  0.25000000  0.48981200  1
  O  O15  1  0.23162100  0.25000000  0.48981200  1
  O  O16  1  0.76837900  0.75000000  0.51018800  1
  O  O17  1  0.23162100  0.75000000  0.51018800  1
  O  O18  1  0.00000000  0.96745000  0.74009600  1
  O  O19  1  0.50000000  0.03255000  0.24009600  1
  O  O20  1  0.00000000  0.46745000  0.25990400  1
  O  O21  1  0.50000000  0.53255000  0.75990400  1
  O  O22  1  0.26837900  0.75000000  0.98981200  1
  O  O23  1  0.73162100  0.75000000  0.98981200  1
  O  O24  1  0.26837900  0.25000000  0.01018800  1
  O  O25  1  0.73162100  0.25000000  0.01018800  1
  O  O26  1  0.50000000  0.46745000  0.24009600  1
  O  O27  1  0.00000000  0.53255000  0.74009600  1
