# generated using pymatgen
data_NbV5(PO4)6
_symmetry_space_group_name_H-M   'P 1'
_cell_length_a   8.72435580
_cell_length_b   8.72435580
_cell_length_c   21.11593491
_cell_angle_alpha   90.00000000
_cell_angle_beta   90.00000000
_cell_angle_gamma   120.00000000
_symmetry_Int_Tables_number   1
_chemical_formula_structural   NbV5(PO4)6
_chemical_formula_sum   'Nb3 V15 P18 O72'
_cell_volume   1391.89887670
_cell_formula_units_Z   3
loop_
 _symmetry_equiv_pos_site_id
 _symmetry_equiv_pos_as_xyz
  1  'x, y, z'
loop_
 _atom_site_type_symbol
 _atom_site_label
 _atom_site_symmetry_multiplicity
 _atom_site_fract_x
 _atom_site_fract_y
 _atom_site_fract_z
 _atom_site_occupancy
  Nb  Nb0  1  0.33333333  0.66666667  0.81018867  1
  Nb  Nb1  1  0.00000000  0.00000000  0.14352200  1
  Nb  Nb2  1  0.66666667  0.33333333  0.47685533  1
  V  V3  1  0.33333333  0.66666667  0.66514667  1
  V  V4  1  0.33333333  0.66666667  0.31000267  1
  V  V5  1  0.33333333  0.66666667  0.16545667  1
  V  V6  1  0.33333333  0.66666667  0.52291367  1
  V  V7  1  0.33333333  0.66666667  0.02384667  1
  V  V8  1  0.00000000  0.00000000  0.99848000  1
  V  V9  1  0.00000000  0.00000000  0.64333600  1
  V  V10  1  0.00000000  0.00000000  0.49879000  1
  V  V11  1  0.00000000  0.00000000  0.85624700  1
  V  V12  1  0.00000000  0.00000000  0.35718000  1
  V  V13  1  0.66666667  0.33333333  0.33181333  1
  V  V14  1  0.66666667  0.33333333  0.97666933  1
  V  V15  1  0.66666667  0.33333333  0.83212333  1
  V  V16  1  0.66666667  0.33333333  0.18958033  1
  V  V17  1  0.66666667  0.33333333  0.69051333  1
  P  P18  1  0.70187567  0.70187433  0.25202033  1
  P  P19  1  0.29812567  0.00000133  0.25202033  1
  P  P20  1  0.99999867  0.29812433  0.25202033  1
  P  P21  1  0.66191867  0.03982133  0.08314333  1
  P  P22  1  0.37790267  0.33808133  0.08314333  1
  P  P23  1  0.96017867  0.62209733  0.08314333  1
  P  P24  1  0.36854233  0.03520767  0.58535367  1
  P  P25  1  0.96479233  0.33333467  0.58535367  1
  P  P26  1  0.66666533  0.63145767  0.58535367  1
  P  P27  1  0.32858533  0.37315467  0.41647667  1
  P  P28  1  0.04456933  0.67141467  0.41647667  1
  P  P29  1  0.62684533  0.95543067  0.41647667  1
  P  P30  1  0.03520900  0.36854100  0.91868700  1
  P  P31  1  0.63145900  0.66666800  0.91868700  1
  P  P32  1  0.33333200  0.96479100  0.91868700  1
  P  P33  1  0.99525200  0.70648800  0.74981000  1
  P  P34  1  0.71123600  0.00474800  0.74981000  1
  P  P35  1  0.29351200  0.28876400  0.74981000  1
  O  O36  1  0.52857767  0.66222033  0.97684933  1
  O  O37  1  0.33777967  0.86635733  0.97684933  1
  O  O38  1  0.13364267  0.47142233  0.97684933  1
  O  O39  1  0.68192533  0.51575767  0.25652467  1
  O  O40  1  0.14744400  0.47221000  0.85813400  1
  O  O41  1  0.51891400  0.68537200  0.24122800  1
  O  O42  1  0.48424233  0.16616767  0.25652467  1
  O  O43  1  0.31462800  0.83354200  0.24122800  1
  O  O44  1  0.67245000  0.13981500  0.14317200  1
  O  O45  1  0.16645800  0.48108600  0.24122800  1
  O  O46  1  0.83132800  0.01456300  0.07751300  1
  O  O47  1  0.46736500  0.32755000  0.14317200  1
  O  O48  1  0.52779000  0.67523400  0.85813400  1
  O  O49  1  0.83383233  0.31807467  0.25652467  1
  O  O50  1  0.50004167  0.84990933  0.08991233  1
  O  O51  1  0.32476600  0.85255600  0.85813400  1
  O  O52  1  0.34986767  0.49995833  0.08991233  1
  O  O53  1  0.18323500  0.16867200  0.07751300  1
  O  O54  1  0.15009067  0.65013233  0.08991233  1
  O  O55  1  0.86018500  0.53263500  0.14317200  1
  O  O56  1  0.98543700  0.81676500  0.07751300  1
  O  O57  1  0.53327067  0.86310333  0.35565533  1
  O  O58  1  0.32983267  0.46672933  0.35565533  1
  O  O59  1  0.13689667  0.67016733  0.35565533  1
  O  O60  1  0.19524433  0.99555367  0.31018267  1
  O  O61  1  0.00444633  0.19969067  0.31018267  1
  O  O62  1  0.80030933  0.80475567  0.31018267  1
  O  O63  1  0.34859200  0.84909100  0.58985800  1
  O  O64  1  0.81411067  0.80554333  0.19146733  1
  O  O65  1  0.18558067  0.01870533  0.57456133  1
  O  O66  1  0.15090900  0.49950100  0.58985800  1
  O  O67  1  0.98129467  0.16687533  0.57456133  1
  O  O68  1  0.33911667  0.47314833  0.47650533  1
  O  O69  1  0.83312467  0.81441933  0.57456133  1
  O  O70  1  0.49799467  0.34789633  0.41084633  1
  O  O71  1  0.13403167  0.66088333  0.47650533  1
  O  O72  1  0.19445667  0.00856733  0.19146733  1
  O  O73  1  0.50049900  0.65140800  0.58985800  1
  O  O74  1  0.16670833  0.18324267  0.42324567  1
  O  O75  1  0.99143267  0.18588933  0.19146733  1
  O  O76  1  0.01653433  0.83329167  0.42324567  1
  O  O77  1  0.84990167  0.50200533  0.41084633  1
  O  O78  1  0.81675733  0.98346567  0.42324567  1
  O  O79  1  0.52685167  0.86596833  0.47650533  1
  O  O80  1  0.65210367  0.15009833  0.41084633  1
  O  O81  1  0.19993733  0.19643667  0.68898867  1
  O  O82  1  0.99649933  0.80006267  0.68898867  1
  O  O83  1  0.80356333  0.00350067  0.68898867  1
  O  O84  1  0.86191100  0.32888700  0.64351600  1
  O  O85  1  0.67111300  0.53302400  0.64351600  1
  O  O86  1  0.46697600  0.13808900  0.64351600  1
  O  O87  1  0.01525867  0.18242433  0.92319133  1
  O  O88  1  0.48077733  0.13887667  0.52480067  1
  O  O89  1  0.85224733  0.35203867  0.90789467  1
  O  O90  1  0.81757567  0.83283433  0.92319133  1
  O  O91  1  0.64796133  0.50020867  0.90789467  1
  O  O92  1  0.00578333  0.80648167  0.80983867  1
  O  O93  1  0.49979133  0.14775267  0.90789467  1
  O  O94  1  0.16466133  0.68122967  0.74417967  1
  O  O95  1  0.80069833  0.99421667  0.80983867  1
  O  O96  1  0.86112333  0.34190067  0.52480067  1
  O  O97  1  0.16716567  0.98474133  0.92319133  1
  O  O98  1  0.83337500  0.51657600  0.75657900  1
  O  O99  1  0.65809933  0.51922267  0.52480067  1
  O  O100  1  0.68320100  0.16662500  0.75657900  1
  O  O101  1  0.51656833  0.83533867  0.74417967  1
  O  O102  1  0.48342400  0.31679900  0.75657900  1
  O  O103  1  0.19351833  0.19930167  0.80983867  1
  O  O104  1  0.31877033  0.48343167  0.74417967  1
  O  O105  1  0.86660400  0.52977000  0.02232200  1
  O  O106  1  0.66316600  0.13339600  0.02232200  1
  O  O107  1  0.47023000  0.33683400  0.02232200  1
