# generated using pymatgen
data_Li7Co5O12
_symmetry_space_group_name_H-M   'P 1'
_cell_length_a   5.06200400
_cell_length_b   8.49761600
_cell_length_c   9.37829140
_cell_angle_alpha   90.00000000
_cell_angle_beta   99.13948666
_cell_angle_gamma   90.00000000
_symmetry_Int_Tables_number   1
_chemical_formula_structural   Li7Co5O12
_chemical_formula_sum   'Li14 Co10 O24'
_cell_volume   398.28546533
_cell_formula_units_Z   2
loop_
 _symmetry_equiv_pos_site_id
 _symmetry_equiv_pos_as_xyz
  1  'x, y, z'
loop_
 _atom_site_type_symbol
 _atom_site_label
 _atom_site_symmetry_multiplicity
 _atom_site_fract_x
 _atom_site_fract_y
 _atom_site_fract_z
 _atom_site_occupancy
  Li  Li0  1  0.50000000  0.75508900  0.50000000  1
  Li  Li1  1  0.25496950  0.91658250  0.25538700  1
  Li  Li2  1  0.24102400  0.08460200  0.74490300  1
  Li  Li3  1  0.74503050  0.91658250  0.74461300  1
  Li  Li4  1  0.75897600  0.08460200  0.25509700  1
  Li  Li5  1  0.50000000  0.24338000  0.00000000  1
  Li  Li6  1  0.50000000  0.42221300  0.50000000  1
  Li  Li7  1  0.00000000  0.25508900  0.50000000  1
  Li  Li8  1  0.75496950  0.41658250  0.25538700  1
  Li  Li9  1  0.74102400  0.58460200  0.74490300  1
  Li  Li10  1  0.24503050  0.41658250  0.74461300  1
  Li  Li11  1  0.25897600  0.58460200  0.25509700  1
  Li  Li12  1  0.00000000  0.74338000  0.00000000  1
  Li  Li13  1  0.00000000  0.92221300  0.50000000  1
  Co  Co14  1  0.50000000  0.57667800  0.00000000  1
  Co  Co15  1  0.24933850  0.76263550  0.73775400  1
  Co  Co16  1  0.75066150  0.76263550  0.26224600  1
  Co  Co17  1  0.50000000  0.91485800  0.00000000  1
  Co  Co18  1  0.50000000  0.08314300  0.50000000  1
  Co  Co19  1  0.00000000  0.07667800  0.00000000  1
  Co  Co20  1  0.74933850  0.26263550  0.73775400  1
  Co  Co21  1  0.25066150  0.26263550  0.26224600  1
  Co  Co22  1  0.00000000  0.41485800  0.00000000  1
  Co  Co23  1  0.00000000  0.58314300  0.50000000  1
  O  O24  1  0.84175250  0.09697950  0.62357200  1
  O  O25  1  0.15824750  0.09697950  0.37642800  1
  O  O26  1  0.41689450  0.74324750  0.12422000  1
  O  O27  1  0.58310550  0.74324750  0.87578000  1
  O  O28  1  0.37447250  0.92100550  0.62273400  1
  O  O29  1  0.62552750  0.92100550  0.37726600  1
  O  O30  1  0.34844250  0.07303650  0.11059300  1
  O  O31  1  0.65155750  0.07303650  0.88940700  1
  O  O32  1  0.40904050  0.24271950  0.63074000  1
  O  O33  1  0.59095950  0.24271950  0.36926000  1
  O  O34  1  0.84962100  0.91151200  0.11941300  1
  O  O35  1  0.15037900  0.91151200  0.88058700  1
  O  O36  1  0.34175250  0.59697950  0.62357200  1
  O  O37  1  0.65824750  0.59697950  0.37642800  1
  O  O38  1  0.91689450  0.24324750  0.12422000  1
  O  O39  1  0.08310550  0.24324750  0.87578000  1
  O  O40  1  0.87447250  0.42100550  0.62273400  1
  O  O41  1  0.12552750  0.42100550  0.37726600  1
  O  O42  1  0.84844250  0.57303650  0.11059300  1
  O  O43  1  0.15155750  0.57303650  0.88940700  1
  O  O44  1  0.90904050  0.74271950  0.63074000  1
  O  O45  1  0.09095950  0.74271950  0.36926000  1
  O  O46  1  0.34962100  0.41151200  0.11941300  1
  O  O47  1  0.65037900  0.41151200  0.88058700  1
