# generated using pymatgen
data_Li3NiPCO7
_symmetry_space_group_name_H-M   'P 1'
_cell_length_a   4.88149739
_cell_length_b   6.34393402
_cell_length_c   8.53311729
_cell_angle_alpha   90.00000000
_cell_angle_beta   94.09130695
_cell_angle_gamma   90.00000000
_symmetry_Int_Tables_number   1
_chemical_formula_structural   Li3NiPCO7
_chemical_formula_sum   'Li6 Ni2 P2 C2 O14'
_cell_volume   263.57928434
_cell_formula_units_Z   2
loop_
 _symmetry_equiv_pos_site_id
 _symmetry_equiv_pos_as_xyz
  1  'x, y, z'
loop_
 _atom_site_type_symbol
 _atom_site_label
 _atom_site_symmetry_multiplicity
 _atom_site_fract_x
 _atom_site_fract_y
 _atom_site_fract_z
 _atom_site_occupancy
  Li  Li0  1  0.77203700  0.26096850  0.89020150  1
  Li  Li1  1  0.22796300  0.76096850  0.10979850  1
  Li  Li2  1  0.24335050  0.48222000  0.71832000  1
  Li  Li3  1  0.75664950  0.98222000  0.28168000  1
  Li  Li4  1  0.77865050  0.74317450  0.63910900  1
  Li  Li5  1  0.22134950  0.24317450  0.36089100  1
  Ni  Ni6  1  0.25255100  0.99577350  0.73816150  1
  Ni  Ni7  1  0.74744900  0.49577350  0.26183850  1
  P  P8  1  0.72431450  0.24747100  0.59023600  1
  P  P9  1  0.27568550  0.74747100  0.40976400  1
  C  C10  1  0.71466600  0.76313800  0.95559450  1
  C  C11  1  0.28533400  0.26313800  0.04440550  1
  O  O12  1  0.97045300  0.77157650  0.93187850  1
  O  O13  1  0.02954700  0.27157650  0.06812150  1
  O  O14  1  0.36411450  0.23731500  0.89979000  1
  O  O15  1  0.63588550  0.73731500  0.10021000  1
  O  O16  1  0.52639300  0.77573950  0.84120650  1
  O  O17  1  0.47360700  0.27573950  0.15879350  1
  O  O18  1  0.85298150  0.05586050  0.68199500  1
  O  O19  1  0.14701850  0.55586050  0.31800500  1
  O  O20  1  0.82299900  0.44123800  0.68799250  1
  O  O21  1  0.17700100  0.94123800  0.31200750  1
  O  O22  1  0.19498300  0.75027400  0.58224050  1
  O  O23  1  0.80501700  0.25027400  0.41775950  1
  O  O24  1  0.40391050  0.22496500  0.58811500  1
  O  O25  1  0.59608950  0.72496500  0.41188500  1
