# generated using pymatgen
data_Li6MnFe5(BO3)6
_symmetry_space_group_name_H-M   'P 1'
_cell_length_a   16.50711400
_cell_length_b   6.27319000
_cell_length_c   8.24687782
_cell_angle_alpha   90.00000000
_cell_angle_beta   119.90062122
_cell_angle_gamma   90.00000000
_symmetry_Int_Tables_number   1
_chemical_formula_structural   Li6MnFe5(BO3)6
_chemical_formula_sum   'Li12 Mn2 Fe10 B12 O36'
_cell_volume   740.31034661
_cell_formula_units_Z   2
loop_
 _symmetry_equiv_pos_site_id
 _symmetry_equiv_pos_as_xyz
  1  'x, y, z'
loop_
 _atom_site_type_symbol
 _atom_site_label
 _atom_site_symmetry_multiplicity
 _atom_site_fract_x
 _atom_site_fract_y
 _atom_site_fract_z
 _atom_site_occupancy
  Li  Li0  1  0.49190900  0.24920000  0.69805000  1
  Li  Li1  1  0.49190900  0.75080000  0.69805000  1
  Li  Li2  1  0.15098950  0.74921950  0.28485000  1
  Li  Li3  1  0.15098950  0.25078050  0.28485000  1
  Li  Li4  1  0.35708350  0.24998750  0.01588100  1
  Li  Li5  1  0.35708350  0.75001250  0.01588100  1
  Li  Li6  1  0.99190900  0.74920000  0.69805000  1
  Li  Li7  1  0.99190900  0.25080000  0.69805000  1
  Li  Li8  1  0.65098950  0.24921950  0.28485000  1
  Li  Li9  1  0.65098950  0.75078050  0.28485000  1
  Li  Li10  1  0.85708350  0.74998750  0.01588100  1
  Li  Li11  1  0.85708350  0.25001250  0.01588100  1
  Mn  Mn12  1  0.00637300  0.00000000  0.37258000  1
  Mn  Mn13  1  0.50637300  0.50000000  0.37258000  1
  Fe  Fe14  1  0.17961300  0.00000000  0.99208200  1
  Fe  Fe15  1  0.18012100  0.50000000  0.99263200  1
  Fe  Fe16  1  0.00381000  0.50000000  0.36747500  1
  Fe  Fe17  1  0.31639900  0.50000000  0.64051300  1
  Fe  Fe18  1  0.31612600  0.00000000  0.64013900  1
  Fe  Fe19  1  0.67961300  0.50000000  0.99208200  1
  Fe  Fe20  1  0.68012100  0.00000000  0.99263200  1
  Fe  Fe21  1  0.50381000  0.00000000  0.36747500  1
  Fe  Fe22  1  0.81639900  0.00000000  0.64051300  1
  Fe  Fe23  1  0.81612600  0.50000000  0.64013900  1
  B  B24  1  0.33274800  0.75192700  0.33337800  1
  B  B25  1  0.33274800  0.24807300  0.33337800  1
  B  B26  1  0.16753200  0.74845000  0.66780800  1
  B  B27  1  0.16753200  0.25155000  0.66780800  1
  B  B28  1  0.49901700  0.50000000  0.99753600  1
  B  B29  1  0.49992000  0.00000000  0.99986600  1
  B  B30  1  0.83274800  0.25192700  0.33337800  1
  B  B31  1  0.83274800  0.74807300  0.33337800  1
  B  B32  1  0.66753200  0.24845000  0.66780800  1
  B  B33  1  0.66753200  0.75155000  0.66780800  1
  B  B34  1  0.99901700  0.00000000  0.99753600  1
  B  B35  1  0.99992000  0.50000000  0.99986600  1
  O  O36  1  0.45739900  0.00000000  0.80573200  1
  O  O37  1  0.45800800  0.50000000  0.80318900  1
  O  O38  1  0.28967900  0.24973600  0.44173700  1
  O  O39  1  0.28967900  0.75026400  0.44173700  1
  O  O40  1  0.09627600  0.00000000  0.10890700  1
  O  O41  1  0.09700100  0.50000000  0.10899000  1
  O  O42  1  0.42976200  0.75389100  0.41936200  1
  O  O43  1  0.42976200  0.24610900  0.41936200  1
  O  O44  1  0.27875600  0.24970800  0.13889100  1
  O  O45  1  0.27875600  0.75029200  0.13889100  1
  O  O46  1  0.12733450  0.74941950  0.78184600  1
  O  O47  1  0.12733450  0.25058050  0.78184600  1
  O  O48  1  0.44534600  0.00000000  0.08560700  1
  O  O49  1  0.44306300  0.50000000  0.07948300  1
  O  O50  1  0.26432150  0.75037250  0.74700200  1
  O  O51  1  0.26432150  0.24962750  0.74700200  1
  O  O52  1  0.11065850  0.74652450  0.47382800  1
  O  O53  1  0.11065850  0.25347550  0.47382800  1
  O  O54  1  0.95739900  0.50000000  0.80573200  1
  O  O55  1  0.95800800  0.00000000  0.80318900  1
  O  O56  1  0.78967900  0.74973600  0.44173700  1
  O  O57  1  0.78967900  0.25026400  0.44173700  1
  O  O58  1  0.59627600  0.50000000  0.10890700  1
  O  O59  1  0.59700100  0.00000000  0.10899000  1
  O  O60  1  0.92976200  0.25389100  0.41936200  1
  O  O61  1  0.92976200  0.74610900  0.41936200  1
  O  O62  1  0.77875600  0.74970800  0.13889100  1
  O  O63  1  0.77875600  0.25029200  0.13889100  1
  O  O64  1  0.62733450  0.24941950  0.78184600  1
  O  O65  1  0.62733450  0.75058050  0.78184600  1
  O  O66  1  0.94534600  0.50000000  0.08560700  1
  O  O67  1  0.94306300  0.00000000  0.07948300  1
  O  O68  1  0.76432150  0.25037250  0.74700200  1
  O  O69  1  0.76432150  0.74962750  0.74700200  1
  O  O70  1  0.61065850  0.24652450  0.47382800  1
  O  O71  1  0.61065850  0.75347550  0.47382800  1
