# generated using pymatgen
data_Mg9CuO10
_symmetry_space_group_name_H-M   'P 1'
_cell_length_a   13.01979400
_cell_length_b   3.02533400
_cell_length_c   10.01424523
_cell_angle_alpha   90.00000000
_cell_angle_beta   101.48809300
_cell_angle_gamma   90.00000000
_symmetry_Int_Tables_number   1
_chemical_formula_structural   Mg9CuO10
_chemical_formula_sum   'Mg18 Cu2 O20'
_cell_volume   386.55093016
_cell_formula_units_Z   2
loop_
 _symmetry_equiv_pos_site_id
 _symmetry_equiv_pos_as_xyz
  1  'x, y, z'
loop_
 _atom_site_type_symbol
 _atom_site_label
 _atom_site_symmetry_multiplicity
 _atom_site_fract_x
 _atom_site_fract_y
 _atom_site_fract_z
 _atom_site_occupancy
  Mg  Mg0  1  0.00000000  0.00000000  0.00000000  1
  Mg  Mg1  1  0.60100600  0.00000000  0.80156800  1
  Mg  Mg2  1  0.69924900  0.00000000  0.09979700  1
  Mg  Mg3  1  0.59787200  0.50000000  0.29920300  1
  Mg  Mg4  1  0.80075100  0.50000000  0.90020300  1
  Mg  Mg5  1  0.69772000  0.50000000  0.60013200  1
  Mg  Mg6  1  0.90212800  0.00000000  0.70079700  1
  Mg  Mg7  1  0.80228000  0.00000000  0.39986800  1
  Mg  Mg8  1  0.89899400  0.50000000  0.19843200  1
  Mg  Mg9  1  0.50000000  0.50000000  0.00000000  1
  Mg  Mg10  1  0.10100600  0.50000000  0.80156800  1
  Mg  Mg11  1  0.19924900  0.50000000  0.09979700  1
  Mg  Mg12  1  0.09787200  0.00000000  0.29920300  1
  Mg  Mg13  1  0.30075100  0.00000000  0.90020300  1
  Mg  Mg14  1  0.19772000  0.00000000  0.60013200  1
  Mg  Mg15  1  0.40212800  0.50000000  0.70079700  1
  Mg  Mg16  1  0.30228000  0.50000000  0.39986800  1
  Mg  Mg17  1  0.39899400  0.00000000  0.19843200  1
  Cu  Cu18  1  0.00000000  0.50000000  0.50000000  1
  Cu  Cu19  1  0.50000000  0.00000000  0.50000000  1
  O  O20  1  0.95042000  0.50000000  0.85014500  1
  O  O21  1  0.54958000  0.00000000  0.14985500  1
  O  O22  1  0.55301800  0.50000000  0.65790100  1
  O  O23  1  0.94698200  0.00000000  0.34209900  1
  O  O24  1  0.65050000  0.50000000  0.95046600  1
  O  O25  1  0.64915200  0.00000000  0.45012500  1
  O  O26  1  0.75118300  0.00000000  0.74846300  1
  O  O27  1  0.84950000  0.00000000  0.04953400  1
  O  O28  1  0.74881700  0.50000000  0.25153700  1
  O  O29  1  0.85084800  0.50000000  0.54987500  1
  O  O30  1  0.45042000  0.00000000  0.85014500  1
  O  O31  1  0.04958000  0.50000000  0.14985500  1
  O  O32  1  0.05301800  0.00000000  0.65790100  1
  O  O33  1  0.44698200  0.50000000  0.34209900  1
  O  O34  1  0.15050000  0.00000000  0.95046600  1
  O  O35  1  0.14915200  0.50000000  0.45012500  1
  O  O36  1  0.25118300  0.50000000  0.74846300  1
  O  O37  1  0.34950000  0.50000000  0.04953400  1
  O  O38  1  0.24881700  0.00000000  0.25153700  1
  O  O39  1  0.35084800  0.00000000  0.54987500  1
