# generated using pymatgen
data_Li6Ti15Co3O32
_symmetry_space_group_name_H-M   'P 1'
_cell_length_a   11.96476385
_cell_length_b   11.96476385
_cell_length_c   14.70233494
_cell_angle_alpha   90.00000000
_cell_angle_beta   90.00000000
_cell_angle_gamma   120.00000000
_symmetry_Int_Tables_number   1
_chemical_formula_structural   Li6Ti15Co3O32
_chemical_formula_sum   'Li18 Ti45 Co9 O96'
_cell_volume   1822.74202644
_cell_formula_units_Z   3
loop_
 _symmetry_equiv_pos_site_id
 _symmetry_equiv_pos_as_xyz
  1  'x, y, z'
loop_
 _atom_site_type_symbol
 _atom_site_label
 _atom_site_symmetry_multiplicity
 _atom_site_fract_x
 _atom_site_fract_y
 _atom_site_fract_z
 _atom_site_occupancy
  Li  Li0  1  0.33333333  0.66666667  0.91785667  1
  Li  Li1  1  0.50024067  0.00048133  0.24874433  1
  Li  Li2  1  0.33333333  0.66666667  0.66546167  1
  Li  Li3  1  0.50024067  0.49975933  0.24874433  1
  Li  Li4  1  0.99951867  0.49975933  0.24874433  1
  Li  Li5  1  0.33333333  0.66666667  0.29127767  1
  Li  Li6  1  0.00000000  0.00000000  0.25119000  1
  Li  Li7  1  0.16690733  0.33381467  0.58207767  1
  Li  Li8  1  0.00000000  0.00000000  0.99879500  1
  Li  Li9  1  0.16690733  0.83309267  0.58207767  1
  Li  Li10  1  0.66618533  0.83309267  0.58207767  1
  Li  Li11  1  0.00000000  0.00000000  0.62461100  1
  Li  Li12  1  0.66666667  0.33333333  0.58452333  1
  Li  Li13  1  0.83357400  0.66714800  0.91541100  1
  Li  Li14  1  0.66666667  0.33333333  0.33212833  1
  Li  Li15  1  0.83357400  0.16642600  0.91541100  1
  Li  Li16  1  0.33285200  0.16642600  0.91541100  1
  Li  Li17  1  0.66666667  0.33333333  0.95794433  1
  Ti  Ti18  1  0.49548667  0.74774333  0.13016133  1
  Ti  Ti19  1  0.25225667  0.74774333  0.13016133  1
  Ti  Ti20  1  0.75263967  0.75044433  0.12452633  1
  Ti  Ti21  1  0.99780467  0.75044433  0.12452633  1
  Ti  Ti22  1  0.66950533  0.83475267  0.95679267  1
  Ti  Ti23  1  0.24955567  0.00219533  0.12452633  1
  Ti  Ti24  1  0.75263967  0.00219533  0.12452633  1
  Ti  Ti25  1  0.16524733  0.83475267  0.95679267  1
  Ti  Ti26  1  0.24955567  0.24736033  0.12452633  1
  Ti  Ti27  1  0.16875667  0.58437833  0.45628233  1
  Ti  Ti28  1  0.99780467  0.24736033  0.12452633  1
  Ti  Ti29  1  0.41562167  0.58437833  0.45628233  1
  Ti  Ti30  1  0.25225667  0.50451333  0.13016133  1
  Ti  Ti31  1  0.16524733  0.33049467  0.95679267  1
  Ti  Ti32  1  0.41562167  0.83124333  0.45628233  1
  Ti  Ti33  1  0.16215333  0.08107667  0.46349467  1
  Ti  Ti34  1  0.91892333  0.08107667  0.46349467  1
  Ti  Ti35  1  0.41930633  0.08377767  0.45785967  1
  Ti  Ti36  1  0.66447133  0.08377767  0.45785967  1
  Ti  Ti37  1  0.33617200  0.16808600  0.29012600  1
  Ti  Ti38  1  0.91622233  0.33552867  0.45785967  1
  Ti  Ti39  1  0.41930633  0.33552867  0.45785967  1
  Ti  Ti40  1  0.83191400  0.16808600  0.29012600  1
  Ti  Ti41  1  0.91622233  0.58069367  0.45785967  1
  Ti  Ti42  1  0.83542333  0.91771167  0.78961567  1
  Ti  Ti43  1  0.66447133  0.58069367  0.45785967  1
  Ti  Ti44  1  0.08228833  0.91771167  0.78961567  1
  Ti  Ti45  1  0.91892333  0.83784667  0.46349467  1
  Ti  Ti46  1  0.83191400  0.66382800  0.29012600  1
  Ti  Ti47  1  0.08228833  0.16457667  0.78961567  1
  Ti  Ti48  1  0.82882000  0.41441000  0.79682800  1
  Ti  Ti49  1  0.58559000  0.41441000  0.79682800  1
  Ti  Ti50  1  0.08597300  0.41711100  0.79119300  1
  Ti  Ti51  1  0.33113800  0.41711100  0.79119300  1
  Ti  Ti52  1  0.00283867  0.50141933  0.62345933  1
  Ti  Ti53  1  0.58288900  0.66886200  0.79119300  1
  Ti  Ti54  1  0.08597300  0.66886200  0.79119300  1
  Ti  Ti55  1  0.49858067  0.50141933  0.62345933  1
  Ti  Ti56  1  0.58288900  0.91402700  0.79119300  1
  Ti  Ti57  1  0.50209000  0.25104500  0.12294900  1
  Ti  Ti58  1  0.33113800  0.91402700  0.79119300  1
  Ti  Ti59  1  0.74895500  0.25104500  0.12294900  1
  Ti  Ti60  1  0.58559000  0.17118000  0.79682800  1
  Ti  Ti61  1  0.49858067  0.99716133  0.62345933  1
  Ti  Ti62  1  0.74895500  0.49791000  0.12294900  1
  Co  Co63  1  0.99946933  0.49973467  0.00084367  1
  Co  Co64  1  0.50026533  0.00053067  0.00084367  1
  Co  Co65  1  0.50026533  0.49973467  0.00084367  1
  Co  Co66  1  0.66613600  0.83306800  0.33417700  1
  Co  Co67  1  0.16693200  0.33386400  0.33417700  1
  Co  Co68  1  0.16693200  0.83306800  0.33417700  1
  Co  Co69  1  0.33280267  0.16640133  0.66751033  1
  Co  Co70  1  0.83359867  0.66719733  0.66751033  1
  Co  Co71  1  0.83359867  0.16640133  0.66751033  1
  O  O72  1  0.50004700  0.00009400  0.38636800  1
  O  O73  1  0.33333333  0.66666667  0.05415767  1
  O  O74  1  0.24233133  0.48466267  0.87107667  1
  O  O75  1  0.16699200  0.83300800  0.19904900  1
  O  O76  1  0.41180233  0.82360467  0.19732167  1
  O  O77  1  0.66601600  0.83300800  0.19904900  1
  O  O78  1  0.09245233  0.68321567  0.04495067  1
  O  O79  1  0.59076333  0.68321567  0.04495067  1
  O  O80  1  0.09173600  0.90826400  0.04611500  1
  O  O81  1  0.59076333  0.90754767  0.04495067  1
  O  O82  1  0.31678433  0.90754767  0.04495067  1
  O  O83  1  0.24233133  0.75766867  0.87107667  1
  O  O84  1  0.81652800  0.90826400  0.04611500  1
  O  O85  1  0.40849000  0.09254900  0.20456600  1
  O  O86  1  0.68405900  0.09254900  0.20456600  1
  O  O87  1  0.51533733  0.75766867  0.87107667  1
  O  O88  1  0.90745100  0.31594100  0.20456600  1
  O  O89  1  0.40849000  0.31594100  0.20456600  1
  O  O90  1  0.50004700  0.49995300  0.38636800  1
  O  O91  1  0.25449900  0.50899800  0.38471100  1
  O  O92  1  0.99990600  0.49995300  0.38636800  1
  O  O93  1  0.09173600  0.18347200  0.04611500  1
  O  O94  1  0.33333333  0.66666667  0.52892767  1
  O  O95  1  0.16699200  0.33398400  0.19904900  1
  O  O96  1  0.49100200  0.74550100  0.38471100  1
  O  O97  1  0.31678433  0.40923667  0.04495067  1
  O  O98  1  0.25449900  0.74550100  0.38471100  1
  O  O99  1  0.68405900  0.59151000  0.20456600  1
  O  O100  1  0.09245233  0.40923667  0.04495067  1
  O  O101  1  0.17639533  0.58819767  0.19732167  1
  O  O102  1  0.90745100  0.59151000  0.20456600  1
  O  O103  1  0.41180233  0.58819767  0.19732167  1
  O  O104  1  0.16671367  0.33342733  0.71970133  1
  O  O105  1  0.00000000  0.00000000  0.38749100  1
  O  O106  1  0.90899800  0.81799600  0.20441000  1
  O  O107  1  0.83365867  0.16634133  0.53238233  1
  O  O108  1  0.07846900  0.15693800  0.53065500  1
  O  O109  1  0.33268267  0.16634133  0.53238233  1
  O  O110  1  0.75911900  0.01654900  0.37828400  1
  O  O111  1  0.25743000  0.01654900  0.37828400  1
  O  O112  1  0.75840267  0.24159733  0.37944833  1
  O  O113  1  0.25743000  0.24088100  0.37828400  1
  O  O114  1  0.98345100  0.24088100  0.37828400  1
  O  O115  1  0.90899800  0.09100200  0.20441000  1
  O  O116  1  0.48319467  0.24159733  0.37944833  1
  O  O117  1  0.07515667  0.42588233  0.53789933  1
  O  O118  1  0.35072567  0.42588233  0.53789933  1
  O  O119  1  0.18200400  0.09100200  0.20441000  1
  O  O120  1  0.57411767  0.64927433  0.53789933  1
  O  O121  1  0.07515667  0.64927433  0.53789933  1
  O  O122  1  0.16671367  0.83328633  0.71970133  1
  O  O123  1  0.92116567  0.84233133  0.71804433  1
  O  O124  1  0.66657267  0.83328633  0.71970133  1
  O  O125  1  0.75840267  0.51680533  0.37944833  1
  O  O126  1  0.00000000  0.00000000  0.86226100  1
  O  O127  1  0.83365867  0.66731733  0.53238233  1
  O  O128  1  0.15766867  0.07883433  0.71804433  1
  O  O129  1  0.98345100  0.74257000  0.37828400  1
  O  O130  1  0.92116567  0.07883433  0.71804433  1
  O  O131  1  0.35072567  0.92484333  0.53789933  1
  O  O132  1  0.75911900  0.74257000  0.37828400  1
  O  O133  1  0.84306200  0.92153100  0.53065500  1
  O  O134  1  0.57411767  0.92484333  0.53789933  1
  O  O135  1  0.07846900  0.92153100  0.53065500  1
  O  O136  1  0.83338033  0.66676067  0.05303467  1
  O  O137  1  0.66666667  0.33333333  0.72082433  1
  O  O138  1  0.57566467  0.15132933  0.53774333  1
  O  O139  1  0.50032533  0.49967467  0.86571567  1
  O  O140  1  0.74513567  0.49027133  0.86398833  1
  O  O141  1  0.99934933  0.49967467  0.86571567  1
  O  O142  1  0.42578567  0.34988233  0.71161733  1
  O  O143  1  0.92409667  0.34988233  0.71161733  1
  O  O144  1  0.42506933  0.57493067  0.71278167  1
  O  O145  1  0.92409667  0.57421433  0.71161733  1
  O  O146  1  0.65011767  0.57421433  0.71161733  1
  O  O147  1  0.57566467  0.42433533  0.53774333  1
  O  O148  1  0.14986133  0.57493067  0.71278167  1
  O  O149  1  0.74182333  0.75921567  0.87123267  1
  O  O150  1  0.01739233  0.75921567  0.87123267  1
  O  O151  1  0.84867067  0.42433533  0.53774333  1
  O  O152  1  0.24078433  0.98260767  0.87123267  1
  O  O153  1  0.74182333  0.98260767  0.87123267  1
  O  O154  1  0.83338033  0.16661967  0.05303467  1
  O  O155  1  0.58783233  0.17566467  0.05137767  1
  O  O156  1  0.33323933  0.16661967  0.05303467  1
  O  O157  1  0.42506933  0.85013867  0.71278167  1
  O  O158  1  0.66666667  0.33333333  0.19559433  1
  O  O159  1  0.50032533  0.00065067  0.86571567  1
  O  O160  1  0.82433533  0.41216767  0.05137767  1
  O  O161  1  0.65011767  0.07590333  0.71161733  1
  O  O162  1  0.58783233  0.41216767  0.05137767  1
  O  O163  1  0.01739233  0.25817667  0.87123267  1
  O  O164  1  0.42578567  0.07590333  0.71161733  1
  O  O165  1  0.50972867  0.25486433  0.86398833  1
  O  O166  1  0.24078433  0.25817667  0.87123267  1
  O  O167  1  0.74513567  0.25486433  0.86398833  1
