# generated using pymatgen
data_Fe3O5F
_symmetry_space_group_name_H-M   'P 1'
_cell_length_a   9.05305400
_cell_length_b   6.42196200
_cell_length_c   7.30370107
_cell_angle_alpha   90.00000000
_cell_angle_beta   113.67615589
_cell_angle_gamma   90.00000000
_symmetry_Int_Tables_number   1
_chemical_formula_structural   Fe3O5F
_chemical_formula_sum   'Fe12 O20 F4'
_cell_volume   388.88446738
_cell_formula_units_Z   4
loop_
 _symmetry_equiv_pos_site_id
 _symmetry_equiv_pos_as_xyz
  1  'x, y, z'
loop_
 _atom_site_type_symbol
 _atom_site_label
 _atom_site_symmetry_multiplicity
 _atom_site_fract_x
 _atom_site_fract_y
 _atom_site_fract_z
 _atom_site_occupancy
  Fe  Fe0  1  0.83039300  0.50000000  0.83585800  1
  Fe  Fe1  1  0.15162200  0.50000000  0.67091200  1
  Fe  Fe2  1  0.84837800  0.50000000  0.32908800  1
  Fe  Fe3  1  0.16960700  0.50000000  0.16414200  1
  Fe  Fe4  1  0.00000000  0.00000000  0.50000000  1
  Fe  Fe5  1  0.00000000  0.00000000  0.00000000  1
  Fe  Fe6  1  0.33039300  0.00000000  0.83585800  1
  Fe  Fe7  1  0.65162200  0.00000000  0.67091200  1
  Fe  Fe8  1  0.34837800  0.00000000  0.32908800  1
  Fe  Fe9  1  0.66960700  0.00000000  0.16414200  1
  Fe  Fe10  1  0.50000000  0.50000000  0.50000000  1
  Fe  Fe11  1  0.50000000  0.50000000  0.00000000  1
  O  O12  1  0.16187050  0.19216850  0.66938900  1
  O  O13  1  0.83812950  0.19216850  0.33061100  1
  O  O14  1  0.27164700  0.50000000  0.95840900  1
  O  O15  1  0.92494000  0.50000000  0.62099500  1
  O  O16  1  0.72835300  0.50000000  0.04159100  1
  O  O17  1  0.07506000  0.50000000  0.37900500  1
  O  O18  1  0.83812950  0.80783150  0.33061100  1
  O  O19  1  0.16187050  0.80783150  0.66938900  1
  O  O20  1  0.00000000  0.30480100  0.00000000  1
  O  O21  1  0.00000000  0.69519900  0.00000000  1
  O  O22  1  0.66187050  0.69216850  0.66938900  1
  O  O23  1  0.33812950  0.69216850  0.33061100  1
  O  O24  1  0.77164700  0.00000000  0.95840900  1
  O  O25  1  0.42494000  0.00000000  0.62099500  1
  O  O26  1  0.22835300  0.00000000  0.04159100  1
  O  O27  1  0.57506000  0.00000000  0.37900500  1
  O  O28  1  0.33812950  0.30783150  0.33061100  1
  O  O29  1  0.66187050  0.30783150  0.66938900  1
  O  O30  1  0.50000000  0.80480100  0.00000000  1
  O  O31  1  0.50000000  0.19519900  0.00000000  1
  F  F32  1  0.60603700  0.50000000  0.30221000  1
  F  F33  1  0.39396300  0.50000000  0.69779000  1
  F  F34  1  0.10603700  0.00000000  0.30221000  1
  F  F35  1  0.89396300  0.00000000  0.69779000  1
