# generated using pymatgen
data_NaV5O8
_symmetry_space_group_name_H-M   'P 1'
_cell_length_a   10.62165200
_cell_length_b   3.00320000
_cell_length_c   10.63911960
_cell_angle_alpha   90.00000000
_cell_angle_beta   102.96088724
_cell_angle_gamma   90.00000000
_symmetry_Int_Tables_number   1
_chemical_formula_structural   NaV5O8
_chemical_formula_sum   'Na2 V10 O16'
_cell_volume   330.73052955
_cell_formula_units_Z   2
loop_
 _symmetry_equiv_pos_site_id
 _symmetry_equiv_pos_as_xyz
  1  'x, y, z'
loop_
 _atom_site_type_symbol
 _atom_site_label
 _atom_site_symmetry_multiplicity
 _atom_site_fract_x
 _atom_site_fract_y
 _atom_site_fract_z
 _atom_site_occupancy
  Na  Na0  1  0.00000000  0.49051400  0.00000000  1
  Na  Na1  1  0.50000000  0.99051400  0.00000000  1
  V  V2  1  0.76296650  0.48193550  0.12694400  1
  V  V3  1  0.76456100  0.49753700  0.63223600  1
  V  V4  1  0.00000000  0.49401000  0.50000000  1
  V  V5  1  0.73703350  0.98193550  0.87305600  1
  V  V6  1  0.73543900  0.99753700  0.36776400  1
  V  V7  1  0.26296650  0.98193550  0.12694400  1
  V  V8  1  0.26456100  0.99753700  0.63223600  1
  V  V9  1  0.50000000  0.99401000  0.50000000  1
  V  V10  1  0.23703350  0.48193550  0.87305600  1
  V  V11  1  0.23543900  0.49753700  0.36776400  1
  O  O12  1  0.64475450  0.48649950  0.93623300  1
  O  O13  1  0.83832800  0.51130000  0.81618600  1
  O  O14  1  0.62875500  0.49033200  0.44941100  1
  O  O15  1  0.84775950  0.48885150  0.32997300  1
  O  O16  1  0.66167200  0.01130000  0.18381400  1
  O  O17  1  0.65224050  0.98885150  0.67002700  1
  O  O18  1  0.85524550  0.98649950  0.06376700  1
  O  O19  1  0.87124500  0.99033200  0.55058900  1
  O  O20  1  0.14475450  0.98649950  0.93623300  1
  O  O21  1  0.33832800  0.01130000  0.81618600  1
  O  O22  1  0.12875500  0.99033200  0.44941100  1
  O  O23  1  0.34775950  0.98885150  0.32997300  1
  O  O24  1  0.16167200  0.51130000  0.18381400  1
  O  O25  1  0.15224050  0.48885150  0.67002700  1
  O  O26  1  0.35524550  0.48649950  0.06376700  1
  O  O27  1  0.37124500  0.49033200  0.55058900  1
