# generated using pymatgen
data_Li4Fe3Cu3(SbO8)2
_symmetry_space_group_name_H-M   'P 1'
_cell_length_a   10.36889245
_cell_length_b   5.96076888
_cell_length_c   9.73722480
_cell_angle_alpha   90.00000000
_cell_angle_beta   90.45721553
_cell_angle_gamma   90.00000000
_symmetry_Int_Tables_number   1
_chemical_formula_structural   Li4Fe3Cu3(SbO8)2
_chemical_formula_sum   'Li8 Fe6 Cu6 Sb4 O32'
_cell_volume   601.80531904
_cell_formula_units_Z   2
loop_
 _symmetry_equiv_pos_site_id
 _symmetry_equiv_pos_as_xyz
  1  'x, y, z'
loop_
 _atom_site_type_symbol
 _atom_site_label
 _atom_site_symmetry_multiplicity
 _atom_site_fract_x
 _atom_site_fract_y
 _atom_site_fract_z
 _atom_site_occupancy
  Li  Li0  1  0.16066850  0.50000000  0.09400900  1
  Li  Li1  1  0.49972000  0.50000000  0.00951400  1
  Li  Li2  1  0.00481350  0.00000000  0.51253900  1
  Li  Li3  1  0.33608900  0.00000000  0.59616000  1
  Li  Li4  1  0.66066850  0.00000000  0.09400900  1
  Li  Li5  1  0.99972000  0.00000000  0.00951400  1
  Li  Li6  1  0.50481350  0.50000000  0.51253900  1
  Li  Li7  1  0.83608900  0.50000000  0.59616000  1
  Fe  Fe8  1  0.33035100  0.50000000  0.78669300  1
  Fe  Fe9  1  0.41514050  0.24539750  0.28617200  1
  Fe  Fe10  1  0.41514050  0.75460250  0.28617200  1
  Fe  Fe11  1  0.83035100  0.00000000  0.78669300  1
  Fe  Fe12  1  0.91514050  0.74539750  0.28617200  1
  Fe  Fe13  1  0.91514050  0.25460250  0.28617200  1
  Cu  Cu14  1  0.08687150  0.74587550  0.78668100  1
  Cu  Cu15  1  0.08687150  0.25412450  0.78668100  1
  Cu  Cu16  1  0.17105950  0.00000000  0.28783100  1
  Cu  Cu17  1  0.58687150  0.24587550  0.78668100  1
  Cu  Cu18  1  0.58687150  0.75412450  0.78668100  1
  Cu  Cu19  1  0.67105950  0.50000000  0.28783100  1
  Sb  Sb20  1  0.16938800  0.50000000  0.51349100  1
  Sb  Sb21  1  0.33035000  0.00000000  0.01306000  1
  Sb  Sb22  1  0.66938800  0.00000000  0.51349100  1
  Sb  Sb23  1  0.83035000  0.50000000  0.01306000  1
  O  O24  1  0.08121050  0.74822350  0.40712300  1
  O  O25  1  0.02117050  0.50000000  0.65535000  1
  O  O26  1  0.16339600  0.50000000  0.88672700  1
  O  O27  1  0.00427700  0.00000000  0.70234400  1
  O  O28  1  0.00384650  0.00000000  0.19860900  1
  O  O29  1  0.08121050  0.25177650  0.40712300  1
  O  O30  1  0.24777700  0.72276200  0.65041100  1
  O  O31  1  0.24777700  0.27723800  0.65041100  1
  O  O32  1  0.16139300  0.00000000  0.90691000  1
  O  O33  1  0.33421750  0.50000000  0.40351300  1
  O  O34  1  0.25788150  0.22651650  0.15330100  1
  O  O35  1  0.25788150  0.77348350  0.15330100  1
  O  O36  1  0.33288700  0.00000000  0.39145800  1
  O  O37  1  0.41045800  0.25293100  0.90688600  1
  O  O38  1  0.48020100  0.00000000  0.15272700  1
  O  O39  1  0.41045800  0.74706900  0.90688600  1
  O  O40  1  0.58121050  0.24822350  0.40712300  1
  O  O41  1  0.52117050  0.00000000  0.65535000  1
  O  O42  1  0.66339600  0.00000000  0.88672700  1
  O  O43  1  0.50427700  0.50000000  0.70234400  1
  O  O44  1  0.50384650  0.50000000  0.19860900  1
  O  O45  1  0.58121050  0.75177650  0.40712300  1
  O  O46  1  0.74777700  0.22276200  0.65041100  1
  O  O47  1  0.74777700  0.77723800  0.65041100  1
  O  O48  1  0.66139300  0.50000000  0.90691000  1
  O  O49  1  0.83421750  0.00000000  0.40351300  1
  O  O50  1  0.75788150  0.72651650  0.15330100  1
  O  O51  1  0.75788150  0.27348350  0.15330100  1
  O  O52  1  0.83288700  0.50000000  0.39145800  1
  O  O53  1  0.91045800  0.75293100  0.90688600  1
  O  O54  1  0.98020100  0.50000000  0.15272700  1
  O  O55  1  0.91045800  0.24706900  0.90688600  1
