# generated using pymatgen
data_Fe4O7F
_symmetry_space_group_name_H-M   'P 1'
_cell_length_a   9.02016600
_cell_length_b   6.44441400
_cell_length_c   8.94174260
_cell_angle_alpha   90.00000000
_cell_angle_beta   96.38526363
_cell_angle_gamma   90.00000000
_symmetry_Int_Tables_number   1
_chemical_formula_structural   Fe4O7F
_chemical_formula_sum   'Fe16 O28 F4'
_cell_volume   516.55624190
_cell_formula_units_Z   4
loop_
 _symmetry_equiv_pos_site_id
 _symmetry_equiv_pos_as_xyz
  1  'x, y, z'
loop_
 _atom_site_type_symbol
 _atom_site_label
 _atom_site_symmetry_multiplicity
 _atom_site_fract_x
 _atom_site_fract_y
 _atom_site_fract_z
 _atom_site_occupancy
  Fe  Fe0  1  0.13730200  0.00000000  0.61284800  1
  Fe  Fe1  1  0.36958100  0.00000000  0.87731400  1
  Fe  Fe2  1  0.50000000  0.00000000  0.50000000  1
  Fe  Fe3  1  0.26636400  0.00000000  0.24516600  1
  Fe  Fe4  1  0.73363600  0.00000000  0.75483400  1
  Fe  Fe5  1  0.63041900  0.00000000  0.12268600  1
  Fe  Fe6  1  0.86269800  0.00000000  0.38715200  1
  Fe  Fe7  1  0.00000000  0.00000000  0.00000000  1
  Fe  Fe8  1  0.63730200  0.50000000  0.61284800  1
  Fe  Fe9  1  0.86958100  0.50000000  0.87731400  1
  Fe  Fe10  1  0.00000000  0.50000000  0.50000000  1
  Fe  Fe11  1  0.76636400  0.50000000  0.24516600  1
  Fe  Fe12  1  0.23363600  0.50000000  0.75483400  1
  Fe  Fe13  1  0.13041900  0.50000000  0.12268600  1
  Fe  Fe14  1  0.36269800  0.50000000  0.38715200  1
  Fe  Fe15  1  0.50000000  0.50000000  0.00000000  1
  O  O16  1  0.24608000  0.80571500  0.74995700  1
  O  O17  1  0.50000000  0.68718000  0.50000000  1
  O  O18  1  0.24608000  0.19428500  0.74995700  1
  O  O19  1  0.28850900  0.00000000  0.46691200  1
  O  O20  1  0.51601700  0.00000000  0.71487900  1
  O  O21  1  0.78141200  0.00000000  0.96960300  1
  O  O22  1  0.48398300  0.00000000  0.28512100  1
  O  O23  1  0.21858800  0.00000000  0.03039700  1
  O  O24  1  0.71149100  0.00000000  0.53308800  1
  O  O25  1  0.75392000  0.80571500  0.25004300  1
  O  O26  1  0.50000000  0.31282000  0.50000000  1
  O  O27  1  0.50000000  0.80746100  0.00000000  1
  O  O28  1  0.75392000  0.19428500  0.25004300  1
  O  O29  1  0.50000000  0.19253900  0.00000000  1
  O  O30  1  0.74608000  0.30571500  0.74995700  1
  O  O31  1  0.00000000  0.18718000  0.50000000  1
  O  O32  1  0.74608000  0.69428500  0.74995700  1
  O  O33  1  0.78850900  0.50000000  0.46691200  1
  O  O34  1  0.01601700  0.50000000  0.71487900  1
  O  O35  1  0.28141200  0.50000000  0.96960300  1
  O  O36  1  0.98398300  0.50000000  0.28512100  1
  O  O37  1  0.71858800  0.50000000  0.03039700  1
  O  O38  1  0.21149100  0.50000000  0.53308800  1
  O  O39  1  0.25392000  0.30571500  0.25004300  1
  O  O40  1  0.00000000  0.81282000  0.50000000  1
  O  O41  1  0.00000000  0.30746100  0.00000000  1
  O  O42  1  0.25392000  0.69428500  0.25004300  1
  O  O43  1  0.00000000  0.69253900  0.00000000  1
  F  F44  1  0.02739200  0.00000000  0.22662900  1
  F  F45  1  0.97260800  0.00000000  0.77337100  1
  F  F46  1  0.52739200  0.50000000  0.22662900  1
  F  F47  1  0.47260800  0.50000000  0.77337100  1
