# generated using pymatgen
data_SmTh4O10
_symmetry_space_group_name_H-M   'P 1'
_cell_length_a   8.87007600
_cell_length_b   8.87007600
_cell_length_c   5.61164200
_cell_angle_alpha   90.00000000
_cell_angle_beta   90.00000000
_cell_angle_gamma   90.00000000
_symmetry_Int_Tables_number   1
_chemical_formula_structural   SmTh4O10
_chemical_formula_sum   'Sm2 Th8 O20'
_cell_volume   441.51416234
_cell_formula_units_Z   2
loop_
 _symmetry_equiv_pos_site_id
 _symmetry_equiv_pos_as_xyz
  1  'x, y, z'
loop_
 _atom_site_type_symbol
 _atom_site_label
 _atom_site_symmetry_multiplicity
 _atom_site_fract_x
 _atom_site_fract_y
 _atom_site_fract_z
 _atom_site_occupancy
  Sm  Sm0  1  0.00000000  0.00000000  0.50000000  1
  Sm  Sm1  1  0.50000000  0.50000000  0.00000000  1
  Th  Th2  1  0.39920200  0.79863700  0.50000000  1
  Th  Th3  1  0.60079800  0.20136300  0.50000000  1
  Th  Th4  1  0.70136300  0.89920200  0.00000000  1
  Th  Th5  1  0.29863700  0.10079800  0.00000000  1
  Th  Th6  1  0.89920200  0.29863700  0.00000000  1
  Th  Th7  1  0.10079800  0.70136300  0.00000000  1
  Th  Th8  1  0.20136300  0.39920200  0.50000000  1
  Th  Th9  1  0.79863700  0.60079800  0.50000000  1
  O  O10  1  0.20178950  0.89957750  0.24761250  1
  O  O11  1  0.20178950  0.89957750  0.75238750  1
  O  O12  1  0.39957750  0.29821050  0.74761250  1
  O  O13  1  0.39957750  0.29821050  0.25238750  1
  O  O14  1  0.50000000  0.00000000  0.75000000  1
  O  O15  1  0.50000000  0.00000000  0.25000000  1
  O  O16  1  0.79821050  0.10042250  0.75238750  1
  O  O17  1  0.79821050  0.10042250  0.24761250  1
  O  O18  1  0.60042250  0.70178950  0.74761250  1
  O  O19  1  0.60042250  0.70178950  0.25238750  1
  O  O20  1  0.70178950  0.39957750  0.74761250  1
  O  O21  1  0.70178950  0.39957750  0.25238750  1
  O  O22  1  0.89957750  0.79821050  0.24761250  1
  O  O23  1  0.89957750  0.79821050  0.75238750  1
  O  O24  1  0.00000000  0.50000000  0.25000000  1
  O  O25  1  0.00000000  0.50000000  0.75000000  1
  O  O26  1  0.29821050  0.60042250  0.25238750  1
  O  O27  1  0.29821050  0.60042250  0.74761250  1
  O  O28  1  0.10042250  0.20178950  0.24761250  1
  O  O29  1  0.10042250  0.20178950  0.75238750  1
