# generated using pymatgen
data_V3Sb2(PO4)6
_symmetry_space_group_name_H-M   'P 1'
_cell_length_a   8.62670641
_cell_length_b   8.62670641
_cell_length_c   22.41809680
_cell_angle_alpha   90.00000000
_cell_angle_beta   90.00000000
_cell_angle_gamma   120.00000000
_symmetry_Int_Tables_number   1
_chemical_formula_structural   V3Sb2(PO4)6
_chemical_formula_sum   'V9 Sb6 P18 O72'
_cell_volume   1444.83884185
_cell_formula_units_Z   3
loop_
 _symmetry_equiv_pos_site_id
 _symmetry_equiv_pos_as_xyz
  1  'x, y, z'
loop_
 _atom_site_type_symbol
 _atom_site_label
 _atom_site_symmetry_multiplicity
 _atom_site_fract_x
 _atom_site_fract_y
 _atom_site_fract_z
 _atom_site_occupancy
  V  V0  1  0.33333333  0.66666667  0.01738100  1
  V  V1  1  0.00000000  0.00000000  0.14143733  1
  V  V2  1  0.66666667  0.33333333  0.00090267  1
  V  V3  1  0.00000000  0.00000000  0.35071433  1
  V  V4  1  0.66666667  0.33333333  0.47477067  1
  V  V5  1  0.33333333  0.66666667  0.33423600  1
  V  V6  1  0.66666667  0.33333333  0.68404767  1
  V  V7  1  0.33333333  0.66666667  0.80810400  1
  V  V8  1  0.00000000  0.00000000  0.66756933  1
  Sb  Sb9  1  0.66666667  0.33333333  0.29858533  1
  Sb  Sb10  1  0.33333333  0.66666667  0.18449333  1
  Sb  Sb11  1  0.33333333  0.66666667  0.63191867  1
  Sb  Sb12  1  0.00000000  0.00000000  0.51782667  1
  Sb  Sb13  1  0.00000000  0.00000000  0.96525200  1
  Sb  Sb14  1  0.66666667  0.33333333  0.85116000  1
  P  P15  1  0.36024100  0.34638600  0.08995300  1
  P  P16  1  0.65361400  0.01385500  0.08995300  1
  P  P17  1  0.98614500  0.63975900  0.08995300  1
  P  P18  1  0.71153533  0.72488767  0.24678567  1
  P  P19  1  0.01335233  0.28846467  0.24678567  1
  P  P20  1  0.27511233  0.98664767  0.24678567  1
  P  P21  1  0.02690767  0.67971933  0.42328633  1
  P  P22  1  0.32028067  0.34718833  0.42328633  1
  P  P23  1  0.65281167  0.97309233  0.42328633  1
  P  P24  1  0.37820200  0.05822100  0.58011900  1
  P  P25  1  0.68001900  0.62179800  0.58011900  1
  P  P26  1  0.94177900  0.31998100  0.58011900  1
  P  P27  1  0.69357433  0.01305267  0.75661967  1
  P  P28  1  0.98694733  0.68052167  0.75661967  1
  P  P29  1  0.31947833  0.30642567  0.75661967  1
  P  P30  1  0.04486867  0.39155433  0.91345233  1
  P  P31  1  0.34668567  0.95513133  0.91345233  1
  P  P32  1  0.60844567  0.65331433  0.91345233  1
  O  O33  1  0.67021267  0.14569933  0.03641933  1
  O  O34  1  0.85430067  0.52451333  0.03641933  1
  O  O35  1  0.47548667  0.32978733  0.03641933  1
  O  O36  1  0.19685300  0.15291700  0.09056900  1
  O  O37  1  0.45746467  0.42111333  0.14715133  1
  O  O38  1  0.28696900  0.46602100  0.06506200  1
  O  O39  1  0.84708300  0.04393600  0.09056900  1
  O  O40  1  0.53397900  0.82094800  0.06506200  1
  O  O41  1  0.79045967  0.82339833  0.18851333  1
  O  O42  1  0.17905200  0.71303100  0.06506200  1
  O  O43  1  0.71307933  0.54547267  0.24804967  1
  O  O44  1  0.03293867  0.20954033  0.18851333  1
  O  O45  1  0.57888667  0.03635133  0.14715133  1
  O  O46  1  0.95606400  0.80314700  0.09056900  1
  O  O47  1  0.50937000  0.67951000  0.25199000  1
  O  O48  1  0.96364867  0.54253533  0.14715133  1
  O  O49  1  0.17014000  0.49063000  0.25199000  1
  O  O50  1  0.83239333  0.28692067  0.24804967  1
  O  O51  1  0.32049000  0.82986000  0.25199000  1
  O  O52  1  0.17660167  0.96706133  0.18851333  1
  O  O53  1  0.45452733  0.16760667  0.24804967  1
  O  O54  1  0.16402400  0.96362400  0.30211000  1
  O  O55  1  0.79960000  0.83597600  0.30211000  1
  O  O56  1  0.03637600  0.20040000  0.30211000  1
  O  O57  1  0.33687933  0.47903267  0.36975267  1
  O  O58  1  0.52096733  0.85784667  0.36975267  1
  O  O59  1  0.14215333  0.66312067  0.36975267  1
  O  O60  1  0.86351967  0.48625033  0.42390233  1
  O  O61  1  0.12413133  0.75444667  0.48048467  1
  O  O62  1  0.95363567  0.79935433  0.39839533  1
  O  O63  1  0.51374967  0.37726933  0.42390233  1
  O  O64  1  0.20064567  0.15428133  0.39839533  1
  O  O65  1  0.45712633  0.15673167  0.52184667  1
  O  O66  1  0.84571867  0.04636433  0.39839533  1
  O  O67  1  0.37974600  0.87880600  0.58138300  1
  O  O68  1  0.69960533  0.54287367  0.52184667  1
  O  O69  1  0.24555333  0.36968467  0.48048467  1
  O  O70  1  0.62273067  0.13648033  0.42390233  1
  O  O71  1  0.17603667  0.01284333  0.58532333  1
  O  O72  1  0.63031533  0.87586867  0.48048467  1
  O  O73  1  0.83680667  0.82396333  0.58532333  1
  O  O74  1  0.49906000  0.62025400  0.58138300  1
  O  O75  1  0.98715667  0.16319333  0.58532333  1
  O  O76  1  0.84326833  0.30039467  0.52184667  1
  O  O77  1  0.12119400  0.50094000  0.58138300  1
  O  O78  1  0.83069067  0.29695733  0.63544333  1
  O  O79  1  0.46626667  0.16930933  0.63544333  1
  O  O80  1  0.70304267  0.53373333  0.63544333  1
  O  O81  1  0.00354600  0.81236600  0.70308600  1
  O  O82  1  0.18763400  0.19118000  0.70308600  1
  O  O83  1  0.80882000  0.99645400  0.70308600  1
  O  O84  1  0.53018633  0.81958367  0.75723567  1
  O  O85  1  0.79079800  0.08778000  0.81381800  1
  O  O86  1  0.62030233  0.13268767  0.73172867  1
  O  O87  1  0.18041633  0.71060267  0.75723567  1
  O  O88  1  0.86731233  0.48761467  0.73172867  1
  O  O89  1  0.12379300  0.49006500  0.85518000  1
  O  O90  1  0.51238533  0.37969767  0.73172867  1
  O  O91  1  0.04641267  0.21213933  0.91471633  1
  O  O92  1  0.36627200  0.87620700  0.85518000  1
  O  O93  1  0.91222000  0.70301800  0.81381800  1
  O  O94  1  0.28939733  0.46981367  0.75723567  1
  O  O95  1  0.84270333  0.34617667  0.91865667  1
  O  O96  1  0.29698200  0.20920200  0.81381800  1
  O  O97  1  0.50347333  0.15729667  0.91865667  1
  O  O98  1  0.16572667  0.95358733  0.91471633  1
  O  O99  1  0.65382333  0.49652667  0.91865667  1
  O  O100  1  0.50993500  0.63372800  0.85518000  1
  O  O101  1  0.78786067  0.83427333  0.91471633  1
  O  O102  1  0.49735733  0.63029067  0.96877667  1
  O  O103  1  0.13293333  0.50264267  0.96877667  1
  O  O104  1  0.36970933  0.86706667  0.96877667  1
