# generated using pymatgen
data_V2Fe3P6WO24
_symmetry_space_group_name_H-M   'P 1'
_cell_length_a   8.67160464
_cell_length_b   8.67160464
_cell_length_c   21.05630827
_cell_angle_alpha   90.00000000
_cell_angle_beta   90.00000000
_cell_angle_gamma   120.00000000
_symmetry_Int_Tables_number   1
_chemical_formula_structural   V2Fe3P6WO24
_chemical_formula_sum   'V6 Fe9 P18 W3 O72'
_cell_volume   1371.23471668
_cell_formula_units_Z   3
loop_
 _symmetry_equiv_pos_site_id
 _symmetry_equiv_pos_as_xyz
  1  'x, y, z'
loop_
 _atom_site_type_symbol
 _atom_site_label
 _atom_site_symmetry_multiplicity
 _atom_site_fract_x
 _atom_site_fract_y
 _atom_site_fract_z
 _atom_site_occupancy
  V  V0  1  0.33333333  0.66666667  0.66894467  1
  V  V1  1  0.33333333  0.66666667  0.16717967  1
  V  V2  1  0.00000000  0.00000000  0.00227800  1
  V  V3  1  0.00000000  0.00000000  0.50051300  1
  V  V4  1  0.66666667  0.33333333  0.33561133  1
  V  V5  1  0.66666667  0.33333333  0.83384633  1
  Fe  Fe6  1  0.33333333  0.66666667  0.02270167  1
  Fe  Fe7  1  0.33333333  0.66666667  0.81217867  1
  Fe  Fe8  1  0.33333333  0.66666667  0.31069367  1
  Fe  Fe9  1  0.00000000  0.00000000  0.35603500  1
  Fe  Fe10  1  0.00000000  0.00000000  0.14551200  1
  Fe  Fe11  1  0.00000000  0.00000000  0.64402700  1
  Fe  Fe12  1  0.66666667  0.33333333  0.68936833  1
  Fe  Fe13  1  0.66666667  0.33333333  0.47884533  1
  Fe  Fe14  1  0.66666667  0.33333333  0.97736033  1
  P  P15  1  0.66601733  0.63023067  0.08162367  1
  P  P16  1  0.96421333  0.33398267  0.08162367  1
  P  P17  1  0.36976933  0.03578667  0.08162367  1
  P  P18  1  0.28782167  0.29409133  0.24960433  1
  P  P19  1  0.70590867  0.99373033  0.24960433  1
  P  P20  1  0.00626967  0.71217833  0.24960433  1
  P  P21  1  0.33268400  0.96356400  0.41495700  1
  P  P22  1  0.63088000  0.66731600  0.41495700  1
  P  P23  1  0.03643600  0.36912000  0.41495700  1
  P  P24  1  0.95448833  0.62742467  0.58293767  1
  P  P25  1  0.37257533  0.32706367  0.58293767  1
  P  P26  1  0.67293633  0.04551167  0.58293767  1
  P  P27  1  0.99935067  0.29689733  0.74829033  1
  P  P28  1  0.29754667  0.00064933  0.74829033  1
  P  P29  1  0.70310267  0.70245333  0.74829033  1
  P  P30  1  0.62115500  0.96075800  0.91627100  1
  P  P31  1  0.03924200  0.66039700  0.91627100  1
  P  P32  1  0.33960300  0.37884500  0.91627100  1
  W  W33  1  0.33333333  0.66666667  0.52357467  1
  W  W34  1  0.00000000  0.00000000  0.85690800  1
  W  W35  1  0.66666667  0.33333333  0.19024133  1
  O  O36  1  0.53243633  0.67481367  0.35689267  1
  O  O37  1  0.14237733  0.46756367  0.35689267  1
  O  O38  1  0.32518633  0.85762267  0.35689267  1
  O  O39  1  0.83457767  0.81592033  0.07722433  1
  O  O40  1  0.67525667  0.53220533  0.14390333  1
  O  O41  1  0.49731400  0.64534700  0.09132400  1
  O  O42  1  0.98134267  0.16542233  0.07722433  1
  O  O43  1  0.14803300  0.50268600  0.09132400  1
  O  O44  1  0.19856267  0.19395833  0.18914533  1
  O  O45  1  0.35465300  0.85196700  0.09132400  1
  O  O46  1  0.48457933  0.31981567  0.25458267  1
  O  O47  1  0.80604167  0.00460433  0.18914533  1
  O  O48  1  0.85694867  0.32474333  0.14390333  1
  O  O49  1  0.18407967  0.01865733  0.07722433  1
  O  O50  1  0.31660967  0.48432033  0.24348533  1
  O  O51  1  0.46779467  0.14305133  0.14390333  1
  O  O52  1  0.51567967  0.83228933  0.24348533  1
  O  O53  1  0.68018433  0.16476367  0.25458267  1
  O  O54  1  0.16771067  0.68339033  0.24348533  1
  O  O55  1  0.99539567  0.80143733  0.18914533  1
  O  O56  1  0.83523633  0.51542067  0.25458267  1
  O  O57  1  0.33217767  0.46944233  0.97711533  1
  O  O58  1  0.53055767  0.86273533  0.97711533  1
  O  O59  1  0.13726467  0.66782233  0.97711533  1
  O  O60  1  0.19910300  0.00814700  0.69022600  1
  O  O61  1  0.80904400  0.80089700  0.69022600  1
  O  O62  1  0.99185300  0.19095600  0.69022600  1
  O  O63  1  0.50124433  0.14925367  0.41055767  1
  O  O64  1  0.34192333  0.86553867  0.47723667  1
  O  O65  1  0.16398067  0.97868033  0.42465733  1
  O  O66  1  0.64800933  0.49875567  0.41055767  1
  O  O67  1  0.81469967  0.83601933  0.42465733  1
  O  O68  1  0.86522933  0.52729167  0.52247867  1
  O  O69  1  0.02131967  0.18530033  0.42465733  1
  O  O70  1  0.15124600  0.65314900  0.58791600  1
  O  O71  1  0.47270833  0.33793767  0.52247867  1
  O  O72  1  0.52361533  0.65807667  0.47723667  1
  O  O73  1  0.85074633  0.35199067  0.41055767  1
  O  O74  1  0.98327633  0.81765367  0.57681867  1
  O  O75  1  0.13446133  0.47638467  0.47723667  1
  O  O76  1  0.18234633  0.16562267  0.57681867  1
  O  O77  1  0.34685100  0.49809700  0.58791600  1
  O  O78  1  0.83437733  0.01672367  0.57681867  1
  O  O79  1  0.66206233  0.13477067  0.52247867  1
  O  O80  1  0.50190300  0.84875400  0.58791600  1
  O  O81  1  0.99884433  0.80277567  0.31044867  1
  O  O82  1  0.19722433  0.19606867  0.31044867  1
  O  O83  1  0.80393133  0.00115567  0.31044867  1
  O  O84  1  0.86576967  0.34148033  0.02355933  1
  O  O85  1  0.47571067  0.13423033  0.02355933  1
  O  O86  1  0.65851967  0.52428933  0.02355933  1
  O  O87  1  0.16791100  0.48258700  0.74389100  1
  O  O88  1  0.00859000  0.19887200  0.81057000  1
  O  O89  1  0.83064733  0.31201367  0.75799067  1
  O  O90  1  0.31467600  0.83208900  0.74389100  1
  O  O91  1  0.48136633  0.16935267  0.75799067  1
  O  O92  1  0.53189600  0.86062500  0.85581200  1
  O  O93  1  0.68798633  0.51863367  0.75799067  1
  O  O94  1  0.81791267  0.98648233  0.92124933  1
  O  O95  1  0.13937500  0.67127100  0.85581200  1
  O  O96  1  0.19028200  0.99141000  0.81057000  1
  O  O97  1  0.51741300  0.68532400  0.74389100  1
  O  O98  1  0.64994300  0.15098700  0.91015200  1
  O  O99  1  0.80112800  0.80971800  0.81057000  1
  O  O100  1  0.84901300  0.49895600  0.91015200  1
  O  O101  1  0.01351767  0.83143033  0.92124933  1
  O  O102  1  0.50104400  0.35005700  0.91015200  1
  O  O103  1  0.32872900  0.46810400  0.85581200  1
  O  O104  1  0.16856967  0.18208733  0.92124933  1
  O  O105  1  0.66551100  0.13610900  0.64378200  1
  O  O106  1  0.86389100  0.52940200  0.64378200  1
  O  O107  1  0.47059800  0.33448900  0.64378200  1
