# generated using pymatgen
data_TiMn3Cr2(PO4)6
_symmetry_space_group_name_H-M   'P 1'
_cell_length_a   8.67660344
_cell_length_b   8.67660344
_cell_length_c   20.44721983
_cell_angle_alpha   90.00000000
_cell_angle_beta   90.00000000
_cell_angle_gamma   120.00000000
_symmetry_Int_Tables_number   1
_chemical_formula_structural   TiMn3Cr2(PO4)6
_chemical_formula_sum   'Ti3 Mn9 Cr6 P18 O72'
_cell_volume   1333.10511713
_cell_formula_units_Z   3
loop_
 _symmetry_equiv_pos_site_id
 _symmetry_equiv_pos_as_xyz
  1  'x, y, z'
loop_
 _atom_site_type_symbol
 _atom_site_label
 _atom_site_symmetry_multiplicity
 _atom_site_fract_x
 _atom_site_fract_y
 _atom_site_fract_z
 _atom_site_occupancy
  Ti  Ti0  1  0.33333333  0.66666667  0.51964067  1
  Ti  Ti1  1  0.00000000  0.00000000  0.85297400  1
  Ti  Ti2  1  0.66666667  0.33333333  0.18630733  1
  Mn  Mn3  1  0.33333333  0.66666667  0.81323067  1
  Mn  Mn4  1  0.33333333  0.66666667  0.02060167  1
  Mn  Mn5  1  0.33333333  0.66666667  0.31226867  1
  Mn  Mn6  1  0.00000000  0.00000000  0.14656400  1
  Mn  Mn7  1  0.00000000  0.00000000  0.35393500  1
  Mn  Mn8  1  0.00000000  0.00000000  0.64560200  1
  Mn  Mn9  1  0.66666667  0.33333333  0.47989733  1
  Mn  Mn10  1  0.66666667  0.33333333  0.68726833  1
  Mn  Mn11  1  0.66666667  0.33333333  0.97893533  1
  Cr  Cr12  1  0.33333333  0.66666667  0.66639067  1
  Cr  Cr13  1  0.33333333  0.66666667  0.16788567  1
  Cr  Cr14  1  0.00000000  0.00000000  0.99972400  1
  Cr  Cr15  1  0.00000000  0.00000000  0.50121900  1
  Cr  Cr16  1  0.66666667  0.33333333  0.33305733  1
  Cr  Cr17  1  0.66666667  0.33333333  0.83455233  1
  P  P18  1  0.00056000  0.69970000  0.25027200  1
  P  P19  1  0.30030000  0.30086000  0.25027200  1
  P  P20  1  0.69914000  0.99944000  0.25027200  1
  P  P21  1  0.96649367  0.33321133  0.08297533  1
  P  P22  1  0.36671767  0.03350633  0.08297533  1
  P  P23  1  0.66678867  0.63328233  0.08297533  1
  P  P24  1  0.66722667  0.03303333  0.58360533  1
  P  P25  1  0.96696667  0.63419333  0.58360533  1
  P  P26  1  0.36580667  0.33277333  0.58360533  1
  P  P27  1  0.63316033  0.66654467  0.41630867  1
  P  P28  1  0.03338433  0.36683967  0.41630867  1
  P  P29  1  0.33345533  0.96661567  0.41630867  1
  P  P30  1  0.33389333  0.36636667  0.91693867  1
  P  P31  1  0.63363333  0.96752667  0.91693867  1
  P  P32  1  0.03247333  0.66610667  0.91693867  1
  P  P33  1  0.29982700  0.99987800  0.74964200  1
  P  P34  1  0.70005100  0.70017300  0.74964200  1
  P  P35  1  0.00012200  0.29994900  0.74964200  1
  O  O36  1  0.11946067  0.65889333  0.97919533  1
  O  O37  1  0.34110667  0.46056733  0.97919533  1
  O  O38  1  0.99170867  0.16660433  0.07312233  1
  O  O39  1  0.53943267  0.88053933  0.97919533  1
  O  O40  1  0.51264967  0.64762533  0.47603733  1
  O  O41  1  0.15040967  0.49740333  0.09896833  1
  O  O42  1  0.17489567  0.00829133  0.07312233  1
  O  O43  1  0.34699367  0.84959033  0.09896833  1
  O  O44  1  0.98978567  0.79172633  0.18799933  1
  O  O45  1  0.50259667  0.65300633  0.09896833  1
  O  O46  1  0.83185200  0.50408800  0.25866900  1
  O  O47  1  0.20827367  0.19805933  0.18799933  1
  O  O48  1  0.13497567  0.48735033  0.47603733  1
  O  O49  1  0.83339567  0.82510433  0.07312233  1
  O  O50  1  0.16329800  0.67025000  0.23819300  1
  O  O51  1  0.35237467  0.86502433  0.47603733  1
  O  O52  1  0.32975000  0.49304800  0.23819300  1
  O  O53  1  0.49591200  0.32776400  0.25866900  1
  O  O54  1  0.50695200  0.83670200  0.23819300  1
  O  O55  1  0.80194067  0.01021433  0.18799933  1
  O  O56  1  0.13281200  0.45673800  0.35456200  1
  O  O57  1  0.67223600  0.16814800  0.25866900  1
  O  O58  1  0.32392600  0.86718800  0.35456200  1
  O  O59  1  0.54326200  0.67607400  0.35456200  1
  O  O60  1  0.78612733  0.99222667  0.31252867  1
  O  O61  1  0.00777333  0.79390067  0.31252867  1
  O  O62  1  0.65837533  0.49993767  0.40645567  1
  O  O63  1  0.20609933  0.21387267  0.31252867  1
  O  O64  1  0.17931633  0.98095867  0.80937067  1
  O  O65  1  0.81707633  0.83073667  0.43230167  1
  O  O66  1  0.84156233  0.34162467  0.40645567  1
  O  O67  1  0.01366033  0.18292367  0.43230167  1
  O  O68  1  0.65645233  0.12505967  0.52133267  1
  O  O69  1  0.16926333  0.98633967  0.43230167  1
  O  O70  1  0.49851867  0.83742133  0.59200233  1
  O  O71  1  0.87494033  0.53139267  0.52133267  1
  O  O72  1  0.80164233  0.82068367  0.80937067  1
  O  O73  1  0.50006233  0.15843767  0.40645567  1
  O  O74  1  0.82996467  0.00358333  0.57152633  1
  O  O75  1  0.01904133  0.19835767  0.80937067  1
  O  O76  1  0.99641667  0.82638133  0.57152633  1
  O  O77  1  0.16257867  0.66109733  0.59200233  1
  O  O78  1  0.17361867  0.17003533  0.57152633  1
  O  O79  1  0.46860733  0.34354767  0.52133267  1
  O  O80  1  0.79947867  0.79007133  0.68789533  1
  O  O81  1  0.33890267  0.50148133  0.59200233  1
  O  O82  1  0.99059267  0.20052133  0.68789533  1
  O  O83  1  0.20992867  0.00940733  0.68789533  1
  O  O84  1  0.45279400  0.32556000  0.64586200  1
  O  O85  1  0.67444000  0.12723400  0.64586200  1
  O  O86  1  0.32504200  0.83327100  0.73978900  1
  O  O87  1  0.87276600  0.54720600  0.64586200  1
  O  O88  1  0.84598300  0.31429200  0.14270400  1
  O  O89  1  0.48374300  0.16407000  0.76563500  1
  O  O90  1  0.50822900  0.67495800  0.73978900  1
  O  O91  1  0.68032700  0.51625700  0.76563500  1
  O  O92  1  0.32311900  0.45839300  0.85466600  1
  O  O93  1  0.83593000  0.31967300  0.76563500  1
  O  O94  1  0.16518533  0.17075467  0.92533567  1
  O  O95  1  0.54160700  0.86472600  0.85466600  1
  O  O96  1  0.46830900  0.15401700  0.14270400  1
  O  O97  1  0.16672900  0.49177100  0.73978900  1
  O  O98  1  0.49663133  0.33691667  0.90485967  1
  O  O99  1  0.68570800  0.53169100  0.14270400  1
  O  O100  1  0.66308333  0.15971467  0.90485967  1
  O  O101  1  0.82924533  0.99443067  0.92533567  1
  O  O102  1  0.84028533  0.50336867  0.90485967  1
  O  O103  1  0.13527400  0.67688100  0.85466600  1
  O  O104  1  0.46614533  0.12340467  0.02122867  1
  O  O105  1  0.00556933  0.83481467  0.92533567  1
  O  O106  1  0.65725933  0.53385467  0.02122867  1
  O  O107  1  0.87659533  0.34274067  0.02122867  1
