# generated using pymatgen
data_Na(WO3)9
_symmetry_space_group_name_H-M   'P 1'
_cell_length_a   9.48351794
_cell_length_b   9.48351794
_cell_length_c   20.11718865
_cell_angle_alpha   90.00000000
_cell_angle_beta   90.00000000
_cell_angle_gamma   120.00000000
_symmetry_Int_Tables_number   1
_chemical_formula_structural   Na(WO3)9
_chemical_formula_sum   'Na3 W27 O81'
_cell_volume   1566.88405380
_cell_formula_units_Z   3
loop_
 _symmetry_equiv_pos_site_id
 _symmetry_equiv_pos_as_xyz
  1  'x, y, z'
loop_
 _atom_site_type_symbol
 _atom_site_label
 _atom_site_symmetry_multiplicity
 _atom_site_fract_x
 _atom_site_fract_y
 _atom_site_fract_z
 _atom_site_occupancy
  Na  Na0  1  0.00000000  0.00000000  0.00000000  1
  Na  Na1  1  0.66666667  0.33333333  0.33333333  1
  Na  Na2  1  0.33333333  0.66666667  0.66666667  1
  W  W3  1  0.33333333  0.66666667  0.16666667  1
  W  W4  1  0.66572833  0.99783667  0.27740567  1
  W  W5  1  0.33333333  0.66666667  0.49900067  1
  W  W6  1  0.66450333  0.66544167  0.05592767  1
  W  W7  1  0.33333333  0.66666667  0.83433267  1
  W  W8  1  0.00216333  0.66789167  0.27740567  1
  W  W9  1  0.33455833  0.99906167  0.05592767  1
  W  W10  1  0.33210833  0.33427167  0.27740567  1
  W  W11  1  0.00093833  0.33549667  0.05592767  1
  W  W12  1  1.00000000  0.00000000  0.50000000  1
  W  W13  1  0.33239500  0.33117000  0.61073900  1
  W  W14  1  0.00000000  0.00000000  0.83233400  1
  W  W15  1  0.33117000  0.99877500  0.38926100  1
  W  W16  1  0.00000000  0.00000000  0.16766600  1
  W  W17  1  0.66883000  0.00122500  0.61073900  1
  W  W18  1  0.00122500  0.33239500  0.38926100  1
  W  W19  1  0.99877500  0.66760500  0.61073900  1
  W  W20  1  0.66760500  0.66883000  0.38926100  1
  W  W21  1  0.66666667  0.33333333  0.83333333  1
  W  W22  1  0.99906167  0.66450333  0.94407233  1
  W  W23  1  0.66666667  0.33333333  0.16566733  1
  W  W24  1  0.99783667  0.33210833  0.72259433  1
  W  W25  1  0.66666667  0.33333333  0.50099933  1
  W  W26  1  0.33549667  0.33455833  0.94407233  1
  W  W27  1  0.66789167  0.66572833  0.72259433  1
  W  W28  1  0.66544167  0.00093833  0.94407233  1
  W  W29  1  0.33427167  0.00216333  0.72259433  1
  O  O30  1  0.33345900  0.83323100  0.11116800  1
  O  O31  1  0.16508800  0.83493500  0.99995900  1
  O  O32  1  0.00000000  0.50000000  0.00000000  1
  O  O33  1  0.49989767  0.83310533  0.22216533  1
  O  O34  1  0.50005133  0.66677267  0.44439067  1
  O  O35  1  0.50160167  0.00318033  0.33337433  1
  O  O36  1  0.16666667  0.33333333  0.33333333  1
  O  O37  1  0.16689467  0.66679233  0.22216533  1
  O  O38  1  0.66665300  0.16825200  0.22326500  1
  O  O39  1  0.83174800  0.49840100  0.22326500  1
  O  O40  1  0.99681967  0.49842133  0.33337433  1
  O  O41  1  0.33343933  0.50005467  0.88894267  1
  O  O42  1  0.66984700  0.83491200  0.99995900  1
  O  O43  1  0.33322733  0.83327867  0.44439067  1
  O  O44  1  0.83491867  0.83493233  0.11006833  1
  O  O45  1  0.50000000  0.50000000  0.00000000  1
  O  O46  1  0.16672133  0.49994867  0.44439067  1
  O  O47  1  0.50159900  0.33334700  0.22326500  1
  O  O48  1  0.16661533  0.66656067  0.88894267  1
  O  O49  1  0.49977200  0.66654100  0.11116800  1
  O  O50  1  0.16506767  0.99998633  0.11006833  1
  O  O51  1  0.16506500  0.33015300  0.99995900  1
  O  O52  1  0.50157867  0.49839833  0.33337433  1
  O  O53  1  0.16676900  0.50022800  0.11116800  1
  O  O54  1  0.49994533  0.83338467  0.88894267  1
  O  O55  1  0.00001367  0.16508133  0.11006833  1
  O  O56  1  0.33320767  0.50010233  0.22216533  1
  O  O57  1  0.00012567  0.16656433  0.44450133  1
  O  O58  1  0.83175467  0.16826833  0.33329233  1
  O  O59  1  0.66666667  0.83333333  0.33333333  1
  O  O60  1  0.16656433  0.16643867  0.55549867  1
  O  O61  1  0.16671800  0.00010600  0.77772400  1
  O  O62  1  0.16826833  0.33651367  0.66670767  1
  O  O63  1  0.83333333  0.66666667  0.66666667  1
  O  O64  1  0.83356133  0.00012567  0.55549867  1
  O  O65  1  0.33331967  0.50158533  0.55659833  1
  O  O66  1  0.49841467  0.83173433  0.55659833  1
  O  O67  1  0.66348633  0.83175467  0.66670767  1
  O  O68  1  0.00010600  0.83338800  0.22227600  1
  O  O69  1  0.33651367  0.16824533  0.33329233  1
  O  O70  1  0.99989400  0.16661200  0.77772400  1
  O  O71  1  0.50158533  0.16826567  0.44340167  1
  O  O72  1  0.16666667  0.83333333  0.33333333  1
  O  O73  1  0.83338800  0.83328200  0.77772400  1
  O  O74  1  0.16826567  0.66668033  0.55659833  1
  O  O75  1  0.83328200  0.99989400  0.22227600  1
  O  O76  1  0.16643867  0.99987433  0.44450133  1
  O  O77  1  0.83173433  0.33331967  0.44340167  1
  O  O78  1  0.83173167  0.66348633  0.33329233  1
  O  O79  1  0.16824533  0.83173167  0.66670767  1
  O  O80  1  0.83343567  0.83356133  0.44450133  1
  O  O81  1  0.16661200  0.16671800  0.22227600  1
  O  O82  1  0.66668033  0.49841467  0.44340167  1
  O  O83  1  0.99987433  0.83343567  0.55549867  1
  O  O84  1  0.66679233  0.49989767  0.77783467  1
  O  O85  1  0.49842133  0.50160167  0.66662567  1
  O  O86  1  0.33333333  0.16666667  0.66666667  1
  O  O87  1  0.83323100  0.49977200  0.88883200  1
  O  O88  1  0.83338467  0.33343933  0.11105733  1
  O  O89  1  0.83493500  0.66984700  0.00004100  1
  O  O90  1  0.50000000  0.00000000  0.00000000  1
  O  O91  1  0.50022800  0.33345900  0.88883200  1
  O  O92  1  0.99998633  0.83491867  0.88993167  1
  O  O93  1  0.16508133  0.16506767  0.88993167  1
  O  O94  1  0.33015300  0.16508800  0.00004100  1
  O  O95  1  0.66677267  0.16672133  0.55560933  1
  O  O96  1  0.00318033  0.50157867  0.66662567  1
  O  O97  1  0.66656067  0.49994533  0.11105733  1
  O  O98  1  0.16825200  0.50159900  0.77673500  1
  O  O99  1  0.83333333  0.16666667  0.66666667  1
  O  O100  1  0.50005467  0.16661533  0.11105733  1
  O  O101  1  0.83493233  0.00001367  0.88993167  1
  O  O102  1  0.49994867  0.33322733  0.55560933  1
  O  O103  1  0.83310533  0.33320767  0.77783467  1
  O  O104  1  0.49840100  0.66665300  0.77673500  1
  O  O105  1  0.49839833  0.99681967  0.66662567  1
  O  O106  1  0.83491200  0.16506500  0.00004100  1
  O  O107  1  0.50010233  0.16689467  0.77783467  1
  O  O108  1  0.83327867  0.50005133  0.55560933  1
  O  O109  1  0.33334700  0.83174800  0.77673500  1
  O  O110  1  0.66654100  0.16676900  0.88883200  1
