# generated using pymatgen
data_LiV3P3(HO6)2
_symmetry_space_group_name_H-M   'P 1'
_cell_length_a   12.05162400
_cell_length_b   12.47164800
_cell_length_c   6.68507238
_cell_angle_alpha   90.00000000
_cell_angle_beta   115.31259724
_cell_angle_gamma   90.00000000
_symmetry_Int_Tables_number   1
_chemical_formula_structural   LiV3P3(HO6)2
_chemical_formula_sum   'Li4 V12 P12 H8 O48'
_cell_volume   908.31914900
_cell_formula_units_Z   4
loop_
 _symmetry_equiv_pos_site_id
 _symmetry_equiv_pos_as_xyz
  1  'x, y, z'
loop_
 _atom_site_type_symbol
 _atom_site_label
 _atom_site_symmetry_multiplicity
 _atom_site_fract_x
 _atom_site_fract_y
 _atom_site_fract_z
 _atom_site_occupancy
  Li  Li0  1  0.50000000  0.01110700  0.75000000  1
  Li  Li1  1  0.50000000  0.98889300  0.25000000  1
  Li  Li2  1  0.00000000  0.51110700  0.75000000  1
  Li  Li3  1  0.00000000  0.48889300  0.25000000  1
  V  V4  1  0.29477550  0.83732650  0.88295200  1
  V  V5  1  0.29477550  0.16267350  0.38295200  1
  V  V6  1  0.50000000  0.71292100  0.75000000  1
  V  V7  1  0.50000000  0.28707900  0.25000000  1
  V  V8  1  0.70522450  0.83732650  0.61704800  1
  V  V9  1  0.70522450  0.16267350  0.11704800  1
  V  V10  1  0.79477550  0.33732650  0.88295200  1
  V  V11  1  0.79477550  0.66267350  0.38295200  1
  V  V12  1  0.00000000  0.21292100  0.75000000  1
  V  V13  1  0.00000000  0.78707900  0.25000000  1
  V  V14  1  0.20522450  0.33732650  0.61704800  1
  V  V15  1  0.20522450  0.66267350  0.11704800  1
  P  P16  1  0.28987450  0.11012250  0.89593100  1
  P  P17  1  0.28987450  0.88987750  0.39593100  1
  P  P18  1  0.50000000  0.32371400  0.75000000  1
  P  P19  1  0.50000000  0.67628600  0.25000000  1
  P  P20  1  0.71012550  0.11012250  0.60406900  1
  P  P21  1  0.71012550  0.88987750  0.10406900  1
  P  P22  1  0.78987450  0.61012250  0.89593100  1
  P  P23  1  0.78987450  0.38987750  0.39593100  1
  P  P24  1  0.00000000  0.82371400  0.75000000  1
  P  P25  1  0.00000000  0.17628600  0.25000000  1
  P  P26  1  0.21012550  0.61012250  0.60406900  1
  P  P27  1  0.21012550  0.38987750  0.10406900  1
  H  H28  1  0.12347550  0.00168950  0.81255700  1
  H  H29  1  0.12347550  0.99831050  0.31255700  1
  H  H30  1  0.87652450  0.00168950  0.68744300  1
  H  H31  1  0.87652450  0.99831050  0.18744300  1
  H  H32  1  0.62347550  0.50168950  0.81255700  1
  H  H33  1  0.62347550  0.49831050  0.31255700  1
  H  H34  1  0.37652450  0.50168950  0.68744300  1
  H  H35  1  0.37652450  0.49831050  0.18744300  1
  O  O36  1  0.10771800  0.89716400  0.76527200  1
  O  O37  1  0.15104700  0.08568500  0.85276000  1
  O  O38  1  0.10771800  0.10283600  0.26527200  1
  O  O39  1  0.15104700  0.91431500  0.35276000  1
  O  O40  1  0.28660000  0.17632300  0.69997700  1
  O  O41  1  0.36114450  0.00375650  0.92400600  1
  O  O42  1  0.34905850  0.82651750  0.61578500  1
  O  O43  1  0.28660000  0.82367700  0.19997700  1
  O  O44  1  0.36114450  0.99624350  0.42400600  1
  O  O45  1  0.34905850  0.17348250  0.11578500  1
  O  O46  1  0.53518300  0.25248600  0.95914600  1
  O  O47  1  0.46481700  0.25248600  0.54085400  1
  O  O48  1  0.53518300  0.74751400  0.45914600  1
  O  O49  1  0.46481700  0.74751400  0.04085400  1
  O  O50  1  0.65094150  0.82651750  0.88421500  1
  O  O51  1  0.63885550  0.00375650  0.57599400  1
  O  O52  1  0.71340000  0.17632300  0.80002300  1
  O  O53  1  0.65094150  0.17348250  0.38421500  1
  O  O54  1  0.63885550  0.99624350  0.07599400  1
  O  O55  1  0.71340000  0.82367700  0.30002300  1
  O  O56  1  0.84895300  0.08568500  0.64724000  1
  O  O57  1  0.89228200  0.89716400  0.73472800  1
  O  O58  1  0.84895300  0.91431500  0.14724000  1
  O  O59  1  0.89228200  0.10283600  0.23472800  1
  O  O60  1  0.60771800  0.39716400  0.76527200  1
  O  O61  1  0.65104700  0.58568500  0.85276000  1
  O  O62  1  0.60771800  0.60283600  0.26527200  1
  O  O63  1  0.65104700  0.41431500  0.35276000  1
  O  O64  1  0.78660000  0.67632300  0.69997700  1
  O  O65  1  0.86114450  0.50375650  0.92400600  1
  O  O66  1  0.84905850  0.32651750  0.61578500  1
  O  O67  1  0.78660000  0.32367700  0.19997700  1
  O  O68  1  0.86114450  0.49624350  0.42400600  1
  O  O69  1  0.84905850  0.67348250  0.11578500  1
  O  O70  1  0.03518300  0.75248600  0.95914600  1
  O  O71  1  0.96481700  0.75248600  0.54085400  1
  O  O72  1  0.03518300  0.24751400  0.45914600  1
  O  O73  1  0.96481700  0.24751400  0.04085400  1
  O  O74  1  0.15094150  0.32651750  0.88421500  1
  O  O75  1  0.13885550  0.50375650  0.57599400  1
  O  O76  1  0.21340000  0.67632300  0.80002300  1
  O  O77  1  0.15094150  0.67348250  0.38421500  1
  O  O78  1  0.13885550  0.49624350  0.07599400  1
  O  O79  1  0.21340000  0.32367700  0.30002300  1
  O  O80  1  0.34895300  0.58568500  0.64724000  1
  O  O81  1  0.39228200  0.39716400  0.73472800  1
  O  O82  1  0.34895300  0.41431500  0.14724000  1
  O  O83  1  0.39228200  0.60283600  0.23472800  1
