# generated using pymatgen
data_Fe4O5F3
_symmetry_space_group_name_H-M   'P 1'
_cell_length_a   13.98537200
_cell_length_b   6.39429000
_cell_length_c   7.04818822
_cell_angle_alpha   90.00000000
_cell_angle_beta   119.96016026
_cell_angle_gamma   90.00000000
_symmetry_Int_Tables_number   1
_chemical_formula_structural   Fe4O5F3
_chemical_formula_sum   'Fe16 O20 F12'
_cell_volume   546.07046166
_cell_formula_units_Z   4
loop_
 _symmetry_equiv_pos_site_id
 _symmetry_equiv_pos_as_xyz
  1  'x, y, z'
loop_
 _atom_site_type_symbol
 _atom_site_label
 _atom_site_symmetry_multiplicity
 _atom_site_fract_x
 _atom_site_fract_y
 _atom_site_fract_z
 _atom_site_occupancy
  Fe  Fe0  1  0.25832700  0.00000000  0.26901300  1
  Fe  Fe1  1  0.24167300  0.50000000  0.73098700  1
  Fe  Fe2  1  0.00000000  0.50000000  0.50000000  1
  Fe  Fe3  1  0.12327500  0.50000000  0.15772300  1
  Fe  Fe4  1  0.12639300  0.00000000  0.62896000  1
  Fe  Fe5  1  0.37672500  0.00000000  0.84227700  1
  Fe  Fe6  1  0.37360700  0.50000000  0.37104000  1
  Fe  Fe7  1  0.00000000  0.00000000  0.00000000  1
  Fe  Fe8  1  0.75832700  0.50000000  0.26901300  1
  Fe  Fe9  1  0.74167300  0.00000000  0.73098700  1
  Fe  Fe10  1  0.50000000  0.00000000  0.50000000  1
  Fe  Fe11  1  0.62327500  0.00000000  0.15772300  1
  Fe  Fe12  1  0.62639300  0.50000000  0.62896000  1
  Fe  Fe13  1  0.87672500  0.50000000  0.84227700  1
  Fe  Fe14  1  0.87360700  0.00000000  0.37104000  1
  Fe  Fe15  1  0.50000000  0.50000000  0.00000000  1
  O  O16  1  0.25100950  0.30521350  0.25726500  1
  O  O17  1  0.24899050  0.19478650  0.74273500  1
  O  O18  1  0.25100950  0.69478650  0.25726500  1
  O  O19  1  0.11979200  0.50000000  0.43644300  1
  O  O20  1  0.38020800  0.00000000  0.56355700  1
  O  O21  1  0.00000000  0.30058500  0.00000000  1
  O  O22  1  0.00000000  0.80958500  0.50000000  1
  O  O23  1  0.24899050  0.80521350  0.74273500  1
  O  O24  1  0.00000000  0.69941500  0.00000000  1
  O  O25  1  0.00000000  0.19041500  0.50000000  1
  O  O26  1  0.75100950  0.80521350  0.25726500  1
  O  O27  1  0.74899050  0.69478650  0.74273500  1
  O  O28  1  0.75100950  0.19478650  0.25726500  1
  O  O29  1  0.61979200  0.00000000  0.43644300  1
  O  O30  1  0.88020800  0.50000000  0.56355700  1
  O  O31  1  0.50000000  0.80058500  0.00000000  1
  O  O32  1  0.50000000  0.30958500  0.50000000  1
  O  O33  1  0.74899050  0.30521350  0.74273500  1
  O  O34  1  0.50000000  0.19941500  0.00000000  1
  O  O35  1  0.50000000  0.69041500  0.50000000  1
  F  F36  1  0.12647300  0.50000000  0.82245300  1
  F  F37  1  0.12418800  0.00000000  0.31573400  1
  F  F38  1  0.37352700  0.00000000  0.17754700  1
  F  F39  1  0.12830800  0.00000000  0.94010000  1
  F  F40  1  0.37581200  0.50000000  0.68426600  1
  F  F41  1  0.37169200  0.50000000  0.05990000  1
  F  F42  1  0.62647300  0.00000000  0.82245300  1
  F  F43  1  0.62418800  0.50000000  0.31573400  1
  F  F44  1  0.87352700  0.50000000  0.17754700  1
  F  F45  1  0.62830800  0.50000000  0.94010000  1
  F  F46  1  0.87581200  0.00000000  0.68426600  1
  F  F47  1  0.87169200  0.00000000  0.05990000  1
