# generated using pymatgen
data_Li3Cr2(PO4)3
_symmetry_space_group_name_H-M   'P 1'
_cell_length_a   15.87211351
_cell_length_b   8.82375700
_cell_length_c   16.36930578
_cell_angle_alpha   90.00000000
_cell_angle_beta   118.71170469
_cell_angle_gamma   90.00000000
_symmetry_Int_Tables_number   1
_chemical_formula_structural   Li3Cr2(PO4)3
_chemical_formula_sum   'Li24 Cr16 P24 O96'
_cell_volume   2010.67531070
_cell_formula_units_Z   8
loop_
 _symmetry_equiv_pos_site_id
 _symmetry_equiv_pos_as_xyz
  1  'x, y, z'
loop_
 _atom_site_type_symbol
 _atom_site_label
 _atom_site_symmetry_multiplicity
 _atom_site_fract_x
 _atom_site_fract_y
 _atom_site_fract_z
 _atom_site_occupancy
  Li  Li0  1  0.70961050  0.38789750  0.59800750  1
  Li  Li1  1  0.86157450  0.33304050  0.19227550  1
  Li  Li2  1  0.50000000  0.10299450  0.50000000  1
  Li  Li3  1  0.63842550  0.83304050  0.80772450  1
  Li  Li4  1  0.79038950  0.88789750  0.40199250  1
  Li  Li5  1  0.99780000  0.99687000  0.74988750  1
  Li  Li6  1  0.71214700  0.60855000  0.09915150  1
  Li  Li7  1  0.86166350  0.66835750  0.69268950  1
  Li  Li8  1  0.00392900  0.40090200  0.00198050  1
  Li  Li9  1  0.63833650  0.16835750  0.30731050  1
  Li  Li10  1  0.78785300  0.10855000  0.90084850  1
  Li  Li11  1  0.00220000  0.99687000  0.25011250  1
  Li  Li12  1  0.20961050  0.88789750  0.59800750  1
  Li  Li13  1  0.36157450  0.83304050  0.19227550  1
  Li  Li14  1  0.00000000  0.60299450  0.50000000  1
  Li  Li15  1  0.13842550  0.33304050  0.80772450  1
  Li  Li16  1  0.29038950  0.38789750  0.40199250  1
  Li  Li17  1  0.49780000  0.49687000  0.74988750  1
  Li  Li18  1  0.21214700  0.10855000  0.09915150  1
  Li  Li19  1  0.36166350  0.16835750  0.69268950  1
  Li  Li20  1  0.50392900  0.90090200  0.00198050  1
  Li  Li21  1  0.13833650  0.66835750  0.30731050  1
  Li  Li22  1  0.28785300  0.60855000  0.90084850  1
  Li  Li23  1  0.50220000  0.49687000  0.25011250  1
  Cr  Cr24  1  0.74331550  0.50192150  0.77982550  1
  Cr  Cr25  1  0.90795450  0.73520050  0.08503150  1
  Cr  Cr26  1  0.59204550  0.23520050  0.91496850  1
  Cr  Cr27  1  0.75668450  0.00192150  0.22017450  1
  Cr  Cr28  1  0.74454850  0.49555550  0.28152050  1
  Cr  Cr29  1  0.90796550  0.26169750  0.58604550  1
  Cr  Cr30  1  0.59203450  0.76169750  0.41395450  1
  Cr  Cr31  1  0.75545150  0.99555550  0.71847950  1
  Cr  Cr32  1  0.24331550  0.00192150  0.77982550  1
  Cr  Cr33  1  0.40795450  0.23520050  0.08503150  1
  Cr  Cr34  1  0.09204550  0.73520050  0.91496850  1
  Cr  Cr35  1  0.25668450  0.50192150  0.22017450  1
  Cr  Cr36  1  0.24454850  0.99555550  0.28152050  1
  Cr  Cr37  1  0.40796550  0.76169750  0.58604550  1
  Cr  Cr38  1  0.09203450  0.26169750  0.41395450  1
  Cr  Cr39  1  0.25545150  0.49555550  0.71847950  1
  P  P40  1  0.61529800  0.71869600  0.62253950  1
  P  P41  1  0.73614000  0.51589300  0.93890650  1
  P  P42  1  0.40670900  0.21684100  0.27987250  1
  P  P43  1  0.59329100  0.21684100  0.72012750  1
  P  P44  1  0.76386000  0.01589300  0.06109350  1
  P  P45  1  0.38470200  0.71869600  0.37746050  1
  P  P46  1  0.11613750  0.77925450  0.12387250  1
  P  P47  1  0.73698700  0.48182600  0.44077350  1
  P  P48  1  0.90637500  0.28038300  0.78020950  1
  P  P49  1  0.09362500  0.28038300  0.21979050  1
  P  P50  1  0.76301300  0.98182600  0.55922650  1
  P  P51  1  0.88386250  0.77925450  0.87612750  1
  P  P52  1  0.11529800  0.21869600  0.62253950  1
  P  P53  1  0.23614000  0.01589300  0.93890650  1
  P  P54  1  0.90670900  0.71684100  0.27987250  1
  P  P55  1  0.09329100  0.71684100  0.72012750  1
  P  P56  1  0.26386000  0.51589300  0.06109350  1
  P  P57  1  0.88470200  0.21869600  0.37746050  1
  P  P58  1  0.61613750  0.27925450  0.12387250  1
  P  P59  1  0.23698700  0.98182600  0.44077350  1
  P  P60  1  0.40637500  0.78038300  0.78020950  1
  P  P61  1  0.59362500  0.78038300  0.21979050  1
  P  P62  1  0.26301300  0.48182600  0.55922650  1
  P  P63  1  0.38386250  0.27925450  0.87612750  1
  O  O64  1  0.79325650  0.40360250  0.53815850  1
  O  O65  1  0.69281650  0.36731850  0.35719850  1
  O  O66  1  0.02709700  0.84857600  0.12414150  1
  O  O67  1  0.84773800  0.65072200  0.80288150  1
  O  O68  1  0.80788400  0.36674700  0.73008850  1
  O  O69  1  0.90409150  0.70044850  0.96757550  1
  O  O70  1  0.68966400  0.58861400  0.64814550  1
  O  O71  1  0.79624050  0.40836150  0.91137750  1
  O  O72  1  0.95917700  0.68891300  0.22012450  1
  O  O73  1  0.84387850  0.93038850  0.05207550  1
  O  O74  1  0.47016150  0.16948350  0.37981550  1
  O  O75  1  0.79298050  0.59247550  0.03680150  1
  O  O76  1  0.61768950  0.39052050  0.73246650  1
  O  O77  1  0.69285200  0.63148400  0.85595850  1
  O  O78  1  0.38231050  0.39052050  0.26753350  1
  O  O79  1  0.52680500  0.64962300  0.62351950  1
  O  O80  1  0.52983850  0.16948350  0.62018450  1
  O  O81  1  0.34806800  0.84533600  0.30344550  1
  O  O82  1  0.65612150  0.43038850  0.94792450  1
  O  O83  1  0.80841000  0.63014900  0.23068550  1
  O  O84  1  0.40181450  0.79663850  0.46760150  1
  O  O85  1  0.54082300  0.18891300  0.77987550  1
  O  O86  1  0.31033600  0.58861400  0.35185450  1
  O  O87  1  0.70375950  0.90836150  0.08862250  1
  O  O88  1  0.79696300  0.58938000  0.41310250  1
  O  O89  1  0.19077100  0.90870600  0.14963150  1
  O  O90  1  0.95964600  0.30758300  0.72115850  1
  O  O91  1  0.09590850  0.70044850  0.03242450  1
  O  O92  1  0.69211600  0.86674700  0.26991150  1
  O  O93  1  0.84690200  0.06425300  0.55607550  1
  O  O94  1  0.15226200  0.65072200  0.19711850  1
  O  O95  1  0.96935000  0.32724300  0.88032850  1
  O  O96  1  0.97290300  0.84857600  0.87585850  1
  O  O97  1  0.11958150  0.10906050  0.23409450  1
  O  O98  1  0.80718350  0.86731850  0.64280150  1
  O  O99  1  0.88041850  0.10906050  0.76590550  1
  O  O100  1  0.70674350  0.90360250  0.46184150  1
  O  O101  1  0.03065000  0.32724300  0.11967150  1
  O  O102  1  0.65309800  0.56425300  0.44392450  1
  O  O103  1  0.54035400  0.80758300  0.27884150  1
  O  O104  1  0.70303700  0.08938000  0.58689750  1
  O  O105  1  0.80922900  0.90870600  0.85036850  1
  O  O106  1  0.59818550  0.79663850  0.53239850  1
  O  O107  1  0.69159000  0.13014900  0.76931450  1
  O  O108  1  0.65193200  0.84533600  0.69655450  1
  O  O109  1  0.47319500  0.64962300  0.37648050  1
  O  O110  1  0.80714800  0.13148400  0.14404150  1
  O  O111  1  0.70701950  0.09247550  0.96319850  1
  O  O112  1  0.29325650  0.90360250  0.53815850  1
  O  O113  1  0.19281650  0.86731850  0.35719850  1
  O  O114  1  0.52709700  0.34857600  0.12414150  1
  O  O115  1  0.34773800  0.15072200  0.80288150  1
  O  O116  1  0.30788400  0.86674700  0.73008850  1
  O  O117  1  0.40409150  0.20044850  0.96757550  1
  O  O118  1  0.18966400  0.08861400  0.64814550  1
  O  O119  1  0.29624050  0.90836150  0.91137750  1
  O  O120  1  0.45917700  0.18891300  0.22012450  1
  O  O121  1  0.34387850  0.43038850  0.05207550  1
  O  O122  1  0.97016150  0.66948350  0.37981550  1
  O  O123  1  0.29298050  0.09247550  0.03680150  1
  O  O124  1  0.11768950  0.89052050  0.73246650  1
  O  O125  1  0.19285200  0.13148400  0.85595850  1
  O  O126  1  0.88231050  0.89052050  0.26753350  1
  O  O127  1  0.02680500  0.14962300  0.62351950  1
  O  O128  1  0.02983850  0.66948350  0.62018450  1
  O  O129  1  0.84806800  0.34533600  0.30344550  1
  O  O130  1  0.15612150  0.93038850  0.94792450  1
  O  O131  1  0.30841000  0.13014900  0.23068550  1
  O  O132  1  0.90181450  0.29663850  0.46760150  1
  O  O133  1  0.04082300  0.68891300  0.77987550  1
  O  O134  1  0.81033600  0.08861400  0.35185450  1
  O  O135  1  0.20375950  0.40836150  0.08862250  1
  O  O136  1  0.29696300  0.08938000  0.41310250  1
  O  O137  1  0.69077100  0.40870600  0.14963150  1
  O  O138  1  0.45964600  0.80758300  0.72115850  1
  O  O139  1  0.59590850  0.20044850  0.03242450  1
  O  O140  1  0.19211600  0.36674700  0.26991150  1
  O  O141  1  0.34690200  0.56425300  0.55607550  1
  O  O142  1  0.65226200  0.15072200  0.19711850  1
  O  O143  1  0.46935000  0.82724300  0.88032850  1
  O  O144  1  0.47290300  0.34857600  0.87585850  1
  O  O145  1  0.61958150  0.60906050  0.23409450  1
  O  O146  1  0.30718350  0.36731850  0.64280150  1
  O  O147  1  0.38041850  0.60906050  0.76590550  1
  O  O148  1  0.20674350  0.40360250  0.46184150  1
  O  O149  1  0.53065000  0.82724300  0.11967150  1
  O  O150  1  0.15309800  0.06425300  0.44392450  1
  O  O151  1  0.04035400  0.30758300  0.27884150  1
  O  O152  1  0.20303700  0.58938000  0.58689750  1
  O  O153  1  0.30922900  0.40870600  0.85036850  1
  O  O154  1  0.09818550  0.29663850  0.53239850  1
  O  O155  1  0.19159000  0.63014900  0.76931450  1
  O  O156  1  0.15193200  0.34533600  0.69655450  1
  O  O157  1  0.97319500  0.14962300  0.37648050  1
  O  O158  1  0.30714800  0.63148400  0.14404150  1
  O  O159  1  0.20701950  0.59247550  0.96319850  1
