# generated using pymatgen
data_NiSn3(PO4)4
_symmetry_space_group_name_H-M   'P 1'
_cell_length_a   5.07893200
_cell_length_b   6.18707500
_cell_length_c   10.33607127
_cell_angle_alpha   90.00000000
_cell_angle_beta   90.27640030
_cell_angle_gamma   90.00000000
_symmetry_Int_Tables_number   1
_chemical_formula_structural   NiSn3(PO4)4
_chemical_formula_sum   'Ni1 Sn3 P4 O16'
_cell_volume   324.79416663
_cell_formula_units_Z   1
loop_
 _symmetry_equiv_pos_site_id
 _symmetry_equiv_pos_as_xyz
  1  'x, y, z'
loop_
 _atom_site_type_symbol
 _atom_site_label
 _atom_site_symmetry_multiplicity
 _atom_site_fract_x
 _atom_site_fract_y
 _atom_site_fract_z
 _atom_site_occupancy
  Ni  Ni0  1  0.94386700  0.50000000  0.72783500  1
  Sn  Sn1  1  0.54267700  0.50000000  0.21607400  1
  Sn  Sn2  1  0.45501400  0.00000000  0.78222200  1
  Sn  Sn3  1  0.04309200  0.00000000  0.28178400  1
  P  P4  1  0.89159100  0.00000000  0.61320100  1
  P  P5  1  0.56615900  0.00000000  0.08203500  1
  P  P6  1  0.42062200  0.50000000  0.90032000  1
  P  P7  1  0.12368400  0.50000000  0.40558800  1
  O  O8  1  0.81734600  0.00000000  0.47235300  1
  O  O9  1  0.75666600  0.80488100  0.68776300  1
  O  O10  1  0.75666600  0.19511900  0.68776300  1
  O  O11  1  0.83720500  0.50000000  0.35219300  1
  O  O12  1  0.71682400  0.50000000  0.88659400  1
  O  O13  1  0.69122300  0.80101800  0.15759200  1
  O  O14  1  0.69122300  0.19898200  0.15759200  1
  O  O15  1  0.68358500  0.00000000  0.94336400  1
  O  O16  1  0.33426100  0.50000000  0.04536700  1
  O  O17  1  0.27812400  0.30295800  0.83017200  1
  O  O18  1  0.27812400  0.69704200  0.83017200  1
  O  O19  1  0.27030700  0.00000000  0.08010200  1
  O  O20  1  0.19582500  0.00000000  0.63145100  1
  O  O21  1  0.28902100  0.31048100  0.33890800  1
  O  O22  1  0.28902100  0.68951900  0.33890800  1
  O  O23  1  0.12787500  0.50000000  0.55064300  1
