# generated using pymatgen
data_Tb2(WO4)3
_symmetry_space_group_name_H-M   'P 1'
_cell_length_a   7.78495000
_cell_length_b   11.53583400
_cell_length_c   11.44850080
_cell_angle_alpha   90.00000000
_cell_angle_beta   109.69549049
_cell_angle_gamma   90.00000000
_symmetry_Int_Tables_number   1
_chemical_formula_structural   Tb2(WO4)3
_chemical_formula_sum   'Tb8 W12 O48'
_cell_volume   967.99345040
_cell_formula_units_Z   4
loop_
 _symmetry_equiv_pos_site_id
 _symmetry_equiv_pos_as_xyz
  1  'x, y, z'
loop_
 _atom_site_type_symbol
 _atom_site_label
 _atom_site_symmetry_multiplicity
 _atom_site_fract_x
 _atom_site_fract_y
 _atom_site_fract_z
 _atom_site_occupancy
  Tb  Tb0  1  0.16502350  0.12380350  0.09411300  1
  Tb  Tb1  1  0.16502350  0.87619650  0.59411300  1
  Tb  Tb2  1  0.83497650  0.12380350  0.40588700  1
  Tb  Tb3  1  0.83497650  0.87619650  0.90588700  1
  Tb  Tb4  1  0.66502350  0.62380350  0.09411300  1
  Tb  Tb5  1  0.66502350  0.37619650  0.59411300  1
  Tb  Tb6  1  0.33497650  0.62380350  0.40588700  1
  Tb  Tb7  1  0.33497650  0.37619650  0.90588700  1
  W  W8  1  0.35245350  0.10679950  0.45183700  1
  W  W9  1  0.35245350  0.89320050  0.95183700  1
  W  W10  1  0.50000000  0.36812100  0.25000000  1
  W  W11  1  0.50000000  0.63187900  0.75000000  1
  W  W12  1  0.64754650  0.10679950  0.04816300  1
  W  W13  1  0.64754650  0.89320050  0.54816300  1
  W  W14  1  0.85245350  0.60679950  0.45183700  1
  W  W15  1  0.85245350  0.39320050  0.95183700  1
  W  W16  1  0.00000000  0.86812100  0.25000000  1
  W  W17  1  0.00000000  0.13187900  0.75000000  1
  W  W18  1  0.14754650  0.60679950  0.04816300  1
  W  W19  1  0.14754650  0.39320050  0.54816300  1
  O  O20  1  0.27310550  0.17916650  0.30064800  1
  O  O21  1  0.17105200  0.96058400  0.22231600  1
  O  O22  1  0.62943050  0.29005950  0.39318200  1
  O  O23  1  0.44909700  0.78204800  0.06283600  1
  O  O24  1  0.13090400  0.05206500  0.46350000  1
  O  O25  1  0.43290200  0.03906600  0.07462900  1
  O  O26  1  0.27310550  0.82083350  0.80064800  1
  O  O27  1  0.56709800  0.03906600  0.42537100  1
  O  O28  1  0.86909600  0.05206500  0.03650000  1
  O  O29  1  0.55090300  0.78204800  0.43716400  1
  O  O30  1  0.37056950  0.29005950  0.10681800  1
  O  O31  1  0.17105200  0.03941600  0.72231600  1
  O  O32  1  0.82894800  0.96058400  0.27768400  1
  O  O33  1  0.62943050  0.70994050  0.89318200  1
  O  O34  1  0.44909700  0.21795200  0.56283600  1
  O  O35  1  0.13090400  0.94793500  0.96350000  1
  O  O36  1  0.43290200  0.96093400  0.57462900  1
  O  O37  1  0.72689450  0.17916650  0.19935200  1
  O  O38  1  0.56709800  0.96093400  0.92537100  1
  O  O39  1  0.86909600  0.94793500  0.53650000  1
  O  O40  1  0.55090300  0.21795200  0.93716400  1
  O  O41  1  0.37056950  0.70994050  0.60681800  1
  O  O42  1  0.82894800  0.03941600  0.77768400  1
  O  O43  1  0.72689450  0.82083350  0.69935200  1
  O  O44  1  0.77310550  0.67916650  0.30064800  1
  O  O45  1  0.67105200  0.46058400  0.22231600  1
  O  O46  1  0.12943050  0.79005950  0.39318200  1
  O  O47  1  0.94909700  0.28204800  0.06283600  1
  O  O48  1  0.63090400  0.55206500  0.46350000  1
  O  O49  1  0.93290200  0.53906600  0.07462900  1
  O  O50  1  0.77310550  0.32083350  0.80064800  1
  O  O51  1  0.06709800  0.53906600  0.42537100  1
  O  O52  1  0.36909600  0.55206500  0.03650000  1
  O  O53  1  0.05090300  0.28204800  0.43716400  1
  O  O54  1  0.87056950  0.79005950  0.10681800  1
  O  O55  1  0.67105200  0.53941600  0.72231600  1
  O  O56  1  0.32894800  0.46058400  0.27768400  1
  O  O57  1  0.12943050  0.20994050  0.89318200  1
  O  O58  1  0.94909700  0.71795200  0.56283600  1
  O  O59  1  0.63090400  0.44793500  0.96350000  1
  O  O60  1  0.93290200  0.46093400  0.57462900  1
  O  O61  1  0.22689450  0.67916650  0.19935200  1
  O  O62  1  0.06709800  0.46093400  0.92537100  1
  O  O63  1  0.36909600  0.44793500  0.53650000  1
  O  O64  1  0.05090300  0.71795200  0.93716400  1
  O  O65  1  0.87056950  0.20994050  0.60681800  1
  O  O66  1  0.32894800  0.53941600  0.77768400  1
  O  O67  1  0.22689450  0.32083350  0.69935200  1
