# generated using pymatgen
data_Li3V3CrO8
_symmetry_space_group_name_H-M   'P 1'
_cell_length_a   12.34970200
_cell_length_b   4.09630400
_cell_length_c   6.51353685
_cell_angle_alpha   90.00000000
_cell_angle_beta   106.74952220
_cell_angle_gamma   90.00000000
_symmetry_Int_Tables_number   1
_chemical_formula_structural   Li3V3CrO8
_chemical_formula_sum   'Li6 V6 Cr2 O16'
_cell_volume   315.52790282
_cell_formula_units_Z   2
loop_
 _symmetry_equiv_pos_site_id
 _symmetry_equiv_pos_as_xyz
  1  'x, y, z'
loop_
 _atom_site_type_symbol
 _atom_site_label
 _atom_site_symmetry_multiplicity
 _atom_site_fract_x
 _atom_site_fract_y
 _atom_site_fract_z
 _atom_site_occupancy
  Li  Li0  1  0.44343800  0.50000000  0.63717200  1
  Li  Li1  1  0.32032000  0.50000000  0.99312200  1
  Li  Li2  1  0.06274700  0.00000000  0.36275100  1
  Li  Li3  1  0.94343800  0.00000000  0.63717200  1
  Li  Li4  1  0.82032000  0.00000000  0.99312200  1
  Li  Li5  1  0.56274700  0.50000000  0.36275100  1
  V  V6  1  0.39461100  0.00000000  0.29567300  1
  V  V7  1  0.20989300  0.50000000  0.30361600  1
  V  V8  1  0.10626200  0.50000000  0.71192200  1
  V  V9  1  0.89461100  0.50000000  0.29567300  1
  V  V10  1  0.70989300  0.00000000  0.30361600  1
  V  V11  1  0.60626200  0.00000000  0.71192200  1
  Cr  Cr12  1  0.28289900  0.00000000  0.68348900  1
  Cr  Cr13  1  0.78289900  0.50000000  0.68348900  1
  O  O14  1  0.34854200  0.00000000  0.00850500  1
  O  O15  1  0.43580900  0.00000000  0.63000300  1
  O  O16  1  0.38404700  0.50000000  0.30883800  1
  O  O17  1  0.23546300  0.00000000  0.35674500  1
  O  O18  1  0.26968900  0.50000000  0.66382200  1
  O  O19  1  0.12033400  0.00000000  0.67881800  1
  O  O20  1  0.05524300  0.50000000  0.36543100  1
  O  O21  1  0.15946100  0.50000000  0.00775500  1
  O  O22  1  0.84854200  0.50000000  0.00850500  1
  O  O23  1  0.93580900  0.50000000  0.63000300  1
  O  O24  1  0.88404700  0.00000000  0.30883800  1
  O  O25  1  0.73546300  0.50000000  0.35674500  1
  O  O26  1  0.76968900  0.00000000  0.66382200  1
  O  O27  1  0.62033400  0.50000000  0.67881800  1
  O  O28  1  0.55524300  0.00000000  0.36543100  1
  O  O29  1  0.65946100  0.00000000  0.00775500  1
