# generated using pymatgen
data_Na2Mn2O3
_symmetry_space_group_name_H-M   'P 1'
_cell_length_a   5.89525432
_cell_length_b   6.34036100
_cell_length_c   6.11366229
_cell_angle_alpha   90.00000000
_cell_angle_beta   115.99232265
_cell_angle_gamma   90.00000000
_symmetry_Int_Tables_number   1
_chemical_formula_structural   Na2Mn2O3
_chemical_formula_sum   'Na4 Mn4 O6'
_cell_volume   205.40288581
_cell_formula_units_Z   2
loop_
 _symmetry_equiv_pos_site_id
 _symmetry_equiv_pos_as_xyz
  1  'x, y, z'
loop_
 _atom_site_type_symbol
 _atom_site_label
 _atom_site_symmetry_multiplicity
 _atom_site_fract_x
 _atom_site_fract_y
 _atom_site_fract_z
 _atom_site_occupancy
  Na  Na0  1  0.57625500  0.35396400  0.78825350  1
  Na  Na1  1  0.07625500  0.14603600  0.78825350  1
  Na  Na2  1  0.92374500  0.85396400  0.21174650  1
  Na  Na3  1  0.42374500  0.64603600  0.21174650  1
  Mn  Mn4  1  0.54387000  0.12059500  0.32062550  1
  Mn  Mn5  1  0.04387000  0.37940500  0.32062550  1
  Mn  Mn6  1  0.95613000  0.62059500  0.67937450  1
  Mn  Mn7  1  0.45613000  0.87940500  0.67937450  1
  O  O8  1  0.00000000  0.50000000  0.00000000  1
  O  O9  1  0.50000000  0.00000000  0.00000000  1
  O  O10  1  0.75993000  0.89869700  0.58758950  1
  O  O11  1  0.74007000  0.39869700  0.41241050  1
  O  O12  1  0.25993000  0.60130300  0.58758950  1
  O  O13  1  0.24007000  0.10130300  0.41241050  1
