# generated using pymatgen
data_LiFe2F5
_symmetry_space_group_name_H-M   'P 1'
_cell_length_a   3.97134600
_cell_length_b   10.40638800
_cell_length_c   10.39088200
_cell_angle_alpha   90.00000000
_cell_angle_beta   90.00000000
_cell_angle_gamma   90.00000000
_symmetry_Int_Tables_number   1
_chemical_formula_structural   LiFe2F5
_chemical_formula_sum   'Li4 Fe8 F20'
_cell_volume   429.42779759
_cell_formula_units_Z   4
loop_
 _symmetry_equiv_pos_site_id
 _symmetry_equiv_pos_as_xyz
  1  'x, y, z'
loop_
 _atom_site_type_symbol
 _atom_site_label
 _atom_site_symmetry_multiplicity
 _atom_site_fract_x
 _atom_site_fract_y
 _atom_site_fract_z
 _atom_site_occupancy
  Li  Li0  1  0.00000000  0.18030100  0.75000000  1
  Li  Li1  1  0.50000000  0.31969900  0.25000000  1
  Li  Li2  1  0.50000000  0.68030100  0.75000000  1
  Li  Li3  1  0.00000000  0.81969900  0.25000000  1
  Fe  Fe4  1  0.00000000  0.13616600  0.06929600  1
  Fe  Fe5  1  0.00000000  0.13616600  0.43070400  1
  Fe  Fe6  1  0.50000000  0.36383400  0.56929600  1
  Fe  Fe7  1  0.50000000  0.36383400  0.93070400  1
  Fe  Fe8  1  0.50000000  0.63616600  0.06929600  1
  Fe  Fe9  1  0.50000000  0.63616600  0.43070400  1
  Fe  Fe10  1  0.00000000  0.86383400  0.56929600  1
  Fe  Fe11  1  0.00000000  0.86383400  0.93070400  1
  F  F12  1  0.00000000  0.05547000  0.61492300  1
  F  F13  1  0.00000000  0.31864100  0.56513800  1
  F  F14  1  0.00000000  0.05547000  0.88507700  1
  F  F15  1  0.00000000  0.31864100  0.93486200  1
  F  F16  1  0.00000000  0.23254900  0.25000000  1
  F  F17  1  0.50000000  0.26745100  0.75000000  1
  F  F18  1  0.50000000  0.44453000  0.11492300  1
  F  F19  1  0.50000000  0.44453000  0.38507700  1
  F  F20  1  0.50000000  0.18135900  0.06513800  1
  F  F21  1  0.50000000  0.18135900  0.43486200  1
  F  F22  1  0.50000000  0.55547000  0.61492300  1
  F  F23  1  0.50000000  0.81864100  0.56513800  1
  F  F24  1  0.50000000  0.55547000  0.88507700  1
  F  F25  1  0.50000000  0.81864100  0.93486200  1
  F  F26  1  0.50000000  0.73254900  0.25000000  1
  F  F27  1  0.00000000  0.76745100  0.75000000  1
  F  F28  1  0.00000000  0.94453000  0.11492300  1
  F  F29  1  0.00000000  0.94453000  0.38507700  1
  F  F30  1  0.00000000  0.68135900  0.06513800  1
  F  F31  1  0.00000000  0.68135900  0.43486200  1
