# generated using pymatgen
data_Cr(PO3)2
_symmetry_space_group_name_H-M   'P 1'
_cell_length_a   8.04706600
_cell_length_b   8.03078200
_cell_length_c   16.51113385
_cell_angle_alpha   90.00000000
_cell_angle_beta   93.68087957
_cell_angle_gamma   90.00000000
_symmetry_Int_Tables_number   1
_chemical_formula_structural   Cr(PO3)2
_chemical_formula_sum   'Cr8 P16 O48'
_cell_volume   1064.81820118
_cell_formula_units_Z   8
loop_
 _symmetry_equiv_pos_site_id
 _symmetry_equiv_pos_as_xyz
  1  'x, y, z'
loop_
 _atom_site_type_symbol
 _atom_site_label
 _atom_site_symmetry_multiplicity
 _atom_site_fract_x
 _atom_site_fract_y
 _atom_site_fract_z
 _atom_site_occupancy
  Cr  Cr0  1  0.45822750  0.39413350  0.09345300  1
  Cr  Cr1  1  0.45822750  0.60586650  0.59345300  1
  Cr  Cr2  1  0.37019600  0.69322900  0.38493100  1
  Cr  Cr3  1  0.37019600  0.30677100  0.88493100  1
  Cr  Cr4  1  0.95822750  0.89413350  0.09345300  1
  Cr  Cr5  1  0.95822750  0.10586650  0.59345300  1
  Cr  Cr6  1  0.87019600  0.19322900  0.38493100  1
  Cr  Cr7  1  0.87019600  0.80677100  0.88493100  1
  P  P8  1  0.28346650  0.27925750  0.34961400  1
  P  P9  1  0.28346650  0.72074250  0.84961400  1
  P  P10  1  0.54366300  0.97859900  0.12643300  1
  P  P11  1  0.53209300  0.25928000  0.48888800  1
  P  P12  1  0.54366300  0.02140100  0.62643300  1
  P  P13  1  0.53209300  0.74072000  0.98888800  1
  P  P14  1  0.27542000  0.98065100  0.24061900  1
  P  P15  1  0.27542000  0.01934900  0.74061900  1
  P  P16  1  0.78346650  0.77925750  0.34961400  1
  P  P17  1  0.78346650  0.22074250  0.84961400  1
  P  P18  1  0.04366300  0.47859900  0.12643300  1
  P  P19  1  0.03209300  0.75928000  0.48888800  1
  P  P20  1  0.04366300  0.52140100  0.62643300  1
  P  P21  1  0.03209300  0.24072000  0.98888800  1
  P  P22  1  0.77542000  0.48065100  0.24061900  1
  P  P23  1  0.77542000  0.51934900  0.74061900  1
  O  O24  1  0.83695100  0.95319400  0.33427100  1
  O  O25  1  0.83695100  0.04680600  0.83427100  1
  O  O26  1  0.72597100  0.95372100  0.14054000  1
  O  O27  1  0.72597100  0.04627900  0.64054000  1
  O  O28  1  0.70787050  0.20364750  0.47638000  1
  O  O29  1  0.70787050  0.79635250  0.97638000  1
  O  O30  1  0.61281100  0.74989400  0.37811200  1
  O  O31  1  0.61281100  0.25010600  0.87811200  1
  O  O32  1  0.47835650  0.14383950  0.09650800  1
  O  O33  1  0.46413100  0.83758300  0.06477400  1
  O  O34  1  0.49777450  0.44176850  0.50093200  1
  O  O35  1  0.47835650  0.85616050  0.59650800  1
  O  O36  1  0.45484250  0.92956350  0.20800600  1
  O  O37  1  0.46413100  0.16241700  0.56477400  1
  O  O38  1  0.49777450  0.55823150  0.00093200  1
  O  O39  1  0.45484250  0.07043650  0.70800600  1
  O  O40  1  0.41577050  0.18929050  0.41445700  1
  O  O41  1  0.41577050  0.81070950  0.91445700  1
  O  O42  1  0.31069650  0.17077450  0.26974000  1
  O  O43  1  0.31069650  0.82922550  0.76974000  1
  O  O44  1  0.24929750  0.87077450  0.31176500  1
  O  O45  1  0.24929750  0.12922550  0.81176500  1
  O  O46  1  0.14582600  0.98587900  0.17193100  1
  O  O47  1  0.14582600  0.01412100  0.67193100  1
  O  O48  1  0.33695100  0.45319400  0.33427100  1
  O  O49  1  0.33695100  0.54680600  0.83427100  1
  O  O50  1  0.22597100  0.45372100  0.14054000  1
  O  O51  1  0.22597100  0.54627900  0.64054000  1
  O  O52  1  0.20787050  0.70364750  0.47638000  1
  O  O53  1  0.20787050  0.29635250  0.97638000  1
  O  O54  1  0.11281100  0.24989400  0.37811200  1
  O  O55  1  0.11281100  0.75010600  0.87811200  1
  O  O56  1  0.97835650  0.64383950  0.09650800  1
  O  O57  1  0.96413100  0.33758300  0.06477400  1
  O  O58  1  0.99777450  0.94176850  0.50093200  1
  O  O59  1  0.97835650  0.35616050  0.59650800  1
  O  O60  1  0.95484250  0.42956350  0.20800600  1
  O  O61  1  0.96413100  0.66241700  0.56477400  1
  O  O62  1  0.99777450  0.05823150  0.00093200  1
  O  O63  1  0.95484250  0.57043650  0.70800600  1
  O  O64  1  0.91577050  0.68929050  0.41445700  1
  O  O65  1  0.91577050  0.31070950  0.91445700  1
  O  O66  1  0.81069650  0.67077450  0.26974000  1
  O  O67  1  0.81069650  0.32922550  0.76974000  1
  O  O68  1  0.74929750  0.37077450  0.31176500  1
  O  O69  1  0.74929750  0.62922550  0.81176500  1
  O  O70  1  0.64582600  0.48587900  0.17193100  1
  O  O71  1  0.64582600  0.51412100  0.67193100  1
