# generated using pymatgen
data_Mn6Zn3O16
_symmetry_space_group_name_H-M   'P 1'
_cell_length_a   8.29311200
_cell_length_b   8.29529700
_cell_length_c   8.30202992
_cell_angle_alpha   90.00000000
_cell_angle_beta   90.39262475
_cell_angle_gamma   90.00000000
_symmetry_Int_Tables_number   1
_chemical_formula_structural   Mn6Zn3O16
_chemical_formula_sum   'Mn12 Zn6 O32'
_cell_volume   571.11500156
_cell_formula_units_Z   2
loop_
 _symmetry_equiv_pos_site_id
 _symmetry_equiv_pos_as_xyz
  1  'x, y, z'
loop_
 _atom_site_type_symbol
 _atom_site_label
 _atom_site_symmetry_multiplicity
 _atom_site_fract_x
 _atom_site_fract_y
 _atom_site_fract_z
 _atom_site_occupancy
  Mn  Mn0  1  0.12720000  0.62581500  0.12514000  1
  Mn  Mn1  1  0.12860000  0.12564800  0.62647900  1
  Mn  Mn2  1  0.12653700  0.87575800  0.37387300  1
  Mn  Mn3  1  0.87140000  0.62564800  0.37352100  1
  Mn  Mn4  1  0.87346300  0.37575800  0.62612700  1
  Mn  Mn5  1  0.87280000  0.12581500  0.87486000  1
  Mn  Mn6  1  0.62563300  0.12213700  0.12277700  1
  Mn  Mn7  1  0.62436900  0.37959300  0.38141600  1
  Mn  Mn8  1  0.62546600  0.87740200  0.87812900  1
  Mn  Mn9  1  0.37453400  0.37740200  0.12187100  1
  Mn  Mn10  1  0.37563100  0.87959300  0.61858400  1
  Mn  Mn11  1  0.37436700  0.62213700  0.87722300  1
  Zn  Zn12  1  0.25329100  0.00212300  0.00141900  1
  Zn  Zn13  1  0.25878400  0.49717100  0.50410000  1
  Zn  Zn14  1  0.00349300  0.24682600  0.24784800  1
  Zn  Zn15  1  0.99650700  0.74682600  0.75215200  1
  Zn  Zn16  1  0.74670900  0.50212300  0.99858100  1
  Zn  Zn17  1  0.74121600  0.99717100  0.49590000  1
  O  O18  1  0.14962800  0.39316300  0.13637100  1
  O  O19  1  0.11536200  0.10074900  0.39443000  1
  O  O20  1  0.13468200  0.85827400  0.14858600  1
  O  O21  1  0.11373300  0.63750900  0.36288500  1
  O  O22  1  0.10822600  0.35061700  0.61371400  1
  O  O23  1  0.10124200  0.11325600  0.85639900  1
  O  O24  1  0.13468600  0.88712000  0.61229000  1
  O  O25  1  0.14354600  0.63661400  0.89931700  1
  O  O26  1  0.85645400  0.13661400  0.10068300  1
  O  O27  1  0.86531400  0.38712000  0.38771000  1
  O  O28  1  0.89875800  0.61325600  0.14360100  1
  O  O29  1  0.89177400  0.85061700  0.38628600  1
  O  O30  1  0.88626700  0.13750900  0.63711500  1
  O  O31  1  0.86531800  0.35827400  0.85141400  1
  O  O32  1  0.88463800  0.60074900  0.60557000  1
  O  O33  1  0.85037200  0.89316300  0.86362900  1
  O  O34  1  0.61163300  0.36246500  0.13753500  1
  O  O35  1  0.61028600  0.90199200  0.10243400  1
  O  O36  1  0.63903600  0.14664100  0.34876200  1
  O  O37  1  0.65108200  0.59975500  0.36020500  1
  O  O38  1  0.64686700  0.36256200  0.59750700  1
  O  O39  1  0.59940300  0.88578100  0.64268000  1
  O  O40  1  0.64007600  0.11151200  0.88875900  1
  O  O41  1  0.60560200  0.64951700  0.88449100  1
  O  O42  1  0.39439800  0.14951700  0.11550900  1
  O  O43  1  0.35992400  0.61151200  0.11124100  1
  O  O44  1  0.40059700  0.38578100  0.35732000  1
  O  O45  1  0.35313300  0.86256200  0.40249300  1
  O  O46  1  0.34891800  0.09975500  0.63979500  1
  O  O47  1  0.36096400  0.64664100  0.65123800  1
  O  O48  1  0.38971400  0.40199200  0.89756600  1
  O  O49  1  0.38836700  0.86246500  0.86246500  1
