# generated using pymatgen
data_Mn6OF11
_symmetry_space_group_name_H-M   'P 1'
_cell_length_a   4.96419700
_cell_length_b   16.21416400
_cell_length_c   5.88786578
_cell_angle_alpha   90.00000000
_cell_angle_beta   90.89403819
_cell_angle_gamma   90.00000000
_symmetry_Int_Tables_number   1
_chemical_formula_structural   Mn6OF11
_chemical_formula_sum   'Mn12 O2 F22'
_cell_volume   473.85841439
_cell_formula_units_Z   2
loop_
 _symmetry_equiv_pos_site_id
 _symmetry_equiv_pos_as_xyz
  1  'x, y, z'
loop_
 _atom_site_type_symbol
 _atom_site_label
 _atom_site_symmetry_multiplicity
 _atom_site_fract_x
 _atom_site_fract_y
 _atom_site_fract_z
 _atom_site_occupancy
  Mn  Mn0  1  0.74564500  0.58470800  0.92354900  1
  Mn  Mn1  1  0.75848800  0.75051000  0.57930500  1
  Mn  Mn2  1  0.76933600  0.91187700  0.93473600  1
  Mn  Mn3  1  0.76362300  0.25553300  0.91600400  1
  Mn  Mn4  1  0.75996100  0.41465000  0.60497000  1
  Mn  Mn5  1  0.74205900  0.08023100  0.58370800  1
  Mn  Mn6  1  0.23066400  0.41187700  0.06526400  1
  Mn  Mn7  1  0.25435500  0.08470800  0.07645100  1
  Mn  Mn8  1  0.25794100  0.58023100  0.41629200  1
  Mn  Mn9  1  0.23637700  0.75553300  0.08399600  1
  Mn  Mn10  1  0.24003900  0.91465000  0.39503000  1
  Mn  Mn11  1  0.24151200  0.25051000  0.42069500  1
  O  O12  1  0.96009900  0.36521700  0.83792700  1
  O  O13  1  0.03990100  0.86521700  0.16207300  1
  F  F14  1  0.98369200  0.69175300  0.85471800  1
  F  F15  1  0.96919400  0.02585100  0.85975700  1
  F  F16  1  0.99162000  0.86170200  0.64400400  1
  F  F17  1  0.96973000  0.52474400  0.63726000  1
  F  F18  1  0.97978200  0.18972500  0.64281400  1
  F  F19  1  0.02021800  0.68972500  0.35718600  1
  F  F20  1  0.03080600  0.52585100  0.14024300  1
  F  F21  1  0.00838000  0.36170200  0.35599600  1
  F  F22  1  0.01630800  0.19175300  0.14528200  1
  F  F23  1  0.03027000  0.02474400  0.36274000  1
  F  F24  1  0.48618900  0.97542700  0.14270500  1
  F  F25  1  0.47468200  0.64352600  0.14405700  1
  F  F26  1  0.50018500  0.46752800  0.37328300  1
  F  F27  1  0.47961000  0.81128800  0.36927000  1
  F  F28  1  0.47786000  0.14068500  0.35808600  1
  F  F29  1  0.46244500  0.30504700  0.13553600  1
  F  F30  1  0.52214000  0.64068500  0.64191400  1
  F  F31  1  0.52531800  0.14352600  0.85594300  1
  F  F32  1  0.53755500  0.80504700  0.86446400  1
  F  F33  1  0.49981500  0.96752800  0.62671700  1
  F  F34  1  0.51381100  0.47542700  0.85729500  1
  F  F35  1  0.52039000  0.31128800  0.63073000  1
