# generated using pymatgen
data_V3OF11
_symmetry_space_group_name_H-M   'P 1'
_cell_length_a   5.45794300
_cell_length_b   5.26240100
_cell_length_c   14.89432485
_cell_angle_alpha   90.00000000
_cell_angle_beta   100.21868890
_cell_angle_gamma   90.00000000
_symmetry_Int_Tables_number   1
_chemical_formula_structural   V3OF11
_chemical_formula_sum   'V6 O2 F22'
_cell_volume   421.00733904
_cell_formula_units_Z   2
loop_
 _symmetry_equiv_pos_site_id
 _symmetry_equiv_pos_as_xyz
  1  'x, y, z'
loop_
 _atom_site_type_symbol
 _atom_site_label
 _atom_site_symmetry_multiplicity
 _atom_site_fract_x
 _atom_site_fract_y
 _atom_site_fract_z
 _atom_site_occupancy
  V  V0  1  0.37702300  0.47538800  0.33032500  1
  V  V1  1  0.25005700  0.99984400  0.00003800  1
  V  V2  1  0.09372700  0.49210700  0.66583800  1
  V  V3  1  0.90627300  0.99210700  0.33416200  1
  V  V4  1  0.74994300  0.49984400  0.99996200  1
  V  V5  1  0.62297700  0.97538800  0.66967500  1
  O  O6  1  0.87418300  0.79443800  0.68864600  1
  O  O7  1  0.12581700  0.29443800  0.31135400  1
  F  F8  1  0.39279100  0.70973100  0.69107000  1
  F  F9  1  0.22029400  0.78667800  0.35719400  1
  F  F10  1  0.27777200  0.20689700  0.64339900  1
  F  F11  1  0.38541400  0.59238500  0.21939800  1
  F  F12  1  0.20810600  0.91430600  0.88357700  1
  F  F13  1  0.03550000  0.58782100  0.55006100  1
  F  F14  1  0.29108600  0.08707500  0.11633900  1
  F  F15  1  0.12058600  0.42402300  0.78355600  1
  F  F16  1  0.96450000  0.08782100  0.44993900  1
  F  F17  1  0.06038600  0.69797400  0.02461000  1
  F  F18  1  0.72222800  0.70689700  0.35660100  1
  F  F19  1  0.93961400  0.19797400  0.97539000  1
  F  F20  1  0.77970600  0.28667800  0.64280600  1
  F  F21  1  0.87941400  0.92402300  0.21644400  1
  F  F22  1  0.70891400  0.58707500  0.88366100  1
  F  F23  1  0.52244300  0.92929500  0.55119800  1
  F  F24  1  0.79189400  0.41430600  0.11642300  1
  F  F25  1  0.61458600  0.09238500  0.78060200  1
  F  F26  1  0.47755700  0.42929500  0.44880200  1
  F  F27  1  0.56005500  0.80203600  0.02447200  1
  F  F28  1  0.60720900  0.20973100  0.30893000  1
  F  F29  1  0.43994500  0.30203600  0.97552800  1
