# generated using pymatgen
data_LiVPO4
_symmetry_space_group_name_H-M   'P 1'
_cell_length_a   4.95878410
_cell_length_b   9.90824100
_cell_length_c   8.72205631
_cell_angle_alpha   90.00000000
_cell_angle_beta   124.17150684
_cell_angle_gamma   90.00000000
_symmetry_Int_Tables_number   1
_chemical_formula_structural   LiVPO4
_chemical_formula_sum   'Li4 V4 P4 O16'
_cell_volume   354.55626699
_cell_formula_units_Z   4
loop_
 _symmetry_equiv_pos_site_id
 _symmetry_equiv_pos_as_xyz
  1  'x, y, z'
loop_
 _atom_site_type_symbol
 _atom_site_label
 _atom_site_symmetry_multiplicity
 _atom_site_fract_x
 _atom_site_fract_y
 _atom_site_fract_z
 _atom_site_occupancy
  Li  Li0  1  0.18745800  0.17009900  0.98725150  1
  Li  Li1  1  0.81254200  0.67009900  0.51274850  1
  Li  Li2  1  0.18745800  0.32990100  0.48725150  1
  Li  Li3  1  0.81254200  0.82990100  0.01274850  1
  V  V4  1  0.28620100  0.61428300  0.01573050  1
  V  V5  1  0.28620100  0.88571700  0.51573050  1
  V  V6  1  0.71379900  0.11428300  0.48426950  1
  V  V7  1  0.71379900  0.38571700  0.98426950  1
  P  P8  1  0.45987000  0.40469700  0.26751250  1
  P  P9  1  0.54013000  0.90469700  0.23248750  1
  P  P10  1  0.45987000  0.09530300  0.76751250  1
  P  P11  1  0.54013000  0.59530300  0.73248750  1
  O  O12  1  0.85313500  0.62677700  0.74011350  1
  O  O13  1  0.14686500  0.12677700  0.75988650  1
  O  O14  1  0.85313500  0.87322300  0.24011350  1
  O  O15  1  0.14686500  0.37322300  0.25988650  1
  O  O16  1  0.63708300  0.87983800  0.43979350  1
  O  O17  1  0.36291700  0.37983800  0.06020650  1
  O  O18  1  0.63708300  0.62016200  0.93979350  1
  O  O19  1  0.36291700  0.12016200  0.56020650  1
  O  O20  1  0.25971700  0.81449100  0.08705350  1
  O  O21  1  0.74028300  0.31449100  0.41294650  1
  O  O22  1  0.25971700  0.68550900  0.58705350  1
  O  O23  1  0.74028300  0.18550900  0.91294650  1
  O  O24  1  0.44617600  0.05605000  0.19886450  1
  O  O25  1  0.55382400  0.55605000  0.30113550  1
  O  O26  1  0.44617600  0.44395000  0.69886450  1
  O  O27  1  0.55382400  0.94395000  0.80113550  1
