# generated using pymatgen
data_Li4Fe3Cu3(WO8)2
_symmetry_space_group_name_H-M   'P 1'
_cell_length_a   10.46180400
_cell_length_b   5.91648200
_cell_length_c   9.90764229
_cell_angle_alpha   90.00000000
_cell_angle_beta   93.54784585
_cell_angle_gamma   90.00000000
_symmetry_Int_Tables_number   1
_chemical_formula_structural   Li4Fe3Cu3(WO8)2
_chemical_formula_sum   'Li8 Fe6 Cu6 W4 O32'
_cell_volume   612.07875882
_cell_formula_units_Z   2
loop_
 _symmetry_equiv_pos_site_id
 _symmetry_equiv_pos_as_xyz
  1  'x, y, z'
loop_
 _atom_site_type_symbol
 _atom_site_label
 _atom_site_symmetry_multiplicity
 _atom_site_fract_x
 _atom_site_fract_y
 _atom_site_fract_z
 _atom_site_occupancy
  Li  Li0  1  0.66370600  0.00000000  0.08758100  1
  Li  Li1  1  0.50077000  0.50000000  0.01487900  1
  Li  Li2  1  0.50243200  0.50000000  0.51825300  1
  Li  Li3  1  0.84482800  0.50000000  0.58806800  1
  Li  Li4  1  0.16370600  0.50000000  0.08758100  1
  Li  Li5  1  0.00077000  0.00000000  0.01487900  1
  Li  Li6  1  0.00243200  0.00000000  0.51825300  1
  Li  Li7  1  0.34482800  0.00000000  0.58806800  1
  Fe  Fe8  1  0.83100200  0.00000000  0.78408300  1
  Fe  Fe9  1  0.91194450  0.25413650  0.28438100  1
  Fe  Fe10  1  0.91194450  0.74586350  0.28438100  1
  Fe  Fe11  1  0.33100200  0.50000000  0.78408300  1
  Fe  Fe12  1  0.41194450  0.75413650  0.28438100  1
  Fe  Fe13  1  0.41194450  0.24586350  0.28438100  1
  Cu  Cu14  1  0.58594550  0.75480250  0.78823500  1
  Cu  Cu15  1  0.58594550  0.24519750  0.78823500  1
  Cu  Cu16  1  0.66821800  0.50000000  0.29207400  1
  Cu  Cu17  1  0.08594550  0.25480250  0.78823500  1
  Cu  Cu18  1  0.08594550  0.74519750  0.78823500  1
  Cu  Cu19  1  0.16821800  0.00000000  0.29207400  1
  W  W20  1  0.67758500  0.00000000  0.51211600  1
  W  W21  1  0.82715100  0.50000000  0.01458200  1
  W  W22  1  0.17758500  0.50000000  0.51211600  1
  W  W23  1  0.32715100  0.00000000  0.01458200  1
  O  O24  1  0.57849900  0.76210800  0.41892800  1
  O  O25  1  0.53287300  0.00000000  0.65386800  1
  O  O26  1  0.66696800  0.00000000  0.88089500  1
  O  O27  1  0.50284200  0.50000000  0.70693700  1
  O  O28  1  0.50142500  0.50000000  0.20341300  1
  O  O29  1  0.57849900  0.23789200  0.41892800  1
  O  O30  1  0.75976450  0.78209650  0.63689900  1
  O  O31  1  0.75976450  0.21790350  0.63689900  1
  O  O32  1  0.66013800  0.50000000  0.91201200  1
  O  O33  1  0.82487900  0.00000000  0.39755200  1
  O  O34  1  0.76010150  0.27489650  0.14560600  1
  O  O35  1  0.76010150  0.72510350  0.14560600  1
  O  O36  1  0.83352700  0.50000000  0.38618800  1
  O  O37  1  0.89687450  0.25438050  0.91813500  1
  O  O38  1  0.97838900  0.50000000  0.15555500  1
  O  O39  1  0.89687450  0.74561950  0.91813500  1
  O  O40  1  0.07849900  0.26210800  0.41892800  1
  O  O41  1  0.03287300  0.50000000  0.65386800  1
  O  O42  1  0.16696800  0.50000000  0.88089500  1
  O  O43  1  0.00284200  0.00000000  0.70693700  1
  O  O44  1  0.00142500  0.00000000  0.20341300  1
  O  O45  1  0.07849900  0.73789200  0.41892800  1
  O  O46  1  0.25976450  0.28209650  0.63689900  1
  O  O47  1  0.25976450  0.71790350  0.63689900  1
  O  O48  1  0.16013800  0.00000000  0.91201200  1
  O  O49  1  0.32487900  0.50000000  0.39755200  1
  O  O50  1  0.26010150  0.77489650  0.14560600  1
  O  O51  1  0.26010150  0.22510350  0.14560600  1
  O  O52  1  0.33352700  0.00000000  0.38618800  1
  O  O53  1  0.39687450  0.75438050  0.91813500  1
  O  O54  1  0.47838900  0.00000000  0.15555500  1
  O  O55  1  0.39687450  0.24561950  0.91813500  1
