# generated using pymatgen
data_V4CoNiO12
_symmetry_space_group_name_H-M   'P 1'
_cell_length_a   10.09121313
_cell_length_b   9.11121734
_cell_length_c   5.87399329
_cell_angle_alpha   90.00000000
_cell_angle_beta   110.84710889
_cell_angle_gamma   90.00000000
_symmetry_Int_Tables_number   1
_chemical_formula_structural   V4CoNiO12
_chemical_formula_sum   'V8 Co2 Ni2 O24'
_cell_volume   504.71714102
_cell_formula_units_Z   2
loop_
 _symmetry_equiv_pos_site_id
 _symmetry_equiv_pos_as_xyz
  1  'x, y, z'
loop_
 _atom_site_type_symbol
 _atom_site_label
 _atom_site_symmetry_multiplicity
 _atom_site_fract_x
 _atom_site_fract_y
 _atom_site_fract_z
 _atom_site_occupancy
  V  V0  1  0.20319850  0.59053850  0.49567600  1
  V  V1  1  0.79680150  0.59053850  0.50432400  1
  V  V2  1  0.20319750  0.40894950  0.99446800  1
  V  V3  1  0.79680250  0.40894950  0.00553200  1
  V  V4  1  0.70319850  0.09053850  0.49567600  1
  V  V5  1  0.29680150  0.09053850  0.50432400  1
  V  V6  1  0.70319750  0.90894950  0.99446800  1
  V  V7  1  0.29680250  0.90894950  0.00553200  1
  Co  Co8  1  0.00000000  0.91671700  0.50000000  1
  Co  Co9  1  0.50000000  0.41671700  0.50000000  1
  Ni  Ni10  1  0.00000000  0.08546750  0.00000000  1
  Ni  Ni11  1  0.50000000  0.58546750  0.00000000  1
  O  O12  1  0.38572200  0.57781100  0.61512900  1
  O  O13  1  0.61427800  0.57781100  0.38487100  1
  O  O14  1  0.14575800  0.76437700  0.47953600  1
  O  O15  1  0.85424200  0.76437700  0.52046400  1
  O  O16  1  0.38510850  0.42226450  0.11001200  1
  O  O17  1  0.61489150  0.42226450  0.88998800  1
  O  O18  1  0.13804650  0.48914450  0.69585400  1
  O  O19  1  0.86195350  0.48914450  0.30414600  1
  O  O20  1  0.13939750  0.51054650  0.19693900  1
  O  O21  1  0.86060250  0.51054650  0.80306100  1
  O  O22  1  0.14599950  0.23488550  0.97612900  1
  O  O23  1  0.85400050  0.23488550  0.02387100  1
  O  O24  1  0.88572200  0.07781100  0.61512900  1
  O  O25  1  0.11427800  0.07781100  0.38487100  1
  O  O26  1  0.64575800  0.26437700  0.47953600  1
  O  O27  1  0.35424200  0.26437700  0.52046400  1
  O  O28  1  0.88510850  0.92226450  0.11001200  1
  O  O29  1  0.11489150  0.92226450  0.88998800  1
  O  O30  1  0.63804650  0.98914450  0.69585400  1
  O  O31  1  0.36195350  0.98914450  0.30414600  1
  O  O32  1  0.63939750  0.01054650  0.19693900  1
  O  O33  1  0.36060250  0.01054650  0.80306100  1
  O  O34  1  0.64599950  0.73488550  0.97612900  1
  O  O35  1  0.35400050  0.73488550  0.02387100  1
