# generated using pymatgen
data_Ti3MnCr(PO4)6
_symmetry_space_group_name_H-M   'P 1'
_cell_length_a   8.65671567
_cell_length_b   8.65671567
_cell_length_c   21.10134662
_cell_angle_alpha   90.00000000
_cell_angle_beta   90.00000000
_cell_angle_gamma   120.00000000
_symmetry_Int_Tables_number   1
_chemical_formula_structural   Ti3MnCr(PO4)6
_chemical_formula_sum   'Ti9 Mn3 Cr3 P18 O72'
_cell_volume   1369.45293216
_cell_formula_units_Z   3
loop_
 _symmetry_equiv_pos_site_id
 _symmetry_equiv_pos_as_xyz
  1  'x, y, z'
loop_
 _atom_site_type_symbol
 _atom_site_label
 _atom_site_symmetry_multiplicity
 _atom_site_fract_x
 _atom_site_fract_y
 _atom_site_fract_z
 _atom_site_occupancy
  Ti  Ti0  1  0.33333333  0.66666667  0.80164567  1
  Ti  Ti1  1  0.33333333  0.66666667  0.02039867  1
  Ti  Ti2  1  0.33333333  0.66666667  0.53124867  1
  Ti  Ti3  1  0.00000000  0.00000000  0.13497900  1
  Ti  Ti4  1  0.00000000  0.00000000  0.35373200  1
  Ti  Ti5  1  0.00000000  0.00000000  0.86458200  1
  Ti  Ti6  1  0.66666667  0.33333333  0.46831233  1
  Ti  Ti7  1  0.66666667  0.33333333  0.68706533  1
  Ti  Ti8  1  0.66666667  0.33333333  0.19791533  1
  Mn  Mn9  1  0.33333333  0.66666667  0.16683267  1
  Mn  Mn10  1  0.00000000  0.00000000  0.50016600  1
  Mn  Mn11  1  0.66666667  0.33333333  0.83349933  1
  Cr  Cr12  1  0.33333333  0.66666667  0.31102867  1
  Cr  Cr13  1  0.00000000  0.00000000  0.64436200  1
  Cr  Cr14  1  0.66666667  0.33333333  0.97769533  1
  P  P15  1  0.95518267  0.33767633  0.08500733  1
  P  P16  1  0.28708200  0.29189300  0.24796000  1
  P  P17  1  0.00481100  0.71291800  0.24796000  1
  P  P18  1  0.66232367  0.61750633  0.08500733  1
  P  P19  1  0.38249367  0.04481733  0.08500733  1
  P  P20  1  0.70810700  0.99518900  0.24796000  1
  P  P21  1  0.62184933  0.67100967  0.41834067  1
  P  P22  1  0.95374867  0.62522633  0.58129333  1
  P  P23  1  0.67147767  0.04625133  0.58129333  1
  P  P24  1  0.32899033  0.95083967  0.41834067  1
  P  P25  1  0.04916033  0.37815067  0.41834067  1
  P  P26  1  0.37477367  0.32852233  0.58129333  1
  P  P27  1  0.28851600  0.00434300  0.75167400  1
  P  P28  1  0.62041533  0.95855967  0.91462667  1
  P  P29  1  0.33814433  0.37958467  0.91462667  1
  P  P30  1  0.99565700  0.28417300  0.75167400  1
  P  P31  1  0.71582700  0.71148400  0.75167400  1
  P  P32  1  0.04144033  0.66185567  0.91462667  1
  O  O33  1  0.97905633  0.17255067  0.08415667  1
  O  O34  1  0.85615133  0.34384067  0.14413367  1
  O  O35  1  0.83843467  0.52668133  0.25041433  1
  O  O36  1  0.14083267  0.47476933  0.35679133  1
  O  O37  1  0.14664433  0.50685767  0.08795767  1
  O  O38  1  0.30823000  0.48215300  0.24591800  1
  O  O39  1  0.47331867  0.31175333  0.25041433  1
  O  O40  1  0.80815800  0.98849400  0.18944300  1
  O  O41  1  0.33558300  0.47959400  0.97561000  1
  O  O42  1  0.01150600  0.81966400  0.18944300  1
  O  O43  1  0.14401100  0.66441700  0.97561000  1
  O  O44  1  0.17392300  0.69177000  0.24591800  1
  O  O45  1  0.49314233  0.63978667  0.08795767  1
  O  O46  1  0.52523067  0.66606333  0.35679133  1
  O  O47  1  0.65615933  0.51231067  0.14413367  1
  O  O48  1  0.33393667  0.85916733  0.35679133  1
  O  O49  1  0.19349433  0.02094367  0.08415667  1
  O  O50  1  0.36021333  0.85335567  0.08795767  1
  O  O51  1  0.51784700  0.82607700  0.24591800  1
  O  O52  1  0.52040600  0.85598900  0.97561000  1
  O  O53  1  0.18033600  0.19184200  0.18944300  1
  O  O54  1  0.48768933  0.14384867  0.14413367  1
  O  O55  1  0.82744933  0.80650567  0.08415667  1
  O  O56  1  0.68824667  0.16156533  0.25041433  1
  O  O57  1  0.64572300  0.50588400  0.41749000  1
  O  O58  1  0.52281800  0.67717400  0.47746700  1
  O  O59  1  0.50510133  0.86001467  0.58374767  1
  O  O60  1  0.80749933  0.80810267  0.69012467  1
  O  O61  1  0.81331100  0.84019100  0.42129100  1
  O  O62  1  0.97489667  0.81548633  0.57925133  1
  O  O63  1  0.13998533  0.64508667  0.58374767  1
  O  O64  1  0.47482467  0.32182733  0.52277633  1
  O  O65  1  0.00224967  0.81292733  0.30894333  1
  O  O66  1  0.67817267  0.15299733  0.52277633  1
  O  O67  1  0.81067767  0.99775033  0.30894333  1
  O  O68  1  0.84058967  0.02510333  0.57925133  1
  O  O69  1  0.15980900  0.97312000  0.42129100  1
  O  O70  1  0.19189733  0.99939667  0.69012467  1
  O  O71  1  0.32282600  0.84564400  0.47746700  1
  O  O72  1  0.00060333  0.19250067  0.69012467  1
  O  O73  1  0.86016100  0.35427700  0.41749000  1
  O  O74  1  0.02688000  0.18668900  0.42129100  1
  O  O75  1  0.18451367  0.15941033  0.57925133  1
  O  O76  1  0.18707267  0.18932233  0.30894333  1
  O  O77  1  0.84700267  0.52517533  0.52277633  1
  O  O78  1  0.15435600  0.47718200  0.47746700  1
  O  O79  1  0.49411600  0.13983900  0.41749000  1
  O  O80  1  0.35491333  0.49489867  0.58374767  1
  O  O81  1  0.31238967  0.83921733  0.75082333  1
  O  O82  1  0.18948467  0.01050733  0.81080033  1
  O  O83  1  0.17176800  0.19334800  0.91708100  1
  O  O84  1  0.47416600  0.14143600  0.02345800  1
  O  O85  1  0.47997767  0.17352433  0.75462433  1
  O  O86  1  0.64156333  0.14881967  0.91258467  1
  O  O87  1  0.80665200  0.97842000  0.91708100  1
  O  O88  1  0.14149133  0.65516067  0.85610967  1
  O  O89  1  0.66891633  0.14626067  0.64227667  1
  O  O90  1  0.34483933  0.48633067  0.85610967  1
  O  O91  1  0.47734433  0.33108367  0.64227667  1
  O  O92  1  0.50725633  0.35843667  0.91258467  1
  O  O93  1  0.82647567  0.30645333  0.75462433  1
  O  O94  1  0.85856400  0.33273000  0.02345800  1
  O  O95  1  0.98949267  0.17897733  0.81080033  1
  O  O96  1  0.66727000  0.52583400  0.02345800  1
  O  O97  1  0.52682767  0.68761033  0.75082333  1
  O  O98  1  0.69354667  0.52002233  0.75462433  1
  O  O99  1  0.85118033  0.49274367  0.91258467  1
  O  O100  1  0.85373933  0.52265567  0.64227667  1
  O  O101  1  0.51366933  0.85850867  0.85610967  1
  O  O102  1  0.82102267  0.81051533  0.81080033  1
  O  O103  1  0.16078267  0.47317233  0.75082333  1
  O  O104  1  0.02158000  0.82823200  0.91708100  1
