# generated using pymatgen
data_Fe2CoO6
_symmetry_space_group_name_H-M   'P 1'
_cell_length_a   14.33731000
_cell_length_b   8.35869800
_cell_length_c   4.35808788
_cell_angle_alpha   90.00000000
_cell_angle_beta   90.72810043
_cell_angle_gamma   90.00000000
_symmetry_Int_Tables_number   1
_chemical_formula_structural   Fe2CoO6
_chemical_formula_sum   'Fe12 Co6 O36'
_cell_volume   522.23650510
_cell_formula_units_Z   6
loop_
 _symmetry_equiv_pos_site_id
 _symmetry_equiv_pos_as_xyz
  1  'x, y, z'
loop_
 _atom_site_type_symbol
 _atom_site_label
 _atom_site_symmetry_multiplicity
 _atom_site_fract_x
 _atom_site_fract_y
 _atom_site_fract_z
 _atom_site_occupancy
  Fe  Fe0  1  0.82187450  0.82225250  0.00545500  1
  Fe  Fe1  1  0.65824500  0.65864100  0.50198700  1
  Fe  Fe2  1  0.17812550  0.82225250  0.99454500  1
  Fe  Fe3  1  0.50000000  0.19401200  0.50000000  1
  Fe  Fe4  1  0.34175500  0.65864100  0.49801300  1
  Fe  Fe5  1  0.50000000  0.85238800  0.00000000  1
  Fe  Fe6  1  0.32187450  0.32225250  0.00545500  1
  Fe  Fe7  1  0.15824500  0.15864100  0.50198700  1
  Fe  Fe8  1  0.67812550  0.32225250  0.99454500  1
  Fe  Fe9  1  0.00000000  0.69401200  0.50000000  1
  Fe  Fe10  1  0.84175500  0.15864100  0.49801300  1
  Fe  Fe11  1  0.00000000  0.35238800  0.00000000  1
  Co  Co12  1  0.33311400  0.99696300  0.50463400  1
  Co  Co13  1  0.50000000  0.50465600  0.00000000  1
  Co  Co14  1  0.66688600  0.99696300  0.49536600  1
  Co  Co15  1  0.83311400  0.49696300  0.50463400  1
  Co  Co16  1  0.00000000  0.00465600  0.00000000  1
  Co  Co17  1  0.16688600  0.49696300  0.49536600  1
  O  O18  1  0.44130050  0.34765450  0.77354300  1
  O  O19  1  0.38499050  0.15974250  0.26949000  1
  O  O20  1  0.26797050  0.15079250  0.73489500  1
  O  O21  1  0.43879500  0.01465500  0.74104400  1
  O  O22  1  0.22415750  0.00003650  0.27712900  1
  O  O23  1  0.10710300  0.99717500  0.75640100  1
  O  O24  1  0.38580000  0.83396700  0.27117900  1
  O  O25  1  0.55869950  0.34765450  0.22645700  1
  O  O26  1  0.28976200  0.82586100  0.72958000  1
  O  O27  1  0.44769750  0.66678050  0.76050100  1
  O  O28  1  0.61500950  0.15974250  0.73051000  1
  O  O29  1  0.73202950  0.15079250  0.26510500  1
  O  O30  1  0.56120500  0.01465500  0.25895600  1
  O  O31  1  0.77584250  0.00003650  0.72287100  1
  O  O32  1  0.89289700  0.99717500  0.24359900  1
  O  O33  1  0.61420000  0.83396700  0.72882100  1
  O  O34  1  0.71023800  0.82586100  0.27042000  1
  O  O35  1  0.55230250  0.66678050  0.23949900  1
  O  O36  1  0.94130050  0.84765450  0.77354300  1
  O  O37  1  0.88499050  0.65974250  0.26949000  1
  O  O38  1  0.76797050  0.65079250  0.73489500  1
  O  O39  1  0.93879500  0.51465500  0.74104400  1
  O  O40  1  0.72415750  0.50003650  0.27712900  1
  O  O41  1  0.60710300  0.49717500  0.75640100  1
  O  O42  1  0.88580000  0.33396700  0.27117900  1
  O  O43  1  0.05869950  0.84765450  0.22645700  1
  O  O44  1  0.78976200  0.32586100  0.72958000  1
  O  O45  1  0.94769750  0.16678050  0.76050100  1
  O  O46  1  0.11500950  0.65974250  0.73051000  1
  O  O47  1  0.23202950  0.65079250  0.26510500  1
  O  O48  1  0.06120500  0.51465500  0.25895600  1
  O  O49  1  0.27584250  0.50003650  0.72287100  1
  O  O50  1  0.39289700  0.49717500  0.24359900  1
  O  O51  1  0.11420000  0.33396700  0.72882100  1
  O  O52  1  0.21023800  0.32586100  0.27042000  1
  O  O53  1  0.05230250  0.16678050  0.23949900  1
