# generated using pymatgen
data_Fe3(O2F)2
_symmetry_space_group_name_H-M   'P 1'
_cell_length_a   6.64219493
_cell_length_b   20.11909460
_cell_length_c   3.02698500
_cell_angle_alpha   90.00000000
_cell_angle_beta   90.00000000
_cell_angle_gamma   90.00000000
_symmetry_Int_Tables_number   1
_chemical_formula_structural   Fe3(O2F)2
_chemical_formula_sum   'Fe12 O16 F8'
_cell_volume   404.51098339
_cell_formula_units_Z   4
loop_
 _symmetry_equiv_pos_site_id
 _symmetry_equiv_pos_as_xyz
  1  'x, y, z'
loop_
 _atom_site_type_symbol
 _atom_site_label
 _atom_site_symmetry_multiplicity
 _atom_site_fract_x
 _atom_site_fract_y
 _atom_site_fract_z
 _atom_site_occupancy
  Fe  Fe0  1  0.50000000  0.65967900  0.00000000  1
  Fe  Fe1  1  0.00000000  0.66111700  0.50000000  1
  Fe  Fe2  1  0.00000000  0.50000000  0.00000000  1
  Fe  Fe3  1  0.00000000  0.33888300  0.50000000  1
  Fe  Fe4  1  0.50000000  0.50000000  0.50000000  1
  Fe  Fe5  1  0.50000000  0.34032100  0.00000000  1
  Fe  Fe6  1  0.00000000  0.15967900  0.00000000  1
  Fe  Fe7  1  0.50000000  0.16111700  0.50000000  1
  Fe  Fe8  1  0.50000000  0.00000000  0.00000000  1
  Fe  Fe9  1  0.50000000  0.83888300  0.50000000  1
  Fe  Fe10  1  0.00000000  0.00000000  0.50000000  1
  Fe  Fe11  1  0.00000000  0.84032100  0.00000000  1
  O  O12  1  0.80713050  0.66515050  0.00000000  1
  O  O13  1  0.19286950  0.66515050  0.00000000  1
  O  O14  1  0.00000000  0.56022050  0.50000000  1
  O  O15  1  0.00000000  0.43977950  0.50000000  1
  O  O16  1  0.50000000  0.59649600  0.50000000  1
  O  O17  1  0.19286950  0.33484950  0.00000000  1
  O  O18  1  0.50000000  0.40350400  0.50000000  1
  O  O19  1  0.80713050  0.33484950  0.00000000  1
  O  O20  1  0.30713050  0.16515050  0.00000000  1
  O  O21  1  0.69286950  0.16515050  0.00000000  1
  O  O22  1  0.50000000  0.06022050  0.50000000  1
  O  O23  1  0.50000000  0.93977950  0.50000000  1
  O  O24  1  0.00000000  0.09649600  0.50000000  1
  O  O25  1  0.69286950  0.83484950  0.00000000  1
  O  O26  1  0.00000000  0.90350400  0.50000000  1
  O  O27  1  0.30713050  0.83484950  0.00000000  1
  F  F28  1  0.69336000  0.50000000  0.00000000  1
  F  F29  1  0.30664000  0.50000000  0.00000000  1
  F  F30  1  0.00000000  0.23088350  0.50000000  1
  F  F31  1  0.50000000  0.26911650  0.50000000  1
  F  F32  1  0.19336000  0.00000000  0.00000000  1
  F  F33  1  0.80664000  0.00000000  0.00000000  1
  F  F34  1  0.50000000  0.73088350  0.50000000  1
  F  F35  1  0.00000000  0.76911650  0.50000000  1
