# generated using pymatgen
data_Li3Mn4O8
_symmetry_space_group_name_H-M   'P 1'
_cell_length_a   5.87713799
_cell_length_b   5.87713799
_cell_length_c   15.53152716
_cell_angle_alpha   90.00000000
_cell_angle_beta   90.00000000
_cell_angle_gamma   120.00000000
_symmetry_Int_Tables_number   1
_chemical_formula_structural   Li3Mn4O8
_chemical_formula_sum   'Li9 Mn12 O24'
_cell_volume   464.59717765
_cell_formula_units_Z   3
loop_
 _symmetry_equiv_pos_site_id
 _symmetry_equiv_pos_as_xyz
  1  'x, y, z'
loop_
 _atom_site_type_symbol
 _atom_site_label
 _atom_site_symmetry_multiplicity
 _atom_site_fract_x
 _atom_site_fract_y
 _atom_site_fract_z
 _atom_site_occupancy
  Li  Li0  1  0.00000000  0.00000000  0.14213900  1
  Li  Li1  1  0.00000000  0.00000000  0.00000000  1
  Li  Li2  1  0.66666667  0.33333333  0.19119433  1
  Li  Li3  1  0.66666667  0.33333333  0.47547233  1
  Li  Li4  1  0.66666667  0.33333333  0.33333333  1
  Li  Li5  1  0.33333333  0.66666667  0.52452767  1
  Li  Li6  1  0.33333333  0.66666667  0.80880567  1
  Li  Li7  1  0.33333333  0.66666667  0.66666667  1
  Li  Li8  1  0.00000000  0.00000000  0.85786100  1
  Mn  Mn9  1  0.33333333  0.66666667  0.16666667  1
  Mn  Mn10  1  0.00000000  0.50000000  0.00000000  1
  Mn  Mn11  1  0.50000000  0.00000000  0.00000000  1
  Mn  Mn12  1  0.50000000  0.50000000  0.00000000  1
  Mn  Mn13  1  1.00000000  1.00000000  0.50000000  1
  Mn  Mn14  1  0.66666667  0.83333333  0.33333333  1
  Mn  Mn15  1  0.16666667  0.33333333  0.33333333  1
  Mn  Mn16  1  0.16666667  0.83333333  0.33333333  1
  Mn  Mn17  1  0.66666667  0.33333333  0.83333333  1
  Mn  Mn18  1  0.33333333  0.16666667  0.66666667  1
  Mn  Mn19  1  0.83333333  0.66666667  0.66666667  1
  Mn  Mn20  1  0.83333333  0.16666667  0.66666667  1
  O  O21  1  0.17549367  0.35098733  0.06949833  1
  O  O22  1  0.17549367  0.82450633  0.06949833  1
  O  O23  1  0.64901267  0.82450633  0.06949833  1
  O  O24  1  0.00000000  0.00000000  0.26525500  1
  O  O25  1  0.01765400  0.50882700  0.26383500  1
  O  O26  1  0.66666667  0.33333333  0.06807833  1
  O  O27  1  0.49117300  0.50882700  0.26383500  1
  O  O28  1  0.49117300  0.98234600  0.26383500  1
  O  O29  1  0.84216033  0.68432067  0.40283167  1
  O  O30  1  0.84216033  0.15783967  0.40283167  1
  O  O31  1  0.31567933  0.15783967  0.40283167  1
  O  O32  1  0.66666667  0.33333333  0.59858833  1
  O  O33  1  0.68432067  0.84216033  0.59716833  1
  O  O34  1  0.33333333  0.66666667  0.40141167  1
  O  O35  1  0.15783967  0.84216033  0.59716833  1
  O  O36  1  0.15783967  0.31567933  0.59716833  1
  O  O37  1  0.50882700  0.01765400  0.73616500  1
  O  O38  1  0.50882700  0.49117300  0.73616500  1
  O  O39  1  0.98234600  0.49117300  0.73616500  1
  O  O40  1  0.33333333  0.66666667  0.93192167  1
  O  O41  1  0.35098733  0.17549367  0.93050167  1
  O  O42  1  0.00000000  0.00000000  0.73474500  1
  O  O43  1  0.82450633  0.17549367  0.93050167  1
  O  O44  1  0.82450633  0.64901267  0.93050167  1
