# generated using pymatgen
data_Li2V(CO3)2
_symmetry_space_group_name_H-M   'P 1'
_cell_length_a   6.52035510
_cell_length_b   4.90407900
_cell_length_c   8.42258578
_cell_angle_alpha   90.00000000
_cell_angle_beta   100.73298235
_cell_angle_gamma   90.00000000
_symmetry_Int_Tables_number   1
_chemical_formula_structural   Li2V(CO3)2
_chemical_formula_sum   'Li4 V2 C4 O12'
_cell_volume   264.61182682
_cell_formula_units_Z   2
loop_
 _symmetry_equiv_pos_site_id
 _symmetry_equiv_pos_as_xyz
  1  'x, y, z'
loop_
 _atom_site_type_symbol
 _atom_site_label
 _atom_site_symmetry_multiplicity
 _atom_site_fract_x
 _atom_site_fract_y
 _atom_site_fract_z
 _atom_site_occupancy
  Li  Li0  1  0.41918600  0.53214800  0.55973150  1
  Li  Li1  1  0.58081400  0.03214800  0.44026850  1
  Li  Li2  1  0.95098400  0.96441700  0.84438050  1
  Li  Li3  1  0.04901600  0.46441700  0.15561950  1
  V  V4  1  0.29093500  0.50524800  0.90416200  1
  V  V5  1  0.70906500  0.00524800  0.09583800  1
  C  C6  1  0.29391400  0.02597700  0.67246100  1
  C  C7  1  0.70608600  0.52597700  0.32753900  1
  C  C8  1  0.76036800  0.46782800  0.89602000  1
  C  C9  1  0.23963200  0.96782800  0.10398000  1
  O  O10  1  0.39210400  0.91403300  0.57036000  1
  O  O11  1  0.60789600  0.41403300  0.42964000  1
  O  O12  1  0.28107100  0.29037000  0.68092850  1
  O  O13  1  0.71892900  0.79037000  0.31907150  1
  O  O14  1  0.20219100  0.87795300  0.76659700  1
  O  O15  1  0.79780900  0.37795300  0.23340300  1
  O  O16  1  0.94585900  0.56634500  0.89997350  1
  O  O17  1  0.05414100  0.06634500  0.10002650  1
  O  O18  1  0.38497900  0.13246700  0.07329950  1
  O  O19  1  0.61502100  0.63246700  0.92670050  1
  O  O20  1  0.72093000  0.21258200  0.86616450  1
  O  O21  1  0.27907000  0.71258200  0.13383550  1
