# generated using pymatgen
data_Li4Cr2Si3O10
_symmetry_space_group_name_H-M   'P 1'
_cell_length_a   9.29521000
_cell_length_b   5.58067600
_cell_length_c   16.71014148
_cell_angle_alpha   90.00000000
_cell_angle_beta   99.43893464
_cell_angle_gamma   90.00000000
_symmetry_Int_Tables_number   1
_chemical_formula_structural   Li4Cr2Si3O10
_chemical_formula_sum   'Li16 Cr8 Si12 O40'
_cell_volume   855.07860298
_cell_formula_units_Z   4
loop_
 _symmetry_equiv_pos_site_id
 _symmetry_equiv_pos_as_xyz
  1  'x, y, z'
loop_
 _atom_site_type_symbol
 _atom_site_label
 _atom_site_symmetry_multiplicity
 _atom_site_fract_x
 _atom_site_fract_y
 _atom_site_fract_z
 _atom_site_occupancy
  Li  Li0  1  0.75242400  0.91780500  0.55234900  1
  Li  Li1  1  0.69124450  0.10720150  0.72953900  1
  Li  Li2  1  0.75242400  0.08219500  0.05234900  1
  Li  Li3  1  0.69124450  0.89279850  0.22953900  1
  Li  Li4  1  0.30875550  0.10720150  0.77046100  1
  Li  Li5  1  0.24757600  0.91780500  0.94765100  1
  Li  Li6  1  0.30875550  0.89279850  0.27046100  1
  Li  Li7  1  0.24757600  0.08219500  0.44765100  1
  Li  Li8  1  0.25242400  0.41780500  0.55234900  1
  Li  Li9  1  0.19124450  0.60720150  0.72953900  1
  Li  Li10  1  0.25242400  0.58219500  0.05234900  1
  Li  Li11  1  0.19124450  0.39279850  0.22953900  1
  Li  Li12  1  0.80875550  0.60720150  0.77046100  1
  Li  Li13  1  0.74757600  0.41780500  0.94765100  1
  Li  Li14  1  0.80875550  0.39279850  0.27046100  1
  Li  Li15  1  0.74757600  0.58219500  0.44765100  1
  Cr  Cr16  1  0.58957300  0.38892100  0.58318400  1
  Cr  Cr17  1  0.58957300  0.61107900  0.08318400  1
  Cr  Cr18  1  0.41042700  0.38892100  0.91681600  1
  Cr  Cr19  1  0.41042700  0.61107900  0.41681600  1
  Cr  Cr20  1  0.08957300  0.88892100  0.58318400  1
  Cr  Cr21  1  0.08957300  0.11107900  0.08318400  1
  Cr  Cr22  1  0.91042700  0.88892100  0.91681600  1
  Cr  Cr23  1  0.91042700  0.11107900  0.41681600  1
  Si  Si24  1  0.56097900  0.90515600  0.90132600  1
  Si  Si25  1  0.50000000  0.61101800  0.75000000  1
  Si  Si26  1  0.43902100  0.90515600  0.59867400  1
  Si  Si27  1  0.56097900  0.09484400  0.40132600  1
  Si  Si28  1  0.50000000  0.38898200  0.25000000  1
  Si  Si29  1  0.43902100  0.09484400  0.09867400  1
  Si  Si30  1  0.06097900  0.40515600  0.90132600  1
  Si  Si31  1  0.00000000  0.11101800  0.75000000  1
  Si  Si32  1  0.93902100  0.40515600  0.59867400  1
  Si  Si33  1  0.06097900  0.59484400  0.40132600  1
  Si  Si34  1  0.00000000  0.88898200  0.25000000  1
  Si  Si35  1  0.93902100  0.59484400  0.09867400  1
  O  O36  1  0.88390500  0.95645500  0.79155000  1
  O  O37  1  0.88390500  0.04354500  0.29155000  1
  O  O38  1  0.68939850  0.09186550  0.93474900  1
  O  O39  1  0.60368800  0.02345300  0.61598300  1
  O  O40  1  0.60066850  0.79971150  0.81283600  1
  O  O41  1  0.43388800  0.66186100  0.54207200  1
  O  O42  1  0.56611200  0.66186100  0.95792800  1
  O  O43  1  0.68939850  0.90813450  0.43474900  1
  O  O44  1  0.60368800  0.97654700  0.11598300  1
  O  O45  1  0.39933150  0.79971150  0.68716400  1
  O  O46  1  0.60066850  0.20028850  0.31283600  1
  O  O47  1  0.39631200  0.02345300  0.88401700  1
  O  O48  1  0.31060150  0.09186550  0.56525100  1
  O  O49  1  0.43388800  0.33813900  0.04207200  1
  O  O50  1  0.56611200  0.33813900  0.45792800  1
  O  O51  1  0.39933150  0.20028850  0.18716400  1
  O  O52  1  0.39631200  0.97654700  0.38401700  1
  O  O53  1  0.31060150  0.90813450  0.06525100  1
  O  O54  1  0.11609500  0.95645500  0.70845000  1
  O  O55  1  0.11609500  0.04354500  0.20845000  1
  O  O56  1  0.38390500  0.45645500  0.79155000  1
  O  O57  1  0.38390500  0.54354500  0.29155000  1
  O  O58  1  0.18939850  0.59186550  0.93474900  1
  O  O59  1  0.10368800  0.52345300  0.61598300  1
  O  O60  1  0.10066850  0.29971150  0.81283600  1
  O  O61  1  0.93388800  0.16186100  0.54207200  1
  O  O62  1  0.06611200  0.16186100  0.95792800  1
  O  O63  1  0.18939850  0.40813450  0.43474900  1
  O  O64  1  0.10368800  0.47654700  0.11598300  1
  O  O65  1  0.89933150  0.29971150  0.68716400  1
  O  O66  1  0.10066850  0.70028850  0.31283600  1
  O  O67  1  0.89631200  0.52345300  0.88401700  1
  O  O68  1  0.81060150  0.59186550  0.56525100  1
  O  O69  1  0.93388800  0.83813900  0.04207200  1
  O  O70  1  0.06611200  0.83813900  0.45792800  1
  O  O71  1  0.89933150  0.70028850  0.18716400  1
  O  O72  1  0.89631200  0.47654700  0.38401700  1
  O  O73  1  0.81060150  0.40813450  0.06525100  1
  O  O74  1  0.61609500  0.45645500  0.70845000  1
  O  O75  1  0.61609500  0.54354500  0.20845000  1
