# generated using pymatgen
data_Li2Co3SnO8
_symmetry_space_group_name_H-M   'P 1'
_cell_length_a   5.83930229
_cell_length_b   5.83930229
_cell_length_c   14.14978274
_cell_angle_alpha   90.00000000
_cell_angle_beta   90.00000000
_cell_angle_gamma   120.00000000
_symmetry_Int_Tables_number   1
_chemical_formula_structural   Li2Co3SnO8
_chemical_formula_sum   'Li6 Co9 Sn3 O24'
_cell_volume   417.83259882
_cell_formula_units_Z   3
loop_
 _symmetry_equiv_pos_site_id
 _symmetry_equiv_pos_as_xyz
  1  'x, y, z'
loop_
 _atom_site_type_symbol
 _atom_site_label
 _atom_site_symmetry_multiplicity
 _atom_site_fract_x
 _atom_site_fract_y
 _atom_site_fract_z
 _atom_site_occupancy
  Li  Li0  1  0.33333333  0.66666667  0.54627667  1
  Li  Li1  1  0.33333333  0.66666667  0.17140867  1
  Li  Li2  1  0.00000000  0.00000000  0.87961000  1
  Li  Li3  1  0.00000000  0.00000000  0.50474200  1
  Li  Li4  1  0.66666667  0.33333333  0.21294333  1
  Li  Li5  1  0.66666667  0.33333333  0.83807533  1
  Co  Co6  1  0.17239367  0.82760633  0.33029633  1
  Co  Co7  1  0.65521267  0.82760633  0.33029633  1
  Co  Co8  1  0.17239367  0.34478733  0.33029633  1
  Co  Co9  1  0.83906033  0.16093967  0.66362967  1
  Co  Co10  1  0.32187933  0.16093967  0.66362967  1
  Co  Co11  1  0.83906033  0.67812067  0.66362967  1
  Co  Co12  1  0.50572700  0.49427300  0.99696300  1
  Co  Co13  1  0.98854600  0.49427300  0.99696300  1
  Co  Co14  1  0.50572700  0.01145400  0.99696300  1
  Sn  Sn15  1  0.33333333  0.66666667  0.77920667  1
  Sn  Sn16  1  0.00000000  0.00000000  0.11254000  1
  Sn  Sn17  1  0.66666667  0.33333333  0.44587333  1
  O  O18  1  0.33333333  0.66666667  0.40139767  1
  O  O19  1  0.48777867  0.97555733  0.26517033  1
  O  O20  1  0.02444267  0.51222133  0.26517033  1
  O  O21  1  0.48777867  0.51222133  0.26517033  1
  O  O22  1  0.18691333  0.81308667  0.07453167  1
  O  O23  1  0.62617333  0.81308667  0.07453167  1
  O  O24  1  0.18691333  0.37382667  0.07453167  1
  O  O25  1  0.33333333  0.66666667  0.92504667  1
  O  O26  1  0.00000000  0.00000000  0.73473100  1
  O  O27  1  0.15444533  0.30889067  0.59850367  1
  O  O28  1  0.69110933  0.84555467  0.59850367  1
  O  O29  1  0.15444533  0.84555467  0.59850367  1
  O  O30  1  0.85358000  0.14642000  0.40786500  1
  O  O31  1  0.29284000  0.14642000  0.40786500  1
  O  O32  1  0.85358000  0.70716000  0.40786500  1
  O  O33  1  0.00000000  0.00000000  0.25838000  1
  O  O34  1  0.66666667  0.33333333  0.06806433  1
  O  O35  1  0.82111200  0.64222400  0.93183700  1
  O  O36  1  0.35777600  0.17888800  0.93183700  1
  O  O37  1  0.82111200  0.17888800  0.93183700  1
  O  O38  1  0.52024667  0.47975333  0.74119833  1
  O  O39  1  0.95950667  0.47975333  0.74119833  1
  O  O40  1  0.52024667  0.04049333  0.74119833  1
  O  O41  1  0.66666667  0.33333333  0.59171333  1
