# generated using pymatgen
data_Li2V(OF)2
_symmetry_space_group_name_H-M   'P 1'
_cell_length_a   6.03737150
_cell_length_b   5.94670101
_cell_length_c   8.40542909
_cell_angle_alpha   90.00000000
_cell_angle_beta   90.77931024
_cell_angle_gamma   90.00000000
_symmetry_Int_Tables_number   1
_chemical_formula_structural   Li2V(OF)2
_chemical_formula_sum   'Li8 V4 O8 F8'
_cell_volume   301.74752628
_cell_formula_units_Z   4
loop_
 _symmetry_equiv_pos_site_id
 _symmetry_equiv_pos_as_xyz
  1  'x, y, z'
loop_
 _atom_site_type_symbol
 _atom_site_label
 _atom_site_symmetry_multiplicity
 _atom_site_fract_x
 _atom_site_fract_y
 _atom_site_fract_z
 _atom_site_occupancy
  Li  Li0  1  0.24810350  0.75323800  0.63985550  1
  Li  Li1  1  0.75189650  0.75323800  0.36014450  1
  Li  Li2  1  0.00000000  0.74659900  0.00000000  1
  Li  Li3  1  0.24445050  0.49796000  0.23918050  1
  Li  Li4  1  0.75554950  0.49796000  0.76081950  1
  Li  Li5  1  0.00000000  0.26323300  0.50000000  1
  Li  Li6  1  0.25654450  0.24734300  0.86871350  1
  Li  Li7  1  0.74345550  0.24734300  0.13128650  1
  V  V8  1  0.24093850  0.97535500  0.23635650  1
  V  V9  1  0.75906150  0.97535500  0.76364350  1
  V  V10  1  0.50000000  0.76907800  0.00000000  1
  V  V11  1  0.50000000  0.25794600  0.50000000  1
  O  O12  1  0.26454350  0.98812400  0.01491850  1
  O  O13  1  0.73545650  0.98812400  0.98508150  1
  O  O14  1  0.48409450  0.75571100  0.22157750  1
  O  O15  1  0.51590550  0.75571100  0.77842250  1
  O  O16  1  0.03660950  0.77604000  0.25859650  1
  O  O17  1  0.96339050  0.77604000  0.74140350  1
  O  O18  1  0.52675150  0.22358700  0.71276050  1
  O  O19  1  0.47324850  0.22358700  0.28723950  1
  F  F20  1  0.25744550  0.52158800  0.99455750  1
  F  F21  1  0.74255450  0.52158800  0.00544250  1
  F  F22  1  0.26065450  0.48007300  0.50759550  1
  F  F23  1  0.73934550  0.48007300  0.49240450  1
  F  F24  1  0.97325050  0.24452500  0.74458350  1
  F  F25  1  0.02674950  0.24452500  0.25541650  1
  F  F26  1  0.25391850  0.01816400  0.49690450  1
  F  F27  1  0.74608150  0.01816400  0.50309550  1
