# generated using pymatgen
data_Li6La3Nb2O12
_symmetry_space_group_name_H-M   'P 1'
_cell_length_a   12.89523400
_cell_length_b   12.89523400
_cell_length_c   12.89523400
_cell_angle_alpha   90.00000000
_cell_angle_beta   90.00000000
_cell_angle_gamma   90.00000000
_symmetry_Int_Tables_number   1
_chemical_formula_structural   Li6La3Nb2O12
_chemical_formula_sum   'Li48 La24 Nb16 O96'
_cell_volume   2144.31054877
_cell_formula_units_Z   8
loop_
 _symmetry_equiv_pos_site_id
 _symmetry_equiv_pos_as_xyz
  1  'x, y, z'
loop_
 _atom_site_type_symbol
 _atom_site_label
 _atom_site_symmetry_multiplicity
 _atom_site_fract_x
 _atom_site_fract_y
 _atom_site_fract_z
 _atom_site_occupancy
  Li  Li0  1  0.43202800  0.85837400  0.32091700  1
  Li  Li1  1  0.13326400  0.32063500  0.93105800  1
  Li  Li2  1  0.32063500  0.93105800  0.13326400  1
  Li  Li3  1  0.82091700  0.06797200  0.14162600  1
  Li  Li4  1  0.36673600  0.67936500  0.43105800  1
  Li  Li5  1  0.43105800  0.36673600  0.67936500  1
  Li  Li6  1  0.32091700  0.43202800  0.85837400  1
  Li  Li7  1  0.36673600  0.32063500  0.06894200  1
  Li  Li8  1  0.17908300  0.43202800  0.14162600  1
  Li  Li9  1  0.43202800  0.14162600  0.17908300  1
  Li  Li10  1  0.93105800  0.13326400  0.32063500  1
  Li  Li11  1  0.63326400  0.17936500  0.06894200  1
  Li  Li12  1  0.85837400  0.32091700  0.43202800  1
  Li  Li13  1  0.56797200  0.35837400  0.17908300  1
  Li  Li14  1  0.06894200  0.36673600  0.32063500  1
  Li  Li15  1  0.32063500  0.06894200  0.36673600  1
  Li  Li16  1  0.14162600  0.17908300  0.43202800  1
  Li  Li17  1  0.17936500  0.06894200  0.63326400  1
  Li  Li18  1  0.06797200  0.14162600  0.82091700  1
  Li  Li19  1  0.14162600  0.82091700  0.06797200  1
  Li  Li20  1  0.67936500  0.43105800  0.36673600  1
  Li  Li21  1  0.17908300  0.56797200  0.35837400  1
  Li  Li22  1  0.35837400  0.17908300  0.56797200  1
  Li  Li23  1  0.06894200  0.63326400  0.17936500  1
  Li  Li24  1  0.93202800  0.35837400  0.82091700  1
  Li  Li25  1  0.63326400  0.82063500  0.43105800  1
  Li  Li26  1  0.82063500  0.43105800  0.63326400  1
  Li  Li27  1  0.32091700  0.56797200  0.64162600  1
  Li  Li28  1  0.86673600  0.17936500  0.93105800  1
  Li  Li29  1  0.93105800  0.86673600  0.17936500  1
  Li  Li30  1  0.82091700  0.93202800  0.35837400  1
  Li  Li31  1  0.86673600  0.82063500  0.56894200  1
  Li  Li32  1  0.67908300  0.93202800  0.64162600  1
  Li  Li33  1  0.93202800  0.64162600  0.67908300  1
  Li  Li34  1  0.43105800  0.63326400  0.82063500  1
  Li  Li35  1  0.13326400  0.67936500  0.56894200  1
  Li  Li36  1  0.35837400  0.82091700  0.93202800  1
  Li  Li37  1  0.06797200  0.85837400  0.67908300  1
  Li  Li38  1  0.56894200  0.86673600  0.82063500  1
  Li  Li39  1  0.82063500  0.56894200  0.86673600  1
  Li  Li40  1  0.64162600  0.67908300  0.93202800  1
  Li  Li41  1  0.67936500  0.56894200  0.13326400  1
  Li  Li42  1  0.56797200  0.64162600  0.32091700  1
  Li  Li43  1  0.64162600  0.32091700  0.56797200  1
  Li  Li44  1  0.17936500  0.93105800  0.86673600  1
  Li  Li45  1  0.67908300  0.06797200  0.85837400  1
  Li  Li46  1  0.85837400  0.67908300  0.06797200  1
  Li  Li47  1  0.56894200  0.13326400  0.67936500  1
  La  La48  1  0.25000000  0.12199400  0.00000000  1
  La  La49  1  0.61812300  0.00000000  0.25000000  1
  La  La50  1  0.50000000  0.25000000  0.87800600  1
  La  La51  1  0.00000000  0.25000000  0.12199400  1
  La  La52  1  0.12199400  0.00000000  0.25000000  1
  La  La53  1  0.25000000  0.61812300  0.00000000  1
  La  La54  1  0.38187700  0.50000000  0.25000000  1
  La  La55  1  0.50000000  0.25000000  0.38187700  1
  La  La56  1  0.25000000  0.87800600  0.50000000  1
  La  La57  1  0.00000000  0.25000000  0.61812300  1
  La  La58  1  0.25000000  0.38187700  0.50000000  1
  La  La59  1  0.87800600  0.50000000  0.25000000  1
  La  La60  1  0.75000000  0.62199400  0.50000000  1
  La  La61  1  0.11812300  0.50000000  0.75000000  1
  La  La62  1  0.00000000  0.75000000  0.37800600  1
  La  La63  1  0.50000000  0.75000000  0.62199400  1
  La  La64  1  0.62199400  0.50000000  0.75000000  1
  La  La65  1  0.75000000  0.11812300  0.50000000  1
  La  La66  1  0.88187700  0.00000000  0.75000000  1
  La  La67  1  0.00000000  0.75000000  0.88187700  1
  La  La68  1  0.75000000  0.37800600  0.00000000  1
  La  La69  1  0.50000000  0.75000000  0.11812300  1
  La  La70  1  0.75000000  0.88187700  0.00000000  1
  La  La71  1  0.37800600  0.00000000  0.75000000  1
  Nb  Nb72  1  0.74999900  0.75000100  0.24999900  1
  Nb  Nb73  1  0.49993100  0.00006900  0.99993100  1
  Nb  Nb74  1  0.00006900  0.00006900  0.00006900  1
  Nb  Nb75  1  0.75000100  0.24999900  0.74999900  1
  Nb  Nb76  1  0.00006900  0.99993100  0.49993100  1
  Nb  Nb77  1  0.24999900  0.74999900  0.75000100  1
  Nb  Nb78  1  0.25000100  0.25000100  0.25000100  1
  Nb  Nb79  1  0.99993100  0.49993100  0.00006900  1
  Nb  Nb80  1  0.24999900  0.25000100  0.74999900  1
  Nb  Nb81  1  0.99993100  0.50006900  0.49993100  1
  Nb  Nb82  1  0.50006900  0.50006900  0.50006900  1
  Nb  Nb83  1  0.25000100  0.74999900  0.24999900  1
  Nb  Nb84  1  0.50006900  0.49993100  0.99993100  1
  Nb  Nb85  1  0.74999900  0.24999900  0.25000100  1
  Nb  Nb86  1  0.75000100  0.75000100  0.75000100  1
  Nb  Nb87  1  0.49993100  0.99993100  0.50006900  1
  O  O88  1  0.46895300  0.94130800  0.14629100  1
  O  O89  1  0.05696000  0.14838100  0.96999700  1
  O  O90  1  0.14838100  0.96999700  0.05696000  1
  O  O91  1  0.60124400  0.79981600  0.28073800  1
  O  O92  1  0.64629100  0.03104700  0.05869200  1
  O  O93  1  0.78073800  0.89875600  0.20018400  1
  O  O94  1  0.30068250  0.28203350  0.89696950  1
  O  O95  1  0.14629100  0.46895300  0.94130800  1
  O  O96  1  0.19931750  0.28203350  0.10303050  1
  O  O97  1  0.28203350  0.10303050  0.19931750  1
  O  O98  1  0.30068250  0.71796650  0.60303050  1
  O  O99  1  0.60303050  0.30068250  0.71796650  1
  O  O100  1  0.44304000  0.14838100  0.03000300  1
  O  O101  1  0.96999700  0.05696000  0.14838100  1
  O  O102  1  0.28073800  0.60124400  0.79981600  1
  O  O103  1  0.44304000  0.85161900  0.46999700  1
  O  O104  1  0.46999700  0.44304000  0.85161900  1
  O  O105  1  0.69931750  0.21796650  0.89696950  1
  O  O106  1  0.35370900  0.46895300  0.05869200  1
  O  O107  1  0.46895300  0.05869200  0.35370900  1
  O  O108  1  0.39875600  0.29981600  0.21926200  1
  O  O109  1  0.55696000  0.35161900  0.03000300  1
  O  O110  1  0.89696950  0.30068250  0.28203350  1
  O  O111  1  0.28203350  0.89696950  0.30068250  1
  O  O112  1  0.21926200  0.60124400  0.20018400  1
  O  O113  1  0.60124400  0.20018400  0.21926200  1
  O  O114  1  0.94130800  0.14629100  0.46895300  1
  O  O115  1  0.10303050  0.19931750  0.28203350  1
  O  O116  1  0.03000300  0.44304000  0.14838100  1
  O  O117  1  0.14838100  0.03000300  0.44304000  1
  O  O118  1  0.79981600  0.28073800  0.60124400  1
  O  O119  1  0.03104700  0.05869200  0.64629100  1
  O  O120  1  0.05869200  0.64629100  0.03104700  1
  O  O121  1  0.21796650  0.89696950  0.69931750  1
  O  O122  1  0.53104700  0.44130800  0.35370900  1
  O  O123  1  0.89875600  0.20018400  0.78073800  1
  O  O124  1  0.20018400  0.78073800  0.89875600  1
  O  O125  1  0.05869200  0.35370900  0.46895300  1
  O  O126  1  0.21926200  0.39875600  0.29981600  1
  O  O127  1  0.29981600  0.21926200  0.39875600  1
  O  O128  1  0.35161900  0.03000300  0.55696000  1
  O  O129  1  0.20018400  0.21926200  0.60124400  1
  O  O130  1  0.71796650  0.60303050  0.30068250  1
  O  O131  1  0.85161900  0.46999700  0.44304000  1
  O  O132  1  0.89696950  0.69931750  0.21796650  1
  O  O133  1  0.35370900  0.53104700  0.44130800  1
  O  O134  1  0.44130800  0.35370900  0.53104700  1
  O  O135  1  0.03000300  0.55696000  0.35161900  1
  O  O136  1  0.96895300  0.44130800  0.64629100  1
  O  O137  1  0.55696000  0.64838100  0.46999700  1
  O  O138  1  0.64838100  0.46999700  0.55696000  1
  O  O139  1  0.10124400  0.29981600  0.78073800  1
  O  O140  1  0.14629100  0.53104700  0.55869200  1
  O  O141  1  0.28073800  0.39875600  0.70018400  1
  O  O142  1  0.80068250  0.78203350  0.39696950  1
  O  O143  1  0.64629100  0.96895300  0.44130800  1
  O  O144  1  0.69931750  0.78203350  0.60303050  1
  O  O145  1  0.78203350  0.60303050  0.69931750  1
  O  O146  1  0.80068250  0.21796650  0.10303050  1
  O  O147  1  0.10303050  0.80068250  0.21796650  1
  O  O148  1  0.94304000  0.64838100  0.53000300  1
  O  O149  1  0.46999700  0.55696000  0.64838100  1
  O  O150  1  0.78073800  0.10124400  0.29981600  1
  O  O151  1  0.94304000  0.35161900  0.96999700  1
  O  O152  1  0.96999700  0.94304000  0.35161900  1
  O  O153  1  0.19931750  0.71796650  0.39696950  1
  O  O154  1  0.85370900  0.96895300  0.55869200  1
  O  O155  1  0.96895300  0.55869200  0.85370900  1
  O  O156  1  0.89875600  0.79981600  0.71926200  1
  O  O157  1  0.05696000  0.85161900  0.53000300  1
  O  O158  1  0.39696950  0.80068250  0.78203350  1
  O  O159  1  0.78203350  0.39696950  0.80068250  1
  O  O160  1  0.71926200  0.10124400  0.70018400  1
  O  O161  1  0.10124400  0.70018400  0.71926200  1
  O  O162  1  0.44130800  0.64629100  0.96895300  1
  O  O163  1  0.60303050  0.69931750  0.78203350  1
  O  O164  1  0.53000300  0.94304000  0.64838100  1
  O  O165  1  0.64838100  0.53000300  0.94304000  1
  O  O166  1  0.29981600  0.78073800  0.10124400  1
  O  O167  1  0.53104700  0.55869200  0.14629100  1
  O  O168  1  0.55869200  0.14629100  0.53104700  1
  O  O169  1  0.71796650  0.39696950  0.19931750  1
  O  O170  1  0.03104700  0.94130800  0.85370900  1
  O  O171  1  0.39875600  0.70018400  0.28073800  1
  O  O172  1  0.70018400  0.28073800  0.39875600  1
  O  O173  1  0.55869200  0.85370900  0.96895300  1
  O  O174  1  0.71926200  0.89875600  0.79981600  1
  O  O175  1  0.79981600  0.71926200  0.89875600  1
  O  O176  1  0.85161900  0.53000300  0.05696000  1
  O  O177  1  0.70018400  0.71926200  0.10124400  1
  O  O178  1  0.21796650  0.10303050  0.80068250  1
  O  O179  1  0.35161900  0.96999700  0.94304000  1
  O  O180  1  0.39696950  0.19931750  0.71796650  1
  O  O181  1  0.85370900  0.03104700  0.94130800  1
  O  O182  1  0.94130800  0.85370900  0.03104700  1
  O  O183  1  0.53000300  0.05696000  0.85161900  1
