# generated using pymatgen
data_Li2Cr2SnO6
_symmetry_space_group_name_H-M   'P 1'
_cell_length_a   5.26441974
_cell_length_b   9.22661927
_cell_length_c   10.26253900
_cell_angle_alpha   90.00000000
_cell_angle_beta   90.00000000
_cell_angle_gamma   90.00000000
_symmetry_Int_Tables_number   1
_chemical_formula_structural   Li2Cr2SnO6
_chemical_formula_sum   'Li8 Cr8 Sn4 O24'
_cell_volume   498.48022003
_cell_formula_units_Z   4
loop_
 _symmetry_equiv_pos_site_id
 _symmetry_equiv_pos_as_xyz
  1  'x, y, z'
loop_
 _atom_site_type_symbol
 _atom_site_label
 _atom_site_symmetry_multiplicity
 _atom_site_fract_x
 _atom_site_fract_y
 _atom_site_fract_z
 _atom_site_occupancy
  Li  Li0  1  0.40702650  0.25000000  0.75000000  1
  Li  Li1  1  0.59297350  0.25000000  0.25000000  1
  Li  Li2  1  0.90702650  0.25000000  0.75000000  1
  Li  Li3  1  0.09297350  0.25000000  0.25000000  1
  Li  Li4  1  0.90702650  0.75000000  0.75000000  1
  Li  Li5  1  0.09297350  0.75000000  0.25000000  1
  Li  Li6  1  0.40702650  0.75000000  0.75000000  1
  Li  Li7  1  0.59297350  0.75000000  0.25000000  1
  Cr  Cr8  1  0.50000000  0.33616900  0.00000000  1
  Cr  Cr9  1  0.00000000  0.16383100  0.00000000  1
  Cr  Cr10  1  0.50000000  0.16383100  0.50000000  1
  Cr  Cr11  1  0.00000000  0.33616900  0.50000000  1
  Cr  Cr12  1  0.00000000  0.83616900  0.00000000  1
  Cr  Cr13  1  0.50000000  0.66383100  0.00000000  1
  Cr  Cr14  1  0.00000000  0.66383100  0.50000000  1
  Cr  Cr15  1  0.50000000  0.83616900  0.50000000  1
  Sn  Sn16  1  0.00000000  0.50000000  0.00000000  1
  Sn  Sn17  1  0.00000000  0.00000000  0.50000000  1
  Sn  Sn18  1  0.50000000  0.00000000  0.00000000  1
  Sn  Sn19  1  0.50000000  0.50000000  0.50000000  1
  O  O20  1  0.16215750  0.50000000  0.59930600  1
  O  O21  1  0.83784250  0.00000000  0.09930600  1
  O  O22  1  0.16215750  0.00000000  0.90069400  1
  O  O23  1  0.33784250  0.00000000  0.40069400  1
  O  O24  1  0.33217750  0.17612450  0.10676600  1
  O  O25  1  0.16782250  0.32387550  0.89323400  1
  O  O26  1  0.33217750  0.32387550  0.39323400  1
  O  O27  1  0.66782250  0.32387550  0.60676600  1
  O  O28  1  0.66782250  0.17612450  0.89323400  1
  O  O29  1  0.83217750  0.17612450  0.39323400  1
  O  O30  1  0.16782250  0.17612450  0.60676600  1
  O  O31  1  0.83217750  0.32387550  0.10676600  1
  O  O32  1  0.66215750  0.00000000  0.59930600  1
  O  O33  1  0.33784250  0.50000000  0.09930600  1
  O  O34  1  0.66215750  0.50000000  0.90069400  1
  O  O35  1  0.83784250  0.50000000  0.40069400  1
  O  O36  1  0.83217750  0.67612450  0.10676600  1
  O  O37  1  0.66782250  0.82387550  0.89323400  1
  O  O38  1  0.83217750  0.82387550  0.39323400  1
  O  O39  1  0.16782250  0.82387550  0.60676600  1
  O  O40  1  0.16782250  0.67612450  0.89323400  1
  O  O41  1  0.33217750  0.67612450  0.39323400  1
  O  O42  1  0.66782250  0.67612450  0.60676600  1
  O  O43  1  0.33217750  0.82387550  0.10676600  1
