# generated using pymatgen
data_Fe3O4
_symmetry_space_group_name_H-M   'P 1'
_cell_length_a   5.98854400
_cell_length_b   6.11678789
_cell_length_c   8.53488854
_cell_angle_alpha   90.00000000
_cell_angle_beta   90.00000000
_cell_angle_gamma   90.00000000
_symmetry_Int_Tables_number   1
_chemical_formula_structural   Fe3O4
_chemical_formula_sum   'Fe12 O16'
_cell_volume   312.63854409
_cell_formula_units_Z   4
loop_
 _symmetry_equiv_pos_site_id
 _symmetry_equiv_pos_as_xyz
  1  'x, y, z'
loop_
 _atom_site_type_symbol
 _atom_site_label
 _atom_site_symmetry_multiplicity
 _atom_site_fract_x
 _atom_site_fract_y
 _atom_site_fract_z
 _atom_site_occupancy
  Fe  Fe0  1  0.00000000  0.00000000  0.50000000  1
  Fe  Fe1  1  0.00000000  0.50000000  0.50000000  1
  Fe  Fe2  1  0.50000000  0.00000000  0.00000000  1
  Fe  Fe3  1  0.50000000  0.50000000  0.00000000  1
  Fe  Fe4  1  0.50000000  0.75403700  0.37358300  1
  Fe  Fe5  1  0.50000000  0.24596300  0.62641700  1
  Fe  Fe6  1  0.00000000  0.75403700  0.12641700  1
  Fe  Fe7  1  0.00000000  0.24596300  0.87358300  1
  Fe  Fe8  1  0.75000000  0.25449900  0.25000000  1
  Fe  Fe9  1  0.75000000  0.74550100  0.75000000  1
  Fe  Fe10  1  0.25000000  0.25449900  0.25000000  1
  Fe  Fe11  1  0.25000000  0.74550100  0.75000000  1
  O  O12  1  0.00000000  0.99057000  0.73858700  1
  O  O13  1  0.00000000  0.49085200  0.24498000  1
  O  O14  1  0.00000000  0.50914800  0.75502000  1
  O  O15  1  0.00000000  0.00943000  0.26141300  1
  O  O16  1  0.23852500  0.76095300  0.50563400  1
  O  O17  1  0.23852500  0.23904700  0.49436600  1
  O  O18  1  0.76147500  0.23904700  0.49436600  1
  O  O19  1  0.76147500  0.76095300  0.50563400  1
  O  O20  1  0.26147500  0.23904700  0.00563400  1
  O  O21  1  0.26147500  0.76095300  0.99436600  1
  O  O22  1  0.73852500  0.76095300  0.99436600  1
  O  O23  1  0.73852500  0.23904700  0.00563400  1
  O  O24  1  0.50000000  0.50914800  0.74498000  1
  O  O25  1  0.50000000  0.00943000  0.23858700  1
  O  O26  1  0.50000000  0.49085200  0.25502000  1
  O  O27  1  0.50000000  0.99057000  0.76141300  1
