# generated using pymatgen
data_Li4Mn3O8
_symmetry_space_group_name_H-M   'P 1'
_cell_length_a   5.74921435
_cell_length_b   5.74921435
_cell_length_c   15.27195896
_cell_angle_alpha   90.00000000
_cell_angle_beta   90.00000000
_cell_angle_gamma   120.00000000
_symmetry_Int_Tables_number   1
_chemical_formula_structural   Li4Mn3O8
_chemical_formula_sum   'Li12 Mn9 O24'
_cell_volume   437.16197755
_cell_formula_units_Z   3
loop_
 _symmetry_equiv_pos_site_id
 _symmetry_equiv_pos_as_xyz
  1  'x, y, z'
loop_
 _atom_site_type_symbol
 _atom_site_label
 _atom_site_symmetry_multiplicity
 _atom_site_fract_x
 _atom_site_fract_y
 _atom_site_fract_z
 _atom_site_occupancy
  Li  Li0  1  0.00000000  0.00000000  0.00000000  1
  Li  Li1  1  0.33333333  0.66666667  0.30870167  1
  Li  Li2  1  0.33333333  0.66666667  0.16666667  1
  Li  Li3  1  0.33333333  0.66666667  0.02463167  1
  Li  Li4  1  0.66666667  0.33333333  0.33333333  1
  Li  Li5  1  0.00000000  0.00000000  0.64203500  1
  Li  Li6  1  1.00000000  1.00000000  0.50000000  1
  Li  Li7  1  0.00000000  0.00000000  0.35796500  1
  Li  Li8  1  0.33333333  0.66666667  0.66666667  1
  Li  Li9  1  0.66666667  0.33333333  0.97536833  1
  Li  Li10  1  0.66666667  0.33333333  0.83333333  1
  Li  Li11  1  0.66666667  0.33333333  0.69129833  1
  Mn  Mn12  1  0.83333333  0.66666667  0.16666667  1
  Mn  Mn13  1  0.33333333  0.16666667  0.16666667  1
  Mn  Mn14  1  0.83333333  0.16666667  0.16666667  1
  Mn  Mn15  1  0.50000000  0.00000000  0.50000000  1
  Mn  Mn16  1  0.00000000  0.50000000  0.50000000  1
  Mn  Mn17  1  0.50000000  0.50000000  0.50000000  1
  Mn  Mn18  1  0.16666667  0.33333333  0.83333333  1
  Mn  Mn19  1  0.66666667  0.83333333  0.83333333  1
  Mn  Mn20  1  0.16666667  0.83333333  0.83333333  1
  O  O21  1  0.66666667  0.33333333  0.10035533  1
  O  O22  1  0.15837000  0.31674000  0.09751100  1
  O  O23  1  0.68326000  0.84163000  0.09751100  1
  O  O24  1  0.15837000  0.84163000  0.09751100  1
  O  O25  1  0.00000000  0.00000000  0.23297800  1
  O  O26  1  0.50829667  0.01659333  0.23582233  1
  O  O27  1  0.98340667  0.49170333  0.23582233  1
  O  O28  1  0.50829667  0.49170333  0.23582233  1
  O  O29  1  0.33333333  0.66666667  0.43368867  1
  O  O30  1  0.82503667  0.65007333  0.43084433  1
  O  O31  1  0.34992667  0.17496333  0.43084433  1
  O  O32  1  0.82503667  0.17496333  0.43084433  1
  O  O33  1  0.66666667  0.33333333  0.56631133  1
  O  O34  1  0.17496333  0.34992667  0.56915567  1
  O  O35  1  0.65007333  0.82503667  0.56915567  1
  O  O36  1  0.17496333  0.82503667  0.56915567  1
  O  O37  1  0.00000000  0.00000000  0.76702200  1
  O  O38  1  0.49170333  0.98340667  0.76417767  1
  O  O39  1  0.01659333  0.50829667  0.76417767  1
  O  O40  1  0.49170333  0.50829667  0.76417767  1
  O  O41  1  0.33333333  0.66666667  0.89964467  1
  O  O42  1  0.84163000  0.68326000  0.90248900  1
  O  O43  1  0.31674000  0.15837000  0.90248900  1
  O  O44  1  0.84163000  0.15837000  0.90248900  1
