# generated using pymatgen
data_Li2CrCo3O8
_symmetry_space_group_name_H-M   'P 1'
_cell_length_a   5.71561334
_cell_length_b   5.71561334
_cell_length_c   14.25599823
_cell_angle_alpha   90.00000000
_cell_angle_beta   90.00000000
_cell_angle_gamma   120.00000000
_symmetry_Int_Tables_number   1
_chemical_formula_structural   Li2CrCo3O8
_chemical_formula_sum   'Li6 Cr3 Co9 O24'
_cell_volume   403.32388962
_cell_formula_units_Z   3
loop_
 _symmetry_equiv_pos_site_id
 _symmetry_equiv_pos_as_xyz
  1  'x, y, z'
loop_
 _atom_site_type_symbol
 _atom_site_label
 _atom_site_symmetry_multiplicity
 _atom_site_fract_x
 _atom_site_fract_y
 _atom_site_fract_z
 _atom_site_occupancy
  Li  Li0  1  0.00000000  0.00000000  0.12305467  1
  Li  Li1  1  0.66666667  0.33333333  0.21027867  1
  Li  Li2  1  0.66666667  0.33333333  0.45638800  1
  Li  Li3  1  0.33333333  0.66666667  0.54361200  1
  Li  Li4  1  0.33333333  0.66666667  0.78972133  1
  Li  Li5  1  0.00000000  0.00000000  0.87694533  1
  Cr  Cr6  1  0.33333333  0.66666667  0.16666667  1
  Cr  Cr7  1  1.00000000  1.00000000  0.50000000  1
  Cr  Cr8  1  0.66666667  0.33333333  0.83333333  1
  Co  Co9  1  0.50000000  0.50000000  0.00000000  1
  Co  Co10  1  0.00000000  0.50000000  0.00000000  1
  Co  Co11  1  0.50000000  0.00000000  0.00000000  1
  Co  Co12  1  0.16666667  0.83333333  0.33333333  1
  Co  Co13  1  0.66666667  0.83333333  0.33333333  1
  Co  Co14  1  0.16666667  0.33333333  0.33333333  1
  Co  Co15  1  0.83333333  0.16666667  0.66666667  1
  Co  Co16  1  0.33333333  0.16666667  0.66666667  1
  Co  Co17  1  0.83333333  0.66666667  0.66666667  1
  O  O18  1  0.63471167  0.81735583  0.07272533  1
  O  O19  1  0.18264417  0.81735583  0.07272533  1
  O  O20  1  0.66666667  0.33333333  0.07038533  1
  O  O21  1  0.18264417  0.36528833  0.07272533  1
  O  O22  1  0.48402250  0.96804500  0.26060800  1
  O  O23  1  0.00000000  0.00000000  0.26294800  1
  O  O24  1  0.48402250  0.51597750  0.26060800  1
  O  O25  1  0.03195500  0.51597750  0.26060800  1
  O  O26  1  0.30137833  0.15068917  0.40605867  1
  O  O27  1  0.84931083  0.15068917  0.40605867  1
  O  O28  1  0.33333333  0.66666667  0.40371867  1
  O  O29  1  0.84931083  0.69862167  0.40605867  1
  O  O30  1  0.15068917  0.30137833  0.59394133  1
  O  O31  1  0.66666667  0.33333333  0.59628133  1
  O  O32  1  0.15068917  0.84931083  0.59394133  1
  O  O33  1  0.69862167  0.84931083  0.59394133  1
  O  O34  1  0.96804500  0.48402250  0.73939200  1
  O  O35  1  0.51597750  0.48402250  0.73939200  1
  O  O36  1  0.00000000  0.00000000  0.73705200  1
  O  O37  1  0.51597750  0.03195500  0.73939200  1
  O  O38  1  0.81735583  0.63471167  0.92727467  1
  O  O39  1  0.33333333  0.66666667  0.92961467  1
  O  O40  1  0.81735583  0.18264417  0.92727467  1
  O  O41  1  0.36528833  0.18264417  0.92727467  1
