# generated using pymatgen
data_Li4Cr2Cu3Sb3O16
_symmetry_space_group_name_H-M   'P 1'
_cell_length_a   10.61930241
_cell_length_b   6.01675794
_cell_length_c   9.63337781
_cell_angle_alpha   90.00000000
_cell_angle_beta   91.96632171
_cell_angle_gamma   90.00000000
_symmetry_Int_Tables_number   1
_chemical_formula_structural   Li4Cr2Cu3Sb3O16
_chemical_formula_sum   'Li8 Cr4 Cu6 Sb6 O32'
_cell_volume   615.15041305
_cell_formula_units_Z   2
loop_
 _symmetry_equiv_pos_site_id
 _symmetry_equiv_pos_as_xyz
  1  'x, y, z'
loop_
 _atom_site_type_symbol
 _atom_site_label
 _atom_site_symmetry_multiplicity
 _atom_site_fract_x
 _atom_site_fract_y
 _atom_site_fract_z
 _atom_site_occupancy
  Li  Li0  1  0.16968550  0.50000000  0.09551400  1
  Li  Li1  1  0.00568400  0.00000000  0.99484200  1
  Li  Li2  1  0.03279000  0.00000000  0.51951600  1
  Li  Li3  1  0.33996550  0.00000000  0.61511900  1
  Li  Li4  1  0.66968550  0.00000000  0.09551400  1
  Li  Li5  1  0.50568400  0.50000000  0.99484200  1
  Li  Li6  1  0.53279000  0.50000000  0.51951600  1
  Li  Li7  1  0.83996550  0.50000000  0.61511900  1
  Cr  Cr8  1  0.15805500  0.50000000  0.52202900  1
  Cr  Cr9  1  0.32171600  0.00000000  0.00446900  1
  Cr  Cr10  1  0.65805500  0.00000000  0.52202900  1
  Cr  Cr11  1  0.82171600  0.50000000  0.00446900  1
  Cu  Cu12  1  0.08310500  0.74658500  0.78849100  1
  Cu  Cu13  1  0.08310500  0.25341500  0.78849100  1
  Cu  Cu14  1  0.16854900  0.00000000  0.28023000  1
  Cu  Cu15  1  0.58310500  0.24658500  0.78849100  1
  Cu  Cu16  1  0.58310500  0.75341500  0.78849100  1
  Cu  Cu17  1  0.66854900  0.50000000  0.28023000  1
  Sb  Sb18  1  0.32638250  0.50000000  0.78448200  1
  Sb  Sb19  1  0.41534550  0.24754150  0.28697600  1
  Sb  Sb20  1  0.41534550  0.75245850  0.28697600  1
  Sb  Sb21  1  0.82638250  0.00000000  0.78448200  1
  Sb  Sb22  1  0.91534550  0.74754150  0.28697600  1
  Sb  Sb23  1  0.91534550  0.25245850  0.28697600  1
  O  O24  1  0.07698850  0.75595250  0.39829300  1
  O  O25  1  0.02434550  0.50000000  0.65610300  1
  O  O26  1  0.16783100  0.50000000  0.89147700  1
  O  O27  1  0.49402750  0.50000000  0.69814700  1
  O  O28  1  0.48540100  0.50000000  0.17903100  1
  O  O29  1  0.07698850  0.24404750  0.39829300  1
  O  O30  1  0.24680050  0.71891850  0.64798100  1
  O  O31  1  0.24680050  0.28108150  0.64798100  1
  O  O32  1  0.16007150  0.00000000  0.90855900  1
  O  O33  1  0.34149050  0.50000000  0.40001800  1
  O  O34  1  0.26247350  0.22476250  0.16119000  1
  O  O35  1  0.26247350  0.77523750  0.16119000  1
  O  O36  1  0.34856200  0.00000000  0.40378800  1
  O  O37  1  0.40330250  0.25744450  0.90646200  1
  O  O38  1  0.48116800  0.00000000  0.15989600  1
  O  O39  1  0.40330250  0.74255550  0.90646200  1
  O  O40  1  0.57698850  0.25595250  0.39829300  1
  O  O41  1  0.52434550  0.00000000  0.65610300  1
  O  O42  1  0.66783100  0.00000000  0.89147700  1
  O  O43  1  0.99402750  0.00000000  0.69814700  1
  O  O44  1  0.98540100  0.00000000  0.17903100  1
  O  O45  1  0.57698850  0.74404750  0.39829300  1
  O  O46  1  0.74680050  0.21891850  0.64798100  1
  O  O47  1  0.74680050  0.78108150  0.64798100  1
  O  O48  1  0.66007150  0.50000000  0.90855900  1
  O  O49  1  0.84149050  0.00000000  0.40001800  1
  O  O50  1  0.76247350  0.72476250  0.16119000  1
  O  O51  1  0.76247350  0.27523750  0.16119000  1
  O  O52  1  0.84856200  0.50000000  0.40378800  1
  O  O53  1  0.90330250  0.75744450  0.90646200  1
  O  O54  1  0.98116800  0.50000000  0.15989600  1
  O  O55  1  0.90330250  0.24255550  0.90646200  1
