# generated using pymatgen
data_Li5VF8
_symmetry_space_group_name_H-M   'P 1'
_cell_length_a   5.78611400
_cell_length_b   5.92559400
_cell_length_c   8.65416200
_cell_angle_alpha   90.00000000
_cell_angle_beta   90.00000000
_cell_angle_gamma   90.00000000
_symmetry_Int_Tables_number   1
_chemical_formula_structural   Li5VF8
_chemical_formula_sum   'Li10 V2 F16'
_cell_volume   296.71800378
_cell_formula_units_Z   2
loop_
 _symmetry_equiv_pos_site_id
 _symmetry_equiv_pos_as_xyz
  1  'x, y, z'
loop_
 _atom_site_type_symbol
 _atom_site_label
 _atom_site_symmetry_multiplicity
 _atom_site_fract_x
 _atom_site_fract_y
 _atom_site_fract_z
 _atom_site_occupancy
  Li  Li0  1  0.75000000  0.25000000  0.75000000  1
  Li  Li1  1  0.25000000  0.75000000  0.75000000  1
  Li  Li2  1  0.75000000  0.75000000  0.75000000  1
  Li  Li3  1  0.00000000  0.50000000  0.00000000  1
  Li  Li4  1  0.25000000  0.25000000  0.75000000  1
  Li  Li5  1  0.25000000  0.75000000  0.25000000  1
  Li  Li6  1  0.75000000  0.25000000  0.25000000  1
  Li  Li7  1  0.25000000  0.25000000  0.25000000  1
  Li  Li8  1  0.50000000  0.00000000  0.50000000  1
  Li  Li9  1  0.75000000  0.75000000  0.25000000  1
  V  V10  1  0.00000000  0.00000000  0.00000000  1
  V  V11  1  0.50000000  0.50000000  0.50000000  1
  F  F12  1  0.50000000  0.50000000  0.73387700  1
  F  F13  1  0.77076750  0.23839450  0.00000000  1
  F  F14  1  0.72923250  0.26160550  0.50000000  1
  F  F15  1  0.00000000  0.00000000  0.76612300  1
  F  F16  1  0.77076750  0.76160550  0.00000000  1
  F  F17  1  0.50000000  0.00000000  0.72905400  1
  F  F18  1  0.00000000  0.50000000  0.77094600  1
  F  F19  1  0.22923250  0.23839450  0.00000000  1
  F  F20  1  0.00000000  0.00000000  0.23387700  1
  F  F21  1  0.27076750  0.73839450  0.50000000  1
  F  F22  1  0.22923250  0.76160550  0.00000000  1
  F  F23  1  0.50000000  0.50000000  0.26612300  1
  F  F24  1  0.27076750  0.26160550  0.50000000  1
  F  F25  1  0.00000000  0.50000000  0.22905400  1
  F  F26  1  0.50000000  0.00000000  0.27094600  1
  F  F27  1  0.72923250  0.73839450  0.50000000  1
