# generated using pymatgen
data_CuNi4O5
_symmetry_space_group_name_H-M   'P 1'
_cell_length_a   24.41068400
_cell_length_b   2.98112400
_cell_length_c   5.15971656
_cell_angle_alpha   90.00000000
_cell_angle_beta   94.12920726
_cell_angle_gamma   90.00000000
_symmetry_Int_Tables_number   1
_chemical_formula_structural   CuNi4O5
_chemical_formula_sum   'Cu4 Ni16 O20'
_cell_volume   374.50449105
_cell_formula_units_Z   4
loop_
 _symmetry_equiv_pos_site_id
 _symmetry_equiv_pos_as_xyz
  1  'x, y, z'
loop_
 _atom_site_type_symbol
 _atom_site_label
 _atom_site_symmetry_multiplicity
 _atom_site_fract_x
 _atom_site_fract_y
 _atom_site_fract_z
 _atom_site_occupancy
  Cu  Cu0  1  0.59998700  0.50000000  0.69953100  1
  Cu  Cu1  1  0.90001300  0.00000000  0.30046900  1
  Cu  Cu2  1  0.09998700  0.00000000  0.69953100  1
  Cu  Cu3  1  0.40001300  0.50000000  0.30046900  1
  Ni  Ni4  1  0.79964700  0.00000000  0.60026400  1
  Ni  Ni5  1  0.80050500  0.50000000  0.10008300  1
  Ni  Ni6  1  0.89997000  0.50000000  0.79966000  1
  Ni  Ni7  1  0.00000000  0.50000000  0.50000000  1
  Ni  Ni8  1  0.00000000  0.00000000  0.00000000  1
  Ni  Ni9  1  0.69949500  0.00000000  0.89991700  1
  Ni  Ni10  1  0.60003000  0.00000000  0.20034000  1
  Ni  Ni11  1  0.70035300  0.50000000  0.39973600  1
  Ni  Ni12  1  0.29964700  0.50000000  0.60026400  1
  Ni  Ni13  1  0.30050500  0.00000000  0.10008300  1
  Ni  Ni14  1  0.39997000  0.00000000  0.79966000  1
  Ni  Ni15  1  0.50000000  0.00000000  0.50000000  1
  Ni  Ni16  1  0.50000000  0.50000000  0.00000000  1
  Ni  Ni17  1  0.19949500  0.50000000  0.89991700  1
  Ni  Ni18  1  0.10003000  0.50000000  0.20034000  1
  Ni  Ni19  1  0.20035300  0.00000000  0.39973600  1
  O  O20  1  0.74966200  0.50000000  0.75107000  1
  O  O21  1  0.84894000  0.50000000  0.45426300  1
  O  O22  1  0.84964400  0.00000000  0.94595300  1
  O  O23  1  0.95056000  0.00000000  0.65331800  1
  O  O24  1  0.75033800  0.00000000  0.24893000  1
  O  O25  1  0.65106000  0.00000000  0.54573700  1
  O  O26  1  0.54890100  0.00000000  0.85340600  1
  O  O27  1  0.95109900  0.50000000  0.14659400  1
  O  O28  1  0.65035600  0.50000000  0.05404700  1
  O  O29  1  0.54944000  0.50000000  0.34668200  1
  O  O30  1  0.24966200  0.00000000  0.75107000  1
  O  O31  1  0.34894000  0.00000000  0.45426300  1
  O  O32  1  0.34964400  0.50000000  0.94595300  1
  O  O33  1  0.45056000  0.50000000  0.65331800  1
  O  O34  1  0.25033800  0.50000000  0.24893000  1
  O  O35  1  0.15106000  0.50000000  0.54573700  1
  O  O36  1  0.04890100  0.50000000  0.85340600  1
  O  O37  1  0.45109900  0.00000000  0.14659400  1
  O  O38  1  0.15035600  0.00000000  0.05404700  1
  O  O39  1  0.04944000  0.00000000  0.34668200  1
