# generated using pymatgen
data_Li2NiP2O7
_symmetry_space_group_name_H-M   'P 1'
_cell_length_a   8.81515523
_cell_length_b   4.99833901
_cell_length_c   13.04100707
_cell_angle_alpha   90.00000000
_cell_angle_beta   101.27901297
_cell_angle_gamma   90.00000000
_symmetry_Int_Tables_number   1
_chemical_formula_structural   Li2NiP2O7
_chemical_formula_sum   'Li8 Ni4 P8 O28'
_cell_volume   563.50391908
_cell_formula_units_Z   4
loop_
 _symmetry_equiv_pos_site_id
 _symmetry_equiv_pos_as_xyz
  1  'x, y, z'
loop_
 _atom_site_type_symbol
 _atom_site_label
 _atom_site_symmetry_multiplicity
 _atom_site_fract_x
 _atom_site_fract_y
 _atom_site_fract_z
 _atom_site_occupancy
  Li  Li0  1  0.60943925  0.19228875  0.59144150  1
  Li  Li1  1  0.39056075  0.19228875  0.90855850  1
  Li  Li2  1  0.60943925  0.80771125  0.09144150  1
  Li  Li3  1  0.39056075  0.80771125  0.40855850  1
  Li  Li4  1  0.10943925  0.69228875  0.59144150  1
  Li  Li5  1  0.89056075  0.69228875  0.90855850  1
  Li  Li6  1  0.10943925  0.30771125  0.09144150  1
  Li  Li7  1  0.89056075  0.30771125  0.40855850  1
  Ni  Ni8  1  0.75000000  0.75000000  0.50000000  1
  Ni  Ni9  1  0.25000000  0.75000000  0.00000000  1
  Ni  Ni10  1  0.25000000  0.25000000  0.50000000  1
  Ni  Ni11  1  0.75000000  0.25000000  0.00000000  1
  P  P12  1  0.54489575  0.28869925  0.36990450  1
  P  P13  1  0.45510425  0.28869925  0.13009550  1
  P  P14  1  0.54489575  0.71130075  0.86990450  1
  P  P15  1  0.45510425  0.71130075  0.63009550  1
  P  P16  1  0.04489575  0.78869925  0.36990450  1
  P  P17  1  0.95510425  0.78869925  0.13009550  1
  P  P18  1  0.04489575  0.21130075  0.86990450  1
  P  P19  1  0.95510425  0.21130075  0.63009550  1
  O  O20  1  0.50000000  0.19287625  0.25000000  1
  O  O21  1  0.50000000  0.80712375  0.75000000  1
  O  O22  1  0.31652625  0.47557575  0.11828850  1
  O  O23  1  0.68347375  0.47557575  0.38171150  1
  O  O24  1  0.31652625  0.52442425  0.61828850  1
  O  O25  1  0.68347375  0.52442425  0.88171150  1
  O  O26  1  0.41787075  0.02154125  0.07216250  1
  O  O27  1  0.58212925  0.02154125  0.42783750  1
  O  O28  1  0.41787075  0.97845875  0.57216250  1
  O  O29  1  0.58212925  0.97845875  0.92783750  1
  O  O30  1  0.59644275  0.57908325  0.59867550  1
  O  O31  1  0.40355725  0.57908325  0.90132450  1
  O  O32  1  0.59644275  0.42091675  0.09867550  1
  O  O33  1  0.40355725  0.42091675  0.40132450  1
  O  O34  1  0.00000000  0.69287625  0.25000000  1
  O  O35  1  0.00000000  0.30712375  0.75000000  1
  O  O36  1  0.81652625  0.97557575  0.11828850  1
  O  O37  1  0.18347375  0.97557575  0.38171150  1
  O  O38  1  0.81652625  0.02442425  0.61828850  1
  O  O39  1  0.18347375  0.02442425  0.88171150  1
  O  O40  1  0.91787075  0.52154125  0.07216250  1
  O  O41  1  0.08212925  0.52154125  0.42783750  1
  O  O42  1  0.91787075  0.47845875  0.57216250  1
  O  O43  1  0.08212925  0.47845875  0.92783750  1
  O  O44  1  0.09644275  0.07908325  0.59867550  1
  O  O45  1  0.90355725  0.07908325  0.90132450  1
  O  O46  1  0.09644275  0.92091675  0.09867550  1
  O  O47  1  0.90355725  0.92091675  0.40132450  1
