# generated using pymatgen
data_Li6NbFe5O12
_symmetry_space_group_name_H-M   'P 1'
_cell_length_a   5.20126200
_cell_length_b   9.03623800
_cell_length_c   10.31009846
_cell_angle_alpha   90.00000000
_cell_angle_beta   98.33569937
_cell_angle_gamma   90.00000000
_symmetry_Int_Tables_number   1
_chemical_formula_structural   Li6NbFe5O12
_chemical_formula_sum   'Li12 Nb2 Fe10 O24'
_cell_volume   479.45379440
_cell_formula_units_Z   2
loop_
 _symmetry_equiv_pos_site_id
 _symmetry_equiv_pos_as_xyz
  1  'x, y, z'
loop_
 _atom_site_type_symbol
 _atom_site_label
 _atom_site_symmetry_multiplicity
 _atom_site_fract_x
 _atom_site_fract_y
 _atom_site_fract_z
 _atom_site_occupancy
  Li  Li0  1  0.12204500  0.82464900  0.75288600  1
  Li  Li1  1  0.87156600  0.82856200  0.24228100  1
  Li  Li2  1  0.38561100  0.00000000  0.25207800  1
  Li  Li3  1  0.61750900  0.00000000  0.75750800  1
  Li  Li4  1  0.62204500  0.67535100  0.75288600  1
  Li  Li5  1  0.37156600  0.67143800  0.24228100  1
  Li  Li6  1  0.62204500  0.32464900  0.75288600  1
  Li  Li7  1  0.37156600  0.32856200  0.24228100  1
  Li  Li8  1  0.88561100  0.50000000  0.25207800  1
  Li  Li9  1  0.11750900  0.50000000  0.75750800  1
  Li  Li10  1  0.12204500  0.17535100  0.75288600  1
  Li  Li11  1  0.87156600  0.17143800  0.24228100  1
  Nb  Nb12  1  0.02182000  0.00000000  0.99900200  1
  Nb  Nb13  1  0.52182000  0.50000000  0.99900200  1
  Fe  Fe14  1  0.49588600  0.83447100  0.00014000  1
  Fe  Fe15  1  0.50021400  0.00000000  0.50285900  1
  Fe  Fe16  1  0.99588600  0.66552900  0.00014000  1
  Fe  Fe17  1  0.49843650  0.66582950  0.49898700  1
  Fe  Fe18  1  0.99843650  0.83417050  0.49898700  1
  Fe  Fe19  1  0.99588600  0.33447100  0.00014000  1
  Fe  Fe20  1  0.00021400  0.50000000  0.50285900  1
  Fe  Fe21  1  0.49588600  0.16552900  0.00014000  1
  Fe  Fe22  1  0.99843650  0.16582950  0.49898700  1
  Fe  Fe23  1  0.49843650  0.33417050  0.49898700  1
  O  O24  1  0.31878200  0.66129900  0.88568300  1
  O  O25  1  0.68709200  0.65688800  0.12250500  1
  O  O26  1  0.36878500  0.83149200  0.61257000  1
  O  O27  1  0.13308900  0.00000000  0.39091400  1
  O  O28  1  0.63043150  0.83371350  0.38731000  1
  O  O29  1  0.28382500  0.00000000  0.87440000  1
  O  O30  1  0.70570500  0.00000000  0.10818200  1
  O  O31  1  0.86878500  0.66850800  0.61257000  1
  O  O32  1  0.86663400  0.00000000  0.61051900  1
  O  O33  1  0.13043150  0.66628650  0.38731000  1
  O  O34  1  0.81878200  0.83870100  0.88568300  1
  O  O35  1  0.18709200  0.84311200  0.12250500  1
  O  O36  1  0.81878200  0.16129900  0.88568300  1
  O  O37  1  0.18709200  0.15688800  0.12250500  1
  O  O38  1  0.86878500  0.33149200  0.61257000  1
  O  O39  1  0.63308900  0.50000000  0.39091400  1
  O  O40  1  0.13043150  0.33371350  0.38731000  1
  O  O41  1  0.78382500  0.50000000  0.87440000  1
  O  O42  1  0.20570500  0.50000000  0.10818200  1
  O  O43  1  0.36878500  0.16850800  0.61257000  1
  O  O44  1  0.36663400  0.50000000  0.61051900  1
  O  O45  1  0.63043150  0.16628650  0.38731000  1
  O  O46  1  0.31878200  0.33870100  0.88568300  1
  O  O47  1  0.68709200  0.34311200  0.12250500  1
