# generated using pymatgen
data_Li12VNi3P4(CO7)4
_symmetry_space_group_name_H-M   'P 1'
_cell_length_a   8.36412900
_cell_length_b   6.48830300
_cell_length_c   10.01529899
_cell_angle_alpha   90.00000000
_cell_angle_beta   95.16885203
_cell_angle_gamma   90.00000000
_symmetry_Int_Tables_number   1
_chemical_formula_structural   Li12VNi3P4(CO7)4
_chemical_formula_sum   'Li12 V1 Ni3 P4 C4 O28'
_cell_volume   541.31008062
_cell_formula_units_Z   1
loop_
 _symmetry_equiv_pos_site_id
 _symmetry_equiv_pos_as_xyz
  1  'x, y, z'
loop_
 _atom_site_type_symbol
 _atom_site_label
 _atom_site_symmetry_multiplicity
 _atom_site_fract_x
 _atom_site_fract_y
 _atom_site_fract_z
 _atom_site_occupancy
  Li  Li0  1  0.09895000  0.00000000  0.61529200  1
  Li  Li1  1  0.09851500  0.00000000  0.11601300  1
  Li  Li2  1  0.27848400  0.77223900  0.87589100  1
  Li  Li3  1  0.27848400  0.22776100  0.87589100  1
  Li  Li4  1  0.27913600  0.77066200  0.37646400  1
  Li  Li5  1  0.27913600  0.22933800  0.37646400  1
  Li  Li6  1  0.72027900  0.27444800  0.62921800  1
  Li  Li7  1  0.72027900  0.72555200  0.62921800  1
  Li  Li8  1  0.72140500  0.27201800  0.12081700  1
  Li  Li9  1  0.72140500  0.72798200  0.12081700  1
  Li  Li10  1  0.90059500  0.50000000  0.88432600  1
  Li  Li11  1  0.89976500  0.50000000  0.38380800  1
  V  V12  1  0.67138100  0.00000000  0.39605000  1
  Ni  Ni13  1  0.33247300  0.50000000  0.60392200  1
  Ni  Ni14  1  0.33214800  0.50000000  0.10375400  1
  Ni  Ni15  1  0.66604300  0.00000000  0.89625400  1
  P  P16  1  0.41281400  0.00000000  0.63983200  1
  P  P17  1  0.41346500  0.00000000  0.13681700  1
  P  P18  1  0.58464900  0.50000000  0.86260500  1
  P  P19  1  0.58482900  0.50000000  0.36200800  1
  C  C20  1  0.03951200  0.50000000  0.64946700  1
  C  C21  1  0.03955600  0.50000000  0.14934200  1
  C  C22  1  0.95892900  0.00000000  0.85008200  1
  C  C23  1  0.96582800  0.00000000  0.34862800  1
  O  O24  1  0.07428100  0.50000000  0.52564400  1
  O  O25  1  0.10601300  0.00000000  0.81772500  1
  O  O26  1  0.07474300  0.50000000  0.02582600  1
  O  O27  1  0.15910600  0.50000000  0.74264100  1
  O  O28  1  0.11408000  0.00000000  0.32023900  1
  O  O29  1  0.15910400  0.50000000  0.24283200  1
  O  O30  1  0.30829800  0.81303300  0.58831500  1
  O  O31  1  0.30829800  0.18696700  0.58831500  1
  O  O32  1  0.30920200  0.81275500  0.08522500  1
  O  O33  1  0.30920200  0.18724500  0.08522500  1
  O  O34  1  0.41763600  0.50000000  0.91697900  1
  O  O35  1  0.43711400  0.00000000  0.79646100  1
  O  O36  1  0.41835300  0.50000000  0.41760200  1
  O  O37  1  0.43393000  0.00000000  0.29308300  1
  O  O38  1  0.56081000  0.50000000  0.70559300  1
  O  O39  1  0.58010600  0.00000000  0.58681300  1
  O  O40  1  0.55943500  0.50000000  0.20543000  1
  O  O41  1  0.58142200  0.00000000  0.08358900  1
  O  O42  1  0.68995100  0.68678300  0.91264300  1
  O  O43  1  0.68995100  0.31321700  0.91264300  1
  O  O44  1  0.69187300  0.31680800  0.41349200  1
  O  O45  1  0.69187300  0.68319200  0.41349200  1
  O  O46  1  0.83925000  0.00000000  0.75682300  1
  O  O47  1  0.89285500  0.50000000  0.68157300  1
  O  O48  1  0.84991800  0.00000000  0.25278000  1
  O  O49  1  0.92459500  0.00000000  0.97350800  1
  O  O50  1  0.89268200  0.50000000  0.18082300  1
  O  O51  1  0.92785900  0.00000000  0.47171000  1
