# generated using pymatgen
data_Ca3Hf2Fe2SiO12
_symmetry_space_group_name_H-M   'P 1'
_cell_length_a   12.76862000
_cell_length_b   12.76862000
_cell_length_c   12.56296800
_cell_angle_alpha   90.00000000
_cell_angle_beta   90.00000000
_cell_angle_gamma   90.00000000
_symmetry_Int_Tables_number   1
_chemical_formula_structural   Ca3Hf2Fe2SiO12
_chemical_formula_sum   'Ca24 Hf16 Fe16 Si8 O96'
_cell_volume   2048.23686397
_cell_formula_units_Z   8
loop_
 _symmetry_equiv_pos_site_id
 _symmetry_equiv_pos_as_xyz
  1  'x, y, z'
loop_
 _atom_site_type_symbol
 _atom_site_label
 _atom_site_symmetry_multiplicity
 _atom_site_fract_x
 _atom_site_fract_y
 _atom_site_fract_z
 _atom_site_occupancy
  Ca  Ca0  1  0.75000000  0.62434300  0.37500000  1
  Ca  Ca1  1  0.50000000  0.00000000  0.50000000  1
  Ca  Ca2  1  0.12434300  0.25000000  0.62500000  1
  Ca  Ca3  1  0.87565700  0.75000000  0.62500000  1
  Ca  Ca4  1  0.75000000  0.12434300  0.37500000  1
  Ca  Ca5  1  0.50000000  0.00000000  0.00000000  1
  Ca  Ca6  1  0.00000000  0.00000000  0.25000000  1
  Ca  Ca7  1  0.75000000  0.87565700  0.87500000  1
  Ca  Ca8  1  0.62434300  0.25000000  0.62500000  1
  Ca  Ca9  1  0.87565700  0.25000000  0.12500000  1
  Ca  Ca10  1  0.50000000  0.50000000  0.25000000  1
  Ca  Ca11  1  0.25000000  0.87565700  0.37500000  1
  Ca  Ca12  1  0.25000000  0.12434300  0.87500000  1
  Ca  Ca13  1  0.00000000  0.50000000  0.00000000  1
  Ca  Ca14  1  0.62434300  0.75000000  0.12500000  1
  Ca  Ca15  1  0.37565700  0.25000000  0.12500000  1
  Ca  Ca16  1  0.25000000  0.62434300  0.87500000  1
  Ca  Ca17  1  0.00000000  0.50000000  0.50000000  1
  Ca  Ca18  1  0.50000000  0.50000000  0.75000000  1
  Ca  Ca19  1  0.25000000  0.37565700  0.37500000  1
  Ca  Ca20  1  0.12434300  0.75000000  0.12500000  1
  Ca  Ca21  1  0.37565700  0.75000000  0.62500000  1
  Ca  Ca22  1  0.00000000  0.00000000  0.75000000  1
  Ca  Ca23  1  0.75000000  0.37565700  0.87500000  1
  Hf  Hf24  1  0.50000000  0.75000000  0.37500000  1
  Hf  Hf25  1  0.75000000  0.50000000  0.62500000  1
  Hf  Hf26  1  0.75000000  0.50000000  0.12500000  1
  Hf  Hf27  1  0.00000000  0.25000000  0.37500000  1
  Hf  Hf28  1  0.25000000  0.50000000  0.62500000  1
  Hf  Hf29  1  0.50000000  0.25000000  0.87500000  1
  Hf  Hf30  1  0.50000000  0.25000000  0.37500000  1
  Hf  Hf31  1  0.75000000  0.00000000  0.62500000  1
  Hf  Hf32  1  0.00000000  0.25000000  0.87500000  1
  Hf  Hf33  1  0.25000000  0.00000000  0.12500000  1
  Hf  Hf34  1  0.25000000  0.00000000  0.62500000  1
  Hf  Hf35  1  0.50000000  0.75000000  0.87500000  1
  Hf  Hf36  1  0.75000000  0.00000000  0.12500000  1
  Hf  Hf37  1  0.00000000  0.75000000  0.37500000  1
  Hf  Hf38  1  0.00000000  0.75000000  0.87500000  1
  Hf  Hf39  1  0.25000000  0.50000000  0.12500000  1
  Fe  Fe40  1  0.12568100  0.25000000  0.12500000  1
  Fe  Fe41  1  0.25000000  0.12568100  0.37500000  1
  Fe  Fe42  1  0.25000000  0.37431900  0.87500000  1
  Fe  Fe43  1  0.37431900  0.25000000  0.62500000  1
  Fe  Fe44  1  0.62568100  0.25000000  0.12500000  1
  Fe  Fe45  1  0.75000000  0.12568100  0.87500000  1
  Fe  Fe46  1  0.75000000  0.37431900  0.37500000  1
  Fe  Fe47  1  0.87431900  0.25000000  0.62500000  1
  Fe  Fe48  1  0.62568100  0.75000000  0.62500000  1
  Fe  Fe49  1  0.75000000  0.62568100  0.87500000  1
  Fe  Fe50  1  0.75000000  0.87431900  0.37500000  1
  Fe  Fe51  1  0.87431900  0.75000000  0.12500000  1
  Fe  Fe52  1  0.12568100  0.75000000  0.62500000  1
  Fe  Fe53  1  0.25000000  0.62568100  0.37500000  1
  Fe  Fe54  1  0.25000000  0.87431900  0.87500000  1
  Fe  Fe55  1  0.37431900  0.75000000  0.12500000  1
  Si  Si56  1  0.50000000  0.00000000  0.25000000  1
  Si  Si57  1  0.50000000  0.00000000  0.75000000  1
  Si  Si58  1  0.00000000  0.00000000  0.50000000  1
  Si  Si59  1  0.50000000  0.50000000  0.50000000  1
  Si  Si60  1  0.00000000  0.50000000  0.75000000  1
  Si  Si61  1  0.00000000  0.50000000  0.25000000  1
  Si  Si62  1  0.50000000  0.50000000  0.00000000  1
  Si  Si63  1  0.00000000  0.00000000  0.00000000  1
  O  O64  1  0.90597600  0.45771300  0.16973600  1
  O  O65  1  0.72454250  0.65093950  0.57323350  1
  O  O66  1  0.80795050  0.47224750  0.47349550  1
  O  O67  1  0.02775250  0.30795050  0.02650450  1
  O  O68  1  0.80795050  0.52775250  0.97349550  1
  O  O69  1  0.45771300  0.90597600  0.33026400  1
  O  O70  1  0.65093950  0.77545750  0.32323350  1
  O  O71  1  0.69204950  0.97224750  0.47349550  1
  O  O72  1  0.34906050  0.27545750  0.92676650  1
  O  O73  1  0.45771300  0.09402400  0.83026400  1
  O  O74  1  0.84906050  0.72454250  0.82323350  1
  O  O75  1  0.97224750  0.30795050  0.52650450  1
  O  O76  1  0.77545750  0.65093950  0.17676650  1
  O  O77  1  0.90597600  0.54228700  0.66973600  1
  O  O78  1  0.54228700  0.09402400  0.33026400  1
  O  O79  1  0.72454250  0.84906050  0.67676650  1
  O  O80  1  0.09402400  0.45771300  0.66973600  1
  O  O81  1  0.15093950  0.22454250  0.42676650  1
  O  O82  1  0.59402400  0.04228700  0.66973600  1
  O  O83  1  0.30795050  0.47224750  0.77650450  1
  O  O84  1  0.47224750  0.30795050  0.72349550  1
  O  O85  1  0.27545750  0.34906050  0.57323350  1
  O  O86  1  0.52775250  0.30795050  0.22349550  1
  O  O87  1  0.04228700  0.40597600  0.33026400  1
  O  O88  1  0.47224750  0.19204950  0.52650450  1
  O  O89  1  0.95771300  0.09402400  0.41973600  1
  O  O90  1  0.72454250  0.15093950  0.17676650  1
  O  O91  1  0.52775250  0.19204950  0.02650450  1
  O  O92  1  0.69204950  0.02775250  0.97349550  1
  O  O93  1  0.90597600  0.95771300  0.58026400  1
  O  O94  1  0.84906050  0.27545750  0.32323350  1
  O  O95  1  0.40597600  0.54228700  0.58026400  1
  O  O96  1  0.77545750  0.15093950  0.57323350  1
  O  O97  1  0.45771300  0.40597600  0.41973600  1
  O  O98  1  0.59402400  0.45771300  0.58026400  1
  O  O99  1  0.72454250  0.34906050  0.07323350  1
  O  O100  1  0.02775250  0.19204950  0.22349550  1
  O  O101  1  0.65093950  0.27545750  0.42676650  1
  O  O102  1  0.04228700  0.90597600  0.41973600  1
  O  O103  1  0.65093950  0.22454250  0.82323350  1
  O  O104  1  0.80795050  0.02775250  0.77650450  1
  O  O105  1  0.34906050  0.72454250  0.42676650  1
  O  O106  1  0.54228700  0.59402400  0.41973600  1
  O  O107  1  0.69204950  0.47224750  0.27650450  1
  O  O108  1  0.97224750  0.19204950  0.72349550  1
  O  O109  1  0.19204950  0.02775250  0.27650450  1
  O  O110  1  0.77545750  0.34906050  0.67676650  1
  O  O111  1  0.09402400  0.04228700  0.58026400  1
  O  O112  1  0.40597600  0.95771300  0.66973600  1
  O  O113  1  0.22454250  0.15093950  0.07323350  1
  O  O114  1  0.30795050  0.97224750  0.97349550  1
  O  O115  1  0.52775250  0.80795050  0.52650450  1
  O  O116  1  0.30795050  0.02775250  0.47349550  1
  O  O117  1  0.95771300  0.40597600  0.83026400  1
  O  O118  1  0.15093950  0.27545750  0.82323350  1
  O  O119  1  0.19204950  0.47224750  0.97349550  1
  O  O120  1  0.84906050  0.77545750  0.42676650  1
  O  O121  1  0.95771300  0.59402400  0.33026400  1
  O  O122  1  0.34906050  0.22454250  0.32323350  1
  O  O123  1  0.47224750  0.80795050  0.02650450  1
  O  O124  1  0.27545750  0.15093950  0.67676650  1
  O  O125  1  0.40597600  0.04228700  0.16973600  1
  O  O126  1  0.04228700  0.59402400  0.83026400  1
  O  O127  1  0.22454250  0.34906050  0.17676650  1
  O  O128  1  0.59402400  0.95771300  0.16973600  1
  O  O129  1  0.65093950  0.72454250  0.92676650  1
  O  O130  1  0.09402400  0.54228700  0.16973600  1
  O  O131  1  0.80795050  0.97224750  0.27650450  1
  O  O132  1  0.97224750  0.80795050  0.22349550  1
  O  O133  1  0.77545750  0.84906050  0.07323350  1
  O  O134  1  0.02775250  0.80795050  0.72349550  1
  O  O135  1  0.54228700  0.90597600  0.83026400  1
  O  O136  1  0.97224750  0.69204950  0.02650450  1
  O  O137  1  0.45771300  0.59402400  0.91973600  1
  O  O138  1  0.22454250  0.65093950  0.67676650  1
  O  O139  1  0.02775250  0.69204950  0.52650450  1
  O  O140  1  0.19204950  0.52775250  0.47349550  1
  O  O141  1  0.40597600  0.45771300  0.08026400  1
  O  O142  1  0.34906050  0.77545750  0.82323350  1
  O  O143  1  0.90597600  0.04228700  0.08026400  1
  O  O144  1  0.27545750  0.65093950  0.07323350  1
  O  O145  1  0.95771300  0.90597600  0.91973600  1
  O  O146  1  0.09402400  0.95771300  0.08026400  1
  O  O147  1  0.22454250  0.84906050  0.57323350  1
  O  O148  1  0.52775250  0.69204950  0.72349550  1
  O  O149  1  0.15093950  0.77545750  0.92676650  1
  O  O150  1  0.54228700  0.40597600  0.91973600  1
  O  O151  1  0.15093950  0.72454250  0.32323350  1
  O  O152  1  0.30795050  0.52775250  0.27650450  1
  O  O153  1  0.84906050  0.22454250  0.92676650  1
  O  O154  1  0.04228700  0.09402400  0.91973600  1
  O  O155  1  0.19204950  0.97224750  0.77650450  1
  O  O156  1  0.47224750  0.69204950  0.22349550  1
  O  O157  1  0.69204950  0.52775250  0.77650450  1
  O  O158  1  0.27545750  0.84906050  0.17676650  1
  O  O159  1  0.59402400  0.54228700  0.08026400  1
