# generated using pymatgen
data_Li2VCr(P2O7)2
_symmetry_space_group_name_H-M   'P 1'
_cell_length_a   7.15127700
_cell_length_b   8.22140500
_cell_length_c   9.74233807
_cell_angle_alpha   90.00000000
_cell_angle_beta   111.46355264
_cell_angle_gamma   90.00000000
_symmetry_Int_Tables_number   1
_chemical_formula_structural   Li2VCr(P2O7)2
_chemical_formula_sum   'Li4 V2 Cr2 P8 O28'
_cell_volume   533.06413530
_cell_formula_units_Z   2
loop_
 _symmetry_equiv_pos_site_id
 _symmetry_equiv_pos_as_xyz
  1  'x, y, z'
loop_
 _atom_site_type_symbol
 _atom_site_label
 _atom_site_symmetry_multiplicity
 _atom_site_fract_x
 _atom_site_fract_y
 _atom_site_fract_z
 _atom_site_occupancy
  Li  Li0  1  0.67649700  0.36300900  0.24971400  1
  Li  Li1  1  0.32333900  0.86279900  0.24996800  1
  Li  Li2  1  0.67666100  0.36279900  0.75003200  1
  Li  Li3  1  0.32350300  0.86300900  0.75028600  1
  V  V4  1  0.72930600  0.99963500  0.25650300  1
  V  V5  1  0.27069400  0.49963500  0.74349700  1
  Cr  Cr6  1  0.27216600  0.50008300  0.24324300  1
  Cr  Cr7  1  0.72783400  0.00008300  0.75675700  1
  P  P8  1  0.91422600  0.78278700  0.06279300  1
  P  P9  1  0.52154900  0.67974900  0.06128600  1
  P  P10  1  0.47711400  0.18058700  0.43910200  1
  P  P11  1  0.91396100  0.78491300  0.56409900  1
  P  P12  1  0.08603900  0.28491300  0.43590100  1
  P  P13  1  0.52288600  0.68058700  0.56089800  1
  P  P14  1  0.47845100  0.17974900  0.93871400  1
  P  P15  1  0.08577400  0.28278700  0.93720700  1
  O  O16  1  0.75290200  0.65156500  0.07942100  1
  O  O17  1  0.91957700  0.93329300  0.15787000  1
  O  O18  1  0.60583200  0.17824000  0.10427700  1
  O  O19  1  0.50477300  0.84423900  0.12895200  1
  O  O20  1  0.48133100  0.53678800  0.14765700  1
  O  O21  1  0.14548100  0.32319100  0.09958600  1
  O  O22  1  0.11536200  0.69253500  0.12361700  1
  O  O23  1  0.88444400  0.19744400  0.37723000  1
  O  O24  1  0.85100500  0.82356300  0.40060100  1
  O  O25  1  0.51750800  0.03853300  0.35174400  1
  O  O26  1  0.49011200  0.34622500  0.36974300  1
  O  O27  1  0.39345800  0.67978100  0.39633800  1
  O  O28  1  0.08428000  0.43493800  0.34195200  1
  O  O29  1  0.24609000  0.15168400  0.42067700  1
  O  O30  1  0.75391000  0.65168400  0.57932300  1
  O  O31  1  0.91572000  0.93493800  0.65804800  1
  O  O32  1  0.60654200  0.17978100  0.60366200  1
  O  O33  1  0.50988800  0.84622500  0.63025700  1
  O  O34  1  0.48249200  0.53853300  0.64825600  1
  O  O35  1  0.14899500  0.32356300  0.59939900  1
  O  O36  1  0.11555600  0.69744400  0.62277000  1
  O  O37  1  0.88463800  0.19253500  0.87638300  1
  O  O38  1  0.85451900  0.82319100  0.90041400  1
  O  O39  1  0.51866900  0.03678800  0.85234300  1
  O  O40  1  0.49522700  0.34423900  0.87104800  1
  O  O41  1  0.39416800  0.67824000  0.89572300  1
  O  O42  1  0.08042300  0.43329300  0.84213000  1
  O  O43  1  0.24709800  0.15156500  0.92057900  1
