# generated using pymatgen
data_YFeGe2O7
_symmetry_space_group_name_H-M   'P 1'
_cell_length_a   10.85310800
_cell_length_b   8.69590000
_cell_length_c   6.72585204
_cell_angle_alpha   90.00000000
_cell_angle_beta   117.04441939
_cell_angle_gamma   90.00000000
_symmetry_Int_Tables_number   1
_chemical_formula_structural   YFeGe2O7
_chemical_formula_sum   'Y4 Fe4 Ge8 O28'
_cell_volume   565.36007614
_cell_formula_units_Z   4
loop_
 _symmetry_equiv_pos_site_id
 _symmetry_equiv_pos_as_xyz
  1  'x, y, z'
loop_
 _atom_site_type_symbol
 _atom_site_label
 _atom_site_symmetry_multiplicity
 _atom_site_fract_x
 _atom_site_fract_y
 _atom_site_fract_z
 _atom_site_occupancy
  Y  Y0  1  0.00000000  0.79314400  0.00000000  1
  Y  Y1  1  0.00000000  0.20685600  0.00000000  1
  Y  Y2  1  0.50000000  0.29314400  0.00000000  1
  Y  Y3  1  0.50000000  0.70685600  0.00000000  1
  Fe  Fe4  1  0.00000000  0.69631400  0.50000000  1
  Fe  Fe5  1  0.00000000  0.30368600  0.50000000  1
  Fe  Fe6  1  0.50000000  0.19631400  0.50000000  1
  Fe  Fe7  1  0.50000000  0.80368600  0.50000000  1
  Ge  Ge8  1  0.71914500  0.50000000  0.51686100  1
  Ge  Ge9  1  0.28085500  0.50000000  0.48313900  1
  Ge  Ge10  1  0.19675700  0.50000000  0.92348000  1
  Ge  Ge11  1  0.80324300  0.50000000  0.07652000  1
  Ge  Ge12  1  0.21914500  0.00000000  0.51686100  1
  Ge  Ge13  1  0.78085500  0.00000000  0.48313900  1
  Ge  Ge14  1  0.69675700  0.00000000  0.92348000  1
  Ge  Ge15  1  0.30324300  0.00000000  0.07652000  1
  O  O16  1  0.10922300  0.67711500  0.82902300  1
  O  O17  1  0.89077700  0.67711500  0.17097700  1
  O  O18  1  0.89077700  0.32288500  0.17097700  1
  O  O19  1  0.10922300  0.32288500  0.82902300  1
  O  O20  1  0.86536500  0.50000000  0.45893400  1
  O  O21  1  0.13463500  0.50000000  0.54106600  1
  O  O22  1  0.81652800  0.50000000  0.81423400  1
  O  O23  1  0.18347200  0.50000000  0.18576600  1
  O  O24  1  0.63170600  0.50000000  0.03107100  1
  O  O25  1  0.36829400  0.50000000  0.96892900  1
  O  O26  1  0.11145300  0.83610300  0.40332800  1
  O  O27  1  0.88854700  0.83610300  0.59667200  1
  O  O28  1  0.88854700  0.16389700  0.59667200  1
  O  O29  1  0.11145300  0.16389700  0.40332800  1
  O  O30  1  0.60922300  0.17711500  0.82902300  1
  O  O31  1  0.39077700  0.17711500  0.17097700  1
  O  O32  1  0.39077700  0.82288500  0.17097700  1
  O  O33  1  0.60922300  0.82288500  0.82902300  1
  O  O34  1  0.36536500  0.00000000  0.45893400  1
  O  O35  1  0.63463500  0.00000000  0.54106600  1
  O  O36  1  0.31652800  0.00000000  0.81423400  1
  O  O37  1  0.68347200  0.00000000  0.18576600  1
  O  O38  1  0.13170600  0.00000000  0.03107100  1
  O  O39  1  0.86829400  0.00000000  0.96892900  1
  O  O40  1  0.61145300  0.33610300  0.40332800  1
  O  O41  1  0.38854700  0.33610300  0.59667200  1
  O  O42  1  0.38854700  0.66389700  0.59667200  1
  O  O43  1  0.61145300  0.66389700  0.40332800  1
