# generated using pymatgen
data_Li5Mn2Co5O12
_symmetry_space_group_name_H-M   'P 1'
_cell_length_a   5.05155200
_cell_length_b   8.98295000
_cell_length_c   9.87375855
_cell_angle_alpha   90.00000000
_cell_angle_beta   101.64859832
_cell_angle_gamma   90.00000000
_symmetry_Int_Tables_number   1
_chemical_formula_structural   Li5Mn2Co5O12
_chemical_formula_sum   'Li10 Mn4 Co10 O24'
_cell_volume   438.82194539
_cell_formula_units_Z   2
loop_
 _symmetry_equiv_pos_site_id
 _symmetry_equiv_pos_as_xyz
  1  'x, y, z'
loop_
 _atom_site_type_symbol
 _atom_site_label
 _atom_site_symmetry_multiplicity
 _atom_site_fract_x
 _atom_site_fract_y
 _atom_site_fract_z
 _atom_site_occupancy
  Li  Li0  1  0.75456450  0.91646650  0.74645300  1
  Li  Li1  1  0.25170200  0.58569700  0.25198200  1
  Li  Li2  1  0.24543550  0.91646650  0.25354700  1
  Li  Li3  1  0.74829800  0.58569700  0.74801800  1
  Li  Li4  1  0.00000000  0.91400500  0.50000000  1
  Li  Li5  1  0.25456450  0.41646650  0.74645300  1
  Li  Li6  1  0.75170200  0.08569700  0.25198200  1
  Li  Li7  1  0.74543550  0.41646650  0.25354700  1
  Li  Li8  1  0.24829800  0.08569700  0.74801800  1
  Li  Li9  1  0.50000000  0.41400500  0.50000000  1
  Mn  Mn10  1  0.50000000  0.74785100  0.50000000  1
  Mn  Mn11  1  0.00000000  0.75430500  0.00000000  1
  Mn  Mn12  1  0.00000000  0.24785100  0.50000000  1
  Mn  Mn13  1  0.50000000  0.25430500  0.00000000  1
  Co  Co14  1  0.50000000  0.58635400  0.00000000  1
  Co  Co15  1  0.75146200  0.75443600  0.25397000  1
  Co  Co16  1  0.24853800  0.75443600  0.74603000  1
  Co  Co17  1  0.50000000  0.92266900  0.00000000  1
  Co  Co18  1  0.00000000  0.58229500  0.50000000  1
  Co  Co19  1  0.00000000  0.08635400  0.00000000  1
  Co  Co20  1  0.25146200  0.25443600  0.25397000  1
  Co  Co21  1  0.74853800  0.25443600  0.74603000  1
  Co  Co22  1  0.00000000  0.42266900  0.00000000  1
  Co  Co23  1  0.50000000  0.08229500  0.50000000  1
  O  O24  1  0.63511500  0.75443800  0.88117300  1
  O  O25  1  0.60693000  0.90246700  0.38503700  1
  O  O26  1  0.36488500  0.75443800  0.11882700  1
  O  O27  1  0.88633850  0.90862150  0.11821200  1
  O  O28  1  0.39307000  0.90246700  0.61496300  1
  O  O29  1  0.36472500  0.59431900  0.61368200  1
  O  O30  1  0.11366150  0.90862150  0.88178800  1
  O  O31  1  0.11380900  0.60218200  0.88227900  1
  O  O32  1  0.13293000  0.73679000  0.38485700  1
  O  O33  1  0.63527500  0.59431900  0.38631800  1
  O  O34  1  0.88619100  0.60218200  0.11772100  1
  O  O35  1  0.86707000  0.73679000  0.61514300  1
  O  O36  1  0.13511500  0.25443800  0.88117300  1
  O  O37  1  0.10693000  0.40246700  0.38503700  1
  O  O38  1  0.86488500  0.25443800  0.11882700  1
  O  O39  1  0.38633850  0.40862150  0.11821200  1
  O  O40  1  0.89307000  0.40246700  0.61496300  1
  O  O41  1  0.86472500  0.09431900  0.61368200  1
  O  O42  1  0.61366150  0.40862150  0.88178800  1
  O  O43  1  0.61380900  0.10218200  0.88227900  1
  O  O44  1  0.63293000  0.23679000  0.38485700  1
  O  O45  1  0.13527500  0.09431900  0.38631800  1
  O  O46  1  0.38619100  0.10218200  0.11772100  1
  O  O47  1  0.36707000  0.23679000  0.61514300  1
