# generated using pymatgen
data_VAsO4
_symmetry_space_group_name_H-M   'P 1'
_cell_length_a   6.51809185
_cell_length_b   6.15560226
_cell_length_c   7.97769647
_cell_angle_alpha   90.00000000
_cell_angle_beta   114.91451913
_cell_angle_gamma   90.00000000
_symmetry_Int_Tables_number   1
_chemical_formula_structural   VAsO4
_chemical_formula_sum   'V4 As4 O16'
_cell_volume   290.29917039
_cell_formula_units_Z   4
loop_
 _symmetry_equiv_pos_site_id
 _symmetry_equiv_pos_as_xyz
  1  'x, y, z'
loop_
 _atom_site_type_symbol
 _atom_site_label
 _atom_site_symmetry_multiplicity
 _atom_site_fract_x
 _atom_site_fract_y
 _atom_site_fract_z
 _atom_site_occupancy
  V  V0  1  0.37289650  0.88058600  0.29024500  1
  V  V1  1  0.62710350  0.11941400  0.70975500  1
  V  V2  1  0.62710350  0.38058600  0.20975500  1
  V  V3  1  0.37289650  0.61941400  0.79024500  1
  As  As4  1  0.20393550  0.38936000  0.35396900  1
  As  As5  1  0.79606450  0.88936000  0.14603100  1
  As  As6  1  0.20393550  0.11064000  0.85396900  1
  As  As7  1  0.79606450  0.61064000  0.64603100  1
  O  O8  1  0.21289250  0.47803900  0.55862700  1
  O  O9  1  0.78710750  0.97803900  0.94137300  1
  O  O10  1  0.21289250  0.02196100  0.05862700  1
  O  O11  1  0.78710750  0.52196100  0.44137300  1
  O  O12  1  0.39522750  0.16866200  0.43038100  1
  O  O13  1  0.60477250  0.66866200  0.06961900  1
  O  O14  1  0.39522750  0.33133800  0.93038100  1
  O  O15  1  0.60477250  0.83133800  0.56961900  1
  O  O16  1  0.06182850  0.82139200  0.29755500  1
  O  O17  1  0.93817150  0.32139200  0.20244500  1
  O  O18  1  0.06182850  0.67860800  0.79755500  1
  O  O19  1  0.93817150  0.17860800  0.70244500  1
  O  O20  1  0.65439250  0.04126200  0.25017300  1
  O  O21  1  0.34560750  0.54126200  0.24982700  1
  O  O22  1  0.65439250  0.45873800  0.75017300  1
  O  O23  1  0.34560750  0.95873800  0.74982700  1
