# generated using pymatgen
data_CrH10S2(NO2)4
_symmetry_space_group_name_H-M   'P 1'
_cell_length_a   5.56835728
_cell_length_b   5.79492087
_cell_length_c   7.37502890
_cell_angle_alpha   91.32380994
_cell_angle_beta   102.91316484
_cell_angle_gamma   97.62449221
_symmetry_Int_Tables_number   1
_chemical_formula_structural   CrH10S2(NO2)4
_chemical_formula_sum   'Cr1 H10 S2 N4 O8'
_cell_volume   229.56652098
_cell_formula_units_Z   1
loop_
 _symmetry_equiv_pos_site_id
 _symmetry_equiv_pos_as_xyz
  1  'x, y, z'
loop_
 _atom_site_type_symbol
 _atom_site_label
 _atom_site_symmetry_multiplicity
 _atom_site_fract_x
 _atom_site_fract_y
 _atom_site_fract_z
 _atom_site_occupancy
  Cr  Cr0  1  0.00000000  0.00000000  0.00000000  1
  H  H1  1  0.91942600  0.70133050  0.27473150  1
  H  H2  1  0.08057400  0.29866950  0.72526850  1
  H  H3  1  0.25243150  0.55963100  0.17516800  1
  H  H4  1  0.74756850  0.44036900  0.82483200  1
  H  H5  1  0.44249650  0.79813100  0.29057500  1
  H  H6  1  0.55750350  0.20186900  0.70942500  1
  H  H7  1  0.11598300  0.92858400  0.37557500  1
  H  H8  1  0.88401700  0.07141600  0.62442500  1
  H  H9  1  0.29511300  0.59954750  0.41212150  1
  H  H10  1  0.70488700  0.40045250  0.58787850  1
  S  S11  1  0.65569300  0.24820100  0.22789600  1
  S  S12  1  0.34430700  0.75179900  0.77210400  1
  N  N13  1  0.27863650  0.68118750  0.28485450  1
  N  N14  1  0.72136350  0.31881250  0.71514550  1
  N  N15  1  0.07284950  0.81594650  0.25919350  1
  N  N16  1  0.92715050  0.18405350  0.74080650  1
  O  O17  1  0.85562350  0.26613300  0.11698100  1
  O  O18  1  0.14437650  0.73386700  0.88301900  1
  O  O19  1  0.40743250  0.23946900  0.10118000  1
  O  O20  1  0.59256750  0.76053100  0.89882000  1
  O  O21  1  0.71010000  0.46160650  0.35653950  1
  O  O22  1  0.28990000  0.53839350  0.64346050  1
  O  O23  1  0.67177250  0.03642700  0.33882700  1
  O  O24  1  0.32822750  0.96357300  0.66117300  1
