# generated using pymatgen
data_Ba4Bi3O11
_symmetry_space_group_name_H-M   'P 1'
_cell_length_a   8.79143800
_cell_length_b   8.79241400
_cell_length_c   8.93525200
_cell_angle_alpha   90.00000000
_cell_angle_beta   90.00000000
_cell_angle_gamma   90.00000000
_symmetry_Int_Tables_number   1
_chemical_formula_structural   Ba4Bi3O11
_chemical_formula_sum   'Ba8 Bi6 O22'
_cell_volume   690.67677448
_cell_formula_units_Z   2
loop_
 _symmetry_equiv_pos_site_id
 _symmetry_equiv_pos_as_xyz
  1  'x, y, z'
loop_
 _atom_site_type_symbol
 _atom_site_label
 _atom_site_symmetry_multiplicity
 _atom_site_fract_x
 _atom_site_fract_y
 _atom_site_fract_z
 _atom_site_occupancy
  Ba  Ba0  1  0.73048300  0.77700400  0.74452900  1
  Ba  Ba1  1  0.73048300  0.77700400  0.25547100  1
  Ba  Ba2  1  0.26951700  0.77700400  0.25547100  1
  Ba  Ba3  1  0.26951700  0.77700400  0.74452900  1
  Ba  Ba4  1  0.23048300  0.27700400  0.74452900  1
  Ba  Ba5  1  0.23048300  0.27700400  0.25547100  1
  Ba  Ba6  1  0.76951700  0.27700400  0.25547100  1
  Ba  Ba7  1  0.76951700  0.27700400  0.74452900  1
  Bi  Bi8  1  0.50000000  0.50914800  0.00000000  1
  Bi  Bi9  1  0.50000000  0.51029500  0.50000000  1
  Bi  Bi10  1  0.50000000  0.01934800  0.50000000  1
  Bi  Bi11  1  0.00000000  0.00914800  0.00000000  1
  Bi  Bi12  1  0.00000000  0.01029500  0.50000000  1
  Bi  Bi13  1  0.00000000  0.51934800  0.50000000  1
  O  O14  1  0.50000000  0.50995800  0.75064300  1
  O  O15  1  0.50000000  0.50995800  0.24935700  1
  O  O16  1  0.24943100  0.00326900  0.50000000  1
  O  O17  1  0.50000000  0.26353900  0.50000000  1
  O  O18  1  0.20326650  0.89826750  0.00000000  1
  O  O19  1  0.50000000  0.00785800  0.73121200  1
  O  O20  1  0.50000000  0.00785800  0.26878800  1
  O  O21  1  0.79673350  0.89826750  0.00000000  1
  O  O22  1  0.75056900  0.00326900  0.50000000  1
  O  O23  1  0.50000000  0.73987300  0.00000000  1
  O  O24  1  0.50000000  0.76107400  0.50000000  1
  O  O25  1  0.00000000  0.00995800  0.75064300  1
  O  O26  1  0.00000000  0.00995800  0.24935700  1
  O  O27  1  0.74943100  0.50326900  0.50000000  1
  O  O28  1  0.00000000  0.76353900  0.50000000  1
  O  O29  1  0.70326650  0.39826750  0.00000000  1
  O  O30  1  0.00000000  0.50785800  0.73121200  1
  O  O31  1  0.00000000  0.50785800  0.26878800  1
  O  O32  1  0.29673350  0.39826750  0.00000000  1
  O  O33  1  0.25056900  0.50326900  0.50000000  1
  O  O34  1  0.00000000  0.23987300  0.00000000  1
  O  O35  1  0.00000000  0.26107400  0.50000000  1
