# generated using pymatgen
data_Co6O7F5
_symmetry_space_group_name_H-M   'P 1'
_cell_length_a   6.48177600
_cell_length_b   6.12189600
_cell_length_c   8.95494952
_cell_angle_alpha   90.00000000
_cell_angle_beta   90.17236843
_cell_angle_gamma   90.00000000
_symmetry_Int_Tables_number   1
_chemical_formula_structural   Co6O7F5
_chemical_formula_sum   'Co12 O14 F10'
_cell_volume   355.33758202
_cell_formula_units_Z   2
loop_
 _symmetry_equiv_pos_site_id
 _symmetry_equiv_pos_as_xyz
  1  'x, y, z'
loop_
 _atom_site_type_symbol
 _atom_site_label
 _atom_site_symmetry_multiplicity
 _atom_site_fract_x
 _atom_site_fract_y
 _atom_site_fract_z
 _atom_site_occupancy
  Co  Co0  1  0.00502250  0.00279950  0.67609300  1
  Co  Co1  1  0.50000000  0.47604200  0.00000000  1
  Co  Co2  1  0.99497750  0.00279950  0.32390700  1
  Co  Co3  1  0.47683100  0.00471100  0.82885700  1
  Co  Co4  1  0.50000000  0.00273800  0.50000000  1
  Co  Co5  1  0.52316900  0.00471100  0.17114300  1
  Co  Co6  1  0.50502250  0.50279950  0.67609300  1
  Co  Co7  1  0.00000000  0.97604200  0.00000000  1
  Co  Co8  1  0.49497750  0.50279950  0.32390700  1
  Co  Co9  1  0.97683100  0.50471100  0.82885700  1
  Co  Co10  1  0.00000000  0.50273800  0.50000000  1
  Co  Co11  1  0.02316900  0.50471100  0.17114300  1
  O  O12  1  0.81616650  0.99930250  0.16224600  1
  O  O13  1  0.50000000  0.18835300  0.00000000  1
  O  O14  1  0.48574750  0.19677350  0.66861200  1
  O  O15  1  0.51425250  0.19677350  0.33138800  1
  O  O16  1  0.51244750  0.80935550  0.33284700  1
  O  O17  1  0.48755250  0.80935550  0.66715300  1
  O  O18  1  0.18383350  0.99930250  0.83775400  1
  O  O19  1  0.31616650  0.49930250  0.16224600  1
  O  O20  1  0.00000000  0.68835300  0.00000000  1
  O  O21  1  0.98574750  0.69677350  0.66861200  1
  O  O22  1  0.01425250  0.69677350  0.33138800  1
  O  O23  1  0.01244750  0.30935550  0.33284700  1
  O  O24  1  0.98755250  0.30935550  0.66715300  1
  O  O25  1  0.68383350  0.49930250  0.83775400  1
  F  F26  1  0.77276600  0.00164800  0.83477900  1
  F  F27  1  0.80675850  0.00326450  0.50786800  1
  F  F28  1  0.50000000  0.79715700  0.00000000  1
  F  F29  1  0.19324150  0.00326450  0.49213200  1
  F  F30  1  0.22723400  0.00164800  0.16522100  1
  F  F31  1  0.27276600  0.50164800  0.83477900  1
  F  F32  1  0.30675850  0.50326450  0.50786800  1
  F  F33  1  0.00000000  0.29715700  0.00000000  1
  F  F34  1  0.69324150  0.50326450  0.49213200  1
  F  F35  1  0.72723400  0.50164800  0.16522100  1
