# generated using pymatgen
data_Li5Cr2Co5O12
_symmetry_space_group_name_H-M   'P 1'
_cell_length_a   5.10165600
_cell_length_b   8.93471200
_cell_length_c   9.85505947
_cell_angle_alpha   90.00000000
_cell_angle_beta   100.34748021
_cell_angle_gamma   90.00000000
_symmetry_Int_Tables_number   1
_chemical_formula_structural   Li5Cr2Co5O12
_chemical_formula_sum   'Li10 Cr4 Co10 O24'
_cell_volume   441.90587673
_cell_formula_units_Z   2
loop_
 _symmetry_equiv_pos_site_id
 _symmetry_equiv_pos_as_xyz
  1  'x, y, z'
loop_
 _atom_site_type_symbol
 _atom_site_label
 _atom_site_symmetry_multiplicity
 _atom_site_fract_x
 _atom_site_fract_y
 _atom_site_fract_z
 _atom_site_occupancy
  Li  Li0  1  0.74980850  0.92103450  0.24515600  1
  Li  Li1  1  0.25040750  0.57500450  0.75867100  1
  Li  Li2  1  0.25019150  0.92103450  0.75484400  1
  Li  Li3  1  0.74959250  0.57500450  0.24132900  1
  Li  Li4  1  0.00000000  0.91348900  0.00000000  1
  Li  Li5  1  0.24980850  0.42103450  0.24515600  1
  Li  Li6  1  0.75040750  0.07500450  0.75867100  1
  Li  Li7  1  0.75019150  0.42103450  0.75484400  1
  Li  Li8  1  0.24959250  0.07500450  0.24132900  1
  Li  Li9  1  0.50000000  0.41348900  0.00000000  1
  Cr  Cr10  1  0.50000000  0.74701100  0.00000000  1
  Cr  Cr11  1  0.00000000  0.75521500  0.50000000  1
  Cr  Cr12  1  0.00000000  0.24701100  0.00000000  1
  Cr  Cr13  1  0.50000000  0.25521500  0.50000000  1
  Co  Co14  1  0.50000000  0.58568200  0.50000000  1
  Co  Co15  1  0.75614200  0.75237700  0.75622100  1
  Co  Co16  1  0.24385800  0.75237700  0.24377900  1
  Co  Co17  1  0.50000000  0.92219600  0.50000000  1
  Co  Co18  1  0.00000000  0.57763100  0.00000000  1
  Co  Co19  1  0.00000000  0.08568200  0.50000000  1
  Co  Co20  1  0.25614200  0.25237700  0.75622100  1
  Co  Co21  1  0.74385800  0.25237700  0.24377900  1
  Co  Co22  1  0.00000000  0.42219600  0.50000000  1
  Co  Co23  1  0.50000000  0.07763100  0.00000000  1
  O  O24  1  0.64028450  0.59238350  0.88079900  1
  O  O25  1  0.35971550  0.59238350  0.11920100  1
  O  O26  1  0.62562100  0.76095200  0.38490000  1
  O  O27  1  0.37437900  0.76095200  0.61510000  1
  O  O28  1  0.61536600  0.91102500  0.88373700  1
  O  O29  1  0.38463400  0.91102500  0.11626300  1
  O  O30  1  0.11868800  0.59096200  0.38463000  1
  O  O31  1  0.88131200  0.59096200  0.61537000  1
  O  O32  1  0.13221700  0.73526200  0.88450000  1
  O  O33  1  0.86778300  0.73526200  0.11550000  1
  O  O34  1  0.12950150  0.91038850  0.37915100  1
  O  O35  1  0.87049850  0.91038850  0.62084900  1
  O  O36  1  0.14028450  0.09238350  0.88079900  1
  O  O37  1  0.85971550  0.09238350  0.11920100  1
  O  O38  1  0.12562100  0.26095200  0.38490000  1
  O  O39  1  0.87437900  0.26095200  0.61510000  1
  O  O40  1  0.11536600  0.41102500  0.88373700  1
  O  O41  1  0.88463400  0.41102500  0.11626300  1
  O  O42  1  0.61868800  0.09096200  0.38463000  1
  O  O43  1  0.38131200  0.09096200  0.61537000  1
  O  O44  1  0.63221700  0.23526200  0.88450000  1
  O  O45  1  0.36778300  0.23526200  0.11550000  1
  O  O46  1  0.62950150  0.41038850  0.37915100  1
  O  O47  1  0.37049850  0.41038850  0.62084900  1
