# generated using pymatgen
data_Na3CoBPO7
_symmetry_space_group_name_H-M   'P 1'
_cell_length_a   5.15503925
_cell_length_b   6.88369600
_cell_length_c   8.78510652
_cell_angle_alpha   90.00000000
_cell_angle_beta   92.06201200
_cell_angle_gamma   90.00000000
_symmetry_Int_Tables_number   1
_chemical_formula_structural   Na3CoBPO7
_chemical_formula_sum   'Na6 Co2 B2 P2 O14'
_cell_volume   311.54399219
_cell_formula_units_Z   2
loop_
 _symmetry_equiv_pos_site_id
 _symmetry_equiv_pos_as_xyz
  1  'x, y, z'
loop_
 _atom_site_type_symbol
 _atom_site_label
 _atom_site_symmetry_multiplicity
 _atom_site_fract_x
 _atom_site_fract_y
 _atom_site_fract_z
 _atom_site_occupancy
  Na  Na0  1  0.73018225  0.75000000  0.08069450  1
  Na  Na1  1  0.26981775  0.25000000  0.91930550  1
  Na  Na2  1  0.24492675  0.99036650  0.26771350  1
  Na  Na3  1  0.24492675  0.50963350  0.26771350  1
  Na  Na4  1  0.75507325  0.49036650  0.73228650  1
  Na  Na5  1  0.75507325  0.00963350  0.73228650  1
  Co  Co6  1  0.71898825  0.25000000  0.33792550  1
  Co  Co7  1  0.28101175  0.75000000  0.66207450  1
  B  B8  1  0.77425225  0.25000000  0.06972150  1
  B  B9  1  0.22574775  0.75000000  0.93027850  1
  P  P10  1  0.77784825  0.75000000  0.41938250  1
  P  P11  1  0.22215175  0.25000000  0.58061750  1
  O  O12  1  0.19634475  0.75000000  0.08088250  1
  O  O13  1  0.80365525  0.25000000  0.91911750  1
  O  O14  1  0.53685925  0.25000000  0.14256850  1
  O  O15  1  0.46314075  0.75000000  0.85743150  1
  O  O16  1  0.97360175  0.25000000  0.18257450  1
  O  O17  1  0.02639825  0.75000000  0.81742550  1
  O  O18  1  0.07576975  0.75000000  0.46652650  1
  O  O19  1  0.92423025  0.25000000  0.53347350  1
  O  O20  1  0.37800025  0.25000000  0.43305050  1
  O  O21  1  0.62199975  0.75000000  0.56694950  1
  O  O22  1  0.71693725  0.93084500  0.31916950  1
  O  O23  1  0.71693725  0.56915500  0.31916950  1
  O  O24  1  0.28306275  0.43084500  0.68083050  1
  O  O25  1  0.28306275  0.06915500  0.68083050  1
