# generated using pymatgen
data_LiVF4
_symmetry_space_group_name_H-M   'P 1'
_cell_length_a   7.05323800
_cell_length_b   7.51675000
_cell_length_c   6.21127800
_cell_angle_alpha   90.00000000
_cell_angle_beta   90.00000000
_cell_angle_gamma   90.00000000
_symmetry_Int_Tables_number   1
_chemical_formula_structural   LiVF4
_chemical_formula_sum   'Li4 V4 F16'
_cell_volume   329.30597631
_cell_formula_units_Z   4
loop_
 _symmetry_equiv_pos_site_id
 _symmetry_equiv_pos_as_xyz
  1  'x, y, z'
loop_
 _atom_site_type_symbol
 _atom_site_label
 _atom_site_symmetry_multiplicity
 _atom_site_fract_x
 _atom_site_fract_y
 _atom_site_fract_z
 _atom_site_occupancy
  Li  Li0  1  0.50000000  0.12532700  0.25000000  1
  Li  Li1  1  0.50000000  0.87467300  0.75000000  1
  Li  Li2  1  0.00000000  0.62532700  0.25000000  1
  Li  Li3  1  0.00000000  0.37467300  0.75000000  1
  V  V4  1  0.50000000  0.51905100  0.25000000  1
  V  V5  1  0.50000000  0.48094900  0.75000000  1
  V  V6  1  0.00000000  0.01905100  0.25000000  1
  V  V7  1  0.00000000  0.98094900  0.75000000  1
  F  F8  1  0.26869250  0.01524050  0.25000000  1
  F  F9  1  0.26869250  0.98475950  0.75000000  1
  F  F10  1  0.50000000  0.67498500  0.52044200  1
  F  F11  1  0.50000000  0.67498500  0.97955800  1
  F  F12  1  0.50000000  0.32501500  0.47955800  1
  F  F13  1  0.50000000  0.32501500  0.02044200  1
  F  F14  1  0.73130750  0.01524050  0.25000000  1
  F  F15  1  0.73130750  0.98475950  0.75000000  1
  F  F16  1  0.76869250  0.51524050  0.25000000  1
  F  F17  1  0.76869250  0.48475950  0.75000000  1
  F  F18  1  0.00000000  0.17498500  0.52044200  1
  F  F19  1  0.00000000  0.17498500  0.97955800  1
  F  F20  1  0.00000000  0.82501500  0.47955800  1
  F  F21  1  0.00000000  0.82501500  0.02044200  1
  F  F22  1  0.23130750  0.51524050  0.25000000  1
  F  F23  1  0.23130750  0.48475950  0.75000000  1
