# generated using pymatgen
data_Li(FeO2)2
_symmetry_space_group_name_H-M   'P 1'
_cell_length_a   10.26532400
_cell_length_b   5.95142000
_cell_length_c   5.08872199
_cell_angle_alpha   90.00000000
_cell_angle_beta   91.28913719
_cell_angle_gamma   90.00000000
_symmetry_Int_Tables_number   1
_chemical_formula_structural   Li(FeO2)2
_chemical_formula_sum   'Li4 Fe8 O16'
_cell_volume   310.80790042
_cell_formula_units_Z   4
loop_
 _symmetry_equiv_pos_site_id
 _symmetry_equiv_pos_as_xyz
  1  'x, y, z'
loop_
 _atom_site_type_symbol
 _atom_site_label
 _atom_site_symmetry_multiplicity
 _atom_site_fract_x
 _atom_site_fract_y
 _atom_site_fract_z
 _atom_site_occupancy
  Li  Li0  1  0.50000000  0.66901700  0.25000000  1
  Li  Li1  1  0.50000000  0.33098300  0.75000000  1
  Li  Li2  1  0.00000000  0.16901700  0.25000000  1
  Li  Li3  1  0.00000000  0.83098300  0.75000000  1
  Fe  Fe4  1  0.73184650  0.12989450  0.24606700  1
  Fe  Fe5  1  0.26815350  0.12989450  0.25393300  1
  Fe  Fe6  1  0.73184650  0.87010550  0.74606700  1
  Fe  Fe7  1  0.26815350  0.87010550  0.75393300  1
  Fe  Fe8  1  0.23184650  0.62989450  0.24606700  1
  Fe  Fe9  1  0.76815350  0.62989450  0.25393300  1
  Fe  Fe10  1  0.23184650  0.37010550  0.74606700  1
  Fe  Fe11  1  0.76815350  0.37010550  0.75393300  1
  O  O12  1  0.84713350  0.11673650  0.93497800  1
  O  O13  1  0.35452950  0.14065650  0.90630900  1
  O  O14  1  0.15286650  0.88326350  0.06502200  1
  O  O15  1  0.64547050  0.85934350  0.09369100  1
  O  O16  1  0.84713350  0.88326350  0.43497800  1
  O  O17  1  0.35452950  0.85934350  0.40630900  1
  O  O18  1  0.64547050  0.14065650  0.59369100  1
  O  O19  1  0.15286650  0.11673650  0.56502200  1
  O  O20  1  0.34713350  0.61673650  0.93497800  1
  O  O21  1  0.85452950  0.64065650  0.90630900  1
  O  O22  1  0.65286650  0.38326350  0.06502200  1
  O  O23  1  0.14547050  0.35934350  0.09369100  1
  O  O24  1  0.34713350  0.38326350  0.43497800  1
  O  O25  1  0.85452950  0.35934350  0.40630900  1
  O  O26  1  0.14547050  0.64065650  0.59369100  1
  O  O27  1  0.65286650  0.61673650  0.56502200  1
