# generated using pymatgen
data_Na3CrAsCO7
_symmetry_space_group_name_H-M   'P 1'
_cell_length_a   5.35308104
_cell_length_b   6.86716100
_cell_length_c   9.32350495
_cell_angle_alpha   90.00000000
_cell_angle_beta   91.90748697
_cell_angle_gamma   90.00000000
_symmetry_Int_Tables_number   1
_chemical_formula_structural   Na3CrAsCO7
_chemical_formula_sum   'Na6 Cr2 As2 C2 O14'
_cell_volume   342.54649922
_cell_formula_units_Z   2
loop_
 _symmetry_equiv_pos_site_id
 _symmetry_equiv_pos_as_xyz
  1  'x, y, z'
loop_
 _atom_site_type_symbol
 _atom_site_label
 _atom_site_symmetry_multiplicity
 _atom_site_fract_x
 _atom_site_fract_y
 _atom_site_fract_z
 _atom_site_occupancy
  Na  Na0  1  0.70701750  0.75000000  0.08445650  1
  Na  Na1  1  0.24890450  0.99771500  0.25642350  1
  Na  Na2  1  0.24890450  0.50228500  0.25642350  1
  Na  Na3  1  0.75109550  0.49771500  0.74357650  1
  Na  Na4  1  0.75109550  0.00228500  0.74357650  1
  Na  Na5  1  0.29298250  0.25000000  0.91554350  1
  Cr  Cr6  1  0.72840150  0.25000000  0.34705550  1
  Cr  Cr7  1  0.27159850  0.75000000  0.65294450  1
  As  As8  1  0.81272950  0.75000000  0.41940750  1
  As  As9  1  0.18727050  0.25000000  0.58059250  1
  C  C10  1  0.78993050  0.25000000  0.04926550  1
  C  C11  1  0.21006950  0.75000000  0.95073450  1
  O  O12  1  0.24698450  0.75000000  0.08913250  1
  O  O13  1  0.59388850  0.25000000  0.13088450  1
  O  O14  1  0.01281050  0.25000000  0.10693550  1
  O  O15  1  0.72916050  0.94661300  0.31198150  1
  O  O16  1  0.72916050  0.55338700  0.31198150  1
  O  O17  1  0.13684250  0.75000000  0.44036850  1
  O  O18  1  0.31340750  0.25000000  0.41535650  1
  O  O19  1  0.68659250  0.75000000  0.58464350  1
  O  O20  1  0.86315750  0.25000000  0.55963150  1
  O  O21  1  0.27083950  0.44661300  0.68801850  1
  O  O22  1  0.27083950  0.05338700  0.68801850  1
  O  O23  1  0.98718950  0.75000000  0.89306450  1
  O  O24  1  0.40611150  0.75000000  0.86911550  1
  O  O25  1  0.75301550  0.25000000  0.91086750  1
