# generated using pymatgen
data_Fe2Co3O10
_symmetry_space_group_name_H-M   'P 1'
_cell_length_a   5.02593881
_cell_length_b   2.90499211
_cell_length_c   23.55269343
_cell_angle_alpha   90.00000000
_cell_angle_beta   93.47312185
_cell_angle_gamma   90.00000000
_symmetry_Int_Tables_number   1
_chemical_formula_structural   Fe2Co3O10
_chemical_formula_sum   'Fe4 Co6 O20'
_cell_volume   343.24509799
_cell_formula_units_Z   2
loop_
 _symmetry_equiv_pos_site_id
 _symmetry_equiv_pos_as_xyz
  1  'x, y, z'
loop_
 _atom_site_type_symbol
 _atom_site_label
 _atom_site_symmetry_multiplicity
 _atom_site_fract_x
 _atom_site_fract_y
 _atom_site_fract_z
 _atom_site_occupancy
  Fe  Fe0  1  0.49593600  0.00000000  0.49828600  1
  Fe  Fe1  1  0.89539300  0.00000000  0.69850800  1
  Fe  Fe2  1  0.10297800  0.50000000  0.80025300  1
  Fe  Fe3  1  0.30632800  0.00000000  0.90297100  1
  Co  Co4  1  0.70354700  0.00000000  0.10161100  1
  Co  Co5  1  0.90031500  0.50000000  0.20013600  1
  Co  Co6  1  0.09748100  0.00000000  0.29881300  1
  Co  Co7  1  0.29510300  0.50000000  0.39753400  1
  Co  Co8  1  0.69832700  0.50000000  0.59845900  1
  Co  Co9  1  0.50404500  0.50000000  0.00388000  1
  O  O10  1  0.40061000  0.00000000  0.04981500  1
  O  O11  1  0.80661600  0.50000000  0.05501200  1
  O  O12  1  0.00430900  0.00000000  0.15366500  1
  O  O13  1  0.59954700  0.50000000  0.14777900  1
  O  O14  1  0.79568000  0.00000000  0.24634600  1
  O  O15  1  0.20060900  0.50000000  0.25206200  1
  O  O16  1  0.39699600  0.00000000  0.35139600  1
  O  O17  1  0.18493100  0.00000000  0.44325100  1
  O  O18  1  0.99678700  0.50000000  0.34516500  1
  O  O19  1  0.59934600  0.50000000  0.44767300  1
  O  O20  1  0.39566400  0.50000000  0.54906400  1
  O  O21  1  0.80797600  0.00000000  0.55332200  1
  O  O22  1  0.58949400  0.00000000  0.64390600  1
  O  O23  1  0.00017500  0.50000000  0.64742000  1
  O  O24  1  0.20856500  0.00000000  0.74895900  1
  O  O25  1  0.77582200  0.50000000  0.74495000  1
  O  O26  1  0.99785800  0.00000000  0.85236100  1
  O  O27  1  0.42984400  0.50000000  0.85668300  1
  O  O28  1  0.19789300  0.50000000  0.95304400  1
  O  O29  1  0.61182700  0.00000000  0.95767500  1
