# generated using pymatgen
data_Li4Mn3Fe2Cu3O16
_symmetry_space_group_name_H-M   'P 1'
_cell_length_a   10.13184207
_cell_length_b   5.78893438
_cell_length_c   9.47805156
_cell_angle_alpha   90.00000000
_cell_angle_beta   91.21747190
_cell_angle_gamma   90.00000000
_symmetry_Int_Tables_number   1
_chemical_formula_structural   Li4Mn3Fe2Cu3O16
_chemical_formula_sum   'Li8 Mn6 Fe4 Cu6 O32'
_cell_volume   555.78657514
_cell_formula_units_Z   2
loop_
 _symmetry_equiv_pos_site_id
 _symmetry_equiv_pos_as_xyz
  1  'x, y, z'
loop_
 _atom_site_type_symbol
 _atom_site_label
 _atom_site_symmetry_multiplicity
 _atom_site_fract_x
 _atom_site_fract_y
 _atom_site_fract_z
 _atom_site_occupancy
  Li  Li0  1  0.16589000  0.50000000  0.10498300  1
  Li  Li1  1  0.49572800  0.50000000  0.00212000  1
  Li  Li2  1  0.00695550  0.00000000  0.50707000  1
  Li  Li3  1  0.33729750  0.00000000  0.60437700  1
  Li  Li4  1  0.66589000  0.00000000  0.10498300  1
  Li  Li5  1  0.99572800  0.00000000  0.00212000  1
  Li  Li6  1  0.50695550  0.50000000  0.50707000  1
  Li  Li7  1  0.83729750  0.50000000  0.60437700  1
  Mn  Mn8  1  0.32687800  0.50000000  0.78458800  1
  Mn  Mn9  1  0.41738700  0.24594700  0.28506300  1
  Mn  Mn10  1  0.41738700  0.75405300  0.28506300  1
  Mn  Mn11  1  0.82687800  0.00000000  0.78458800  1
  Mn  Mn12  1  0.91738700  0.74594700  0.28506300  1
  Mn  Mn13  1  0.91738700  0.25405300  0.28506300  1
  Fe  Fe14  1  0.16838000  0.50000000  0.50830500  1
  Fe  Fe15  1  0.32738800  0.00000000  0.00790600  1
  Fe  Fe16  1  0.66838000  0.00000000  0.50830500  1
  Fe  Fe17  1  0.82738800  0.50000000  0.00790600  1
  Cu  Cu18  1  0.08318600  0.74437500  0.78711300  1
  Cu  Cu19  1  0.08318600  0.25562500  0.78711300  1
  Cu  Cu20  1  0.17086150  0.00000000  0.28662000  1
  Cu  Cu21  1  0.58318600  0.24437500  0.78711300  1
  Cu  Cu22  1  0.58318600  0.75562500  0.78711300  1
  Cu  Cu23  1  0.67086150  0.50000000  0.28662000  1
  O  O24  1  0.07969650  0.75219050  0.40114800  1
  O  O25  1  0.02119800  0.50000000  0.66242700  1
  O  O26  1  0.16975450  0.50000000  0.89060700  1
  O  O27  1  0.49446800  0.50000000  0.69491500  1
  O  O28  1  0.49719550  0.50000000  0.19036800  1
  O  O29  1  0.07969650  0.24780950  0.40114800  1
  O  O30  1  0.24746300  0.71999900  0.65886500  1
  O  O31  1  0.24746300  0.28000100  0.65886500  1
  O  O32  1  0.15697400  0.00000000  0.90163200  1
  O  O33  1  0.34252000  0.50000000  0.39642700  1
  O  O34  1  0.26458650  0.22672150  0.16204600  1
  O  O35  1  0.26458650  0.77327850  0.16204600  1
  O  O36  1  0.34226200  0.00000000  0.39140800  1
  O  O37  1  0.40775250  0.25835550  0.90149500  1
  O  O38  1  0.48337750  0.00000000  0.16692800  1
  O  O39  1  0.40775250  0.74164450  0.90149500  1
  O  O40  1  0.57969650  0.25219050  0.40114800  1
  O  O41  1  0.52119800  0.00000000  0.66242700  1
  O  O42  1  0.66975450  0.00000000  0.89060700  1
  O  O43  1  0.99446800  0.00000000  0.69491500  1
  O  O44  1  0.99719550  0.00000000  0.19036800  1
  O  O45  1  0.57969650  0.74780950  0.40114800  1
  O  O46  1  0.74746300  0.21999900  0.65886500  1
  O  O47  1  0.74746300  0.78000100  0.65886500  1
  O  O48  1  0.65697400  0.50000000  0.90163200  1
  O  O49  1  0.84252000  0.00000000  0.39642700  1
  O  O50  1  0.76458650  0.72672150  0.16204600  1
  O  O51  1  0.76458650  0.27327850  0.16204600  1
  O  O52  1  0.84226200  0.50000000  0.39140800  1
  O  O53  1  0.90775250  0.75835550  0.90149500  1
  O  O54  1  0.98337750  0.50000000  0.16692800  1
  O  O55  1  0.90775250  0.24164450  0.90149500  1
