# generated using pymatgen
data_LiMn2(BO3)2
_symmetry_space_group_name_H-M   'P 1'
_cell_length_a   5.19102107
_cell_length_b   5.27495590
_cell_length_c   5.82395796
_cell_angle_alpha   66.54221097
_cell_angle_beta   68.42167727
_cell_angle_gamma   60.60744663
_symmetry_Int_Tables_number   1
_chemical_formula_structural   LiMn2(BO3)2
_chemical_formula_sum   'Li1 Mn2 B2 O6'
_cell_volume   124.46221631
_cell_formula_units_Z   1
loop_
 _symmetry_equiv_pos_site_id
 _symmetry_equiv_pos_as_xyz
  1  'x, y, z'
loop_
 _atom_site_type_symbol
 _atom_site_label
 _atom_site_symmetry_multiplicity
 _atom_site_fract_x
 _atom_site_fract_y
 _atom_site_fract_z
 _atom_site_occupancy
  Li  Li0  1  0.95161800  0.60305200  0.65740600  1
  Mn  Mn1  1  0.39566700  0.77773050  0.24401600  1
  Mn  Mn2  1  0.61748900  0.22894950  0.74498450  1
  B  B3  1  0.72467800  0.09254250  0.25882800  1
  B  B4  1  0.27137700  0.91031650  0.74567900  1
  O  O5  1  0.64628200  0.31233650  0.37887250  1
  O  O6  1  0.52295900  0.15741500  0.11352550  1
  O  O7  1  0.96212100  0.82393150  0.29718650  1
  O  O8  1  0.02754300  0.18479850  0.72627900  1
  O  O9  1  0.52088300  0.86649400  0.82345500  1
  O  O10  1  0.29064700  0.67643800  0.67828500  1
