# generated using pymatgen
data_LiNiPO4
_symmetry_space_group_name_H-M   'P 1'
_cell_length_a   4.68547500
_cell_length_b   6.15411200
_cell_length_c   10.30198100
_cell_angle_alpha   90.00000000
_cell_angle_beta   90.00000000
_cell_angle_gamma   90.00000000
_symmetry_Int_Tables_number   1
_chemical_formula_structural   LiNiPO4
_chemical_formula_sum   'Li4 Ni4 P4 O16'
_cell_volume   297.05698263
_cell_formula_units_Z   4
loop_
 _symmetry_equiv_pos_site_id
 _symmetry_equiv_pos_as_xyz
  1  'x, y, z'
loop_
 _atom_site_type_symbol
 _atom_site_label
 _atom_site_symmetry_multiplicity
 _atom_site_fract_x
 _atom_site_fract_y
 _atom_site_fract_z
 _atom_site_occupancy
  Li  Li0  1  0.98383300  0.25000000  0.71542750  1
  Li  Li1  1  0.48383300  0.75000000  0.78457250  1
  Li  Li2  1  0.51616700  0.25000000  0.21542750  1
  Li  Li3  1  0.01616700  0.75000000  0.28457250  1
  Ni  Ni4  1  0.50000000  0.00000000  0.50000000  1
  Ni  Ni5  1  0.00000000  0.00000000  0.00000000  1
  Ni  Ni6  1  0.50000000  0.50000000  0.50000000  1
  Ni  Ni7  1  0.00000000  0.50000000  0.00000000  1
  P  P8  1  0.91349000  0.75000000  0.59250150  1
  P  P9  1  0.41349000  0.25000000  0.90749850  1
  P  P10  1  0.58651000  0.75000000  0.09250150  1
  P  P11  1  0.08651000  0.25000000  0.40749850  1
  O  O12  1  0.22674900  0.25000000  0.54918450  1
  O  O13  1  0.72674900  0.75000000  0.95081550  1
  O  O14  1  0.27325100  0.25000000  0.04918450  1
  O  O15  1  0.77325100  0.75000000  0.45081550  1
  O  O16  1  0.24465600  0.75000000  0.58587750  1
  O  O17  1  0.74465600  0.25000000  0.91412250  1
  O  O18  1  0.25534400  0.75000000  0.08587750  1
  O  O19  1  0.75534400  0.25000000  0.41412250  1
  O  O20  1  0.78929700  0.54259700  0.65654050  1
  O  O21  1  0.78929700  0.95740300  0.65654050  1
  O  O22  1  0.28929700  0.04259700  0.84345950  1
  O  O23  1  0.28929700  0.45740300  0.84345950  1
  O  O24  1  0.71070300  0.54259700  0.15654050  1
  O  O25  1  0.71070300  0.95740300  0.15654050  1
  O  O26  1  0.21070300  0.04259700  0.34345950  1
  O  O27  1  0.21070300  0.45740300  0.34345950  1
