# generated using pymatgen
data_Li3Fe3CoO8
_symmetry_space_group_name_H-M   'P 1'
_cell_length_a   5.91350558
_cell_length_b   5.91350558
_cell_length_c   14.59916639
_cell_angle_alpha   90.00000000
_cell_angle_beta   90.00000000
_cell_angle_gamma   120.00000000
_symmetry_Int_Tables_number   1
_chemical_formula_structural   Li3Fe3CoO8
_chemical_formula_sum   'Li9 Fe9 Co3 O24'
_cell_volume   442.12870505
_cell_formula_units_Z   3
loop_
 _symmetry_equiv_pos_site_id
 _symmetry_equiv_pos_as_xyz
  1  'x, y, z'
loop_
 _atom_site_type_symbol
 _atom_site_label
 _atom_site_symmetry_multiplicity
 _atom_site_fract_x
 _atom_site_fract_y
 _atom_site_fract_z
 _atom_site_occupancy
  Li  Li0  1  0.83333333  0.66666667  0.16666667  1
  Li  Li1  1  0.33333333  0.16666667  0.16666667  1
  Li  Li2  1  0.83333333  0.16666667  0.16666667  1
  Li  Li3  1  0.50000000  0.00000000  0.50000000  1
  Li  Li4  1  0.00000000  0.50000000  0.50000000  1
  Li  Li5  1  0.50000000  0.50000000  0.50000000  1
  Li  Li6  1  0.16666667  0.33333333  0.83333333  1
  Li  Li7  1  0.66666667  0.83333333  0.83333333  1
  Li  Li8  1  0.16666667  0.83333333  0.83333333  1
  Fe  Fe9  1  0.50000000  0.50000000  0.00000000  1
  Fe  Fe10  1  0.50000000  0.00000000  0.00000000  1
  Fe  Fe11  1  0.00000000  0.50000000  0.00000000  1
  Fe  Fe12  1  0.16666667  0.83333333  0.33333333  1
  Fe  Fe13  1  0.16666667  0.33333333  0.33333333  1
  Fe  Fe14  1  0.66666667  0.83333333  0.33333333  1
  Fe  Fe15  1  0.83333333  0.16666667  0.66666667  1
  Fe  Fe16  1  0.83333333  0.66666667  0.66666667  1
  Fe  Fe17  1  0.33333333  0.16666667  0.66666667  1
  Co  Co18  1  0.00000000  0.00000000  0.00000000  1
  Co  Co19  1  0.66666667  0.33333333  0.33333333  1
  Co  Co20  1  0.33333333  0.66666667  0.66666667  1
  O  O21  1  0.97808733  0.48904367  0.26151167  1
  O  O22  1  0.51095633  0.02191267  0.26151167  1
  O  O23  1  0.51095633  0.48904367  0.26151167  1
  O  O24  1  0.00000000  0.00000000  0.25721900  1
  O  O25  1  0.66666667  0.33333333  0.07611433  1
  O  O26  1  0.15571033  0.84428967  0.07182167  1
  O  O27  1  0.15571033  0.31142067  0.07182167  1
  O  O28  1  0.68857933  0.84428967  0.07182167  1
  O  O29  1  0.64475400  0.82237700  0.59484500  1
  O  O30  1  0.17762300  0.35524600  0.59484500  1
  O  O31  1  0.17762300  0.82237700  0.59484500  1
  O  O32  1  0.66666667  0.33333333  0.59055233  1
  O  O33  1  0.33333333  0.66666667  0.40944767  1
  O  O34  1  0.82237700  0.17762300  0.40515500  1
  O  O35  1  0.82237700  0.64475400  0.40515500  1
  O  O36  1  0.35524600  0.17762300  0.40515500  1
  O  O37  1  0.31142067  0.15571033  0.92817833  1
  O  O38  1  0.84428967  0.68857933  0.92817833  1
  O  O39  1  0.84428967  0.15571033  0.92817833  1
  O  O40  1  0.33333333  0.66666667  0.92388567  1
  O  O41  1  0.00000000  0.00000000  0.74278100  1
  O  O42  1  0.48904367  0.51095633  0.73848833  1
  O  O43  1  0.48904367  0.97808733  0.73848833  1
  O  O44  1  0.02191267  0.51095633  0.73848833  1
