# generated using pymatgen
data_LiV3O5F3
_symmetry_space_group_name_H-M   'P 1'
_cell_length_a   9.10033800
_cell_length_b   11.08598600
_cell_length_c   5.10848554
_cell_angle_alpha   90.00000000
_cell_angle_beta   91.41033927
_cell_angle_gamma   90.00000000
_symmetry_Int_Tables_number   1
_chemical_formula_structural   LiV3O5F3
_chemical_formula_sum   'Li4 V12 O20 F12'
_cell_volume   515.21966887
_cell_formula_units_Z   4
loop_
 _symmetry_equiv_pos_site_id
 _symmetry_equiv_pos_as_xyz
  1  'x, y, z'
loop_
 _atom_site_type_symbol
 _atom_site_label
 _atom_site_symmetry_multiplicity
 _atom_site_fract_x
 _atom_site_fract_y
 _atom_site_fract_z
 _atom_site_occupancy
  Li  Li0  1  0.50314100  0.66659000  0.74583600  1
  Li  Li1  1  0.50314100  0.33341000  0.24583600  1
  Li  Li2  1  0.00314100  0.16659000  0.74583600  1
  Li  Li3  1  0.00314100  0.83341000  0.24583600  1
  V  V4  1  0.25648900  0.91871000  0.71683400  1
  V  V5  1  0.25648900  0.08129000  0.21683400  1
  V  V6  1  0.48967650  0.17956350  0.72050000  1
  V  V7  1  0.48967650  0.82043650  0.22050000  1
  V  V8  1  0.74549350  0.92156250  0.78968300  1
  V  V9  1  0.74549350  0.07843750  0.28968300  1
  V  V10  1  0.75648900  0.41871000  0.71683400  1
  V  V11  1  0.75648900  0.58129000  0.21683400  1
  V  V12  1  0.98967650  0.67956350  0.72050000  1
  V  V13  1  0.98967650  0.32043650  0.22050000  1
  V  V14  1  0.24549350  0.42156250  0.78968300  1
  V  V15  1  0.24549350  0.57843750  0.28968300  1
  O  O16  1  0.36183850  0.06194850  0.90360600  1
  O  O17  1  0.36183850  0.93805150  0.40360600  1
  O  O18  1  0.37350100  0.31159400  0.88178800  1
  O  O19  1  0.39141000  0.81928100  0.92706800  1
  O  O20  1  0.37350100  0.68840600  0.38178800  1
  O  O21  1  0.39141000  0.18071900  0.42706800  1
  O  O22  1  0.62904400  0.30806600  0.62420200  1
  O  O23  1  0.62904400  0.69193400  0.12420200  1
  O  O24  1  0.63882900  0.05767900  0.60215100  1
  O  O25  1  0.63882900  0.94232100  0.10215100  1
  O  O26  1  0.86183850  0.56194850  0.90360600  1
  O  O27  1  0.86183850  0.43805150  0.40360600  1
  O  O28  1  0.87350100  0.81159400  0.88178800  1
  O  O29  1  0.89141000  0.31928100  0.92706800  1
  O  O30  1  0.87350100  0.18840600  0.38178800  1
  O  O31  1  0.89141000  0.68071900  0.42706800  1
  O  O32  1  0.12904400  0.80806600  0.62420200  1
  O  O33  1  0.12904400  0.19193400  0.12420200  1
  O  O34  1  0.13882900  0.55767900  0.60215100  1
  O  O35  1  0.13882900  0.44232100  0.10215100  1
  F  F36  1  0.13815900  0.05352800  0.56005000  1
  F  F37  1  0.13815900  0.94647200  0.06005000  1
  F  F38  1  0.60974250  0.81314750  0.58606400  1
  F  F39  1  0.60974250  0.18685250  0.08606400  1
  F  F40  1  0.86267600  0.05589300  0.94221900  1
  F  F41  1  0.86267600  0.94410700  0.44221900  1
  F  F42  1  0.63815900  0.55352800  0.56005000  1
  F  F43  1  0.63815900  0.44647200  0.06005000  1
  F  F44  1  0.10974250  0.31314750  0.58606400  1
  F  F45  1  0.10974250  0.68685250  0.08606400  1
  F  F46  1  0.36267600  0.55589300  0.94221900  1
  F  F47  1  0.36267600  0.44410700  0.44221900  1
