# generated using pymatgen
data_Na6CoO4
_symmetry_space_group_name_H-M   'P 1'
_cell_length_a   7.47943775
_cell_length_b   7.47943775
_cell_length_c   5.47547050
_cell_angle_alpha   90.00000000
_cell_angle_beta   90.00000000
_cell_angle_gamma   90.00000000
_symmetry_Int_Tables_number   1
_chemical_formula_structural   Na6CoO4
_chemical_formula_sum   'Na12 Co2 O8'
_cell_volume   306.30871079
_cell_formula_units_Z   2
loop_
 _symmetry_equiv_pos_site_id
 _symmetry_equiv_pos_as_xyz
  1  'x, y, z'
loop_
 _atom_site_type_symbol
 _atom_site_label
 _atom_site_symmetry_multiplicity
 _atom_site_fract_x
 _atom_site_fract_y
 _atom_site_fract_z
 _atom_site_occupancy
  Na  Na0  1  0.00000000  0.50000000  0.91132600  1
  Na  Na1  1  0.00000000  0.50000000  0.41132600  1
  Na  Na2  1  0.50000000  0.00000000  0.58867400  1
  Na  Na3  1  0.50000000  0.00000000  0.08867400  1
  Na  Na4  1  0.28724900  0.28724900  0.00000000  1
  Na  Na5  1  0.71275100  0.28724900  0.00000000  1
  Na  Na6  1  0.28724900  0.71275100  0.00000000  1
  Na  Na7  1  0.71275100  0.71275100  0.00000000  1
  Na  Na8  1  0.78724900  0.78724900  0.50000000  1
  Na  Na9  1  0.21275100  0.78724900  0.50000000  1
  Na  Na10  1  0.78724900  0.21275100  0.50000000  1
  Na  Na11  1  0.21275100  0.21275100  0.50000000  1
  Co  Co12  1  0.50000000  0.50000000  0.50000000  1
  Co  Co13  1  0.00000000  0.00000000  0.00000000  1
  O  O14  1  0.00000000  0.24473950  0.17967500  1
  O  O15  1  0.74473950  0.50000000  0.67967500  1
  O  O16  1  0.25526050  0.50000000  0.67967500  1
  O  O17  1  0.00000000  0.75526050  0.17967500  1
  O  O18  1  0.50000000  0.74473950  0.32032500  1
  O  O19  1  0.75526050  0.00000000  0.82032500  1
  O  O20  1  0.24473950  0.00000000  0.82032500  1
  O  O21  1  0.50000000  0.25526050  0.32032500  1
