# generated using pymatgen
data_Mn3(OF2)2
_symmetry_space_group_name_H-M   'P 1'
_cell_length_a   6.49598000
_cell_length_b   7.16493000
_cell_length_c   9.45642215
_cell_angle_alpha   90.00000000
_cell_angle_beta   90.09182915
_cell_angle_gamma   90.00000000
_symmetry_Int_Tables_number   1
_chemical_formula_structural   Mn3(OF2)2
_chemical_formula_sum   'Mn12 O8 F16'
_cell_volume   440.13197891
_cell_formula_units_Z   4
loop_
 _symmetry_equiv_pos_site_id
 _symmetry_equiv_pos_as_xyz
  1  'x, y, z'
loop_
 _atom_site_type_symbol
 _atom_site_label
 _atom_site_symmetry_multiplicity
 _atom_site_fract_x
 _atom_site_fract_y
 _atom_site_fract_z
 _atom_site_occupancy
  Mn  Mn0  1  0.00000000  0.00000000  0.00000000  1
  Mn  Mn1  1  0.97280500  0.00000000  0.33140700  1
  Mn  Mn2  1  0.02719500  0.00000000  0.66859300  1
  Mn  Mn3  1  0.49675300  0.00000000  0.84194300  1
  Mn  Mn4  1  0.50324700  0.00000000  0.15805700  1
  Mn  Mn5  1  0.50000000  0.00000000  0.50000000  1
  Mn  Mn6  1  0.50000000  0.50000000  0.00000000  1
  Mn  Mn7  1  0.47280500  0.50000000  0.33140700  1
  Mn  Mn8  1  0.52719500  0.50000000  0.66859300  1
  Mn  Mn9  1  0.99675300  0.50000000  0.84194300  1
  Mn  Mn10  1  0.00324700  0.50000000  0.15805700  1
  Mn  Mn11  1  0.00000000  0.50000000  0.50000000  1
  O  O12  1  0.30253300  0.00000000  0.00155200  1
  O  O13  1  0.32238900  0.00000000  0.67128700  1
  O  O14  1  0.69746700  0.00000000  0.99844800  1
  O  O15  1  0.67761100  0.00000000  0.32871300  1
  O  O16  1  0.80253300  0.50000000  0.00155200  1
  O  O17  1  0.82238900  0.50000000  0.67128700  1
  O  O18  1  0.19746700  0.50000000  0.99844800  1
  O  O19  1  0.17761100  0.50000000  0.32871300  1
  F  F20  1  0.49540700  0.30820700  0.16668000  1
  F  F21  1  0.50000000  0.30510100  0.50000000  1
  F  F22  1  0.50459300  0.30820700  0.83332000  1
  F  F23  1  0.28889900  0.00000000  0.32530400  1
  F  F24  1  0.71110100  0.00000000  0.67469600  1
  F  F25  1  0.49540700  0.69179300  0.16668000  1
  F  F26  1  0.50000000  0.69489900  0.50000000  1
  F  F27  1  0.50459300  0.69179300  0.83332000  1
  F  F28  1  0.99540700  0.80820700  0.16668000  1
  F  F29  1  0.00000000  0.80510100  0.50000000  1
  F  F30  1  0.00459300  0.80820700  0.83332000  1
  F  F31  1  0.78889900  0.50000000  0.32530400  1
  F  F32  1  0.21110100  0.50000000  0.67469600  1
  F  F33  1  0.99540700  0.19179300  0.16668000  1
  F  F34  1  0.00000000  0.19489900  0.50000000  1
  F  F35  1  0.00459300  0.19179300  0.83332000  1
