# generated using pymatgen
data_Li11(NiO4)2
_symmetry_space_group_name_H-M   'P 1'
_cell_length_a   9.15463800
_cell_length_b   9.39276400
_cell_length_c   9.37127958
_cell_angle_alpha   90.00000000
_cell_angle_beta   90.03325392
_cell_angle_gamma   90.00000000
_symmetry_Int_Tables_number   1
_chemical_formula_structural   Li11(NiO4)2
_chemical_formula_sum   'Li44 Ni8 O32'
_cell_volume   805.81140106
_cell_formula_units_Z   4
loop_
 _symmetry_equiv_pos_site_id
 _symmetry_equiv_pos_as_xyz
  1  'x, y, z'
loop_
 _atom_site_type_symbol
 _atom_site_label
 _atom_site_symmetry_multiplicity
 _atom_site_fract_x
 _atom_site_fract_y
 _atom_site_fract_z
 _atom_site_occupancy
  Li  Li0  1  0.70364100  0.75361800  0.99877100  1
  Li  Li1  1  0.71219400  0.74616000  0.50384100  1
  Li  Li2  1  0.50000000  0.52666000  0.00000000  1
  Li  Li3  1  0.72698300  0.00378900  0.96956900  1
  Li  Li4  1  0.74910500  0.99712000  0.72234900  1
  Li  Li5  1  0.77184700  0.99806300  0.47486000  1
  Li  Li6  1  0.75038700  0.00054700  0.21892100  1
  Li  Li7  1  0.50000000  0.97967100  0.50000000  1
  Li  Li8  1  0.29635900  0.75361800  0.00122900  1
  Li  Li9  1  0.28780600  0.74616000  0.49615900  1
  Li  Li10  1  0.71749900  0.24783900  0.74940300  1
  Li  Li11  1  0.50214800  0.02507500  0.76520900  1
  Li  Li12  1  0.71949400  0.25007100  0.25082200  1
  Li  Li13  1  0.49785200  0.02507500  0.23479100  1
  Li  Li14  1  0.24961300  0.00054700  0.78107900  1
  Li  Li15  1  0.27301700  0.00378900  0.03043100  1
  Li  Li16  1  0.25089500  0.99712000  0.27765100  1
  Li  Li17  1  0.22815300  0.99806300  0.52514000  1
  Li  Li18  1  0.49850000  0.47376600  0.73089100  1
  Li  Li19  1  0.50150000  0.47376600  0.26910900  1
  Li  Li20  1  0.28050600  0.25007100  0.74917800  1
  Li  Li21  1  0.28250100  0.24783900  0.25059700  1
  Li  Li22  1  0.20364100  0.25361800  0.99877100  1
  Li  Li23  1  0.21219400  0.24616000  0.50384100  1
  Li  Li24  1  0.00000000  0.02666000  0.00000000  1
  Li  Li25  1  0.22698300  0.50378900  0.96956900  1
  Li  Li26  1  0.24910500  0.49712000  0.72234900  1
  Li  Li27  1  0.27184700  0.49806300  0.47486000  1
  Li  Li28  1  0.25038700  0.50054700  0.21892100  1
  Li  Li29  1  0.00000000  0.47967100  0.50000000  1
  Li  Li30  1  0.79635900  0.25361800  0.00122900  1
  Li  Li31  1  0.78780600  0.24616000  0.49615900  1
  Li  Li32  1  0.21749900  0.74783900  0.74940300  1
  Li  Li33  1  0.00214800  0.52507500  0.76520900  1
  Li  Li34  1  0.21949400  0.75007100  0.25082200  1
  Li  Li35  1  0.99785200  0.52507500  0.23479100  1
  Li  Li36  1  0.74961300  0.50054700  0.78107900  1
  Li  Li37  1  0.77301700  0.50378900  0.03043100  1
  Li  Li38  1  0.75089500  0.49712000  0.27765100  1
  Li  Li39  1  0.72815300  0.49806300  0.52514000  1
  Li  Li40  1  0.99850000  0.97376600  0.73089100  1
  Li  Li41  1  0.00150000  0.97376600  0.26910900  1
  Li  Li42  1  0.78050600  0.75007100  0.74917800  1
  Li  Li43  1  0.78250100  0.74783900  0.25059700  1
  Ni  Ni44  1  0.49953850  0.74918050  0.74821000  1
  Ni  Ni45  1  0.50046150  0.74918050  0.25179000  1
  Ni  Ni46  1  0.50000000  0.24678500  0.00000000  1
  Ni  Ni47  1  0.50000000  0.25474900  0.50000000  1
  Ni  Ni48  1  0.99953850  0.24918050  0.74821000  1
  Ni  Ni49  1  0.00046150  0.24918050  0.25179000  1
  Ni  Ni50  1  0.00000000  0.74678500  0.00000000  1
  Ni  Ni51  1  0.00000000  0.75474900  0.50000000  1
  O  O52  1  0.87434850  0.87479750  0.10431600  1
  O  O53  1  0.86162000  0.86899800  0.60762300  1
  O  O54  1  0.63485250  0.88185750  0.35138900  1
  O  O55  1  0.86724350  0.11722850  0.85454900  1
  O  O56  1  0.86467850  0.12045050  0.34194900  1
  O  O57  1  0.63287200  0.87757100  0.84508400  1
  O  O58  1  0.63376600  0.11909700  0.60385000  1
  O  O59  1  0.63060200  0.13442600  0.10537900  1
  O  O60  1  0.36514750  0.88185750  0.64861100  1
  O  O61  1  0.36712800  0.87757100  0.15491600  1
  O  O62  1  0.13838000  0.86899800  0.39237700  1
  O  O63  1  0.12565150  0.87479750  0.89568400  1
  O  O64  1  0.36939800  0.13442600  0.89462100  1
  O  O65  1  0.36623400  0.11909700  0.39615000  1
  O  O66  1  0.13532150  0.12045050  0.65805100  1
  O  O67  1  0.13275650  0.11722850  0.14545100  1
  O  O68  1  0.37434850  0.37479750  0.10431600  1
  O  O69  1  0.36162000  0.36899800  0.60762300  1
  O  O70  1  0.13485250  0.38185750  0.35138900  1
  O  O71  1  0.36724350  0.61722850  0.85454900  1
  O  O72  1  0.36467850  0.62045050  0.34194900  1
  O  O73  1  0.13287200  0.37757100  0.84508400  1
  O  O74  1  0.13376600  0.61909700  0.60385000  1
  O  O75  1  0.13060200  0.63442600  0.10537900  1
  O  O76  1  0.86514750  0.38185750  0.64861100  1
  O  O77  1  0.86712800  0.37757100  0.15491600  1
  O  O78  1  0.63838000  0.36899800  0.39237700  1
  O  O79  1  0.62565150  0.37479750  0.89568400  1
  O  O80  1  0.86939800  0.63442600  0.89462100  1
  O  O81  1  0.86623400  0.61909700  0.39615000  1
  O  O82  1  0.63532150  0.62045050  0.65805100  1
  O  O83  1  0.63275650  0.61722850  0.14545100  1
