# generated using pymatgen
data_Ti2Cu3Te3O16
_symmetry_space_group_name_H-M   'P 1'
_cell_length_a   11.06716200
_cell_length_b   5.96256200
_cell_length_c   9.27844019
_cell_angle_alpha   90.00000000
_cell_angle_beta   93.57090081
_cell_angle_gamma   90.00000000
_symmetry_Int_Tables_number   1
_chemical_formula_structural   Ti2Cu3Te3O16
_chemical_formula_sum   'Ti4 Cu6 Te6 O32'
_cell_volume   611.08291376
_cell_formula_units_Z   2
loop_
 _symmetry_equiv_pos_site_id
 _symmetry_equiv_pos_as_xyz
  1  'x, y, z'
loop_
 _atom_site_type_symbol
 _atom_site_label
 _atom_site_symmetry_multiplicity
 _atom_site_fract_x
 _atom_site_fract_y
 _atom_site_fract_z
 _atom_site_occupancy
  Ti  Ti0  1  0.64472900  0.00000000  0.53584200  1
  Ti  Ti1  1  0.81239500  0.50000000  0.99017400  1
  Ti  Ti2  1  0.14472900  0.50000000  0.53584200  1
  Ti  Ti3  1  0.31239500  0.00000000  0.99017400  1
  Cu  Cu4  1  0.57972250  0.75095850  0.80176600  1
  Cu  Cu5  1  0.57972250  0.24904150  0.80176600  1
  Cu  Cu6  1  0.67715900  0.50000000  0.28710700  1
  Cu  Cu7  1  0.07972250  0.25095850  0.80176600  1
  Cu  Cu8  1  0.07972250  0.74904150  0.80176600  1
  Cu  Cu9  1  0.17715900  0.00000000  0.28710700  1
  Te  Te10  1  0.82728600  0.00000000  0.78155600  1
  Te  Te11  1  0.92575150  0.25131050  0.28616700  1
  Te  Te12  1  0.92575150  0.74868950  0.28616700  1
  Te  Te13  1  0.32728600  0.50000000  0.78155600  1
  Te  Te14  1  0.42575150  0.75131050  0.28616700  1
  Te  Te15  1  0.42575150  0.24868950  0.28616700  1
  O  O16  1  0.58416500  0.74780900  0.38787400  1
  O  O17  1  0.52953600  0.00000000  0.66250800  1
  O  O18  1  0.67746400  0.00000000  0.88796600  1
  O  O19  1  0.98736600  0.00000000  0.70639100  1
  O  O20  1  0.98366200  0.00000000  0.16690000  1
  O  O21  1  0.58416500  0.25219100  0.38787400  1
  O  O22  1  0.75310350  0.79216150  0.63734700  1
  O  O23  1  0.75310350  0.20783850  0.63734700  1
  O  O24  1  0.66255700  0.50000000  0.91090700  1
  O  O25  1  0.85881900  0.00000000  0.39787700  1
  O  O26  1  0.77335450  0.28382450  0.17411200  1
  O  O27  1  0.77335450  0.71617550  0.17411200  1
  O  O28  1  0.87492300  0.50000000  0.41172100  1
  O  O29  1  0.88738400  0.25371300  0.90533400  1
  O  O30  1  0.98201500  0.50000000  0.15884200  1
  O  O31  1  0.88738400  0.74628700  0.90533400  1
  O  O32  1  0.08416500  0.24780900  0.38787400  1
  O  O33  1  0.02953600  0.50000000  0.66250800  1
  O  O34  1  0.17746400  0.50000000  0.88796600  1
  O  O35  1  0.48736600  0.50000000  0.70639100  1
  O  O36  1  0.48366200  0.50000000  0.16690000  1
  O  O37  1  0.08416500  0.75219100  0.38787400  1
  O  O38  1  0.25310350  0.29216150  0.63734700  1
  O  O39  1  0.25310350  0.70783850  0.63734700  1
  O  O40  1  0.16255700  0.00000000  0.91090700  1
  O  O41  1  0.35881900  0.50000000  0.39787700  1
  O  O42  1  0.27335450  0.78382450  0.17411200  1
  O  O43  1  0.27335450  0.21617550  0.17411200  1
  O  O44  1  0.37492300  0.00000000  0.41172100  1
  O  O45  1  0.38738400  0.75371300  0.90533400  1
  O  O46  1  0.48201500  0.00000000  0.15884200  1
  O  O47  1  0.38738400  0.24628700  0.90533400  1
