# generated using pymatgen
data_Ti5Ni(PO4)6
_symmetry_space_group_name_H-M   'P 1'
_cell_length_a   8.71705949
_cell_length_b   8.71705949
_cell_length_c   20.18820890
_cell_angle_alpha   90.00000000
_cell_angle_beta   90.00000000
_cell_angle_gamma   120.00000000
_symmetry_Int_Tables_number   1
_chemical_formula_structural   Ti5Ni(PO4)6
_chemical_formula_sum   'Ti15 Ni3 P18 O72'
_cell_volume   1328.52105496
_cell_formula_units_Z   3
loop_
 _symmetry_equiv_pos_site_id
 _symmetry_equiv_pos_as_xyz
  1  'x, y, z'
loop_
 _atom_site_type_symbol
 _atom_site_label
 _atom_site_symmetry_multiplicity
 _atom_site_fract_x
 _atom_site_fract_y
 _atom_site_fract_z
 _atom_site_occupancy
  Ti  Ti0  1  0.33333333  0.66666667  0.66687167  1
  Ti  Ti1  1  0.33333333  0.66666667  0.16590267  1
  Ti  Ti2  1  0.33333333  0.66666667  0.80735867  1
  Ti  Ti3  1  0.33333333  0.66666667  0.02496467  1
  Ti  Ti4  1  0.33333333  0.66666667  0.30755967  1
  Ti  Ti5  1  0.00000000  0.00000000  0.00020500  1
  Ti  Ti6  1  0.00000000  0.00000000  0.49923600  1
  Ti  Ti7  1  0.00000000  0.00000000  0.14069200  1
  Ti  Ti8  1  0.00000000  0.00000000  0.35829800  1
  Ti  Ti9  1  0.00000000  0.00000000  0.64089300  1
  Ti  Ti10  1  0.66666667  0.33333333  0.33353833  1
  Ti  Ti11  1  0.66666667  0.33333333  0.83256933  1
  Ti  Ti12  1  0.66666667  0.33333333  0.47402533  1
  Ti  Ti13  1  0.66666667  0.33333333  0.69163133  1
  Ti  Ti14  1  0.66666667  0.33333333  0.97422633  1
  Ni  Ni15  1  0.33333333  0.66666667  0.52387267  1
  Ni  Ni16  1  0.00000000  0.00000000  0.85720600  1
  Ni  Ni17  1  0.66666667  0.33333333  0.19053933  1
  P  P18  1  0.37469000  0.04100400  0.08445000  1
  P  P19  1  0.66631400  0.62531000  0.08445000  1
  P  P20  1  0.70700767  0.00280733  0.24968433  1
  P  P21  1  0.99719267  0.70420033  0.24968433  1
  P  P22  1  0.29579967  0.29299233  0.24968433  1
  P  P23  1  0.95899600  0.33368600  0.08445000  1
  P  P24  1  0.04135667  0.37433733  0.41778333  1
  P  P25  1  0.33298067  0.95864333  0.41778333  1
  P  P26  1  0.37367433  0.33614067  0.58301767  1
  P  P27  1  0.66385933  0.03753367  0.58301767  1
  P  P28  1  0.96246633  0.62632567  0.58301767  1
  P  P29  1  0.62566267  0.66701933  0.41778333  1
  P  P30  1  0.70802333  0.70767067  0.75111667  1
  P  P31  1  0.99964733  0.29197667  0.75111667  1
  P  P32  1  0.04034100  0.66947400  0.91635100  1
  P  P33  1  0.33052600  0.37086700  0.91635100  1
  P  P34  1  0.62913300  0.95965900  0.91635100  1
  P  P35  1  0.29232933  0.00035267  0.75111667  1
  O  O36  1  0.51612933  0.86547867  0.97767367  1
  O  O37  1  0.13452133  0.65065067  0.97767367  1
  O  O38  1  0.18345633  0.01478467  0.07222267  1
  O  O39  1  0.34934933  0.48387067  0.97767367  1
  O  O40  1  0.46144533  0.13377967  0.14749567  1
  O  O41  1  0.34373500  0.84677200  0.09127900  1
  O  O42  1  0.83132833  0.81654367  0.07222267  1
  O  O43  1  0.50303700  0.65626500  0.09127900  1
  O  O44  1  0.81193700  0.01057900  0.18763700  1
  O  O45  1  0.15322800  0.49696300  0.09127900  1
  O  O46  1  0.68322600  0.16423500  0.26309100  1
  O  O47  1  0.98942100  0.80135800  0.18763700  1
  O  O48  1  0.67233433  0.53855467  0.14749567  1
  O  O49  1  0.98521533  0.16867167  0.07222267  1
  O  O50  1  0.51838133  0.83541667  0.23926367  1
  O  O51  1  0.86622033  0.32766567  0.14749567  1
  O  O52  1  0.16458333  0.68296467  0.23926367  1
  O  O53  1  0.83576500  0.51899100  0.26309100  1
  O  O54  1  0.31703533  0.48161867  0.23926367  1
  O  O55  1  0.19864200  0.18806300  0.18763700  1
  O  O56  1  0.32374267  0.85420333  0.35502733  1
  O  O57  1  0.48100900  0.31677400  0.26309100  1
  O  O58  1  0.53046067  0.67625733  0.35502733  1
  O  O59  1  0.14579667  0.46953933  0.35502733  1
  O  O60  1  0.18279600  0.19881200  0.31100700  1
  O  O61  1  0.80118800  0.98398400  0.31100700  1
  O  O62  1  0.85012300  0.34811800  0.40555600  1
  O  O63  1  0.01601600  0.81720400  0.31100700  1
  O  O64  1  0.12811200  0.46711300  0.48082900  1
  O  O65  1  0.01040167  0.18010533  0.42461233  1
  O  O66  1  0.49799500  0.14987700  0.40555600  1
  O  O67  1  0.16970367  0.98959833  0.42461233  1
  O  O68  1  0.47860367  0.34391233  0.52097033  1
  O  O69  1  0.81989467  0.83029633  0.42461233  1
  O  O70  1  0.34989267  0.49756833  0.59642433  1
  O  O71  1  0.65608767  0.13469133  0.52097033  1
  O  O72  1  0.33900100  0.87188800  0.48082900  1
  O  O73  1  0.65188200  0.50200500  0.40555600  1
  O  O74  1  0.18504800  0.16875000  0.57259700  1
  O  O75  1  0.53288700  0.66099900  0.48082900  1
  O  O76  1  0.83125000  0.01629800  0.57259700  1
  O  O77  1  0.50243167  0.85232433  0.59642433  1
  O  O78  1  0.98370200  0.81495200  0.57259700  1
  O  O79  1  0.86530867  0.52139633  0.52097033  1
  O  O80  1  0.99040933  0.18753667  0.68836067  1
  O  O81  1  0.14767567  0.65010733  0.59642433  1
  O  O82  1  0.19712733  0.00959067  0.68836067  1
  O  O83  1  0.81246333  0.80287267  0.68836067  1
  O  O84  1  0.84946267  0.53214533  0.64434033  1
  O  O85  1  0.46785467  0.31731733  0.64434033  1
  O  O86  1  0.51678967  0.68145133  0.73888933  1
  O  O87  1  0.68268267  0.15053733  0.64434033  1
  O  O88  1  0.79477867  0.80044633  0.81416233  1
  O  O89  1  0.67706833  0.51343867  0.75794567  1
  O  O90  1  0.16466167  0.48321033  0.73888933  1
  O  O91  1  0.83637033  0.32293167  0.75794567  1
  O  O92  1  0.14527033  0.67724567  0.85430367  1
  O  O93  1  0.48656133  0.16362967  0.75794567  1
  O  O94  1  0.01655933  0.83090167  0.92975767  1
  O  O95  1  0.32275433  0.46802467  0.85430367  1
  O  O96  1  0.00566767  0.20522133  0.81416233  1
  O  O97  1  0.31854867  0.83533833  0.73888933  1
  O  O98  1  0.85171467  0.50208333  0.90593033  1
  O  O99  1  0.19955367  0.99433233  0.81416233  1
  O  O100  1  0.49791667  0.34963133  0.90593033  1
  O  O101  1  0.16909833  0.18565767  0.92975767  1
  O  O102  1  0.65036867  0.14828533  0.90593033  1
  O  O103  1  0.53197533  0.85472967  0.85430367  1
  O  O104  1  0.65707600  0.52087000  0.02169400  1
  O  O105  1  0.81434233  0.98344067  0.92975767  1
  O  O106  1  0.86379400  0.34292400  0.02169400  1
  O  O107  1  0.47913000  0.13620600  0.02169400  1
