# generated using pymatgen
data_Li3Co4SnO8
_symmetry_space_group_name_H-M   'P 1'
_cell_length_a   10.38600800
_cell_length_b   6.06421400
_cell_length_c   6.09163384
_cell_angle_alpha   90.00000000
_cell_angle_beta   125.28274885
_cell_angle_gamma   90.00000000
_symmetry_Int_Tables_number   1
_chemical_formula_structural   Li3Co4SnO8
_chemical_formula_sum   'Li6 Co8 Sn2 O16'
_cell_volume   313.19361386
_cell_formula_units_Z   2
loop_
 _symmetry_equiv_pos_site_id
 _symmetry_equiv_pos_as_xyz
  1  'x, y, z'
loop_
 _atom_site_type_symbol
 _atom_site_label
 _atom_site_symmetry_multiplicity
 _atom_site_fract_x
 _atom_site_fract_y
 _atom_site_fract_z
 _atom_site_occupancy
  Li  Li0  1  0.75000000  0.75000000  0.00000000  1
  Li  Li1  1  0.00000000  0.00000000  0.50000000  1
  Li  Li2  1  0.25000000  0.75000000  0.00000000  1
  Li  Li3  1  0.25000000  0.25000000  0.00000000  1
  Li  Li4  1  0.50000000  0.50000000  0.50000000  1
  Li  Li5  1  0.75000000  0.25000000  0.00000000  1
  Co  Co6  1  0.50000000  0.00000000  0.50000000  1
  Co  Co7  1  0.00000000  0.00000000  0.00000000  1
  Co  Co8  1  0.25000000  0.25000000  0.50000000  1
  Co  Co9  1  0.25000000  0.75000000  0.50000000  1
  Co  Co10  1  0.00000000  0.50000000  0.50000000  1
  Co  Co11  1  0.50000000  0.50000000  0.00000000  1
  Co  Co12  1  0.75000000  0.75000000  0.50000000  1
  Co  Co13  1  0.75000000  0.25000000  0.50000000  1
  Sn  Sn14  1  0.00000000  0.50000000  0.00000000  1
  Sn  Sn15  1  0.50000000  0.00000000  0.00000000  1
  O  O16  1  0.25529800  0.00000000  0.73784900  1
  O  O17  1  0.99678050  0.74341750  0.23987400  1
  O  O18  1  0.99678050  0.25658250  0.23987400  1
  O  O19  1  0.25039300  0.50000000  0.73396400  1
  O  O20  1  0.24960700  0.00000000  0.26603600  1
  O  O21  1  0.50321950  0.24341750  0.76012600  1
  O  O22  1  0.50321950  0.75658250  0.76012600  1
  O  O23  1  0.24470200  0.50000000  0.26215100  1
  O  O24  1  0.75529800  0.50000000  0.73784900  1
  O  O25  1  0.49678050  0.24341750  0.23987400  1
  O  O26  1  0.49678050  0.75658250  0.23987400  1
  O  O27  1  0.75039300  0.00000000  0.73396400  1
  O  O28  1  0.74960700  0.50000000  0.26603600  1
  O  O29  1  0.00321950  0.74341750  0.76012600  1
  O  O30  1  0.00321950  0.25658250  0.76012600  1
  O  O31  1  0.74470200  0.00000000  0.26215100  1
