# generated using pymatgen
data_LiVSiO4
_symmetry_space_group_name_H-M   'P 1'
_cell_length_a   4.90699200
_cell_length_b   6.31108200
_cell_length_c   9.15840900
_cell_angle_alpha   90.00000000
_cell_angle_beta   90.00000000
_cell_angle_gamma   90.00000000
_symmetry_Int_Tables_number   1
_chemical_formula_structural   LiVSiO4
_chemical_formula_sum   'Li4 V4 Si4 O16'
_cell_volume   283.62153784
_cell_formula_units_Z   4
loop_
 _symmetry_equiv_pos_site_id
 _symmetry_equiv_pos_as_xyz
  1  'x, y, z'
loop_
 _atom_site_type_symbol
 _atom_site_label
 _atom_site_symmetry_multiplicity
 _atom_site_fract_x
 _atom_site_fract_y
 _atom_site_fract_z
 _atom_site_occupancy
  Li  Li0  1  0.97785800  0.75000000  0.66634700  1
  Li  Li1  1  0.47785800  0.25000000  0.83365300  1
  Li  Li2  1  0.52214200  0.75000000  0.16634700  1
  Li  Li3  1  0.02214200  0.25000000  0.33365300  1
  V  V4  1  0.50000000  0.50000000  0.50000000  1
  V  V5  1  0.00000000  0.50000000  0.00000000  1
  V  V6  1  0.50000000  0.00000000  0.50000000  1
  V  V7  1  0.00000000  0.00000000  0.00000000  1
  Si  Si8  1  0.97676900  0.25000000  0.67815600  1
  Si  Si9  1  0.47676900  0.75000000  0.82184400  1
  Si  Si10  1  0.52323100  0.25000000  0.17815600  1
  Si  Si11  1  0.02323100  0.75000000  0.32184400  1
  O  O12  1  0.30231300  0.25000000  0.62467300  1
  O  O13  1  0.80231300  0.75000000  0.87532700  1
  O  O14  1  0.19768700  0.25000000  0.12467300  1
  O  O15  1  0.69768700  0.75000000  0.37532700  1
  O  O16  1  0.40912300  0.75000000  0.64164400  1
  O  O17  1  0.90912300  0.25000000  0.85835600  1
  O  O18  1  0.09087700  0.75000000  0.14164400  1
  O  O19  1  0.59087700  0.25000000  0.35835600  1
  O  O20  1  0.82921300  0.03507450  0.61859800  1
  O  O21  1  0.82921300  0.46492550  0.61859800  1
  O  O22  1  0.32921300  0.96492550  0.88140200  1
  O  O23  1  0.32921300  0.53507450  0.88140200  1
  O  O24  1  0.67078700  0.03507450  0.11859800  1
  O  O25  1  0.67078700  0.46492550  0.11859800  1
  O  O26  1  0.17078700  0.53507450  0.38140200  1
  O  O27  1  0.17078700  0.96492550  0.38140200  1
