# generated using pymatgen
data_V2Co3Te3O16
_symmetry_space_group_name_H-M   'P 1'
_cell_length_a   10.71178400
_cell_length_b   6.12232600
_cell_length_c   9.21539576
_cell_angle_alpha   90.00000000
_cell_angle_beta   91.46609799
_cell_angle_gamma   90.00000000
_symmetry_Int_Tables_number   1
_chemical_formula_structural   V2Co3Te3O16
_chemical_formula_sum   'V4 Co6 Te6 O32'
_cell_volume   604.15733756
_cell_formula_units_Z   2
loop_
 _symmetry_equiv_pos_site_id
 _symmetry_equiv_pos_as_xyz
  1  'x, y, z'
loop_
 _atom_site_type_symbol
 _atom_site_label
 _atom_site_symmetry_multiplicity
 _atom_site_fract_x
 _atom_site_fract_y
 _atom_site_fract_z
 _atom_site_occupancy
  V  V0  1  0.68126700  0.00000000  0.50570600  1
  V  V1  1  0.85788300  0.50000000  0.96238700  1
  V  V2  1  0.18126700  0.50000000  0.50570600  1
  V  V3  1  0.35788300  0.00000000  0.96238700  1
  Co  Co4  1  0.82675200  0.00000000  0.20497800  1
  Co  Co5  1  0.92076850  0.74957550  0.69944700  1
  Co  Co6  1  0.92076850  0.25042450  0.69944700  1
  Co  Co7  1  0.32675200  0.50000000  0.20497800  1
  Co  Co8  1  0.42076850  0.24957550  0.69944700  1
  Co  Co9  1  0.42076850  0.75042450  0.69944700  1
  Te  Te10  1  0.57722050  0.24872950  0.21468300  1
  Te  Te11  1  0.57722050  0.75127050  0.21468300  1
  Te  Te12  1  0.67149600  0.50000000  0.71159300  1
  Te  Te13  1  0.07722050  0.74872950  0.21468300  1
  Te  Te14  1  0.07722050  0.25127050  0.21468300  1
  Te  Te15  1  0.17149600  0.00000000  0.71159300  1
  O  O16  1  0.59729700  0.24483700  0.60142200  1
  O  O17  1  0.51427100  0.00000000  0.34076000  1
  O  O18  1  0.64693500  0.00000000  0.09512300  1
  O  O19  1  0.50257700  0.50000000  0.32489600  1
  O  O20  1  0.51010300  0.50000000  0.80070800  1
  O  O21  1  0.59729700  0.75516300  0.60142200  1
  O  O22  1  0.72569100  0.21887200  0.33454900  1
  O  O23  1  0.72569100  0.78112800  0.33454900  1
  O  O24  1  0.65476600  0.50000000  0.10701700  1
  O  O25  1  0.82431400  0.00000000  0.59372000  1
  O  O26  1  0.75858600  0.70587600  0.85070100  1
  O  O27  1  0.75858600  0.29412400  0.85070100  1
  O  O28  1  0.82558400  0.50000000  0.60229500  1
  O  O29  1  0.92080650  0.74840150  0.10671200  1
  O  O30  1  0.98223400  0.50000000  0.85112300  1
  O  O31  1  0.92080650  0.25159850  0.10671200  1
  O  O32  1  0.09729700  0.74483700  0.60142200  1
  O  O33  1  0.01427100  0.50000000  0.34076000  1
  O  O34  1  0.14693500  0.50000000  0.09512300  1
  O  O35  1  0.00257700  0.00000000  0.32489600  1
  O  O36  1  0.01010300  0.00000000  0.80070800  1
  O  O37  1  0.09729700  0.25516300  0.60142200  1
  O  O38  1  0.22569100  0.71887200  0.33454900  1
  O  O39  1  0.22569100  0.28112800  0.33454900  1
  O  O40  1  0.15476600  0.00000000  0.10701700  1
  O  O41  1  0.32431400  0.50000000  0.59372000  1
  O  O42  1  0.25858600  0.20587600  0.85070100  1
  O  O43  1  0.25858600  0.79412400  0.85070100  1
  O  O44  1  0.32558400  0.00000000  0.60229500  1
  O  O45  1  0.42080650  0.24840150  0.10671200  1
  O  O46  1  0.48223400  0.00000000  0.85112300  1
  O  O47  1  0.42080650  0.75159850  0.10671200  1
