# generated using pymatgen
data_FeOF
_symmetry_space_group_name_H-M   'P 1'
_cell_length_a   14.14130500
_cell_length_b   3.09745500
_cell_length_c   14.24729507
_cell_angle_alpha   90.00000000
_cell_angle_beta   90.19088179
_cell_angle_gamma   90.00000000
_symmetry_Int_Tables_number   1
_chemical_formula_structural   FeOF
_chemical_formula_sum   'Fe18 O18 F18'
_cell_volume   624.05735135
_cell_formula_units_Z   18
loop_
 _symmetry_equiv_pos_site_id
 _symmetry_equiv_pos_as_xyz
  1  'x, y, z'
loop_
 _atom_site_type_symbol
 _atom_site_label
 _atom_site_symmetry_multiplicity
 _atom_site_fract_x
 _atom_site_fract_y
 _atom_site_fract_z
 _atom_site_occupancy
  Fe  Fe0  1  0.01325600  0.00000000  0.99650600  1
  Fe  Fe1  1  0.01791800  0.00000000  0.33745000  1
  Fe  Fe2  1  0.00696200  0.00000000  0.66379800  1
  Fe  Fe3  1  0.15363500  0.50000000  0.16498000  1
  Fe  Fe4  1  0.15277200  0.50000000  0.50250600  1
  Fe  Fe5  1  0.17367800  0.50000000  0.85028900  1
  Fe  Fe6  1  0.34212900  0.00000000  0.99406300  1
  Fe  Fe7  1  0.34088200  0.00000000  0.33540400  1
  Fe  Fe8  1  0.34309300  0.00000000  0.66376800  1
  Fe  Fe9  1  0.48670800  0.50000000  0.49907900  1
  Fe  Fe10  1  0.47851800  0.50000000  0.16709900  1
  Fe  Fe11  1  0.48543900  0.50000000  0.83031500  1
  Fe  Fe12  1  0.67266600  0.00000000  0.00385600  1
  Fe  Fe13  1  0.67676200  0.00000000  0.32850800  1
  Fe  Fe14  1  0.68011400  0.00000000  0.66570700  1
  Fe  Fe15  1  0.82231700  0.50000000  0.16483000  1
  Fe  Fe16  1  0.81884800  0.50000000  0.49562500  1
  Fe  Fe17  1  0.84098400  0.50000000  0.81163100  1
  O  O18  1  0.06501000  0.50000000  0.27101800  1
  O  O19  1  0.06818800  0.50000000  0.60082200  1
  O  O20  1  0.06148500  0.50000000  0.93203500  1
  O  O21  1  0.10112500  0.00000000  0.10223100  1
  O  O22  1  0.10206200  0.00000000  0.44281100  1
  O  O23  1  0.23526400  0.00000000  0.90336800  1
  O  O24  1  0.39308600  0.50000000  0.27236000  1
  O  O25  1  0.39717800  0.50000000  0.60248700  1
  O  O26  1  0.40448100  0.50000000  0.93794300  1
  O  O27  1  0.43484500  0.00000000  0.10156800  1
  O  O28  1  0.43464600  0.00000000  0.43600200  1
  O  O29  1  0.43509400  0.00000000  0.76779600  1
  O  O30  1  0.72949000  0.50000000  0.26423900  1
  O  O31  1  0.73130100  0.50000000  0.60216200  1
  O  O32  1  0.76691200  0.00000000  0.09701300  1
  O  O33  1  0.76551800  0.00000000  0.43259000  1
  O  O34  1  0.76760800  0.00000000  0.77220200  1
  O  O35  1  0.94332500  0.50000000  0.72792500  1
  F  F36  1  0.10946200  0.00000000  0.76971600  1
  F  F37  1  0.23108500  0.00000000  0.23431200  1
  F  F38  1  0.22925700  0.00000000  0.56847600  1
  F  F39  1  0.26845900  0.50000000  0.07137200  1
  F  F40  1  0.26638400  0.50000000  0.73125500  1
  F  F41  1  0.26238100  0.50000000  0.40262000  1
  F  F42  1  0.56451100  0.00000000  0.23051500  1
  F  F43  1  0.56593500  0.00000000  0.56590100  1
  F  F44  1  0.57300200  0.00000000  0.90150500  1
  F  F45  1  0.60229000  0.50000000  0.06246900  1
  F  F46  1  0.59955600  0.50000000  0.39650800  1
  F  F47  1  0.60112900  0.50000000  0.73417900  1
  F  F48  1  0.72968800  0.50000000  0.93568100  1
  F  F49  1  0.89591500  0.00000000  0.22844400  1
  F  F50  1  0.89783500  0.00000000  0.55955400  1
  F  F51  1  0.89542300  0.00000000  0.90199800  1
  F  F52  1  0.93180300  0.50000000  0.06641000  1
  F  F53  1  0.93258900  0.50000000  0.39710500  1
