# generated using pymatgen
data_Sm2Ge5Ru3
_symmetry_space_group_name_H-M   'P 1'
_cell_length_a   5.84960200
_cell_length_b   9.97173200
_cell_length_c   12.57047600
_cell_angle_alpha   90.00000000
_cell_angle_beta   90.00000000
_cell_angle_gamma   90.00000000
_symmetry_Int_Tables_number   1
_chemical_formula_structural   Sm2Ge5Ru3
_chemical_formula_sum   'Sm8 Ge20 Ru12'
_cell_volume   733.24420497
_cell_formula_units_Z   4
loop_
 _symmetry_equiv_pos_site_id
 _symmetry_equiv_pos_as_xyz
  1  'x, y, z'
loop_
 _atom_site_type_symbol
 _atom_site_label
 _atom_site_symmetry_multiplicity
 _atom_site_fract_x
 _atom_site_fract_y
 _atom_site_fract_z
 _atom_site_occupancy
  Sm  Sm0  1  0.50000000  0.26870600  0.63896900  1
  Sm  Sm1  1  0.00000000  0.26870600  0.36103100  1
  Sm  Sm2  1  0.00000000  0.73129400  0.63896900  1
  Sm  Sm3  1  0.50000000  0.73129400  0.36103100  1
  Sm  Sm4  1  0.00000000  0.76870600  0.13896900  1
  Sm  Sm5  1  0.50000000  0.76870600  0.86103100  1
  Sm  Sm6  1  0.50000000  0.23129400  0.13896900  1
  Sm  Sm7  1  0.00000000  0.23129400  0.86103100  1
  Ge  Ge8  1  0.00000000  0.17467250  0.58816150  1
  Ge  Ge9  1  0.75000000  0.00000000  0.29224750  1
  Ge  Ge10  1  0.50000000  0.17467250  0.41183850  1
  Ge  Ge11  1  0.25000000  0.00000000  0.29224750  1
  Ge  Ge12  1  0.75000000  0.50000000  0.50000000  1
  Ge  Ge13  1  0.25000000  0.50000000  0.50000000  1
  Ge  Ge14  1  0.75000000  0.00000000  0.70775250  1
  Ge  Ge15  1  0.50000000  0.82532750  0.58816150  1
  Ge  Ge16  1  0.25000000  0.00000000  0.70775250  1
  Ge  Ge17  1  0.00000000  0.82532750  0.41183850  1
  Ge  Ge18  1  0.50000000  0.67467250  0.08816150  1
  Ge  Ge19  1  0.25000000  0.50000000  0.79224750  1
  Ge  Ge20  1  0.00000000  0.67467250  0.91183850  1
  Ge  Ge21  1  0.75000000  0.50000000  0.79224750  1
  Ge  Ge22  1  0.25000000  0.00000000  0.00000000  1
  Ge  Ge23  1  0.75000000  0.00000000  0.00000000  1
  Ge  Ge24  1  0.25000000  0.50000000  0.20775250  1
  Ge  Ge25  1  0.00000000  0.32532750  0.08816150  1
  Ge  Ge26  1  0.75000000  0.50000000  0.20775250  1
  Ge  Ge27  1  0.50000000  0.32532750  0.91183850  1
  Ru  Ru28  1  0.50000000  0.90871750  0.14689450  1
  Ru  Ru29  1  0.00000000  0.90871750  0.85310550  1
  Ru  Ru30  1  0.00000000  0.09128250  0.14689450  1
  Ru  Ru31  1  0.50000000  0.09128250  0.85310550  1
  Ru  Ru32  1  0.75000000  0.00000000  0.50000000  1
  Ru  Ru33  1  0.25000000  0.00000000  0.50000000  1
  Ru  Ru34  1  0.00000000  0.40871750  0.64689450  1
  Ru  Ru35  1  0.50000000  0.40871750  0.35310550  1
  Ru  Ru36  1  0.50000000  0.59128250  0.64689450  1
  Ru  Ru37  1  0.00000000  0.59128250  0.35310550  1
  Ru  Ru38  1  0.25000000  0.50000000  0.00000000  1
  Ru  Ru39  1  0.75000000  0.50000000  0.00000000  1
