# generated using pymatgen
data_Mn2Fe3Cu(PO4)6
_symmetry_space_group_name_H-M   'P 1'
_cell_length_a   8.65444499
_cell_length_b   8.65444499
_cell_length_c   20.80638882
_cell_angle_alpha   90.00000000
_cell_angle_beta   90.00000000
_cell_angle_gamma   120.00000000
_symmetry_Int_Tables_number   1
_chemical_formula_structural   Mn2Fe3Cu(PO4)6
_chemical_formula_sum   'Mn6 Fe9 Cu3 P18 O72'
_cell_volume   1349.60222376
_cell_formula_units_Z   3
loop_
 _symmetry_equiv_pos_site_id
 _symmetry_equiv_pos_as_xyz
  1  'x, y, z'
loop_
 _atom_site_type_symbol
 _atom_site_label
 _atom_site_symmetry_multiplicity
 _atom_site_fract_x
 _atom_site_fract_y
 _atom_site_fract_z
 _atom_site_occupancy
  Mn  Mn0  1  0.33333333  0.66666667  0.66731767  1
  Mn  Mn1  1  0.33333333  0.66666667  0.16699067  1
  Mn  Mn2  1  0.00000000  0.00000000  0.00065100  1
  Mn  Mn3  1  0.00000000  0.00000000  0.50032400  1
  Mn  Mn4  1  0.66666667  0.33333333  0.33398433  1
  Mn  Mn5  1  0.66666667  0.33333333  0.83365733  1
  Fe  Fe6  1  0.33333333  0.66666667  0.52175067  1
  Fe  Fe7  1  0.33333333  0.66666667  0.31289567  1
  Fe  Fe8  1  0.33333333  0.66666667  0.02142067  1
  Fe  Fe9  1  0.00000000  0.00000000  0.85508400  1
  Fe  Fe10  1  0.00000000  0.00000000  0.64622900  1
  Fe  Fe11  1  0.00000000  0.00000000  0.35475400  1
  Fe  Fe12  1  0.66666667  0.33333333  0.18841733  1
  Fe  Fe13  1  0.66666667  0.33333333  0.97956233  1
  Fe  Fe14  1  0.66666667  0.33333333  0.68808733  1
  Cu  Cu15  1  0.33333333  0.66666667  0.81178967  1
  Cu  Cu16  1  0.00000000  0.00000000  0.14512300  1
  Cu  Cu17  1  0.66666667  0.33333333  0.47845633  1
  P  P18  1  0.00022267  0.70475633  0.24989033  1
  P  P19  1  0.70453367  0.99977733  0.24989033  1
  P  P20  1  0.29524367  0.29546633  0.24989033  1
  P  P21  1  0.37160767  0.03800433  0.08392233  1
  P  P22  1  0.96199567  0.33360333  0.08392233  1
  P  P23  1  0.66639667  0.62839233  0.08392233  1
  P  P24  1  0.66688933  0.03808967  0.58322367  1
  P  P25  1  0.37120033  0.33311067  0.58322367  1
  P  P26  1  0.96191033  0.62879967  0.58322367  1
  P  P27  1  0.03827433  0.37133767  0.41725567  1
  P  P28  1  0.62866233  0.66693667  0.41725567  1
  P  P29  1  0.33306333  0.96172567  0.41725567  1
  P  P30  1  0.33355600  0.37142300  0.91655700  1
  P  P31  1  0.03786700  0.66644400  0.91655700  1
  P  P32  1  0.62857700  0.96213300  0.91655700  1
  P  P33  1  0.70494100  0.70467100  0.75058900  1
  P  P34  1  0.29532900  0.00027000  0.75058900  1
  P  P35  1  0.99973000  0.29505900  0.75058900  1
  O  O36  1  0.32558767  0.85982033  0.35619633  1
  O  O37  1  0.14017967  0.46576733  0.35619633  1
  O  O38  1  0.83191233  0.51551067  0.25794267  1
  O  O39  1  0.53423267  0.67441233  0.35619633  1
  O  O40  1  0.99991200  0.79617600  0.18688600  1
  O  O41  1  0.16717200  0.68030600  0.24325500  1
  O  O42  1  0.68359833  0.16808767  0.25794267  1
  O  O43  1  0.51313400  0.83282800  0.24325500  1
  O  O44  1  0.46646033  0.13859767  0.14477167  1
  O  O45  1  0.31969400  0.48686600  0.24325500  1
  O  O46  1  0.18370067  0.01967533  0.07477033  1
  O  O47  1  0.86140233  0.32786267  0.14477167  1
  O  O48  1  0.79626400  0.00008800  0.18688600  1
  O  O49  1  0.48448933  0.31640167  0.25794267  1
  O  O50  1  0.34878400  0.84793800  0.09139000  1
  O  O51  1  0.20382400  0.20373600  0.18688600  1
  O  O52  1  0.15206200  0.50084600  0.09139000  1
  O  O53  1  0.98032467  0.16402533  0.07477033  1
  O  O54  1  0.49915400  0.65121600  0.09139000  1
  O  O55  1  0.67213733  0.53353967  0.14477167  1
  O  O56  1  0.13428933  0.66049667  0.97691967  1
  O  O57  1  0.83597467  0.81629933  0.07477033  1
  O  O58  1  0.52620733  0.86571067  0.97691967  1
  O  O59  1  0.33950333  0.47379267  0.97691967  1
  O  O60  1  0.99225433  0.19315367  0.68952967  1
  O  O61  1  0.80684633  0.79910067  0.68952967  1
  O  O62  1  0.49857900  0.84884400  0.59127600  1
  O  O63  1  0.20089933  0.00774567  0.68952967  1
  O  O64  1  0.66657867  0.12950933  0.52021933  1
  O  O65  1  0.83383867  0.01363933  0.57658833  1
  O  O66  1  0.35026500  0.50142100  0.59127600  1
  O  O67  1  0.17980067  0.16616133  0.57658833  1
  O  O68  1  0.13312700  0.47193100  0.47810500  1
  O  O69  1  0.98636067  0.82019933  0.57658833  1
  O  O70  1  0.85036733  0.35300867  0.40810367  1
  O  O71  1  0.52806900  0.66119600  0.47810500  1
  O  O72  1  0.46293067  0.33342133  0.52021933  1
  O  O73  1  0.15115600  0.64973500  0.59127600  1
  O  O74  1  0.01545067  0.18127133  0.42472333  1
  O  O75  1  0.87049067  0.53706933  0.52021933  1
  O  O76  1  0.81872867  0.83417933  0.42472333  1
  O  O77  1  0.64699133  0.49735867  0.40810367  1
  O  O78  1  0.16582067  0.98454933  0.42472333  1
  O  O79  1  0.33880400  0.86687300  0.47810500  1
  O  O80  1  0.80095600  0.99383000  0.31025300  1
  O  O81  1  0.50264133  0.14963267  0.40810367  1
  O  O82  1  0.19287400  0.19904400  0.31025300  1
  O  O83  1  0.00617000  0.80712600  0.31025300  1
  O  O84  1  0.65892100  0.52648700  0.02286300  1
  O  O85  1  0.47351300  0.13243400  0.02286300  1
  O  O86  1  0.16524567  0.18217733  0.92460933  1
  O  O87  1  0.86756600  0.34107900  0.02286300  1
  O  O88  1  0.33324533  0.46284267  0.85355267  1
  O  O89  1  0.50050533  0.34697267  0.90992167  1
  O  O90  1  0.01693167  0.83475433  0.92460933  1
  O  O91  1  0.84646733  0.49949467  0.90992167  1
  O  O92  1  0.79979367  0.80526433  0.81143833  1
  O  O93  1  0.65302733  0.15353267  0.90992167  1
  O  O94  1  0.51703400  0.68634200  0.74143700  1
  O  O95  1  0.19473567  0.99452933  0.81143833  1
  O  O96  1  0.12959733  0.66675467  0.85355267  1
  O  O97  1  0.81782267  0.98306833  0.92460933  1
  O  O98  1  0.68211733  0.51460467  0.75805667  1
  O  O99  1  0.53715733  0.87040267  0.85355267  1
  O  O100  1  0.48539533  0.16751267  0.75805667  1
  O  O101  1  0.31365800  0.83069200  0.74143700  1
  O  O102  1  0.83248733  0.31788267  0.75805667  1
  O  O103  1  0.00547067  0.20020633  0.81143833  1
  O  O104  1  0.46762267  0.32716333  0.64358633  1
  O  O105  1  0.16930800  0.48296600  0.74143700  1
  O  O106  1  0.85954067  0.53237733  0.64358633  1
  O  O107  1  0.67283667  0.14045933  0.64358633  1
