# generated using pymatgen
data_Li4Mn3Fe2Co3O16
_symmetry_space_group_name_H-M   'P 1'
_cell_length_a   9.95513483
_cell_length_b   5.77345869
_cell_length_c   9.44751379
_cell_angle_alpha   90.00000000
_cell_angle_beta   90.01519580
_cell_angle_gamma   90.00000000
_symmetry_Int_Tables_number   1
_chemical_formula_structural   Li4Mn3Fe2Co3O16
_chemical_formula_sum   'Li8 Mn6 Fe4 Co6 O32'
_cell_volume   543.00112417
_cell_formula_units_Z   2
loop_
 _symmetry_equiv_pos_site_id
 _symmetry_equiv_pos_as_xyz
  1  'x, y, z'
loop_
 _atom_site_type_symbol
 _atom_site_label
 _atom_site_symmetry_multiplicity
 _atom_site_fract_x
 _atom_site_fract_y
 _atom_site_fract_z
 _atom_site_occupancy
  Li  Li0  1  0.33078850  0.00000000  0.10736700  1
  Li  Li1  1  0.99567150  0.00000000  0.00184200  1
  Li  Li2  1  0.99327350  0.00000000  0.50344000  1
  Li  Li3  1  0.66559600  0.00000000  0.61164500  1
  Li  Li4  1  0.83078850  0.50000000  0.10736700  1
  Li  Li5  1  0.49567150  0.50000000  0.00184200  1
  Li  Li6  1  0.49327350  0.50000000  0.50344000  1
  Li  Li7  1  0.16559600  0.50000000  0.61164500  1
  Mn  Mn8  1  0.16772200  0.00000000  0.78479100  1
  Mn  Mn9  1  0.58306900  0.75483700  0.28511700  1
  Mn  Mn10  1  0.58306900  0.24516300  0.28511700  1
  Mn  Mn11  1  0.66772200  0.50000000  0.78479100  1
  Mn  Mn12  1  0.08306900  0.25483700  0.28511700  1
  Mn  Mn13  1  0.08306900  0.74516300  0.28511700  1
  Fe  Fe14  1  0.33481800  0.00000000  0.50905500  1
  Fe  Fe15  1  0.66706100  0.00000000  0.00623600  1
  Fe  Fe16  1  0.83481800  0.50000000  0.50905500  1
  Fe  Fe17  1  0.16706100  0.50000000  0.00623600  1
  Co  Co18  1  0.41375650  0.75670350  0.78575700  1
  Co  Co19  1  0.41375650  0.24329650  0.78575700  1
  Co  Co20  1  0.82831800  0.00000000  0.28556000  1
  Co  Co21  1  0.91375650  0.25670350  0.78575700  1
  Co  Co22  1  0.91375650  0.74329650  0.78575700  1
  Co  Co23  1  0.32831800  0.50000000  0.28556000  1
  O  O24  1  0.41821000  0.74572000  0.39796900  1
  O  O25  1  0.47999500  0.00000000  0.67144000  1
  O  O26  1  0.33191350  0.00000000  0.89123700  1
  O  O27  1  0.99750000  0.00000000  0.69086200  1
  O  O28  1  0.99766050  0.00000000  0.18893000  1
  O  O29  1  0.41821000  0.25428000  0.39796900  1
  O  O30  1  0.25763100  0.78010200  0.66445000  1
  O  O31  1  0.25763100  0.21989800  0.66445000  1
  O  O32  1  0.83817000  0.00000000  0.89249300  1
  O  O33  1  0.15972850  0.00000000  0.39823800  1
  O  O34  1  0.73943400  0.77801900  0.16470800  1
  O  O35  1  0.73943400  0.22198100  0.16470800  1
  O  O36  1  0.66433850  0.00000000  0.39279000  1
  O  O37  1  0.57964400  0.74295500  0.89749500  1
  O  O38  1  0.51535700  0.00000000  0.16512200  1
  O  O39  1  0.57964400  0.25704500  0.89749500  1
  O  O40  1  0.91821000  0.24572000  0.39796900  1
  O  O41  1  0.97999500  0.50000000  0.67144000  1
  O  O42  1  0.83191350  0.50000000  0.89123700  1
  O  O43  1  0.49750000  0.50000000  0.69086200  1
  O  O44  1  0.49766050  0.50000000  0.18893000  1
  O  O45  1  0.91821000  0.75428000  0.39796900  1
  O  O46  1  0.75763100  0.28010200  0.66445000  1
  O  O47  1  0.75763100  0.71989800  0.66445000  1
  O  O48  1  0.33817000  0.50000000  0.89249300  1
  O  O49  1  0.65972850  0.50000000  0.39823800  1
  O  O50  1  0.23943400  0.27801900  0.16470800  1
  O  O51  1  0.23943400  0.72198100  0.16470800  1
  O  O52  1  0.16433850  0.50000000  0.39279000  1
  O  O53  1  0.07964400  0.24295500  0.89749500  1
  O  O54  1  0.01535700  0.50000000  0.16512200  1
  O  O55  1  0.07964400  0.75704500  0.89749500  1
