# generated using pymatgen
data_VCo3(PO4)4
_symmetry_space_group_name_H-M   'P 1'
_cell_length_a   4.86060617
_cell_length_b   5.91284700
_cell_length_c   9.86322428
_cell_angle_alpha   90.00000000
_cell_angle_beta   91.40720491
_cell_angle_gamma   90.00000000
_symmetry_Int_Tables_number   1
_chemical_formula_structural   VCo3(PO4)4
_chemical_formula_sum   'V1 Co3 P4 O16'
_cell_volume   283.38377738
_cell_formula_units_Z   1
loop_
 _symmetry_equiv_pos_site_id
 _symmetry_equiv_pos_as_xyz
  1  'x, y, z'
loop_
 _atom_site_type_symbol
 _atom_site_label
 _atom_site_symmetry_multiplicity
 _atom_site_fract_x
 _atom_site_fract_y
 _atom_site_fract_z
 _atom_site_occupancy
  V  V0  1  0.97658100  0.50000000  0.27233000  1
  Co  Co1  1  0.03086600  0.00000000  0.72370400  1
  Co  Co2  1  0.46644000  0.00000000  0.23100600  1
  Co  Co3  1  0.55362800  0.50000000  0.77404500  1
  P  P4  1  0.09222200  0.50000000  0.59755300  1
  P  P5  1  0.39245300  0.50000000  0.09718600  1
  P  P6  1  0.58430700  0.00000000  0.90165300  1
  P  P7  1  0.92746300  0.00000000  0.40448600  1
  O  O8  1  0.15128000  0.50000000  0.44010600  1
  O  O9  1  0.24578900  0.29680500  0.66524700  1
  O  O10  1  0.24578900  0.70319500  0.66524700  1
  O  O11  1  0.23635300  0.00000000  0.39214300  1
  O  O12  1  0.27080500  0.00000000  0.87284700  1
  O  O13  1  0.24128900  0.29964400  0.17120600  1
  O  O14  1  0.24128900  0.70035600  0.17120600  1
  O  O15  1  0.34371200  0.50000000  0.94530800  1
  O  O16  1  0.64952400  0.00000000  0.05188300  1
  O  O17  1  0.72625900  0.79373900  0.82740900  1
  O  O18  1  0.72625900  0.20626100  0.82740900  1
  O  O19  1  0.70466300  0.50000000  0.13339100  1
  O  O20  1  0.78065400  0.50000000  0.61176000  1
  O  O21  1  0.78054400  0.79277700  0.33283100  1
  O  O22  1  0.78054400  0.20722300  0.33283100  1
  O  O23  1  0.85128300  0.00000000  0.55721400  1
