# generated using pymatgen
data_Cd6(CoO3)5
_symmetry_space_group_name_H-M   'P 1'
_cell_length_a   9.33514532
_cell_length_b   9.33514532
_cell_length_c   12.23725900
_cell_angle_alpha   90.00000000
_cell_angle_beta   90.00000000
_cell_angle_gamma   120.00000000
_symmetry_Int_Tables_number   1
_chemical_formula_structural   Cd6(CoO3)5
_chemical_formula_sum   'Cd18 Co15 O45'
_cell_volume   923.54263568
_cell_formula_units_Z   3
loop_
 _symmetry_equiv_pos_site_id
 _symmetry_equiv_pos_as_xyz
  1  'x, y, z'
loop_
 _atom_site_type_symbol
 _atom_site_label
 _atom_site_symmetry_multiplicity
 _atom_site_fract_x
 _atom_site_fract_y
 _atom_site_fract_z
 _atom_site_occupancy
  Cd  Cd0  1  0.99935533  0.66666667  0.16666667  1
  Cd  Cd1  1  0.33333333  0.33268867  0.16666667  1
  Cd  Cd2  1  0.66731133  0.00064467  0.16666667  1
  Cd  Cd3  1  0.98310167  0.33333333  0.33333333  1
  Cd  Cd4  1  0.66666667  0.64976833  0.33333333  1
  Cd  Cd5  1  0.35023167  0.01689833  0.33333333  1
  Cd  Cd6  1  0.66602200  0.00000000  0.50000000  1
  Cd  Cd7  1  0.00000000  0.66602200  0.50000000  1
  Cd  Cd8  1  0.33397800  0.33397800  0.50000000  1
  Cd  Cd9  1  0.64976833  0.66666667  0.66666667  1
  Cd  Cd10  1  0.33333333  0.98310167  0.66666667  1
  Cd  Cd11  1  0.01689833  0.35023167  0.66666667  1
  Cd  Cd12  1  0.33268867  0.33333333  0.83333333  1
  Cd  Cd13  1  0.66666667  0.99935533  0.83333333  1
  Cd  Cd14  1  0.00064467  0.66731133  0.83333333  1
  Cd  Cd15  1  0.31643500  0.00000000  0.00000000  1
  Cd  Cd16  1  0.00000000  0.31643500  0.00000000  1
  Cd  Cd17  1  0.68356500  0.68356500  0.00000000  1
  Co  Co18  1  0.33333333  0.66666667  0.16666667  1
  Co  Co19  1  0.33333333  0.66666667  0.76981133  1
  Co  Co20  1  0.33333333  0.66666667  0.56352200  1
  Co  Co21  1  0.33333333  0.66666667  0.96631800  1
  Co  Co22  1  0.33333333  0.66666667  0.36701533  1
  Co  Co23  1  0.00000000  0.00000000  0.50000000  1
  Co  Co24  1  0.00000000  0.00000000  0.10314467  1
  Co  Co25  1  1.00000000  0.00000000  0.89685533  1
  Co  Co26  1  0.00000000  0.00000000  0.29965133  1
  Co  Co27  1  1.00000000  0.00000000  0.70034867  1
  Co  Co28  1  0.66666667  0.33333333  0.83333333  1
  Co  Co29  1  0.66666667  0.33333333  0.43647800  1
  Co  Co30  1  0.66666667  0.33333333  0.23018867  1
  Co  Co31  1  0.66666667  0.33333333  0.63298467  1
  Co  Co32  1  0.66666667  0.33333333  0.03368200  1
  O  O33  1  0.66666667  0.17822633  0.33333333  1
  O  O34  1  0.15510700  0.15510700  0.00000000  1
  O  O35  1  0.51155967  0.33333333  0.33333333  1
  O  O36  1  0.23531667  0.74813233  0.06708933  1
  O  O37  1  0.15385100  0.58520100  0.26624400  1
  O  O38  1  0.25186767  0.48718433  0.06708933  1
  O  O39  1  0.43135000  0.84614900  0.26624400  1
  O  O40  1  0.51281567  0.76468333  0.06708933  1
  O  O41  1  0.41479900  0.56865000  0.26624400  1
  O  O42  1  0.27921500  0.79185600  0.46530600  1
  O  O43  1  0.15402567  0.54147733  0.86802733  1
  O  O44  1  0.38745167  0.84597433  0.86802733  1
  O  O45  1  0.20814400  0.48735900  0.46530600  1
  O  O46  1  0.45852267  0.61254833  0.86802733  1
  O  O47  1  0.51264100  0.72078500  0.46530600  1
  O  O48  1  0.33333333  0.51155967  0.66666667  1
  O  O49  1  0.82177367  0.48844033  0.33333333  1
  O  O50  1  0.17822633  0.66666667  0.66666667  1
  O  O51  1  0.90198333  0.08146567  0.40042267  1
  O  O52  1  0.82051767  0.91853433  0.59957733  1
  O  O53  1  0.91853433  0.82051767  0.40042267  1
  O  O54  1  0.09801667  0.17948233  0.59957733  1
  O  O55  1  0.17948233  0.09801667  0.40042267  1
  O  O56  1  0.08146567  0.90198333  0.59957733  1
  O  O57  1  0.94588167  0.12518933  0.79863933  1
  O  O58  1  0.82069233  0.87481067  0.20136067  1
  O  O59  1  0.05411833  0.17930767  0.20136067  1
  O  O60  1  0.87481067  0.82069233  0.79863933  1
  O  O61  1  0.12518933  0.94588167  0.20136067  1
  O  O62  1  0.17930767  0.05411833  0.79863933  1
  O  O63  1  0.00000000  0.84489300  0.00000000  1
  O  O64  1  0.48844033  0.82177367  0.66666667  1
  O  O65  1  0.84489300  0.00000000  0.00000000  1
  O  O66  1  0.56865000  0.41479900  0.73375600  1
  O  O67  1  0.48718433  0.25186767  0.93291067  1
  O  O68  1  0.58520100  0.15385100  0.73375600  1
  O  O69  1  0.76468333  0.51281567  0.93291067  1
  O  O70  1  0.84614900  0.43135000  0.73375600  1
  O  O71  1  0.74813233  0.23531667  0.93291067  1
  O  O72  1  0.61254833  0.45852267  0.13197267  1
  O  O73  1  0.48735900  0.20814400  0.53469400  1
  O  O74  1  0.72078500  0.51264100  0.53469400  1
  O  O75  1  0.54147733  0.15402567  0.13197267  1
  O  O76  1  0.79185600  0.27921500  0.53469400  1
  O  O77  1  0.84597433  0.38745167  0.13197267  1
