# generated using pymatgen
data_Li2V3WO8
_symmetry_space_group_name_H-M   'P 1'
_cell_length_a   8.60667917
_cell_length_b   8.60667917
_cell_length_c   8.60667917
_cell_angle_alpha   90.00000000
_cell_angle_beta   90.00000000
_cell_angle_gamma   90.00000000
_symmetry_Int_Tables_number   1
_chemical_formula_structural   Li2V3WO8
_chemical_formula_sum   'Li8 V12 W4 O32'
_cell_volume   637.53912491
_cell_formula_units_Z   4
loop_
 _symmetry_equiv_pos_site_id
 _symmetry_equiv_pos_as_xyz
  1  'x, y, z'
loop_
 _atom_site_type_symbol
 _atom_site_label
 _atom_site_symmetry_multiplicity
 _atom_site_fract_x
 _atom_site_fract_y
 _atom_site_fract_z
 _atom_site_occupancy
  Li  Li0  1  0.99904883  0.99904883  0.99904883  1
  Li  Li1  1  0.25095117  0.25095117  0.25095117  1
  Li  Li2  1  0.24904883  0.74904883  0.75095117  1
  Li  Li3  1  0.50095117  0.00095117  0.49904883  1
  Li  Li4  1  0.49904883  0.50095117  0.00095117  1
  Li  Li5  1  0.75095117  0.24904883  0.74904883  1
  Li  Li6  1  0.74904883  0.75095117  0.24904883  1
  Li  Li7  1  0.00095117  0.49904883  0.50095117  1
  V  V8  1  0.12199500  0.12800500  0.62500000  1
  V  V9  1  0.12500000  0.37800500  0.87199500  1
  V  V10  1  0.12800500  0.62500000  0.12199500  1
  V  V11  1  0.37199500  0.37500000  0.62199500  1
  V  V12  1  0.37500000  0.62199500  0.37199500  1
  V  V13  1  0.37800500  0.87199500  0.12500000  1
  V  V14  1  0.62199500  0.37199500  0.37500000  1
  V  V15  1  0.62500000  0.12199500  0.12800500  1
  V  V16  1  0.62800500  0.87500000  0.87800500  1
  V  V17  1  0.87199500  0.12500000  0.37800500  1
  V  V18  1  0.87500000  0.87800500  0.62800500  1
  V  V19  1  0.87800500  0.62800500  0.87500000  1
  W  W20  1  0.12500000  0.87500000  0.37500000  1
  W  W21  1  0.37500000  0.12500000  0.87500000  1
  W  W22  1  0.62500000  0.62500000  0.62500000  1
  W  W23  1  0.87500000  0.37500000  0.12500000  1
  O  O24  1  0.11120850  0.10724650  0.37926250  1
  O  O25  1  0.12073750  0.88879150  0.60724650  1
  O  O26  1  0.11354117  0.61354117  0.88645883  1
  O  O27  1  0.14275350  0.13879150  0.87073750  1
  O  O28  1  0.10724650  0.37926250  0.11120850  1
  O  O29  1  0.13645883  0.36354117  0.63645883  1
  O  O30  1  0.12926250  0.64275350  0.36120850  1
  O  O31  1  0.13879150  0.87073750  0.14275350  1
  O  O32  1  0.36120850  0.12926250  0.64275350  1
  O  O33  1  0.37073750  0.35724650  0.86120850  1
  O  O34  1  0.36354117  0.63645883  0.13645883  1
  O  O35  1  0.39275350  0.62073750  0.61120850  1
  O  O36  1  0.35724650  0.86120850  0.37073750  1
  O  O37  1  0.38645883  0.38645883  0.38645883  1
  O  O38  1  0.37926250  0.11120850  0.10724650  1
  O  O39  1  0.38879150  0.89275350  0.87926250  1
  O  O40  1  0.61120850  0.39275350  0.62073750  1
  O  O41  1  0.62073750  0.61120850  0.39275350  1
  O  O42  1  0.61354117  0.88645883  0.11354117  1
  O  O43  1  0.64275350  0.36120850  0.12926250  1
  O  O44  1  0.60724650  0.12073750  0.88879150  1
  O  O45  1  0.63645883  0.13645883  0.36354117  1
  O  O46  1  0.62926250  0.85724650  0.63879150  1
  O  O47  1  0.63879150  0.62926250  0.85724650  1
  O  O48  1  0.86120850  0.37073750  0.35724650  1
  O  O49  1  0.87073750  0.14275350  0.13879150  1
  O  O50  1  0.86354117  0.86354117  0.86354117  1
  O  O51  1  0.89275350  0.87926250  0.38879150  1
  O  O52  1  0.85724650  0.63879150  0.62926250  1
  O  O53  1  0.88645883  0.11354117  0.61354117  1
  O  O54  1  0.87926250  0.38879150  0.89275350  1
  O  O55  1  0.88879150  0.60724650  0.12073750  1
