# generated using pymatgen
data_VOF3
_symmetry_space_group_name_H-M   'P 1'
_cell_length_a   9.62990800
_cell_length_b   5.90299400
_cell_length_c   4.96826435
_cell_angle_alpha   90.00000000
_cell_angle_beta   91.79735831
_cell_angle_gamma   90.00000000
_symmetry_Int_Tables_number   1
_chemical_formula_structural   VOF3
_chemical_formula_sum   'V4 O4 F12'
_cell_volume   282.28347374
_cell_formula_units_Z   4
loop_
 _symmetry_equiv_pos_site_id
 _symmetry_equiv_pos_as_xyz
  1  'x, y, z'
loop_
 _atom_site_type_symbol
 _atom_site_label
 _atom_site_symmetry_multiplicity
 _atom_site_fract_x
 _atom_site_fract_y
 _atom_site_fract_z
 _atom_site_occupancy
  V  V0  1  0.50000000  0.16884200  0.50000000  1
  V  V1  1  0.50000000  0.86319200  0.00000000  1
  V  V2  1  0.00000000  0.66884200  0.50000000  1
  V  V3  1  0.00000000  0.36319200  0.00000000  1
  O  O4  1  0.40982500  0.08399900  0.79327800  1
  O  O5  1  0.59017500  0.08399900  0.20672200  1
  O  O6  1  0.90982500  0.58399900  0.79327800  1
  O  O7  1  0.09017500  0.58399900  0.20672200  1
  F  F8  1  0.62107100  0.36012600  0.63290000  1
  F  F9  1  0.38531050  0.89536550  0.31003700  1
  F  F10  1  0.37742250  0.65481950  0.89712700  1
  F  F11  1  0.61468950  0.89536550  0.68996300  1
  F  F12  1  0.62257750  0.65481950  0.10287300  1
  F  F13  1  0.37892900  0.36012600  0.36710000  1
  F  F14  1  0.12107100  0.86012600  0.63290000  1
  F  F15  1  0.88531050  0.39536550  0.31003700  1
  F  F16  1  0.87742250  0.15481950  0.89712700  1
  F  F17  1  0.11468950  0.39536550  0.68996300  1
  F  F18  1  0.12257750  0.15481950  0.10287300  1
  F  F19  1  0.87892900  0.86012600  0.36710000  1
