# generated using pymatgen
data_Li4MnO3F
_symmetry_space_group_name_H-M   'P 1'
_cell_length_a   7.06340900
_cell_length_b   8.24551100
_cell_length_c   6.45981100
_cell_angle_alpha   90.00000000
_cell_angle_beta   90.00000000
_cell_angle_gamma   90.00000000
_symmetry_Int_Tables_number   1
_chemical_formula_structural   Li4MnO3F
_chemical_formula_sum   'Li16 Mn4 O12 F4'
_cell_volume   376.22854370
_cell_formula_units_Z   4
loop_
 _symmetry_equiv_pos_site_id
 _symmetry_equiv_pos_as_xyz
  1  'x, y, z'
loop_
 _atom_site_type_symbol
 _atom_site_label
 _atom_site_symmetry_multiplicity
 _atom_site_fract_x
 _atom_site_fract_y
 _atom_site_fract_z
 _atom_site_occupancy
  Li  Li0  1  0.50819425  0.16111250  0.49737700  1
  Li  Li1  1  0.49180575  0.16111250  0.99737700  1
  Li  Li2  1  0.49180575  0.83888750  0.99737700  1
  Li  Li3  1  0.50819425  0.83888750  0.49737700  1
  Li  Li4  1  0.72752675  0.34674650  0.23953750  1
  Li  Li5  1  0.27247325  0.34674650  0.73953750  1
  Li  Li6  1  0.72752675  0.65325350  0.23953750  1
  Li  Li7  1  0.27247325  0.65325350  0.73953750  1
  Li  Li8  1  0.00819425  0.66111250  0.49737700  1
  Li  Li9  1  0.99180575  0.66111250  0.99737700  1
  Li  Li10  1  0.99180575  0.33888750  0.99737700  1
  Li  Li11  1  0.00819425  0.33888750  0.49737700  1
  Li  Li12  1  0.22752675  0.84674650  0.23953750  1
  Li  Li13  1  0.77247325  0.84674650  0.73953750  1
  Li  Li14  1  0.22752675  0.15325350  0.23953750  1
  Li  Li15  1  0.77247325  0.15325350  0.73953750  1
  Mn  Mn16  1  0.36792125  0.50000000  0.27863550  1
  Mn  Mn17  1  0.63207875  0.50000000  0.77863550  1
  Mn  Mn18  1  0.86792125  0.00000000  0.27863550  1
  Mn  Mn19  1  0.13207875  0.00000000  0.77863550  1
  O  O20  1  0.78354475  0.50000000  0.01270850  1
  O  O21  1  0.21645525  0.50000000  0.51270850  1
  O  O22  1  0.54456275  0.28581150  0.75215800  1
  O  O23  1  0.45543725  0.28581150  0.25215800  1
  O  O24  1  0.45543725  0.71418850  0.25215800  1
  O  O25  1  0.54456275  0.71418850  0.75215800  1
  O  O26  1  0.28354475  0.00000000  0.01270850  1
  O  O27  1  0.71645525  0.00000000  0.51270850  1
  O  O28  1  0.04456275  0.78581150  0.75215800  1
  O  O29  1  0.95543725  0.78581150  0.25215800  1
  O  O30  1  0.95543725  0.21418850  0.25215800  1
  O  O31  1  0.04456275  0.21418850  0.75215800  1
  F  F32  1  0.20998175  0.50000000  0.98052500  1
  F  F33  1  0.79001825  0.50000000  0.48052500  1
  F  F34  1  0.70998175  0.00000000  0.98052500  1
  F  F35  1  0.29001825  0.00000000  0.48052500  1
