# generated using pymatgen
data_Fe4O7F
_symmetry_space_group_name_H-M   'P 1'
_cell_length_a   13.68899000
_cell_length_b   6.42923600
_cell_length_c   6.65326975
_cell_angle_alpha   90.00000000
_cell_angle_beta   118.76873296
_cell_angle_gamma   90.00000000
_symmetry_Int_Tables_number   1
_chemical_formula_structural   Fe4O7F
_chemical_formula_sum   'Fe16 O28 F4'
_cell_volume   513.27751084
_cell_formula_units_Z   4
loop_
 _symmetry_equiv_pos_site_id
 _symmetry_equiv_pos_as_xyz
  1  'x, y, z'
loop_
 _atom_site_type_symbol
 _atom_site_label
 _atom_site_symmetry_multiplicity
 _atom_site_fract_x
 _atom_site_fract_y
 _atom_site_fract_z
 _atom_site_occupancy
  Fe  Fe0  1  0.24383100  0.00000000  0.23674100  1
  Fe  Fe1  1  0.25616900  0.50000000  0.76325900  1
  Fe  Fe2  1  0.00000000  0.00000000  0.00000000  1
  Fe  Fe3  1  0.37571100  0.50000000  0.37758400  1
  Fe  Fe4  1  0.37477300  0.00000000  0.89930700  1
  Fe  Fe5  1  0.12428900  0.00000000  0.62241600  1
  Fe  Fe6  1  0.12522700  0.50000000  0.10069300  1
  Fe  Fe7  1  0.00000000  0.50000000  0.50000000  1
  Fe  Fe8  1  0.74383100  0.50000000  0.23674100  1
  Fe  Fe9  1  0.75616900  0.00000000  0.76325900  1
  Fe  Fe10  1  0.50000000  0.50000000  0.00000000  1
  Fe  Fe11  1  0.87571100  0.00000000  0.37758400  1
  Fe  Fe12  1  0.87477300  0.50000000  0.89930700  1
  Fe  Fe13  1  0.62428900  0.50000000  0.62241600  1
  Fe  Fe14  1  0.62522700  0.00000000  0.10069300  1
  Fe  Fe15  1  0.50000000  0.00000000  0.50000000  1
  O  O16  1  0.24944000  0.69251200  0.24592500  1
  O  O17  1  0.25056000  0.80748800  0.75407500  1
  O  O18  1  0.24944000  0.30748800  0.24592500  1
  O  O19  1  0.37775300  0.50000000  0.68849900  1
  O  O20  1  0.38227000  0.50000000  0.07679700  1
  O  O21  1  0.12224700  0.00000000  0.31150100  1
  O  O22  1  0.00000000  0.19726600  0.50000000  1
  O  O23  1  0.00000000  0.68765900  0.00000000  1
  O  O24  1  0.25056000  0.19251200  0.75407500  1
  O  O25  1  0.00000000  0.80273400  0.50000000  1
  O  O26  1  0.00000000  0.31234100  0.00000000  1
  O  O27  1  0.11773000  0.00000000  0.92320300  1
  O  O28  1  0.37491400  0.00000000  0.19535700  1
  O  O29  1  0.12508600  0.50000000  0.80464300  1
  O  O30  1  0.74944000  0.19251200  0.24592500  1
  O  O31  1  0.75056000  0.30748800  0.75407500  1
  O  O32  1  0.74944000  0.80748800  0.24592500  1
  O  O33  1  0.87775300  0.00000000  0.68849900  1
  O  O34  1  0.88227000  0.00000000  0.07679700  1
  O  O35  1  0.62224700  0.50000000  0.31150100  1
  O  O36  1  0.50000000  0.69726600  0.50000000  1
  O  O37  1  0.50000000  0.18765900  0.00000000  1
  O  O38  1  0.75056000  0.69251200  0.75407500  1
  O  O39  1  0.50000000  0.30273400  0.50000000  1
  O  O40  1  0.50000000  0.81234100  0.00000000  1
  O  O41  1  0.61773000  0.50000000  0.92320300  1
  O  O42  1  0.87491400  0.50000000  0.19535700  1
  O  O43  1  0.62508600  0.00000000  0.80464300  1
  F  F44  1  0.37183300  0.00000000  0.57577100  1
  F  F45  1  0.12816700  0.50000000  0.42422900  1
  F  F46  1  0.87183300  0.50000000  0.57577100  1
  F  F47  1  0.62816700  0.00000000  0.42422900  1
