# generated using pymatgen
data_MnV5O12
_symmetry_space_group_name_H-M   'P 1'
_cell_length_a   10.21553400
_cell_length_b   9.26108600
_cell_length_c   5.88416772
_cell_angle_alpha   90.00000000
_cell_angle_beta   110.55820602
_cell_angle_gamma   90.00000000
_symmetry_Int_Tables_number   1
_chemical_formula_structural   MnV5O12
_chemical_formula_sum   'Mn2 V10 O24'
_cell_volume   521.23125351
_cell_formula_units_Z   2
loop_
 _symmetry_equiv_pos_site_id
 _symmetry_equiv_pos_as_xyz
  1  'x, y, z'
loop_
 _atom_site_type_symbol
 _atom_site_label
 _atom_site_symmetry_multiplicity
 _atom_site_fract_x
 _atom_site_fract_y
 _atom_site_fract_z
 _atom_site_occupancy
  Mn  Mn0  1  0.00000000  0.91187000  0.00000000  1
  Mn  Mn1  1  0.50000000  0.41187000  0.00000000  1
  V  V2  1  0.00000000  0.08568700  0.50000000  1
  V  V3  1  0.20037150  0.40921950  0.48202000  1
  V  V4  1  0.20258550  0.59071150  0.98836600  1
  V  V5  1  0.79962850  0.40921950  0.51798000  1
  V  V6  1  0.79741450  0.59071150  0.01163400  1
  V  V7  1  0.50000000  0.58568700  0.50000000  1
  V  V8  1  0.70037150  0.90921950  0.48202000  1
  V  V9  1  0.70258550  0.09071150  0.98836600  1
  V  V10  1  0.29962850  0.90921950  0.51798000  1
  V  V11  1  0.29741450  0.09071150  0.01163400  1
  O  O12  1  0.38168550  0.42063250  0.59634500  1
  O  O13  1  0.13995550  0.23817750  0.46349200  1
  O  O14  1  0.38335450  0.57667450  0.12009500  1
  O  O15  1  0.14344700  0.50556800  0.69584100  1
  O  O16  1  0.86004450  0.23817750  0.53650800  1
  O  O17  1  0.13505750  0.49686350  0.19059000  1
  O  O18  1  0.85655300  0.50556800  0.30415900  1
  O  O19  1  0.14944700  0.76337400  0.96286600  1
  O  O20  1  0.86494250  0.49686350  0.80941000  1
  O  O21  1  0.61831450  0.42063250  0.40365500  1
  O  O22  1  0.85055300  0.76337400  0.03713400  1
  O  O23  1  0.61664550  0.57667450  0.87990500  1
  O  O24  1  0.88168550  0.92063250  0.59634500  1
  O  O25  1  0.63995550  0.73817750  0.46349200  1
  O  O26  1  0.88335450  0.07667450  0.12009500  1
  O  O27  1  0.64344700  0.00556800  0.69584100  1
  O  O28  1  0.36004450  0.73817750  0.53650800  1
  O  O29  1  0.63505750  0.99686350  0.19059000  1
  O  O30  1  0.35655300  0.00556800  0.30415900  1
  O  O31  1  0.64944700  0.26337400  0.96286600  1
  O  O32  1  0.36494250  0.99686350  0.80941000  1
  O  O33  1  0.11831450  0.92063250  0.40365500  1
  O  O34  1  0.35055300  0.26337400  0.03713400  1
  O  O35  1  0.11664550  0.07667450  0.87990500  1
