# generated using pymatgen
data_Co6O5F7
_symmetry_space_group_name_H-M   'P 1'
_cell_length_a   8.71049200
_cell_length_b   6.82797200
_cell_length_c   6.94481470
_cell_angle_alpha   90.00000000
_cell_angle_beta   110.40512931
_cell_angle_gamma   90.00000000
_symmetry_Int_Tables_number   1
_chemical_formula_structural   Co6O5F7
_chemical_formula_sum   'Co12 O10 F14'
_cell_volume   387.12470827
_cell_formula_units_Z   2
loop_
 _symmetry_equiv_pos_site_id
 _symmetry_equiv_pos_as_xyz
  1  'x, y, z'
loop_
 _atom_site_type_symbol
 _atom_site_label
 _atom_site_symmetry_multiplicity
 _atom_site_fract_x
 _atom_site_fract_y
 _atom_site_fract_z
 _atom_site_occupancy
  Co  Co0  1  0.00000000  0.66581000  0.00000000  1
  Co  Co1  1  0.00000000  0.70331800  0.50000000  1
  Co  Co2  1  0.33098900  0.66120900  0.84431700  1
  Co  Co3  1  0.85093600  0.15937500  0.33231600  1
  Co  Co4  1  0.14906400  0.15937500  0.66768400  1
  Co  Co5  1  0.66901100  0.66120900  0.15568300  1
  Co  Co6  1  0.50000000  0.16581000  0.00000000  1
  Co  Co7  1  0.50000000  0.20331800  0.50000000  1
  Co  Co8  1  0.83098900  0.16120900  0.84431700  1
  Co  Co9  1  0.35093600  0.65937500  0.33231600  1
  Co  Co10  1  0.64906400  0.65937500  0.66768400  1
  Co  Co11  1  0.16901100  0.16120900  0.15568300  1
  O  O12  1  0.10080050  0.67230750  0.80447300  1
  O  O13  1  0.94166150  0.16028350  0.13291900  1
  O  O14  1  0.89919950  0.67230750  0.19552700  1
  O  O15  1  0.05833850  0.16028350  0.86708100  1
  O  O16  1  0.00000000  0.98626200  0.50000000  1
  O  O17  1  0.60080050  0.17230750  0.80447300  1
  O  O18  1  0.44166150  0.66028350  0.13291900  1
  O  O19  1  0.39919950  0.17230750  0.19552700  1
  O  O20  1  0.55833850  0.66028350  0.86708100  1
  O  O21  1  0.50000000  0.48626200  0.50000000  1
  F  F22  1  0.00000000  0.35757500  0.50000000  1
  F  F23  1  0.31718650  0.35056850  0.81978600  1
  F  F24  1  0.75637500  0.66451500  0.46394200  1
  F  F25  1  0.24362500  0.66451500  0.53605800  1
  F  F26  1  0.81977850  0.47525850  0.82251500  1
  F  F27  1  0.18022150  0.47525850  0.17748500  1
  F  F28  1  0.68281350  0.35056850  0.18021400  1
  F  F29  1  0.50000000  0.85757500  0.50000000  1
  F  F30  1  0.81718650  0.85056850  0.81978600  1
  F  F31  1  0.25637500  0.16451500  0.46394200  1
  F  F32  1  0.74362500  0.16451500  0.53605800  1
  F  F33  1  0.31977850  0.97525850  0.82251500  1
  F  F34  1  0.68022150  0.97525850  0.17748500  1
  F  F35  1  0.18281350  0.85056850  0.18021400  1
