# generated using pymatgen
data_Li7FeCo3(PO4)6
_symmetry_space_group_name_H-M   'P 1'
_cell_length_a   8.81693413
_cell_length_b   8.81693413
_cell_length_c   21.56939444
_cell_angle_alpha   90.00000000
_cell_angle_beta   90.00000000
_cell_angle_gamma   120.00000000
_symmetry_Int_Tables_number   1
_chemical_formula_structural   Li7FeCo3(PO4)6
_chemical_formula_sum   'Li21 Fe3 Co9 P18 O72'
_cell_volume   1452.12424458
_cell_formula_units_Z   3
loop_
 _symmetry_equiv_pos_site_id
 _symmetry_equiv_pos_as_xyz
  1  'x, y, z'
loop_
 _atom_site_type_symbol
 _atom_site_label
 _atom_site_symmetry_multiplicity
 _atom_site_fract_x
 _atom_site_fract_y
 _atom_site_fract_z
 _atom_site_occupancy
  Li  Li0  1  0.05706833  0.77539967  0.05338067  1
  Li  Li1  1  0.33333333  0.66666667  0.14260167  1
  Li  Li2  1  0.22460033  0.28166867  0.05338067  1
  Li  Li3  1  0.71833133  0.94293167  0.05338067  1
  Li  Li4  1  0.02778300  0.42673900  0.26636200  1
  Li  Li5  1  0.39895600  0.97221700  0.26636200  1
  Li  Li6  1  0.57326100  0.60104400  0.26636200  1
  Li  Li7  1  0.72373500  0.10873300  0.38671400  1
  Li  Li8  1  0.00000000  0.00000000  0.47593500  1
  Li  Li9  1  0.89126700  0.61500200  0.38671400  1
  Li  Li10  1  0.38499800  0.27626500  0.38671400  1
  Li  Li11  1  0.69444967  0.76007233  0.59969533  1
  Li  Li12  1  0.06562267  0.30555033  0.59969533  1
  Li  Li13  1  0.23992767  0.93437733  0.59969533  1
  Li  Li14  1  0.39040167  0.44206633  0.72004733  1
  Li  Li15  1  0.66666667  0.33333333  0.80926833  1
  Li  Li16  1  0.55793367  0.94833533  0.72004733  1
  Li  Li17  1  0.05166467  0.60959833  0.72004733  1
  Li  Li18  1  0.36111633  0.09340567  0.93302867  1
  Li  Li19  1  0.73228933  0.63888367  0.93302867  1
  Li  Li20  1  0.90659433  0.26771067  0.93302867  1
  Fe  Fe21  1  0.33333333  0.66666667  0.52126167  1
  Fe  Fe22  1  0.00000000  0.00000000  0.85459500  1
  Fe  Fe23  1  0.66666667  0.33333333  0.18792833  1
  Co  Co24  1  0.33333333  0.66666667  0.01762467  1
  Co  Co25  1  0.33333333  0.66666667  0.81522967  1
  Co  Co26  1  0.33333333  0.66666667  0.31750267  1
  Co  Co27  1  0.00000000  0.00000000  0.35095800  1
  Co  Co28  1  0.00000000  0.00000000  0.14856300  1
  Co  Co29  1  0.00000000  0.00000000  0.65083600  1
  Co  Co30  1  0.66666667  0.33333333  0.68429133  1
  Co  Co31  1  0.66666667  0.33333333  0.48189633  1
  Co  Co32  1  0.66666667  0.33333333  0.98416933  1
  P  P33  1  0.66780367  0.62722433  0.08413333  1
  P  P34  1  0.95942067  0.33219633  0.08413333  1
  P  P35  1  0.37277567  0.04057933  0.08413333  1
  P  P36  1  0.29042133  0.29097267  0.24952167  1
  P  P37  1  0.70902733  0.99944867  0.24952167  1
  P  P38  1  0.00055133  0.70957867  0.24952167  1
  P  P39  1  0.33447033  0.96055767  0.41746667  1
  P  P40  1  0.62608733  0.66552967  0.41746667  1
  P  P41  1  0.03944233  0.37391267  0.41746667  1
  P  P42  1  0.95708800  0.62430600  0.58285500  1
  P  P43  1  0.37569400  0.33278200  0.58285500  1
  P  P44  1  0.66721800  0.04291200  0.58285500  1
  P  P45  1  0.00113700  0.29389100  0.75080000  1
  P  P46  1  0.29275400  0.99886300  0.75080000  1
  P  P47  1  0.70610900  0.70724600  0.75080000  1
  P  P48  1  0.62375467  0.95763933  0.91618833  1
  P  P49  1  0.04236067  0.66611533  0.91618833  1
  P  P50  1  0.33388467  0.37624533  0.91618833  1
  O  O51  1  0.83748933  0.81009767  0.08498667  1
  O  O52  1  0.35419600  0.87894800  0.35595000  1
  O  O53  1  0.50979400  0.65994100  0.08194300  1
  O  O54  1  0.52475200  0.64580400  0.35595000  1
  O  O55  1  0.15014700  0.49020600  0.08194300  1
  O  O56  1  0.12105200  0.47524800  0.35595000  1
  O  O57  1  0.64533933  0.51365867  0.14046167  1
  O  O58  1  0.97260833  0.16251067  0.08498667  1
  O  O59  1  0.86831933  0.35466067  0.14046167  1
  O  O60  1  0.18990233  0.02739167  0.08498667  1
  O  O61  1  0.34005900  0.84985300  0.08194300  1
  O  O62  1  0.48634133  0.13168067  0.14046167  1
  O  O63  1  0.29785500  0.47145600  0.25323700  1
  O  O64  1  0.18335633  0.19792767  0.19232567  1
  O  O65  1  0.48244133  0.32977267  0.24729467  1
  O  O66  1  0.80207233  0.98542867  0.19232567  1
  O  O67  1  0.67022733  0.15266867  0.24729467  1
  O  O68  1  0.01457133  0.81664367  0.19232567  1
  O  O69  1  0.54875100  0.85177700  0.97748300  1
  O  O70  1  0.52854400  0.82639900  0.25323700  1
  O  O71  1  0.14822300  0.69697400  0.97748300  1
  O  O72  1  0.17360100  0.70214500  0.25323700  1
  O  O73  1  0.30302600  0.45124900  0.97748300  1
  O  O74  1  0.84733133  0.51755867  0.24729467  1
  O  O75  1  0.50415600  0.14343100  0.41832000  1
  O  O76  1  0.02086267  0.21228133  0.68928333  1
  O  O77  1  0.17646067  0.99327433  0.41527633  1
  O  O78  1  0.19141867  0.97913733  0.68928333  1
  O  O79  1  0.81681367  0.82353933  0.41527633  1
  O  O80  1  0.78771867  0.80858133  0.68928333  1
  O  O81  1  0.31200600  0.84699200  0.47379500  1
  O  O82  1  0.63927500  0.49584400  0.41832000  1
  O  O83  1  0.53498600  0.68799400  0.47379500  1
  O  O84  1  0.85656900  0.36072500  0.41832000  1
  O  O85  1  0.00672567  0.18318633  0.41527633  1
  O  O86  1  0.15300800  0.46501400  0.47379500  1
  O  O87  1  0.96452167  0.80478933  0.58657033  1
  O  O88  1  0.85002300  0.53126100  0.52565900  1
  O  O89  1  0.14910800  0.66310600  0.58062800  1
  O  O90  1  0.46873900  0.31876200  0.52565900  1
  O  O91  1  0.33689400  0.48600200  0.58062800  1
  O  O92  1  0.68123800  0.14997700  0.52565900  1
  O  O93  1  0.21541767  0.18511033  0.31081633  1
  O  O94  1  0.19521067  0.15973233  0.58657033  1
  O  O95  1  0.81488967  0.03030733  0.31081633  1
  O  O96  1  0.84026767  0.03547833  0.58657033  1
  O  O97  1  0.96969267  0.78458233  0.31081633  1
  O  O98  1  0.51399800  0.85089200  0.58062800  1
  O  O99  1  0.17082267  0.47676433  0.75165333  1
  O  O100  1  0.68752933  0.54561467  0.02261667  1
  O  O101  1  0.84312733  0.32660767  0.74860967  1
  O  O102  1  0.85808533  0.31247067  0.02261667  1
  O  O103  1  0.48348033  0.15687267  0.74860967  1
  O  O104  1  0.45438533  0.14191467  0.02261667  1
  O  O105  1  0.97867267  0.18032533  0.80712833  1
  O  O106  1  0.30594167  0.82917733  0.75165333  1
  O  O107  1  0.20165267  0.02132733  0.80712833  1
  O  O108  1  0.52323567  0.69405833  0.75165333  1
  O  O109  1  0.67339233  0.51651967  0.74860967  1
  O  O110  1  0.81967467  0.79834733  0.80712833  1
  O  O111  1  0.63118833  0.13812267  0.91990367  1
  O  O112  1  0.51668967  0.86459433  0.85899233  1
  O  O113  1  0.81577467  0.99643933  0.91396133  1
  O  O114  1  0.13540567  0.65209533  0.85899233  1
  O  O115  1  0.00356067  0.81933533  0.91396133  1
  O  O116  1  0.34790467  0.48331033  0.85899233  1
  O  O117  1  0.88208433  0.51844367  0.64414967  1
  O  O118  1  0.86187733  0.49306567  0.91990367  1
  O  O119  1  0.48155633  0.36364067  0.64414967  1
  O  O120  1  0.50693433  0.36881167  0.91990367  1
  O  O121  1  0.63635933  0.11791567  0.64414967  1
  O  O122  1  0.18066467  0.18422533  0.91396133  1
