# generated using pymatgen
data_Li4AlCr3O8
_symmetry_space_group_name_H-M   'P 1'
_cell_length_a   5.10927620
_cell_length_b   5.86610650
_cell_length_c   10.57097273
_cell_angle_alpha   106.07405366
_cell_angle_beta   94.57648903
_cell_angle_gamma   106.66712637
_symmetry_Int_Tables_number   1
_chemical_formula_structural   Li4AlCr3O8
_chemical_formula_sum   'Li8 Al2 Cr6 O16'
_cell_volume   287.25677739
_cell_formula_units_Z   2
loop_
 _symmetry_equiv_pos_site_id
 _symmetry_equiv_pos_as_xyz
  1  'x, y, z'
loop_
 _atom_site_type_symbol
 _atom_site_label
 _atom_site_symmetry_multiplicity
 _atom_site_fract_x
 _atom_site_fract_y
 _atom_site_fract_z
 _atom_site_occupancy
  Li  Li0  1  0.49999377  0.74979838  0.00021348  1
  Li  Li1  1  0.49969629  0.12614688  0.74893735  1
  Li  Li2  1  0.50060244  0.37529466  0.25115339  1
  Li  Li3  1  0.50000000  0.00000000  0.50000000  1
  Li  Li4  1  0.50000623  0.25020162  0.99978652  1
  Li  Li5  1  0.49939756  0.62470534  0.74884661  1
  Li  Li6  1  0.50030371  0.87385312  0.25106265  1
  Li  Li7  1  0.50000000  0.50000000  0.50000000  1
  Al  Al8  1  0.00024619  0.68548652  0.37680066  1
  Al  Al9  1  0.99975381  0.31451348  0.62319934  1
  Cr  Cr10  1  0.99988355  0.93978933  0.87286813  1
  Cr  Cr11  1  0.99981913  0.56284123  0.12640627  1
  Cr  Cr12  1  0.99967618  0.18794476  0.37673465  1
  Cr  Cr13  1  0.00018087  0.43715877  0.87359373  1
  Cr  Cr14  1  0.00032382  0.81205524  0.62326535  1
  Cr  Cr15  1  0.00011645  0.06021067  0.12713187  1
  O  O16  1  0.78304424  0.35775541  0.44329628  1
  O  O17  1  0.22025168  0.53234730  0.31386149  1
  O  O18  1  0.77289323  0.59910802  0.93891735  1
  O  O19  1  0.22736478  0.77684284  0.80950151  1
  O  O20  1  0.22014730  0.15764921  0.56326253  1
  O  O21  1  0.77809619  0.98598674  0.68481436  1
  O  O22  1  0.77263522  0.22315716  0.19049849  1
  O  O23  1  0.22710677  0.40089198  0.06108265  1
  O  O24  1  0.77985269  0.84235079  0.43673747  1
  O  O25  1  0.22190381  0.01401326  0.31518564  1
  O  O26  1  0.77282066  0.09802005  0.93993857  1
  O  O27  1  0.22153486  0.27994023  0.80229099  1
  O  O28  1  0.77974831  0.46765270  0.68613851  1
  O  O29  1  0.77846513  0.72005977  0.19770901  1
  O  O30  1  0.21695576  0.64224459  0.55670372  1
  O  O31  1  0.22717933  0.90197995  0.06006143  1
