# generated using pymatgen
data_Li3Nb4O12
_symmetry_space_group_name_H-M   'P 1'
_cell_length_a   5.28266587
_cell_length_b   5.28266587
_cell_length_c   28.10482534
_cell_angle_alpha   90.00000000
_cell_angle_beta   90.00000000
_cell_angle_gamma   120.00000000
_symmetry_Int_Tables_number   1
_chemical_formula_structural   Li3Nb4O12
_chemical_formula_sum   'Li9 Nb12 O36'
_cell_volume   679.23148263
_cell_formula_units_Z   3
loop_
 _symmetry_equiv_pos_site_id
 _symmetry_equiv_pos_as_xyz
  1  'x, y, z'
loop_
 _atom_site_type_symbol
 _atom_site_label
 _atom_site_symmetry_multiplicity
 _atom_site_fract_x
 _atom_site_fract_y
 _atom_site_fract_z
 _atom_site_occupancy
  Li  Li0  1  0.00000000  0.00000000  0.14108800  1
  Li  Li1  1  0.66666667  0.33333333  0.22451133  1
  Li  Li2  1  0.33333333  0.66666667  0.02794567  1
  Li  Li3  1  0.66666667  0.33333333  0.47442133  1
  Li  Li4  1  0.33333333  0.66666667  0.55784467  1
  Li  Li5  1  0.00000000  0.00000000  0.36127900  1
  Li  Li6  1  0.33333333  0.66666667  0.80775467  1
  Li  Li7  1  0.00000000  0.00000000  0.89117800  1
  Li  Li8  1  0.66666667  0.33333333  0.69461233  1
  Nb  Nb9  1  0.00000000  0.00000000  0.00781800  1
  Nb  Nb10  1  0.33333333  0.66666667  0.16991767  1
  Nb  Nb11  1  0.66666667  0.33333333  0.08831133  1
  Nb  Nb12  1  0.00000000  0.00000000  0.25188000  1
  Nb  Nb13  1  0.66666667  0.33333333  0.34115133  1
  Nb  Nb14  1  0.00000000  0.00000000  0.50325100  1
  Nb  Nb15  1  0.33333333  0.66666667  0.42164467  1
  Nb  Nb16  1  0.66666667  0.33333333  0.58521333  1
  Nb  Nb17  1  0.33333333  0.66666667  0.67448467  1
  Nb  Nb18  1  0.66666667  0.33333333  0.83658433  1
  Nb  Nb19  1  0.00000000  0.00000000  0.75497800  1
  Nb  Nb20  1  0.33333333  0.66666667  0.91854667  1
  O  O21  1  0.67193633  0.71444267  0.20472467  1
  O  O22  1  0.95912700  0.29332300  0.04124900  1
  O  O23  1  0.70667700  0.66580400  0.04124900  1
  O  O24  1  0.33419600  0.04087300  0.04124900  1
  O  O25  1  0.62029667  0.00021033  0.12378233  1
  O  O26  1  0.37991367  0.37970333  0.12378233  1
  O  O27  1  0.28555733  0.95749367  0.20472467  1
  O  O28  1  0.04250633  0.32806367  0.20472467  1
  O  O29  1  0.33817400  0.24375500  0.28997000  1
  O  O30  1  0.90558100  0.66182600  0.28997000  1
  O  O31  1  0.75624500  0.09441900  0.28997000  1
  O  O32  1  0.99978967  0.62008633  0.12378233  1
  O  O33  1  0.33860300  0.04777600  0.53805800  1
  O  O34  1  0.62579367  0.62665633  0.37458233  1
  O  O35  1  0.37334367  0.99913733  0.37458233  1
  O  O36  1  0.00086267  0.37420633  0.37458233  1
  O  O37  1  0.28696333  0.33354367  0.45711567  1
  O  O38  1  0.04658033  0.71303667  0.45711567  1
  O  O39  1  0.95222400  0.29082700  0.53805800  1
  O  O40  1  0.70917300  0.66139700  0.53805800  1
  O  O41  1  0.00484067  0.57708833  0.62330333  1
  O  O42  1  0.57224767  0.99515933  0.62330333  1
  O  O43  1  0.42291167  0.42775233  0.62330333  1
  O  O44  1  0.66645633  0.95341967  0.45711567  1
  O  O45  1  0.00526967  0.38110933  0.87139133  1
  O  O46  1  0.29246033  0.95998967  0.70791567  1
  O  O47  1  0.04001033  0.33247067  0.70791567  1
  O  O48  1  0.66752933  0.70753967  0.70791567  1
  O  O49  1  0.95363000  0.66687700  0.79044900  1
  O  O50  1  0.71324700  0.04637000  0.79044900  1
  O  O51  1  0.61889067  0.62416033  0.87139133  1
  O  O52  1  0.37583967  0.99473033  0.87139133  1
  O  O53  1  0.67150733  0.91042167  0.95663667  1
  O  O54  1  0.23891433  0.32849267  0.95663667  1
  O  O55  1  0.08957833  0.76108567  0.95663667  1
  O  O56  1  0.33312300  0.28675300  0.79044900  1
