# generated using pymatgen
data_Li7Mn3(WO8)2
_symmetry_space_group_name_H-M   'P 1'
_cell_length_a   10.25843000
_cell_length_b   5.86206200
_cell_length_c   9.65178665
_cell_angle_alpha   90.00000000
_cell_angle_beta   90.19103008
_cell_angle_gamma   90.00000000
_symmetry_Int_Tables_number   1
_chemical_formula_structural   Li7Mn3(WO8)2
_chemical_formula_sum   'Li14 Mn6 W4 O32'
_cell_volume   580.41229830
_cell_formula_units_Z   2
loop_
 _symmetry_equiv_pos_site_id
 _symmetry_equiv_pos_as_xyz
  1  'x, y, z'
loop_
 _atom_site_type_symbol
 _atom_site_label
 _atom_site_symmetry_multiplicity
 _atom_site_fract_x
 _atom_site_fract_y
 _atom_site_fract_z
 _atom_site_occupancy
  Li  Li0  1  0.58088500  0.75414700  0.79252100  1
  Li  Li1  1  0.67390300  0.00000000  0.09684700  1
  Li  Li2  1  0.99304600  0.00000000  0.00231500  1
  Li  Li3  1  0.99821900  0.00000000  0.51584000  1
  Li  Li4  1  0.58088500  0.24585300  0.79252100  1
  Li  Li5  1  0.67062600  0.50000000  0.28483000  1
  Li  Li6  1  0.83379100  0.50000000  0.59158900  1
  Li  Li7  1  0.08088500  0.25414700  0.79252100  1
  Li  Li8  1  0.17390300  0.50000000  0.09684700  1
  Li  Li9  1  0.49304600  0.50000000  0.00231500  1
  Li  Li10  1  0.49821900  0.50000000  0.51584000  1
  Li  Li11  1  0.08088500  0.74585300  0.79252100  1
  Li  Li12  1  0.17062600  0.00000000  0.28483000  1
  Li  Li13  1  0.33379100  0.00000000  0.59158900  1
  Mn  Mn14  1  0.82114100  0.00000000  0.76714300  1
  Mn  Mn15  1  0.91171350  0.25161950  0.28339800  1
  Mn  Mn16  1  0.91171350  0.74838050  0.28339800  1
  Mn  Mn17  1  0.32114100  0.50000000  0.76714300  1
  Mn  Mn18  1  0.41171350  0.75161950  0.28339800  1
  Mn  Mn19  1  0.41171350  0.24838050  0.28339800  1
  W  W20  1  0.64683900  0.00000000  0.51504100  1
  W  W21  1  0.82859100  0.50000000  0.00762300  1
  W  W22  1  0.14683900  0.50000000  0.51504100  1
  W  W23  1  0.32859100  0.00000000  0.00762300  1
  O  O24  1  0.58278250  0.75482650  0.40984000  1
  O  O25  1  0.51722500  0.00000000  0.64368000  1
  O  O26  1  0.69233800  0.00000000  0.88799200  1
  O  O27  1  0.98338300  0.00000000  0.70776100  1
  O  O28  1  0.99295500  0.00000000  0.19479200  1
  O  O29  1  0.58278250  0.24517350  0.40984000  1
  O  O30  1  0.74974200  0.78830700  0.64439400  1
  O  O31  1  0.74974200  0.21169300  0.64439400  1
  O  O32  1  0.66907200  0.50000000  0.92669000  1
  O  O33  1  0.83480500  0.00000000  0.39676800  1
  O  O34  1  0.77241050  0.27099250  0.15771700  1
  O  O35  1  0.77241050  0.72900750  0.15771700  1
  O  O36  1  0.84482800  0.50000000  0.38791400  1
  O  O37  1  0.91046250  0.26120550  0.91136800  1
  O  O38  1  0.98345000  0.50000000  0.16687700  1
  O  O39  1  0.91046250  0.73879450  0.91136800  1
  O  O40  1  0.08278250  0.25482650  0.40984000  1
  O  O41  1  0.01722500  0.50000000  0.64368000  1
  O  O42  1  0.19233800  0.50000000  0.88799200  1
  O  O43  1  0.48338300  0.50000000  0.70776100  1
  O  O44  1  0.49295500  0.50000000  0.19479200  1
  O  O45  1  0.08278250  0.74517350  0.40984000  1
  O  O46  1  0.24974200  0.28830700  0.64439400  1
  O  O47  1  0.24974200  0.71169300  0.64439400  1
  O  O48  1  0.16907200  0.00000000  0.92669000  1
  O  O49  1  0.33480500  0.50000000  0.39676800  1
  O  O50  1  0.27241050  0.77099250  0.15771700  1
  O  O51  1  0.27241050  0.22900750  0.15771700  1
  O  O52  1  0.34482800  0.00000000  0.38791400  1
  O  O53  1  0.41046250  0.76120550  0.91136800  1
  O  O54  1  0.48345000  0.00000000  0.16687700  1
  O  O55  1  0.41046250  0.23879450  0.91136800  1
