# generated using pymatgen
data_Li2VOF4
_symmetry_space_group_name_H-M   'P 1'
_cell_length_a   3.63739204
_cell_length_b   10.07001212
_cell_length_c   10.29999000
_cell_angle_alpha   90.00000000
_cell_angle_beta   90.00000000
_cell_angle_gamma   90.00000000
_symmetry_Int_Tables_number   1
_chemical_formula_structural   Li2VOF4
_chemical_formula_sum   'Li8 V4 O4 F16'
_cell_volume   377.27402783
_cell_formula_units_Z   4
loop_
 _symmetry_equiv_pos_site_id
 _symmetry_equiv_pos_as_xyz
  1  'x, y, z'
loop_
 _atom_site_type_symbol
 _atom_site_label
 _atom_site_symmetry_multiplicity
 _atom_site_fract_x
 _atom_site_fract_y
 _atom_site_fract_z
 _atom_site_occupancy
  Li  Li0  1  0.50000000  0.13326200  0.07845100  1
  Li  Li1  1  0.50000000  0.18008550  0.75161700  1
  Li  Li2  1  0.00000000  0.31991450  0.25161700  1
  Li  Li3  1  0.00000000  0.36673800  0.57845100  1
  Li  Li4  1  0.00000000  0.63326200  0.07845100  1
  Li  Li5  1  0.00000000  0.68008550  0.75161700  1
  Li  Li6  1  0.50000000  0.81991450  0.25161700  1
  Li  Li7  1  0.50000000  0.86673800  0.57845100  1
  V  V8  1  0.50000000  0.13903700  0.44110000  1
  V  V9  1  0.00000000  0.36096300  0.94110000  1
  V  V10  1  0.00000000  0.63903700  0.44110000  1
  V  V11  1  0.50000000  0.86096300  0.94110000  1
  O  O12  1  0.00000000  0.15925950  0.43421600  1
  O  O13  1  0.50000000  0.34074050  0.93421600  1
  O  O14  1  0.50000000  0.65925950  0.43421600  1
  O  O15  1  0.00000000  0.84074050  0.93421600  1
  F  F16  1  0.50000000  0.03649300  0.87440200  1
  F  F17  1  0.50000000  0.05429250  0.60863200  1
  F  F18  1  0.00000000  0.19316200  0.04752800  1
  F  F19  1  0.50000000  0.22894250  0.26410600  1
  F  F20  1  0.00000000  0.27105750  0.76410600  1
  F  F21  1  0.50000000  0.30683800  0.54752800  1
  F  F22  1  0.00000000  0.46350700  0.37440200  1
  F  F23  1  0.00000000  0.44570750  0.10863200  1
  F  F24  1  0.00000000  0.53649300  0.87440200  1
  F  F25  1  0.00000000  0.55429250  0.60863200  1
  F  F26  1  0.50000000  0.69316200  0.04752800  1
  F  F27  1  0.00000000  0.72894250  0.26410600  1
  F  F28  1  0.50000000  0.77105750  0.76410600  1
  F  F29  1  0.00000000  0.80683800  0.54752800  1
  F  F30  1  0.50000000  0.96350700  0.37440200  1
  F  F31  1  0.50000000  0.94570750  0.10863200  1
