# generated using pymatgen
data_V4O7F5
_symmetry_space_group_name_H-M   'P 1'
_cell_length_a   9.19593400
_cell_length_b   5.21823000
_cell_length_c   8.77785032
_cell_angle_alpha   90.00000000
_cell_angle_beta   107.23335434
_cell_angle_gamma   90.00000000
_symmetry_Int_Tables_number   1
_chemical_formula_structural   V4O7F5
_chemical_formula_sum   'V8 O14 F10'
_cell_volume   402.30815190
_cell_formula_units_Z   2
loop_
 _symmetry_equiv_pos_site_id
 _symmetry_equiv_pos_as_xyz
  1  'x, y, z'
loop_
 _atom_site_type_symbol
 _atom_site_label
 _atom_site_symmetry_multiplicity
 _atom_site_fract_x
 _atom_site_fract_y
 _atom_site_fract_z
 _atom_site_occupancy
  V  V0  1  0.65175750  0.87082850  0.38083200  1
  V  V1  1  0.84824250  0.37082850  0.61916800  1
  V  V2  1  0.60654950  0.40796050  0.87016300  1
  V  V3  1  0.89345050  0.90796050  0.12983700  1
  V  V4  1  0.15175750  0.37082850  0.38083200  1
  V  V5  1  0.34824250  0.87082850  0.61916800  1
  V  V6  1  0.10654950  0.90796050  0.87016300  1
  V  V7  1  0.39345050  0.40796050  0.12983700  1
  O  O8  1  0.74711950  0.94871050  0.24484200  1
  O  O9  1  0.99780750  0.16176950  0.20805500  1
  O  O10  1  0.50219250  0.66176950  0.79194500  1
  O  O11  1  0.75233600  0.58546600  0.45842900  1
  O  O12  1  0.75288050  0.44871050  0.75515800  1
  O  O13  1  0.00000000  0.79004500  0.00000000  1
  O  O14  1  0.74766400  0.08546600  0.54157100  1
  O  O15  1  0.24711950  0.44871050  0.24484200  1
  O  O16  1  0.49780750  0.66176950  0.20805500  1
  O  O17  1  0.00219250  0.16176950  0.79194500  1
  O  O18  1  0.25233600  0.08546600  0.45842900  1
  O  O19  1  0.25288050  0.94871050  0.75515800  1
  O  O20  1  0.50000000  0.29004500  0.00000000  1
  O  O21  1  0.24766400  0.58546600  0.54157100  1
  F  F22  1  0.50574000  0.16988200  0.70739300  1
  F  F23  1  0.99426000  0.66988200  0.29260700  1
  F  F24  1  0.00000000  0.29295200  0.50000000  1
  F  F25  1  0.74847650  0.56388350  0.04415400  1
  F  F26  1  0.75152350  0.06388350  0.95584600  1
  F  F27  1  0.00574000  0.66988200  0.70739300  1
  F  F28  1  0.49426000  0.16988200  0.29260700  1
  F  F29  1  0.50000000  0.79295200  0.50000000  1
  F  F30  1  0.24847650  0.06388350  0.04415400  1
  F  F31  1  0.25152350  0.56388350  0.95584600  1
