# generated using pymatgen
data_Li4Cr3CoO8
_symmetry_space_group_name_H-M   'P 1'
_cell_length_a   10.25974356
_cell_length_b   5.89682684
_cell_length_c   5.14432444
_cell_angle_alpha   90.00000000
_cell_angle_beta   109.36285522
_cell_angle_gamma   90.00000000
_symmetry_Int_Tables_number   1
_chemical_formula_structural   Li4Cr3CoO8
_chemical_formula_sum   'Li8 Cr6 Co2 O16'
_cell_volume   293.62734887
_cell_formula_units_Z   2
loop_
 _symmetry_equiv_pos_site_id
 _symmetry_equiv_pos_as_xyz
  1  'x, y, z'
loop_
 _atom_site_type_symbol
 _atom_site_label
 _atom_site_symmetry_multiplicity
 _atom_site_fract_x
 _atom_site_fract_y
 _atom_site_fract_z
 _atom_site_occupancy
  Li  Li0  1  0.25248475  0.50000000  0.50530550  1
  Li  Li1  1  0.74751525  0.50000000  0.49469450  1
  Li  Li2  1  0.50000000  0.74704800  0.50000000  1
  Li  Li3  1  0.50000000  0.25295200  0.50000000  1
  Li  Li4  1  0.75248475  0.00000000  0.50530550  1
  Li  Li5  1  0.24751525  0.00000000  0.49469450  1
  Li  Li6  1  0.00000000  0.24704800  0.50000000  1
  Li  Li7  1  0.00000000  0.75295200  0.50000000  1
  Cr  Cr8  1  0.50000000  0.00000000  0.00000000  1
  Cr  Cr9  1  0.25000000  0.75000000  0.00000000  1
  Cr  Cr10  1  0.25000000  0.25000000  0.00000000  1
  Cr  Cr11  1  0.00000000  0.50000000  0.00000000  1
  Cr  Cr12  1  0.75000000  0.25000000  0.00000000  1
  Cr  Cr13  1  0.75000000  0.75000000  0.00000000  1
  Co  Co14  1  0.50000000  0.50000000  0.00000000  1
  Co  Co15  1  0.00000000  0.00000000  0.00000000  1
  O  O16  1  0.62884675  0.00000000  0.77473050  1
  O  O17  1  0.37115325  0.00000000  0.22526950  1
  O  O18  1  0.63001550  0.50000000  0.77311300  1
  O  O19  1  0.36998450  0.50000000  0.22688700  1
  O  O20  1  0.62316475  0.24735225  0.22877950  1
  O  O21  1  0.62316475  0.75264775  0.22877950  1
  O  O22  1  0.37683525  0.75264775  0.77122050  1
  O  O23  1  0.37683525  0.24735225  0.77122050  1
  O  O24  1  0.12884675  0.50000000  0.77473050  1
  O  O25  1  0.87115325  0.50000000  0.22526950  1
  O  O26  1  0.13001550  0.00000000  0.77311300  1
  O  O27  1  0.86998450  0.00000000  0.22688700  1
  O  O28  1  0.12316475  0.74735225  0.22877950  1
  O  O29  1  0.12316475  0.25264775  0.22877950  1
  O  O30  1  0.87683525  0.25264775  0.77122050  1
  O  O31  1  0.87683525  0.74735225  0.77122050  1
