# generated using pymatgen
data_LiVCoO4
_symmetry_space_group_name_H-M   'P 1'
_cell_length_a   5.72217933
_cell_length_b   8.69091743
_cell_length_c   6.30451401
_cell_angle_alpha   90.00000000
_cell_angle_beta   90.00000000
_cell_angle_gamma   90.00000000
_symmetry_Int_Tables_number   1
_chemical_formula_structural   LiVCoO4
_chemical_formula_sum   'Li4 V4 Co4 O16'
_cell_volume   313.52971112
_cell_formula_units_Z   4
loop_
 _symmetry_equiv_pos_site_id
 _symmetry_equiv_pos_as_xyz
  1  'x, y, z'
loop_
 _atom_site_type_symbol
 _atom_site_label
 _atom_site_symmetry_multiplicity
 _atom_site_fract_x
 _atom_site_fract_y
 _atom_site_fract_z
 _atom_site_occupancy
  Li  Li0  1  0.50000000  0.33717850  0.75000000  1
  Li  Li1  1  0.50000000  0.66282150  0.25000000  1
  Li  Li2  1  0.00000000  0.83717850  0.75000000  1
  Li  Li3  1  0.00000000  0.16282150  0.25000000  1
  V  V4  1  0.50000000  0.64711900  0.75000000  1
  V  V5  1  0.50000000  0.35288100  0.25000000  1
  V  V6  1  0.00000000  0.14711900  0.75000000  1
  V  V7  1  0.00000000  0.85288100  0.25000000  1
  Co  Co8  1  0.50000000  0.00000000  0.50000000  1
  Co  Co9  1  0.50000000  0.00000000  0.00000000  1
  Co  Co10  1  0.00000000  0.50000000  0.50000000  1
  Co  Co11  1  0.00000000  0.50000000  0.00000000  1
  O  O12  1  0.50000000  0.23850700  0.02853700  1
  O  O13  1  0.50000000  0.23850700  0.47146300  1
  O  O14  1  0.50000000  0.76149300  0.52853700  1
  O  O15  1  0.50000000  0.76149300  0.97146300  1
  O  O16  1  0.25544350  0.48019900  0.25000000  1
  O  O17  1  0.25544350  0.51980100  0.75000000  1
  O  O18  1  0.74455650  0.48019900  0.25000000  1
  O  O19  1  0.74455650  0.51980100  0.75000000  1
  O  O20  1  0.00000000  0.73850700  0.02853700  1
  O  O21  1  0.00000000  0.73850700  0.47146300  1
  O  O22  1  0.00000000  0.26149300  0.52853700  1
  O  O23  1  0.00000000  0.26149300  0.97146300  1
  O  O24  1  0.75544350  0.98019900  0.25000000  1
  O  O25  1  0.75544350  0.01980100  0.75000000  1
  O  O26  1  0.24455650  0.98019900  0.25000000  1
  O  O27  1  0.24455650  0.01980100  0.75000000  1
