# generated using pymatgen
data_Mn3OF8
_symmetry_space_group_name_H-M   'P 1'
_cell_length_a   8.77339102
_cell_length_b   5.22617300
_cell_length_c   13.43074468
_cell_angle_alpha   90.00000000
_cell_angle_beta   92.40444585
_cell_angle_gamma   90.00000000
_symmetry_Int_Tables_number   1
_chemical_formula_structural   Mn3OF8
_chemical_formula_sum   'Mn12 O4 F32'
_cell_volume   615.27437800
_cell_formula_units_Z   4
loop_
 _symmetry_equiv_pos_site_id
 _symmetry_equiv_pos_as_xyz
  1  'x, y, z'
loop_
 _atom_site_type_symbol
 _atom_site_label
 _atom_site_symmetry_multiplicity
 _atom_site_fract_x
 _atom_site_fract_y
 _atom_site_fract_z
 _atom_site_occupancy
  Mn  Mn0  1  0.15660150  0.00123600  0.32964500  1
  Mn  Mn1  1  0.15660150  0.99876400  0.82964500  1
  Mn  Mn2  1  0.84339850  0.99876400  0.67035500  1
  Mn  Mn3  1  0.84339850  0.00123600  0.17035500  1
  Mn  Mn4  1  0.50000000  0.00000000  0.50000000  1
  Mn  Mn5  1  0.50000000  0.00000000  0.00000000  1
  Mn  Mn6  1  0.65660150  0.50123600  0.32964500  1
  Mn  Mn7  1  0.65660150  0.49876400  0.82964500  1
  Mn  Mn8  1  0.34339850  0.49876400  0.67035500  1
  Mn  Mn9  1  0.34339850  0.50123600  0.17035500  1
  Mn  Mn10  1  0.00000000  0.50000000  0.50000000  1
  Mn  Mn11  1  0.00000000  0.50000000  0.00000000  1
  O  O12  1  0.00000000  0.12109050  0.25000000  1
  O  O13  1  0.00000000  0.87890950  0.75000000  1
  O  O14  1  0.50000000  0.62109050  0.25000000  1
  O  O15  1  0.50000000  0.37890950  0.75000000  1
  F  F16  1  0.80428850  0.30028900  0.75315500  1
  F  F17  1  0.86533350  0.29294000  0.08273800  1
  F  F18  1  0.69571150  0.19971100  0.24684500  1
  F  F19  1  0.66540350  0.10508400  0.58336500  1
  F  F20  1  0.66540350  0.89491600  0.08336500  1
  F  F21  1  0.69571150  0.80028900  0.74684500  1
  F  F22  1  0.52961000  0.30034050  0.41443600  1
  F  F23  1  0.47039000  0.30034050  0.08556400  1
  F  F24  1  0.86533350  0.70706000  0.58273800  1
  F  F25  1  0.80428850  0.69971100  0.25315500  1
  F  F26  1  0.63466650  0.20706000  0.91726200  1
  F  F27  1  0.33459650  0.10508400  0.91663500  1
  F  F28  1  0.33459650  0.89491600  0.41663500  1
  F  F29  1  0.63466650  0.79294000  0.41726200  1
  F  F30  1  0.47039000  0.69965950  0.58556400  1
  F  F31  1  0.52961000  0.69965950  0.91443600  1
  F  F32  1  0.30428850  0.80028900  0.75315500  1
  F  F33  1  0.36533350  0.79294000  0.08273800  1
  F  F34  1  0.19571150  0.69971100  0.24684500  1
  F  F35  1  0.16540350  0.60508400  0.58336500  1
  F  F36  1  0.16540350  0.39491600  0.08336500  1
  F  F37  1  0.19571150  0.30028900  0.74684500  1
  F  F38  1  0.02961000  0.80034050  0.41443600  1
  F  F39  1  0.97039000  0.80034050  0.08556400  1
  F  F40  1  0.36533350  0.20706000  0.58273800  1
  F  F41  1  0.30428850  0.19971100  0.25315500  1
  F  F42  1  0.13466650  0.70706000  0.91726200  1
  F  F43  1  0.83459650  0.60508400  0.91663500  1
  F  F44  1  0.83459650  0.39491600  0.41663500  1
  F  F45  1  0.13466650  0.29294000  0.41726200  1
  F  F46  1  0.97039000  0.19965950  0.58556400  1
  F  F47  1  0.02961000  0.19965950  0.91443600  1
