# generated using pymatgen
data_Li2VO2F
_symmetry_space_group_name_H-M   'P 1'
_cell_length_a   12.98521407
_cell_length_b   2.94679822
_cell_length_c   5.96394943
_cell_angle_alpha   90.00000000
_cell_angle_beta   103.21582243
_cell_angle_gamma   90.00000000
_symmetry_Int_Tables_number   1
_chemical_formula_structural   Li2VO2F
_chemical_formula_sum   'Li8 V4 O8 F4'
_cell_volume   222.16542469
_cell_formula_units_Z   4
loop_
 _symmetry_equiv_pos_site_id
 _symmetry_equiv_pos_as_xyz
  1  'x, y, z'
loop_
 _atom_site_type_symbol
 _atom_site_label
 _atom_site_symmetry_multiplicity
 _atom_site_fract_x
 _atom_site_fract_y
 _atom_site_fract_z
 _atom_site_occupancy
  Li  Li0  1  0.83335500  0.50000000  0.92833350  1
  Li  Li1  1  0.16664500  0.50000000  0.07166650  1
  Li  Li2  1  0.99986100  0.00000000  0.77434850  1
  Li  Li3  1  0.00013900  0.00000000  0.22565150  1
  Li  Li4  1  0.33335500  0.00000000  0.92833350  1
  Li  Li5  1  0.66664500  0.00000000  0.07166650  1
  Li  Li6  1  0.49986100  0.50000000  0.77434850  1
  Li  Li7  1  0.50013900  0.50000000  0.22565150  1
  V  V8  1  0.32962625  0.00000000  0.40796150  1
  V  V9  1  0.17037375  0.50000000  0.59203850  1
  V  V10  1  0.82962625  0.50000000  0.40796150  1
  V  V11  1  0.67037375  0.00000000  0.59203850  1
  O  O12  1  0.83374600  0.00000000  0.65109450  1
  O  O13  1  0.16625400  0.00000000  0.34890550  1
  O  O14  1  0.83714375  0.00000000  0.18689950  1
  O  O15  1  0.16285625  0.00000000  0.81310050  1
  O  O16  1  0.33374600  0.50000000  0.65109450  1
  O  O17  1  0.66625400  0.50000000  0.34890550  1
  O  O18  1  0.33714375  0.50000000  0.18689950  1
  O  O19  1  0.66285625  0.50000000  0.81310050  1
  F  F20  1  0.00000000  0.50000000  0.50000000  1
  F  F21  1  0.00000000  0.50000000  0.00000000  1
  F  F22  1  0.50000000  0.00000000  0.50000000  1
  F  F23  1  0.50000000  0.00000000  0.00000000  1
