# generated using pymatgen
data_Li4Mn(BO3)2
_symmetry_space_group_name_H-M   'P 1'
_cell_length_a   3.36988000
_cell_length_b   7.97188500
_cell_length_c   9.36284700
_cell_angle_alpha   90.00000000
_cell_angle_beta   90.00000000
_cell_angle_gamma   90.00000000
_symmetry_Int_Tables_number   1
_chemical_formula_structural   Li4Mn(BO3)2
_chemical_formula_sum   'Li8 Mn2 B4 O12'
_cell_volume   251.52629166
_cell_formula_units_Z   2
loop_
 _symmetry_equiv_pos_site_id
 _symmetry_equiv_pos_as_xyz
  1  'x, y, z'
loop_
 _atom_site_type_symbol
 _atom_site_label
 _atom_site_symmetry_multiplicity
 _atom_site_fract_x
 _atom_site_fract_y
 _atom_site_fract_z
 _atom_site_occupancy
  Li  Li0  1  0.50000000  0.67096450  0.44481700  1
  Li  Li1  1  0.00000000  0.17096450  0.05518300  1
  Li  Li2  1  0.00000000  0.82903550  0.94481700  1
  Li  Li3  1  0.50000000  0.32903550  0.55518300  1
  Li  Li4  1  0.00000000  0.50732450  0.29784500  1
  Li  Li5  1  0.50000000  0.00732450  0.20215500  1
  Li  Li6  1  0.50000000  0.99267550  0.79784500  1
  Li  Li7  1  0.00000000  0.49267550  0.70215500  1
  Mn  Mn8  1  0.00000000  0.00000000  0.50000000  1
  Mn  Mn9  1  0.50000000  0.50000000  0.00000000  1
  B  B10  1  0.50000000  0.26868100  0.29907400  1
  B  B11  1  0.00000000  0.76868100  0.20092600  1
  B  B12  1  0.00000000  0.23131900  0.79907400  1
  B  B13  1  0.50000000  0.73131900  0.70092600  1
  O  O14  1  0.50000000  0.12316300  0.38631100  1
  O  O15  1  0.00000000  0.62316300  0.11368900  1
  O  O16  1  0.00000000  0.37683700  0.88631100  1
  O  O17  1  0.50000000  0.87683700  0.61368900  1
  O  O18  1  0.00000000  0.75120700  0.34968600  1
  O  O19  1  0.50000000  0.25120700  0.15031400  1
  O  O20  1  0.50000000  0.74879300  0.84968600  1
  O  O21  1  0.00000000  0.24879300  0.65031400  1
  O  O22  1  0.50000000  0.42335250  0.36297900  1
  O  O23  1  0.00000000  0.92335250  0.13702100  1
  O  O24  1  0.00000000  0.07664750  0.86297900  1
  O  O25  1  0.50000000  0.57664750  0.63702100  1
