# generated using pymatgen
data_Li7Mn14O32
_symmetry_space_group_name_H-M   'P 1'
_cell_length_a   5.83283198
_cell_length_b   5.83283198
_cell_length_c   57.06576819
_cell_angle_alpha   90.00000000
_cell_angle_beta   90.00000000
_cell_angle_gamma   120.00000000
_symmetry_Int_Tables_number   1
_chemical_formula_structural   Li7Mn14O32
_chemical_formula_sum   'Li21 Mn42 O96'
_cell_volume   1681.37750428
_cell_formula_units_Z   3
loop_
 _symmetry_equiv_pos_site_id
 _symmetry_equiv_pos_as_xyz
  1  'x, y, z'
loop_
 _atom_site_type_symbol
 _atom_site_label
 _atom_site_symmetry_multiplicity
 _atom_site_fract_x
 _atom_site_fract_y
 _atom_site_fract_z
 _atom_site_occupancy
  Li  Li0  1  0.33333333  0.66666667  0.07063467  1
  Li  Li1  1  0.00000000  0.00000000  0.09434900  1
  Li  Li2  1  0.66666667  0.33333333  0.17864633  1
  Li  Li3  1  0.66666667  0.33333333  0.23922233  1
  Li  Li4  1  0.00000000  0.00000000  0.15473100  1
  Li  Li5  1  0.33333333  0.66666667  0.26213967  1
  Li  Li6  1  0.33333333  0.66666667  0.32190967  1
  Li  Li7  1  0.00000000  0.00000000  0.40396800  1
  Li  Li8  1  0.66666667  0.33333333  0.42768233  1
  Li  Li9  1  0.33333333  0.66666667  0.51197967  1
  Li  Li10  1  0.33333333  0.66666667  0.57255567  1
  Li  Li11  1  0.66666667  0.33333333  0.48806433  1
  Li  Li12  1  0.00000000  0.00000000  0.59547300  1
  Li  Li13  1  0.00000000  0.00000000  0.65524300  1
  Li  Li14  1  0.66666667  0.33333333  0.73730133  1
  Li  Li15  1  0.33333333  0.66666667  0.76101567  1
  Li  Li16  1  0.00000000  0.00000000  0.84531300  1
  Li  Li17  1  0.00000000  0.00000000  0.90588900  1
  Li  Li18  1  0.33333333  0.66666667  0.82139767  1
  Li  Li19  1  0.66666667  0.33333333  0.92880633  1
  Li  Li20  1  0.66666667  0.33333333  0.98857633  1
  Mn  Mn21  1  0.83099033  0.66198067  0.04224467  1
  Mn  Mn22  1  0.33801933  0.16900967  0.04224467  1
  Mn  Mn23  1  0.99338400  0.49669200  0.12428200  1
  Mn  Mn24  1  0.00000000  0.00000000  0.00055400  1
  Mn  Mn25  1  0.50330800  0.49669200  0.12428200  1
  Mn  Mn26  1  0.83099033  0.16900967  0.04224467  1
  Mn  Mn27  1  0.50330800  0.00661600  0.12428200  1
  Mn  Mn28  1  0.33333333  0.66666667  0.16664267  1
  Mn  Mn29  1  0.16331833  0.83668167  0.20900767  1
  Mn  Mn30  1  0.16331833  0.32663667  0.20900767  1
  Mn  Mn31  1  0.83660733  0.16339267  0.29115767  1
  Mn  Mn32  1  0.32678533  0.16339267  0.29115767  1
  Mn  Mn33  1  0.67336333  0.83668167  0.20900767  1
  Mn  Mn34  1  0.83660733  0.67321467  0.29115767  1
  Mn  Mn35  1  0.49765700  0.99531400  0.37557800  1
  Mn  Mn36  1  0.00468600  0.50234300  0.37557800  1
  Mn  Mn37  1  0.66005067  0.83002533  0.45761533  1
  Mn  Mn38  1  0.66666667  0.33333333  0.33388733  1
  Mn  Mn39  1  0.16997467  0.83002533  0.45761533  1
  Mn  Mn40  1  0.49765700  0.50234300  0.37557800  1
  Mn  Mn41  1  0.16997467  0.33994933  0.45761533  1
  Mn  Mn42  1  0.00000000  0.00000000  0.49997600  1
  Mn  Mn43  1  0.82998500  0.17001500  0.54234100  1
  Mn  Mn44  1  0.82998500  0.65997000  0.54234100  1
  Mn  Mn45  1  0.50327400  0.49672600  0.62449100  1
  Mn  Mn46  1  0.99345200  0.49672600  0.62449100  1
  Mn  Mn47  1  0.34003000  0.17001500  0.54234100  1
  Mn  Mn48  1  0.50327400  0.00654800  0.62449100  1
  Mn  Mn49  1  0.16432367  0.32864733  0.70891133  1
  Mn  Mn50  1  0.67135267  0.83567633  0.70891133  1
  Mn  Mn51  1  0.32671733  0.16335867  0.79094867  1
  Mn  Mn52  1  0.33333333  0.66666667  0.66722067  1
  Mn  Mn53  1  0.83664133  0.16335867  0.79094867  1
  Mn  Mn54  1  0.16432367  0.83567633  0.70891133  1
  Mn  Mn55  1  0.83664133  0.67328267  0.79094867  1
  Mn  Mn56  1  0.66666667  0.33333333  0.83330933  1
  Mn  Mn57  1  0.49665167  0.50334833  0.87567433  1
  Mn  Mn58  1  0.49665167  0.99330333  0.87567433  1
  Mn  Mn59  1  0.16994067  0.83005933  0.95782433  1
  Mn  Mn60  1  0.66011867  0.83005933  0.95782433  1
  Mn  Mn61  1  0.00669667  0.50334833  0.87567433  1
  Mn  Mn62  1  0.16994067  0.33988133  0.95782433  1
  O  O63  1  0.14527700  0.85472300  0.02216900  1
  O  O64  1  0.70944600  0.85472300  0.02216900  1
  O  O65  1  0.98208000  0.49104000  0.05837900  1
  O  O66  1  0.66666667  0.33333333  0.02401033  1
  O  O67  1  0.50896000  0.49104000  0.05837900  1
  O  O68  1  0.50896000  0.01792000  0.05837900  1
  O  O69  1  0.82432700  0.64865400  0.10839200  1
  O  O70  1  0.14527700  0.29055400  0.02216900  1
  O  O71  1  0.03871400  0.51935700  0.18824700  1
  O  O72  1  0.35134600  0.17567300  0.10839200  1
  O  O73  1  0.66666667  0.33333333  0.14286033  1
  O  O74  1  0.00000000  0.00000000  0.05983700  1
  O  O75  1  0.33333333  0.66666667  0.10716367  1
  O  O76  1  0.18599850  0.37199700  0.14502600  1
  O  O77  1  0.18599850  0.81400150  0.14502600  1
  O  O78  1  0.84224267  0.15775733  0.22489533  1
  O  O79  1  0.48064300  0.51935700  0.18824700  1
  O  O80  1  0.82432700  0.17567300  0.10839200  1
  O  O81  1  0.48064300  0.96128600  0.18824700  1
  O  O82  1  0.33333333  0.66666667  0.22611267  1
  O  O83  1  0.66666667  0.33333333  0.27378233  1
  O  O84  1  0.00000000  0.00000000  0.19043800  1
  O  O85  1  0.62800300  0.81400150  0.14502600  1
  O  O86  1  0.31551467  0.15775733  0.22489533  1
  O  O87  1  0.84224267  0.68448533  0.22489533  1
  O  O88  1  0.51942500  0.03885000  0.31149500  1
  O  O89  1  0.15816767  0.31633533  0.27496833  1
  O  O90  1  0.15816767  0.84183233  0.27496833  1
  O  O91  1  0.68366467  0.84183233  0.27496833  1
  O  O92  1  0.00000000  0.00000000  0.30889500  1
  O  O93  1  0.96115000  0.48057500  0.31149500  1
  O  O94  1  0.51942500  0.48057500  0.31149500  1
  O  O95  1  0.81194367  0.18805633  0.35550233  1
  O  O96  1  0.37611267  0.18805633  0.35550233  1
  O  O97  1  0.64874667  0.82437333  0.39171233  1
  O  O98  1  0.33333333  0.66666667  0.35734367  1
  O  O99  1  0.17562667  0.82437333  0.39171233  1
  O  O100  1  0.17562667  0.35125333  0.39171233  1
  O  O101  1  0.49099367  0.98198733  0.44172533  1
  O  O102  1  0.81194367  0.62388733  0.35550233  1
  O  O103  1  0.70538067  0.85269033  0.52158033  1
  O  O104  1  0.01801267  0.50900633  0.44172533  1
  O  O105  1  0.33333333  0.66666667  0.47619367  1
  O  O106  1  0.66666667  0.33333333  0.39317033  1
  O  O107  1  0.00000000  0.00000000  0.44049700  1
  O  O108  1  0.85266517  0.70533033  0.47835933  1
  O  O109  1  0.85266517  0.14733483  0.47835933  1
  O  O110  1  0.50890933  0.49109067  0.55822867  1
  O  O111  1  0.14730967  0.85269033  0.52158033  1
  O  O112  1  0.49099367  0.50900633  0.44172533  1
  O  O113  1  0.14730967  0.29461933  0.52158033  1
  O  O114  1  0.00000000  0.00000000  0.55944600  1
  O  O115  1  0.33333333  0.66666667  0.60711567  1
  O  O116  1  0.66666667  0.33333333  0.52377133  1
  O  O117  1  0.29466967  0.14733483  0.47835933  1
  O  O118  1  0.98218133  0.49109067  0.55822867  1
  O  O119  1  0.50890933  0.01781867  0.55822867  1
  O  O120  1  0.18609167  0.37218333  0.64482833  1
  O  O121  1  0.82483433  0.64966867  0.60830167  1
  O  O122  1  0.82483433  0.17516567  0.60830167  1
  O  O123  1  0.35033133  0.17516567  0.60830167  1
  O  O124  1  0.66666667  0.33333333  0.64222833  1
  O  O125  1  0.62781667  0.81390833  0.64482833  1
  O  O126  1  0.18609167  0.81390833  0.64482833  1
  O  O127  1  0.47861033  0.52138967  0.68883567  1
  O  O128  1  0.04277933  0.52138967  0.68883567  1
  O  O129  1  0.31541333  0.15770667  0.72504567  1
  O  O130  1  0.00000000  0.00000000  0.69067700  1
  O  O131  1  0.84229333  0.15770667  0.72504567  1
  O  O132  1  0.84229333  0.68458667  0.72504567  1
  O  O133  1  0.15766033  0.31532067  0.77505867  1
  O  O134  1  0.47861033  0.95722067  0.68883567  1
  O  O135  1  0.37204733  0.18602367  0.85491367  1
  O  O136  1  0.68467933  0.84233967  0.77505867  1
  O  O137  1  0.00000000  0.00000000  0.80952700  1
  O  O138  1  0.33333333  0.66666667  0.72650367  1
  O  O139  1  0.66666667  0.33333333  0.77383033  1
  O  O140  1  0.51933183  0.03866367  0.81169267  1
  O  O141  1  0.51933183  0.48066817  0.81169267  1
  O  O142  1  0.17557600  0.82442400  0.89156200  1
  O  O143  1  0.81397633  0.18602367  0.85491367  1
  O  O144  1  0.15766033  0.84233967  0.77505867  1
  O  O145  1  0.81397633  0.62795267  0.85491367  1
  O  O146  1  0.66666667  0.33333333  0.89277933  1
  O  O147  1  0.00000000  0.00000000  0.94044900  1
  O  O148  1  0.33333333  0.66666667  0.85710467  1
  O  O149  1  0.96133633  0.48066817  0.81169267  1
  O  O150  1  0.64884800  0.82442400  0.89156200  1
  O  O151  1  0.17557600  0.35115200  0.89156200  1
  O  O152  1  0.85275833  0.70551667  0.97816167  1
  O  O153  1  0.49150100  0.98300200  0.94163500  1
  O  O154  1  0.49150100  0.50849900  0.94163500  1
  O  O155  1  0.01699800  0.50849900  0.94163500  1
  O  O156  1  0.33333333  0.66666667  0.97556167  1
  O  O157  1  0.29448333  0.14724167  0.97816167  1
  O  O158  1  0.85275833  0.14724167  0.97816167  1
