# generated using pymatgen
data_LiMn3O6
_symmetry_space_group_name_H-M   'P 1'
_cell_length_a   5.23895200
_cell_length_b   8.68807800
_cell_length_c   5.31351340
_cell_angle_alpha   90.00000000
_cell_angle_beta   110.05419898
_cell_angle_gamma   90.00000000
_symmetry_Int_Tables_number   1
_chemical_formula_structural   LiMn3O6
_chemical_formula_sum   'Li2 Mn6 O12'
_cell_volume   227.18830997
_cell_formula_units_Z   2
loop_
 _symmetry_equiv_pos_site_id
 _symmetry_equiv_pos_as_xyz
  1  'x, y, z'
loop_
 _atom_site_type_symbol
 _atom_site_label
 _atom_site_symmetry_multiplicity
 _atom_site_fract_x
 _atom_site_fract_y
 _atom_site_fract_z
 _atom_site_occupancy
  Li  Li0  1  0.50000000  0.00000000  0.50000000  1
  Li  Li1  1  0.00000000  0.50000000  0.50000000  1
  Mn  Mn2  1  0.00000000  0.00000000  0.00000000  1
  Mn  Mn3  1  0.50000000  0.83396000  0.00000000  1
  Mn  Mn4  1  0.50000000  0.16604000  0.00000000  1
  Mn  Mn5  1  0.50000000  0.50000000  0.00000000  1
  Mn  Mn6  1  0.00000000  0.33396000  0.00000000  1
  Mn  Mn7  1  0.00000000  0.66604000  0.00000000  1
  O  O8  1  0.30279700  0.00000000  0.78251600  1
  O  O9  1  0.24236850  0.83561450  0.19239700  1
  O  O10  1  0.24236850  0.16438550  0.19239700  1
  O  O11  1  0.75763150  0.83561450  0.80760300  1
  O  O12  1  0.75763150  0.16438550  0.80760300  1
  O  O13  1  0.69720300  0.00000000  0.21748400  1
  O  O14  1  0.80279700  0.50000000  0.78251600  1
  O  O15  1  0.74236850  0.33561450  0.19239700  1
  O  O16  1  0.74236850  0.66438550  0.19239700  1
  O  O17  1  0.25763150  0.33561450  0.80760300  1
  O  O18  1  0.25763150  0.66438550  0.80760300  1
  O  O19  1  0.19720300  0.50000000  0.21748400  1
