# generated using pymatgen
data_Li2Mn4O5F3
_symmetry_space_group_name_H-M   'P 1'
_cell_length_a   10.88216600
_cell_length_b   5.84556200
_cell_length_c   11.00616880
_cell_angle_alpha   90.00000000
_cell_angle_beta   109.56695472
_cell_angle_gamma   90.00000000
_symmetry_Int_Tables_number   1
_chemical_formula_structural   Li2Mn4O5F3
_chemical_formula_sum   'Li8 Mn16 O20 F12'
_cell_volume   659.69666228
_cell_formula_units_Z   4
loop_
 _symmetry_equiv_pos_site_id
 _symmetry_equiv_pos_as_xyz
  1  'x, y, z'
loop_
 _atom_site_type_symbol
 _atom_site_label
 _atom_site_symmetry_multiplicity
 _atom_site_fract_x
 _atom_site_fract_y
 _atom_site_fract_z
 _atom_site_occupancy
  Li  Li0  1  0.04166050  0.24988350  0.44807400  1
  Li  Li1  1  0.95601400  0.27141000  0.06011200  1
  Li  Li2  1  0.04166050  0.75011650  0.94807400  1
  Li  Li3  1  0.95601400  0.72859000  0.56011200  1
  Li  Li4  1  0.54166050  0.74988350  0.44807400  1
  Li  Li5  1  0.45601400  0.77141000  0.06011200  1
  Li  Li6  1  0.54166050  0.25011650  0.94807400  1
  Li  Li7  1  0.45601400  0.22859000  0.56011200  1
  Mn  Mn8  1  0.75599850  0.74271950  0.00160000  1
  Mn  Mn9  1  0.75015250  0.99845450  0.24873100  1
  Mn  Mn10  1  0.99718650  0.74343350  0.24644100  1
  Mn  Mn11  1  0.99718650  0.25656650  0.74644100  1
  Mn  Mn12  1  0.75599850  0.25728050  0.50160000  1
  Mn  Mn13  1  0.75518650  0.49760650  0.24177000  1
  Mn  Mn14  1  0.25015250  0.50154550  0.74873100  1
  Mn  Mn15  1  0.25518650  0.00239350  0.74177000  1
  Mn  Mn16  1  0.25599850  0.24271950  0.00160000  1
  Mn  Mn17  1  0.25015250  0.49845450  0.24873100  1
  Mn  Mn18  1  0.49718650  0.24343350  0.24644100  1
  Mn  Mn19  1  0.49718650  0.75656650  0.74644100  1
  Mn  Mn20  1  0.25599850  0.75728050  0.50160000  1
  Mn  Mn21  1  0.25518650  0.99760650  0.24177000  1
  Mn  Mn22  1  0.75015250  0.00154550  0.74873100  1
  Mn  Mn23  1  0.75518650  0.50239350  0.74177000  1
  O  O24  1  0.12923050  0.25195550  0.65855200  1
  O  O25  1  0.62923050  0.24804450  0.15855200  1
  O  O26  1  0.84284250  0.25074150  0.35846800  1
  O  O27  1  0.65494350  0.75011350  0.13862900  1
  O  O28  1  0.88857050  0.46987350  0.63126400  1
  O  O29  1  0.88857050  0.53012650  0.13126400  1
  O  O30  1  0.34284250  0.24925850  0.85846800  1
  O  O31  1  0.15494350  0.74988650  0.63862900  1
  O  O32  1  0.37106250  0.74829850  0.84003300  1
  O  O33  1  0.87106250  0.75170150  0.34003300  1
  O  O34  1  0.62923050  0.75195550  0.65855200  1
  O  O35  1  0.12923050  0.74804450  0.15855200  1
  O  O36  1  0.34284250  0.75074150  0.35846800  1
  O  O37  1  0.15494350  0.25011350  0.13862900  1
  O  O38  1  0.38857050  0.96987350  0.63126400  1
  O  O39  1  0.38857050  0.03012650  0.13126400  1
  O  O40  1  0.84284250  0.74925850  0.85846800  1
  O  O41  1  0.65494350  0.24988650  0.63862900  1
  O  O42  1  0.87106250  0.24829850  0.84003300  1
  O  O43  1  0.37106250  0.25170150  0.34003300  1
  F  F44  1  0.87746450  0.02048550  0.11982600  1
  F  F45  1  0.87746450  0.97951450  0.61982600  1
  F  F46  1  0.12505650  0.49497850  0.38615000  1
  F  F47  1  0.12505650  0.50502150  0.88615000  1
  F  F48  1  0.10463150  0.98601250  0.37035100  1
  F  F49  1  0.10463150  0.01398750  0.87035100  1
  F  F50  1  0.37746450  0.52048550  0.11982600  1
  F  F51  1  0.37746450  0.47951450  0.61982600  1
  F  F52  1  0.62505650  0.99497850  0.38615000  1
  F  F53  1  0.62505650  0.00502150  0.88615000  1
  F  F54  1  0.60463150  0.48601250  0.37035100  1
  F  F55  1  0.60463150  0.51398750  0.87035100  1
