# generated using pymatgen
data_Li2NiP2O7
_symmetry_space_group_name_H-M   'P 1'
_cell_length_a   6.70357967
_cell_length_b   7.03024523
_cell_length_c   13.02533288
_cell_angle_alpha   90.00000000
_cell_angle_beta   90.00000000
_cell_angle_gamma   90.00000000
_symmetry_Int_Tables_number   1
_chemical_formula_structural   Li2NiP2O7
_chemical_formula_sum   'Li8 Ni4 P8 O28'
_cell_volume   613.85540051
_cell_formula_units_Z   4
loop_
 _symmetry_equiv_pos_site_id
 _symmetry_equiv_pos_as_xyz
  1  'x, y, z'
loop_
 _atom_site_type_symbol
 _atom_site_label
 _atom_site_symmetry_multiplicity
 _atom_site_fract_x
 _atom_site_fract_y
 _atom_site_fract_z
 _atom_site_occupancy
  Li  Li0  1  0.25000000  0.25000000  0.47957025  1
  Li  Li1  1  0.75000000  0.25000000  0.52042975  1
  Li  Li2  1  0.25000000  0.75000000  0.47957025  1
  Li  Li3  1  0.75000000  0.75000000  0.52042975  1
  Li  Li4  1  0.75000000  0.75000000  0.97957025  1
  Li  Li5  1  0.25000000  0.75000000  0.02042975  1
  Li  Li6  1  0.75000000  0.25000000  0.97957025  1
  Li  Li7  1  0.25000000  0.25000000  0.02042975  1
  Ni  Ni8  1  0.75000000  0.75000000  0.75000000  1
  Ni  Ni9  1  0.25000000  0.75000000  0.25000000  1
  Ni  Ni10  1  0.25000000  0.25000000  0.25000000  1
  Ni  Ni11  1  0.75000000  0.25000000  0.75000000  1
  P  P12  1  0.43232200  0.00000000  0.64005050  1
  P  P13  1  0.06767800  0.50000000  0.64005050  1
  P  P14  1  0.93232200  0.50000000  0.35994950  1
  P  P15  1  0.56767800  0.00000000  0.35994950  1
  P  P16  1  0.93232200  0.50000000  0.14005050  1
  P  P17  1  0.56767800  0.00000000  0.14005050  1
  P  P18  1  0.43232200  0.00000000  0.85994950  1
  P  P19  1  0.06767800  0.50000000  0.85994950  1
  O  O20  1  0.81594675  0.50000000  0.25000000  1
  O  O21  1  0.18405325  0.50000000  0.75000000  1
  O  O22  1  0.22633375  0.50000000  0.55585175  1
  O  O23  1  0.27366625  0.00000000  0.55585175  1
  O  O24  1  0.77366625  0.50000000  0.44414825  1
  O  O25  1  0.72633375  0.00000000  0.44414825  1
  O  O26  1  0.06322825  0.31939200  0.36192425  1
  O  O27  1  0.43677175  0.18060800  0.36192425  1
  O  O28  1  0.56322825  0.18060800  0.63807575  1
  O  O29  1  0.93677175  0.31939200  0.63807575  1
  O  O30  1  0.06322825  0.68060800  0.36192425  1
  O  O31  1  0.43677175  0.81939200  0.36192425  1
  O  O32  1  0.93677175  0.68060800  0.63807575  1
  O  O33  1  0.56322825  0.81939200  0.63807575  1
  O  O34  1  0.31594675  0.00000000  0.75000000  1
  O  O35  1  0.68405325  0.00000000  0.25000000  1
  O  O36  1  0.72633375  0.00000000  0.05585175  1
  O  O37  1  0.77366625  0.50000000  0.05585175  1
  O  O38  1  0.27366625  0.00000000  0.94414825  1
  O  O39  1  0.22633375  0.50000000  0.94414825  1
  O  O40  1  0.56322825  0.81939200  0.86192425  1
  O  O41  1  0.93677175  0.68060800  0.86192425  1
  O  O42  1  0.06322825  0.68060800  0.13807575  1
  O  O43  1  0.43677175  0.81939200  0.13807575  1
  O  O44  1  0.56322825  0.18060800  0.86192425  1
  O  O45  1  0.93677175  0.31939200  0.86192425  1
  O  O46  1  0.43677175  0.18060800  0.13807575  1
  O  O47  1  0.06322825  0.31939200  0.13807575  1
