# generated using pymatgen
data_Li5(NiO2)4
_symmetry_space_group_name_H-M   'P 1'
_cell_length_a   5.74437141
_cell_length_b   10.48945803
_cell_length_c   9.62678342
_cell_angle_alpha   90.00000000
_cell_angle_beta   90.02511156
_cell_angle_gamma   90.00000000
_symmetry_Int_Tables_number   1
_chemical_formula_structural   Li5(NiO2)4
_chemical_formula_sum   'Li20 Ni16 O32'
_cell_volume   580.06507893
_cell_formula_units_Z   4
loop_
 _symmetry_equiv_pos_site_id
 _symmetry_equiv_pos_as_xyz
  1  'x, y, z'
loop_
 _atom_site_type_symbol
 _atom_site_label
 _atom_site_symmetry_multiplicity
 _atom_site_fract_x
 _atom_site_fract_y
 _atom_site_fract_z
 _atom_site_occupancy
  Li  Li0  1  0.99691900  0.98717500  0.48530800  1
  Li  Li1  1  0.49691900  0.51282500  0.98530800  1
  Li  Li2  1  0.78325150  0.59985150  0.55843900  1
  Li  Li3  1  0.99929200  0.67746200  0.78230700  1
  Li  Li4  1  0.00016400  0.79786300  0.54506000  1
  Li  Li5  1  0.21993650  0.60251250  0.55914400  1
  Li  Li6  1  0.28325150  0.90014850  0.05843900  1
  Li  Li7  1  0.49929200  0.82253800  0.28230700  1
  Li  Li8  1  0.50016400  0.70213700  0.04506000  1
  Li  Li9  1  0.71993650  0.89748750  0.05914400  1
  Li  Li10  1  0.49691900  0.48717500  0.48530800  1
  Li  Li11  1  0.99691900  0.01282500  0.98530800  1
  Li  Li12  1  0.28325150  0.09985150  0.55843900  1
  Li  Li13  1  0.49929200  0.17746200  0.78230700  1
  Li  Li14  1  0.50016400  0.29786300  0.54506000  1
  Li  Li15  1  0.71993650  0.10251250  0.55914400  1
  Li  Li16  1  0.78325150  0.40014850  0.05843900  1
  Li  Li17  1  0.99929200  0.32253800  0.28230700  1
  Li  Li18  1  0.00016400  0.20213700  0.04506000  1
  Li  Li19  1  0.21993650  0.39748750  0.05914400  1
  Ni  Ni20  1  0.00011400  0.66605000  0.03350300  1
  Ni  Ni21  1  0.50011400  0.83395000  0.53350300  1
  Ni  Ni22  1  0.75184100  0.57652400  0.28626800  1
  Ni  Ni23  1  0.99942100  0.82219600  0.28676300  1
  Ni  Ni24  1  0.24609900  0.57686900  0.28641200  1
  Ni  Ni25  1  0.25184100  0.92347600  0.78626800  1
  Ni  Ni26  1  0.49942100  0.67780400  0.78676300  1
  Ni  Ni27  1  0.74609900  0.92313100  0.78641200  1
  Ni  Ni28  1  0.50011400  0.16605000  0.03350300  1
  Ni  Ni29  1  0.00011400  0.33395000  0.53350300  1
  Ni  Ni30  1  0.25184100  0.07652400  0.28626800  1
  Ni  Ni31  1  0.49942100  0.32219600  0.28676300  1
  Ni  Ni32  1  0.74609900  0.07686900  0.28641200  1
  Ni  Ni33  1  0.75184100  0.42347600  0.78626800  1
  Ni  Ni34  1  0.99942100  0.17780400  0.78676300  1
  Ni  Ni35  1  0.24609900  0.42313100  0.78641200  1
  O  O36  1  0.49190800  0.50607700  0.68070700  1
  O  O37  1  0.99190800  0.99392300  0.18070700  1
  O  O38  1  0.75643600  0.59411500  0.91425900  1
  O  O39  1  0.76582750  0.73899350  0.15792800  1
  O  O40  1  0.99583250  0.85188850  0.90212400  1
  O  O41  1  0.00746550  0.50773050  0.16777400  1
  O  O42  1  0.00526400  0.65653700  0.39924200  1
  O  O43  1  0.23447800  0.74162500  0.15631500  1
  O  O44  1  0.25643600  0.90588500  0.41425900  1
  O  O45  1  0.24163600  0.59688000  0.91383900  1
  O  O46  1  0.26582750  0.76100650  0.65792800  1
  O  O47  1  0.50746550  0.99226950  0.66777400  1
  O  O48  1  0.50526400  0.84346300  0.89924200  1
  O  O49  1  0.49583250  0.64811150  0.40212400  1
  O  O50  1  0.73447800  0.75837500  0.65631500  1
  O  O51  1  0.74163600  0.90312000  0.41383900  1
  O  O52  1  0.99190800  0.00607700  0.68070700  1
  O  O53  1  0.49190800  0.49392300  0.18070700  1
  O  O54  1  0.25643600  0.09411500  0.91425900  1
  O  O55  1  0.26582750  0.23899350  0.15792800  1
  O  O56  1  0.49583250  0.35188850  0.90212400  1
  O  O57  1  0.50746550  0.00773050  0.16777400  1
  O  O58  1  0.50526400  0.15653700  0.39924200  1
  O  O59  1  0.73447800  0.24162500  0.15631500  1
  O  O60  1  0.75643600  0.40588500  0.41425900  1
  O  O61  1  0.74163600  0.09688000  0.91383900  1
  O  O62  1  0.76582750  0.26100650  0.65792800  1
  O  O63  1  0.00746550  0.49226950  0.66777400  1
  O  O64  1  0.00526400  0.34346300  0.89924200  1
  O  O65  1  0.99583250  0.14811150  0.40212400  1
  O  O66  1  0.23447800  0.25837500  0.65631500  1
  O  O67  1  0.24163600  0.40312000  0.41383900  1
