# generated using pymatgen
data_Co3OF5
_symmetry_space_group_name_H-M   'P 1'
_cell_length_a   9.12158000
_cell_length_b   6.83662800
_cell_length_c   7.31409872
_cell_angle_alpha   90.00000000
_cell_angle_beta   111.90942711
_cell_angle_gamma   90.00000000
_symmetry_Int_Tables_number   1
_chemical_formula_structural   Co3OF5
_chemical_formula_sum   'Co12 O4 F20'
_cell_volume   423.17055807
_cell_formula_units_Z   4
loop_
 _symmetry_equiv_pos_site_id
 _symmetry_equiv_pos_as_xyz
  1  'x, y, z'
loop_
 _atom_site_type_symbol
 _atom_site_label
 _atom_site_symmetry_multiplicity
 _atom_site_fract_x
 _atom_site_fract_y
 _atom_site_fract_z
 _atom_site_occupancy
  Co  Co0  1  0.00000000  0.50000000  0.00000000  1
  Co  Co1  1  0.00000000  0.50000000  0.50000000  1
  Co  Co2  1  0.35657700  0.50000000  0.85470300  1
  Co  Co3  1  0.33592600  0.50000000  0.32838600  1
  Co  Co4  1  0.66407400  0.50000000  0.67161400  1
  Co  Co5  1  0.64342300  0.50000000  0.14529700  1
  Co  Co6  1  0.50000000  0.00000000  0.00000000  1
  Co  Co7  1  0.50000000  0.00000000  0.50000000  1
  Co  Co8  1  0.85657700  0.00000000  0.85470300  1
  Co  Co9  1  0.83592600  0.00000000  0.32838600  1
  Co  Co10  1  0.16407400  0.00000000  0.67161400  1
  Co  Co11  1  0.14342300  0.00000000  0.14529700  1
  O  O12  1  0.43134900  0.50000000  0.13522500  1
  O  O13  1  0.56865100  0.50000000  0.86477500  1
  O  O14  1  0.93134900  0.00000000  0.13522500  1
  O  O15  1  0.06865100  0.00000000  0.86477500  1
  F  F16  1  0.00000000  0.20038500  0.50000000  1
  F  F17  1  0.83751100  0.69825200  0.82785200  1
  F  F18  1  0.11353000  0.50000000  0.80385500  1
  F  F19  1  0.75976600  0.50000000  0.45654100  1
  F  F20  1  0.24023400  0.50000000  0.54345900  1
  F  F21  1  0.88647000  0.50000000  0.19614500  1
  F  F22  1  0.00000000  0.79961500  0.50000000  1
  F  F23  1  0.83751100  0.30174800  0.82785200  1
  F  F24  1  0.16248900  0.30174800  0.17214800  1
  F  F25  1  0.16248900  0.69825200  0.17214800  1
  F  F26  1  0.50000000  0.70038500  0.50000000  1
  F  F27  1  0.33751100  0.19825200  0.82785200  1
  F  F28  1  0.61353000  0.00000000  0.80385500  1
  F  F29  1  0.25976600  0.00000000  0.45654100  1
  F  F30  1  0.74023400  0.00000000  0.54345900  1
  F  F31  1  0.38647000  0.00000000  0.19614500  1
  F  F32  1  0.50000000  0.29961500  0.50000000  1
  F  F33  1  0.33751100  0.80174800  0.82785200  1
  F  F34  1  0.66248900  0.80174800  0.17214800  1
  F  F35  1  0.66248900  0.19825200  0.17214800  1
