# generated using pymatgen
data_Mn3O5F
_symmetry_space_group_name_H-M   'P 1'
_cell_length_a   8.90611000
_cell_length_b   6.31261600
_cell_length_c   7.24873960
_cell_angle_alpha   90.00000000
_cell_angle_beta   113.19586090
_cell_angle_gamma   90.00000000
_symmetry_Int_Tables_number   1
_chemical_formula_structural   Mn3O5F
_chemical_formula_sum   'Mn12 O20 F4'
_cell_volume   374.58711529
_cell_formula_units_Z   4
loop_
 _symmetry_equiv_pos_site_id
 _symmetry_equiv_pos_as_xyz
  1  'x, y, z'
loop_
 _atom_site_type_symbol
 _atom_site_label
 _atom_site_symmetry_multiplicity
 _atom_site_fract_x
 _atom_site_fract_y
 _atom_site_fract_z
 _atom_site_occupancy
  Mn  Mn0  1  0.82955800  0.50000000  0.83988400  1
  Mn  Mn1  1  0.15179400  0.50000000  0.67259700  1
  Mn  Mn2  1  0.84820600  0.50000000  0.32740300  1
  Mn  Mn3  1  0.17044200  0.50000000  0.16011600  1
  Mn  Mn4  1  0.00000000  0.00000000  0.50000000  1
  Mn  Mn5  1  0.00000000  0.00000000  0.00000000  1
  Mn  Mn6  1  0.32955800  0.00000000  0.83988400  1
  Mn  Mn7  1  0.65179400  0.00000000  0.67259700  1
  Mn  Mn8  1  0.34820600  0.00000000  0.32740300  1
  Mn  Mn9  1  0.67044200  0.00000000  0.16011600  1
  Mn  Mn10  1  0.50000000  0.50000000  0.50000000  1
  Mn  Mn11  1  0.50000000  0.50000000  0.00000000  1
  O  O12  1  0.16529150  0.19490650  0.66935200  1
  O  O13  1  0.83470850  0.19490650  0.33064800  1
  O  O14  1  0.93094500  0.50000000  0.62445600  1
  O  O15  1  0.26458600  0.50000000  0.96097300  1
  O  O16  1  0.73541400  0.50000000  0.03902700  1
  O  O17  1  0.06905500  0.50000000  0.37554400  1
  O  O18  1  0.83470850  0.80509350  0.33064800  1
  O  O19  1  0.16529150  0.80509350  0.66935200  1
  O  O20  1  0.00000000  0.30583100  0.00000000  1
  O  O21  1  0.00000000  0.69416900  0.00000000  1
  O  O22  1  0.66529150  0.69490650  0.66935200  1
  O  O23  1  0.33470850  0.69490650  0.33064800  1
  O  O24  1  0.43094500  0.00000000  0.62445600  1
  O  O25  1  0.76458600  0.00000000  0.96097300  1
  O  O26  1  0.23541400  0.00000000  0.03902700  1
  O  O27  1  0.56905500  0.00000000  0.37554400  1
  O  O28  1  0.33470850  0.30509350  0.33064800  1
  O  O29  1  0.66529150  0.30509350  0.66935200  1
  O  O30  1  0.50000000  0.80583100  0.00000000  1
  O  O31  1  0.50000000  0.19416900  0.00000000  1
  F  F32  1  0.61975100  0.50000000  0.30516600  1
  F  F33  1  0.38024900  0.50000000  0.69483400  1
  F  F34  1  0.11975100  0.00000000  0.30516600  1
  F  F35  1  0.88024900  0.00000000  0.69483400  1
