# generated using pymatgen
data_Mn4CoO8
_symmetry_space_group_name_H-M   'P 1'
_cell_length_a   10.26438600
_cell_length_b   5.81988000
_cell_length_c   6.00950044
_cell_angle_alpha   90.00000000
_cell_angle_beta   122.35817984
_cell_angle_gamma   90.00000000
_symmetry_Int_Tables_number   1
_chemical_formula_structural   Mn4CoO8
_chemical_formula_sum   'Mn8 Co2 O16'
_cell_volume   303.24771485
_cell_formula_units_Z   2
loop_
 _symmetry_equiv_pos_site_id
 _symmetry_equiv_pos_as_xyz
  1  'x, y, z'
loop_
 _atom_site_type_symbol
 _atom_site_label
 _atom_site_symmetry_multiplicity
 _atom_site_fract_x
 _atom_site_fract_y
 _atom_site_fract_z
 _atom_site_occupancy
  Mn  Mn0  1  0.00000000  0.50000000  0.50000000  1
  Mn  Mn1  1  0.00000000  0.00000000  0.00000000  1
  Mn  Mn2  1  0.25000000  0.75000000  0.00000000  1
  Mn  Mn3  1  0.25000000  0.25000000  0.00000000  1
  Mn  Mn4  1  0.50000000  0.00000000  0.50000000  1
  Mn  Mn5  1  0.50000000  0.50000000  0.00000000  1
  Mn  Mn6  1  0.75000000  0.25000000  0.00000000  1
  Mn  Mn7  1  0.75000000  0.75000000  0.00000000  1
  Co  Co8  1  0.00000000  0.50000000  0.00000000  1
  Co  Co9  1  0.50000000  0.00000000  0.00000000  1
  O  O10  1  0.27364200  0.00000000  0.80824600  1
  O  O11  1  0.02506400  0.26076000  0.80003200  1
  O  O12  1  0.02506400  0.73924000  0.80003200  1
  O  O13  1  0.24889300  0.50000000  0.78610800  1
  O  O14  1  0.25110700  0.00000000  0.21389200  1
  O  O15  1  0.47493600  0.76076000  0.19996800  1
  O  O16  1  0.47493600  0.23924000  0.19996800  1
  O  O17  1  0.22635800  0.50000000  0.19175400  1
  O  O18  1  0.77364200  0.50000000  0.80824600  1
  O  O19  1  0.52506400  0.76076000  0.80003200  1
  O  O20  1  0.52506400  0.23924000  0.80003200  1
  O  O21  1  0.74889300  0.00000000  0.78610800  1
  O  O22  1  0.75110700  0.50000000  0.21389200  1
  O  O23  1  0.97493600  0.26076000  0.19996800  1
  O  O24  1  0.97493600  0.73924000  0.19996800  1
  O  O25  1  0.72635800  0.00000000  0.19175400  1
