# generated using pymatgen
data_SrEu4O5
_symmetry_space_group_name_H-M   'P 1'
_cell_length_a   8.07925000
_cell_length_b   8.07925000
_cell_length_c   5.11025600
_cell_angle_alpha   90.00000000
_cell_angle_beta   90.00000000
_cell_angle_gamma   90.00000000
_symmetry_Int_Tables_number   1
_chemical_formula_structural   SrEu4O5
_chemical_formula_sum   'Sr2 Eu8 O10'
_cell_volume   333.56828389
_cell_formula_units_Z   2
loop_
 _symmetry_equiv_pos_site_id
 _symmetry_equiv_pos_as_xyz
  1  'x, y, z'
loop_
 _atom_site_type_symbol
 _atom_site_label
 _atom_site_symmetry_multiplicity
 _atom_site_fract_x
 _atom_site_fract_y
 _atom_site_fract_z
 _atom_site_occupancy
  Sr  Sr0  1  0.00000000  0.00000000  0.00000000  1
  Sr  Sr1  1  0.50000000  0.50000000  0.50000000  1
  Eu  Eu2  1  0.69942000  0.09978500  0.50000000  1
  Eu  Eu3  1  0.59978500  0.80058000  0.00000000  1
  Eu  Eu4  1  0.40021500  0.19942000  0.00000000  1
  Eu  Eu5  1  0.30058000  0.90021500  0.50000000  1
  Eu  Eu6  1  0.19942000  0.59978500  0.00000000  1
  Eu  Eu7  1  0.09978500  0.30058000  0.50000000  1
  Eu  Eu8  1  0.90021500  0.69942000  0.50000000  1
  Eu  Eu9  1  0.80058000  0.40021500  0.00000000  1
  O  O10  1  0.00000000  0.00000000  0.50000000  1
  O  O11  1  0.69521800  0.10235000  0.00000000  1
  O  O12  1  0.60235000  0.80478200  0.50000000  1
  O  O13  1  0.39765000  0.19521800  0.50000000  1
  O  O14  1  0.30478200  0.89765000  0.00000000  1
  O  O15  1  0.50000000  0.50000000  0.00000000  1
  O  O16  1  0.19521800  0.60235000  0.50000000  1
  O  O17  1  0.10235000  0.30478200  0.00000000  1
  O  O18  1  0.89765000  0.69521800  0.00000000  1
  O  O19  1  0.80478200  0.39765000  0.50000000  1
