# generated using pymatgen
data_Li4Fe3Ni3(WO8)2
_symmetry_space_group_name_H-M   'P 1'
_cell_length_a   10.31060800
_cell_length_b   5.93423800
_cell_length_c   9.70643671
_cell_angle_alpha   90.00000000
_cell_angle_beta   90.21242687
_cell_angle_gamma   90.00000000
_symmetry_Int_Tables_number   1
_chemical_formula_structural   Li4Fe3Ni3(WO8)2
_chemical_formula_sum   'Li8 Fe6 Ni6 W4 O32'
_cell_volume   593.89008971
_cell_formula_units_Z   2
loop_
 _symmetry_equiv_pos_site_id
 _symmetry_equiv_pos_as_xyz
  1  'x, y, z'
loop_
 _atom_site_type_symbol
 _atom_site_label
 _atom_site_symmetry_multiplicity
 _atom_site_fract_x
 _atom_site_fract_y
 _atom_site_fract_z
 _atom_site_occupancy
  Li  Li0  1  0.66559200  0.00000000  0.09360300  1
  Li  Li1  1  0.50026500  0.50000000  0.01389700  1
  Li  Li2  1  0.99976100  0.00000000  0.51046000  1
  Li  Li3  1  0.83282400  0.50000000  0.59175800  1
  Li  Li4  1  0.16559200  0.50000000  0.09360300  1
  Li  Li5  1  0.00026500  0.00000000  0.01389700  1
  Li  Li6  1  0.49976100  0.50000000  0.51046000  1
  Li  Li7  1  0.33282400  0.00000000  0.59175800  1
  Fe  Fe8  1  0.58873050  0.75450450  0.78301900  1
  Fe  Fe9  1  0.58873050  0.24549550  0.78301900  1
  Fe  Fe10  1  0.67249000  0.50000000  0.28199900  1
  Fe  Fe11  1  0.08873050  0.25450450  0.78301900  1
  Fe  Fe12  1  0.08873050  0.74549550  0.78301900  1
  Fe  Fe13  1  0.17249000  0.00000000  0.28199900  1
  Ni  Ni14  1  0.83009300  0.00000000  0.78858900  1
  Ni  Ni15  1  0.91495450  0.25458050  0.28695200  1
  Ni  Ni16  1  0.91495450  0.74541950  0.28695200  1
  Ni  Ni17  1  0.33009300  0.50000000  0.78858900  1
  Ni  Ni18  1  0.41495450  0.75458050  0.28695200  1
  Ni  Ni19  1  0.41495450  0.24541950  0.28695200  1
  W  W20  1  0.67064100  0.00000000  0.51167100  1
  W  W21  1  0.83851700  0.50000000  0.01495500  1
  W  W22  1  0.17064100  0.50000000  0.51167100  1
  W  W23  1  0.33851700  0.00000000  0.01495500  1
  O  O24  1  0.58802300  0.75802500  0.41185600  1
  O  O25  1  0.51971900  0.00000000  0.65049100  1
  O  O26  1  0.66011200  0.00000000  0.89011600  1
  O  O27  1  0.50315500  0.50000000  0.69911300  1
  O  O28  1  0.50355500  0.50000000  0.20131400  1
  O  O29  1  0.58802300  0.24197500  0.41185600  1
  O  O30  1  0.73834800  0.77755700  0.64806500  1
  O  O31  1  0.73834800  0.22244300  0.64806500  1
  O  O32  1  0.67235400  0.50000000  0.91002400  1
  O  O33  1  0.82828200  0.00000000  0.41264600  1
  O  O34  1  0.75605350  0.28104850  0.14931300  1
  O  O35  1  0.75605350  0.71895150  0.14931300  1
  O  O36  1  0.82946600  0.50000000  0.38797400  1
  O  O37  1  0.91391450  0.25855650  0.91342000  1
  O  O38  1  0.97950800  0.50000000  0.14782200  1
  O  O39  1  0.91391450  0.74144350  0.91342000  1
  O  O40  1  0.08802300  0.25802500  0.41185600  1
  O  O41  1  0.01971900  0.50000000  0.65049100  1
  O  O42  1  0.16011200  0.50000000  0.89011600  1
  O  O43  1  0.00315500  0.00000000  0.69911300  1
  O  O44  1  0.00355500  0.00000000  0.20131400  1
  O  O45  1  0.08802300  0.74197500  0.41185600  1
  O  O46  1  0.23834800  0.27755700  0.64806500  1
  O  O47  1  0.23834800  0.72244300  0.64806500  1
  O  O48  1  0.17235400  0.00000000  0.91002400  1
  O  O49  1  0.32828200  0.50000000  0.41264600  1
  O  O50  1  0.25605350  0.78104850  0.14931300  1
  O  O51  1  0.25605350  0.21895150  0.14931300  1
  O  O52  1  0.32946600  0.00000000  0.38797400  1
  O  O53  1  0.41391450  0.75855650  0.91342000  1
  O  O54  1  0.47950800  0.00000000  0.14782200  1
  O  O55  1  0.41391450  0.24144350  0.91342000  1
