# generated using pymatgen
data_Li2Ti3V3O12
_symmetry_space_group_name_H-M   'P 1'
_cell_length_a   5.19561872
_cell_length_b   6.09086983
_cell_length_c   8.00287125
_cell_angle_alpha   77.22631124
_cell_angle_beta   76.77324517
_cell_angle_gamma   73.57216604
_symmetry_Int_Tables_number   1
_chemical_formula_structural   Li2Ti3V3O12
_chemical_formula_sum   'Li2 Ti3 V3 O12'
_cell_volume   233.13406241
_cell_formula_units_Z   1
loop_
 _symmetry_equiv_pos_site_id
 _symmetry_equiv_pos_as_xyz
  1  'x, y, z'
loop_
 _atom_site_type_symbol
 _atom_site_label
 _atom_site_symmetry_multiplicity
 _atom_site_fract_x
 _atom_site_fract_y
 _atom_site_fract_z
 _atom_site_occupancy
  Li  Li0  1  0.50000000  0.50000000  0.50000000  1
  Li  Li1  1  0.00000000  0.00000000  0.00000000  1
  Ti  Ti2  1  0.50000000  0.00000000  0.50000000  1
  Ti  Ti3  1  0.49745700  0.68023500  0.83768900  1
  Ti  Ti4  1  0.50254300  0.31976500  0.16231100  1
  V  V5  1  0.00000000  0.50000000  0.00000000  1
  V  V6  1  0.99229550  0.83582600  0.66629750  1
  V  V7  1  0.00770450  0.16417400  0.33370250  1
  O  O8  1  0.76081650  0.79980700  0.90666850  1
  O  O9  1  0.23918350  0.20019300  0.09333150  1
  O  O10  1  0.26824450  0.96710200  0.74356950  1
  O  O11  1  0.73175550  0.03289800  0.25643050  1
  O  O12  1  0.70964850  0.69586100  0.60023250  1
  O  O13  1  0.29035150  0.30413900  0.39976750  1
  O  O14  1  0.73911550  0.36112700  0.93562650  1
  O  O15  1  0.26088450  0.63887300  0.06437350  1
  O  O16  1  0.24613300  0.85952450  0.43808950  1
  O  O17  1  0.75386700  0.14047550  0.56191050  1
  O  O18  1  0.23006500  0.53071400  0.77492700  1
  O  O19  1  0.76993500  0.46928600  0.22507300  1
