# generated using pymatgen
data_Mn(SO4)2
_symmetry_space_group_name_H-M   'P 1'
_cell_length_a   8.28261752
_cell_length_b   8.28261752
_cell_length_c   22.35183959
_cell_angle_alpha   90.00000000
_cell_angle_beta   90.00000000
_cell_angle_gamma   120.00000000
_symmetry_Int_Tables_number   1
_chemical_formula_structural   Mn(SO4)2
_chemical_formula_sum   'Mn9 S18 O72'
_cell_volume   1327.94203051
_cell_formula_units_Z   9
loop_
 _symmetry_equiv_pos_site_id
 _symmetry_equiv_pos_as_xyz
  1  'x, y, z'
loop_
 _atom_site_type_symbol
 _atom_site_label
 _atom_site_symmetry_multiplicity
 _atom_site_fract_x
 _atom_site_fract_y
 _atom_site_fract_z
 _atom_site_occupancy
  Mn  Mn0  1  0.33333333  0.66666667  0.01877467  1
  Mn  Mn1  1  0.33333333  0.66666667  0.31080467  1
  Mn  Mn2  1  0.66666667  0.33333333  0.18147933  1
  Mn  Mn3  1  0.00000000  0.00000000  0.35210800  1
  Mn  Mn4  1  0.00000000  0.00000000  0.64413800  1
  Mn  Mn5  1  0.33333333  0.66666667  0.51481267  1
  Mn  Mn6  1  0.66666667  0.33333333  0.68544133  1
  Mn  Mn7  1  0.66666667  0.33333333  0.97747133  1
  Mn  Mn8  1  0.00000000  0.00000000  0.84814600  1
  S  S9  1  0.95227400  0.33593400  0.08338500  1
  S  S10  1  0.38366000  0.04772600  0.08338500  1
  S  S11  1  0.66406600  0.61634000  0.08338500  1
  S  S12  1  0.00582467  0.71211533  0.24828033  1
  S  S13  1  0.28788467  0.29370933  0.24828033  1
  S  S14  1  0.70629067  0.99417533  0.24828033  1
  S  S15  1  0.61894067  0.66926733  0.41671833  1
  S  S16  1  0.05032667  0.38105933  0.41671833  1
  S  S17  1  0.33073267  0.94967333  0.41671833  1
  S  S18  1  0.67249133  0.04544867  0.58161367  1
  S  S19  1  0.95455133  0.62704267  0.58161367  1
  S  S20  1  0.37295733  0.32750867  0.58161367  1
  S  S21  1  0.28560733  0.00260067  0.75005167  1
  S  S22  1  0.71699333  0.71439267  0.75005167  1
  S  S23  1  0.99739933  0.28300667  0.75005167  1
  S  S24  1  0.33915800  0.37878200  0.91494700  1
  S  S25  1  0.62121800  0.96037600  0.91494700  1
  S  S26  1  0.03962400  0.66084200  0.91494700  1
  O  O27  1  0.79764567  0.01292633  0.30829033  1
  O  O28  1  0.98707367  0.78471933  0.30829033  1
  O  O29  1  0.90770833  0.14962267  0.09731767  1
  O  O30  1  0.21528067  0.20235433  0.30829033  1
  O  O31  1  0.89100367  0.42398833  0.13146433  1
  O  O32  1  0.15787433  0.46473367  0.07804667  1
  O  O33  1  0.30685933  0.84212567  0.07804667  1
  O  O34  1  0.24191433  0.09229167  0.09731767  1
  O  O35  1  0.53526633  0.69314067  0.07804667  1
  O  O36  1  0.81206167  0.55471133  0.23573733  1
  O  O37  1  0.08634167  0.85204933  0.20322933  1
  O  O38  1  0.14795067  0.23429233  0.20322933  1
  O  O39  1  0.53298467  0.10899633  0.13146433  1
  O  O40  1  0.57601167  0.46701533  0.13146433  1
  O  O41  1  0.85037733  0.75808567  0.09731767  1
  O  O42  1  0.12019533  0.61701267  0.25936167  1
  O  O43  1  0.44528867  0.25735033  0.23573733  1
  O  O44  1  0.38298733  0.50318267  0.25936167  1
  O  O45  1  0.49681733  0.87980467  0.25936167  1
  O  O46  1  0.76570767  0.91365833  0.20322933  1
  O  O47  1  0.47446900  0.12952200  0.02420900  1
  O  O48  1  0.74264967  0.18793833  0.23573733  1
  O  O49  1  0.65505300  0.52553100  0.02420900  1
  O  O50  1  0.87047800  0.34494700  0.02420900  1
  O  O51  1  0.46431233  0.34625967  0.64162367  1
  O  O52  1  0.65374033  0.11805267  0.64162367  1
  O  O53  1  0.57437500  0.48295600  0.43065100  1
  O  O54  1  0.88194733  0.53568767  0.64162367  1
  O  O55  1  0.55767033  0.75732167  0.46479767  1
  O  O56  1  0.82454100  0.79806700  0.41138000  1
  O  O57  1  0.97352600  0.17545900  0.41138000  1
  O  O58  1  0.90858100  0.42562500  0.43065100  1
  O  O59  1  0.20193300  0.02647400  0.41138000  1
  O  O60  1  0.47872833  0.88804467  0.56907067  1
  O  O61  1  0.75300833  0.18538267  0.53656267  1
  O  O62  1  0.81461733  0.56762567  0.53656267  1
  O  O63  1  0.19965133  0.44232967  0.46479767  1
  O  O64  1  0.24267833  0.80034867  0.46479767  1
  O  O65  1  0.51704400  0.09141900  0.43065100  1
  O  O66  1  0.78686200  0.95034600  0.59269500  1
  O  O67  1  0.11195533  0.59068367  0.56907067  1
  O  O68  1  0.04965400  0.83651600  0.59269500  1
  O  O69  1  0.16348400  0.21313800  0.59269500  1
  O  O70  1  0.43237433  0.24699167  0.53656267  1
  O  O71  1  0.14113567  0.46285533  0.35754233  1
  O  O72  1  0.40931633  0.52127167  0.56907067  1
  O  O73  1  0.32171967  0.85886433  0.35754233  1
  O  O74  1  0.53714467  0.67828033  0.35754233  1
  O  O75  1  0.13097900  0.67959300  0.97495700  1
  O  O76  1  0.32040700  0.45138600  0.97495700  1
  O  O77  1  0.24104167  0.81628933  0.76398433  1
  O  O78  1  0.54861400  0.86902100  0.97495700  1
  O  O79  1  0.22433700  0.09065500  0.79813100  1
  O  O80  1  0.49120767  0.13140033  0.74471333  1
  O  O81  1  0.64019267  0.50879233  0.74471333  1
  O  O82  1  0.57524767  0.75895833  0.76398433  1
  O  O83  1  0.86859967  0.35980733  0.74471333  1
  O  O84  1  0.14539500  0.22137800  0.90240400  1
  O  O85  1  0.41967500  0.51871600  0.86989600  1
  O  O86  1  0.48128400  0.90095900  0.86989600  1
  O  O87  1  0.86631800  0.77566300  0.79813100  1
  O  O88  1  0.90934500  0.13368200  0.79813100  1
  O  O89  1  0.18371067  0.42475233  0.76398433  1
  O  O90  1  0.45352867  0.28367933  0.92602833  1
  O  O91  1  0.77862200  0.92401700  0.90240400  1
  O  O92  1  0.71632067  0.16984933  0.92602833  1
  O  O93  1  0.83015067  0.54647133  0.92602833  1
  O  O94  1  0.09904100  0.58032500  0.86989600  1
  O  O95  1  0.80780233  0.79618867  0.69087567  1
  O  O96  1  0.07598300  0.85460500  0.90240400  1
  O  O97  1  0.98838633  0.19219767  0.69087567  1
  O  O98  1  0.20381133  0.01161367  0.69087567  1
