# generated using pymatgen
data_Mn2OF3
_symmetry_space_group_name_H-M   'P 1'
_cell_length_a   6.68102600
_cell_length_b   7.09204000
_cell_length_c   12.73520100
_cell_angle_alpha   90.00000000
_cell_angle_beta   90.00000000
_cell_angle_gamma   90.00000000
_symmetry_Int_Tables_number   1
_chemical_formula_structural   Mn2OF3
_chemical_formula_sum   'Mn16 O8 F24'
_cell_volume   603.42061357
_cell_formula_units_Z   8
loop_
 _symmetry_equiv_pos_site_id
 _symmetry_equiv_pos_as_xyz
  1  'x, y, z'
loop_
 _atom_site_type_symbol
 _atom_site_label
 _atom_site_symmetry_multiplicity
 _atom_site_fract_x
 _atom_site_fract_y
 _atom_site_fract_z
 _atom_site_occupancy
  Mn  Mn0  1  0.96391900  0.00000000  0.00000000  1
  Mn  Mn1  1  0.02318800  0.00000000  0.24906600  1
  Mn  Mn2  1  0.01622400  0.00000000  0.50000000  1
  Mn  Mn3  1  0.02318800  0.00000000  0.75093400  1
  Mn  Mn4  1  0.48549700  0.00000000  0.62529500  1
  Mn  Mn5  1  0.49540000  0.00000000  0.12485600  1
  Mn  Mn6  1  0.48549700  0.00000000  0.37470500  1
  Mn  Mn7  1  0.49540000  0.00000000  0.87514400  1
  Mn  Mn8  1  0.46391900  0.50000000  0.00000000  1
  Mn  Mn9  1  0.52318800  0.50000000  0.24906600  1
  Mn  Mn10  1  0.51622400  0.50000000  0.50000000  1
  Mn  Mn11  1  0.52318800  0.50000000  0.75093400  1
  Mn  Mn12  1  0.98549700  0.50000000  0.62529500  1
  Mn  Mn13  1  0.99540000  0.50000000  0.12485600  1
  Mn  Mn14  1  0.98549700  0.50000000  0.37470500  1
  Mn  Mn15  1  0.99540000  0.50000000  0.87514400  1
  O  O16  1  0.31869700  0.00000000  0.24682000  1
  O  O17  1  0.30697600  0.00000000  0.50000000  1
  O  O18  1  0.31869700  0.00000000  0.75318000  1
  O  O19  1  0.66653600  0.00000000  0.00000000  1
  O  O20  1  0.81869700  0.50000000  0.24682000  1
  O  O21  1  0.80697600  0.50000000  0.50000000  1
  O  O22  1  0.81869700  0.50000000  0.75318000  1
  O  O23  1  0.16653600  0.50000000  0.00000000  1
  F  F24  1  0.49503750  0.29915750  0.12520900  1
  F  F25  1  0.50631700  0.30599700  0.37576100  1
  F  F26  1  0.50631700  0.30599700  0.62423900  1
  F  F27  1  0.49503750  0.29915750  0.87479100  1
  F  F28  1  0.27814900  0.00000000  0.00000000  1
  F  F29  1  0.70778100  0.00000000  0.25521300  1
  F  F30  1  0.70165400  0.00000000  0.50000000  1
  F  F31  1  0.70778100  0.00000000  0.74478700  1
  F  F32  1  0.49503750  0.70084250  0.12520900  1
  F  F33  1  0.50631700  0.69400300  0.37576100  1
  F  F34  1  0.50631700  0.69400300  0.62423900  1
  F  F35  1  0.49503750  0.70084250  0.87479100  1
  F  F36  1  0.99503750  0.79915750  0.12520900  1
  F  F37  1  0.00631700  0.80599700  0.37576100  1
  F  F38  1  0.00631700  0.80599700  0.62423900  1
  F  F39  1  0.99503750  0.79915750  0.87479100  1
  F  F40  1  0.77814900  0.50000000  0.00000000  1
  F  F41  1  0.20778100  0.50000000  0.25521300  1
  F  F42  1  0.20165400  0.50000000  0.50000000  1
  F  F43  1  0.20778100  0.50000000  0.74478700  1
  F  F44  1  0.99503750  0.20084250  0.12520900  1
  F  F45  1  0.00631700  0.19400300  0.37576100  1
  F  F46  1  0.00631700  0.19400300  0.62423900  1
  F  F47  1  0.99503750  0.20084250  0.87479100  1
