# generated using pymatgen
data_Rb17Fe5O16
_symmetry_space_group_name_H-M   'P 1'
_cell_length_a   7.11410600
_cell_length_b   37.66473000
_cell_length_c   7.12597990
_cell_angle_alpha   90.00000000
_cell_angle_beta   119.54583682
_cell_angle_gamma   90.00000000
_symmetry_Int_Tables_number   1
_chemical_formula_structural   Rb17Fe5O16
_chemical_formula_sum   'Rb34 Fe10 O32'
_cell_volume   1661.11540343
_cell_formula_units_Z   2
loop_
 _symmetry_equiv_pos_site_id
 _symmetry_equiv_pos_as_xyz
  1  'x, y, z'
loop_
 _atom_site_type_symbol
 _atom_site_label
 _atom_site_symmetry_multiplicity
 _atom_site_fract_x
 _atom_site_fract_y
 _atom_site_fract_z
 _atom_site_occupancy
  Rb  Rb0  1  0.45756200  0.13871200  0.05373000  1
  Rb  Rb1  1  0.46315200  0.04627100  0.07321000  1
  Rb  Rb2  1  0.45023850  0.23344550  0.07108000  1
  Rb  Rb3  1  0.50292300  0.41470200  0.19285000  1
  Rb  Rb4  1  0.50000900  0.33124800  0.46832500  1
  Rb  Rb5  1  0.54513300  0.13671000  0.59643900  1
  Rb  Rb6  1  0.55148650  0.22564250  0.61508800  1
  Rb  Rb7  1  0.54377800  0.04566800  0.61364800  1
  Rb  Rb8  1  0.95756200  0.36128800  0.05373000  1
  Rb  Rb9  1  0.96315200  0.45372900  0.07321000  1
  Rb  Rb10  1  0.95023850  0.26655450  0.07108000  1
  Rb  Rb11  1  0.00292300  0.08529800  0.19285000  1
  Rb  Rb12  1  0.00000900  0.16875200  0.46832500  1
  Rb  Rb13  1  0.04513300  0.36329000  0.59643900  1
  Rb  Rb14  1  0.05148650  0.27435750  0.61508800  1
  Rb  Rb15  1  0.04377800  0.45433200  0.61364800  1
  Rb  Rb16  1  0.00257300  0.00000000  0.48530100  1
  Rb  Rb17  1  0.95756200  0.63871200  0.05373000  1
  Rb  Rb18  1  0.96315200  0.54627100  0.07321000  1
  Rb  Rb19  1  0.95023850  0.73344550  0.07108000  1
  Rb  Rb20  1  0.00292300  0.91470200  0.19285000  1
  Rb  Rb21  1  0.00000900  0.83124800  0.46832500  1
  Rb  Rb22  1  0.04513300  0.63671000  0.59643900  1
  Rb  Rb23  1  0.05148650  0.72564250  0.61508800  1
  Rb  Rb24  1  0.04377800  0.54566800  0.61364800  1
  Rb  Rb25  1  0.45756200  0.86128800  0.05373000  1
  Rb  Rb26  1  0.46315200  0.95372900  0.07321000  1
  Rb  Rb27  1  0.45023850  0.76655450  0.07108000  1
  Rb  Rb28  1  0.50292300  0.58529800  0.19285000  1
  Rb  Rb29  1  0.50000900  0.66875200  0.46832500  1
  Rb  Rb30  1  0.54513300  0.86329000  0.59643900  1
  Rb  Rb31  1  0.55148650  0.77435750  0.61508800  1
  Rb  Rb32  1  0.54377800  0.95433200  0.61364800  1
  Rb  Rb33  1  0.50257300  0.50000000  0.48530100  1
  Fe  Fe34  1  0.00376900  0.00000000  0.98902800  1
  Fe  Fe35  1  0.50320800  0.41074900  0.68995600  1
  Fe  Fe36  1  0.50101200  0.32161500  0.98280600  1
  Fe  Fe37  1  0.00320800  0.08925100  0.68995600  1
  Fe  Fe38  1  0.00101200  0.17838500  0.98280600  1
  Fe  Fe39  1  0.50376900  0.50000000  0.98902800  1
  Fe  Fe40  1  0.00320800  0.91074900  0.68995600  1
  Fe  Fe41  1  0.00101200  0.82161500  0.98280600  1
  Fe  Fe42  1  0.50320800  0.58925100  0.68995600  1
  Fe  Fe43  1  0.50101200  0.67838500  0.98280600  1
  O  O44  1  0.74231550  0.18508250  0.00050900  1
  O  O45  1  0.74780350  0.09194750  0.41671400  1
  O  O46  1  0.24231550  0.31491750  0.00050900  1
  O  O47  1  0.74659000  0.00000000  0.00692000  1
  O  O48  1  0.25829000  0.18437600  0.25559000  1
  O  O49  1  0.49941100  0.28701400  0.78410300  1
  O  O50  1  0.50334650  0.45665250  0.83049500  1
  O  O51  1  0.50024400  0.37075000  0.86661500  1
  O  O52  1  0.24780350  0.40805250  0.41671400  1
  O  O53  1  0.25942000  0.09215500  0.67078200  1
  O  O54  1  0.75829000  0.31562400  0.25559000  1
  O  O55  1  0.26040300  0.00000000  0.26136800  1
  O  O56  1  0.99941100  0.21298600  0.78410300  1
  O  O57  1  0.00334650  0.04334750  0.83049500  1
  O  O58  1  0.00024400  0.12925000  0.86661500  1
  O  O59  1  0.75942000  0.40784500  0.67078200  1
  O  O60  1  0.24231550  0.68508250  0.00050900  1
  O  O61  1  0.24780350  0.59194750  0.41671400  1
  O  O62  1  0.74231550  0.81491750  0.00050900  1
  O  O63  1  0.24659000  0.50000000  0.00692000  1
  O  O64  1  0.75829000  0.68437600  0.25559000  1
  O  O65  1  0.99941100  0.78701400  0.78410300  1
  O  O66  1  0.00334650  0.95665250  0.83049500  1
  O  O67  1  0.00024400  0.87075000  0.86661500  1
  O  O68  1  0.74780350  0.90805250  0.41671400  1
  O  O69  1  0.75942000  0.59215500  0.67078200  1
  O  O70  1  0.25829000  0.81562400  0.25559000  1
  O  O71  1  0.76040300  0.50000000  0.26136800  1
  O  O72  1  0.49941100  0.71298600  0.78410300  1
  O  O73  1  0.50334650  0.54334750  0.83049500  1
  O  O74  1  0.50024400  0.62925000  0.86661500  1
  O  O75  1  0.25942000  0.90784500  0.67078200  1
