# generated using pymatgen
data_Mn3Cr5O16
_symmetry_space_group_name_H-M   'P 1'
_cell_length_a   10.09445482
_cell_length_b   5.81280611
_cell_length_c   8.87886733
_cell_angle_alpha   90.00000000
_cell_angle_beta   90.24331494
_cell_angle_gamma   90.00000000
_symmetry_Int_Tables_number   1
_chemical_formula_structural   Mn3Cr5O16
_chemical_formula_sum   'Mn6 Cr10 O32'
_cell_volume   520.98156465
_cell_formula_units_Z   2
loop_
 _symmetry_equiv_pos_site_id
 _symmetry_equiv_pos_as_xyz
  1  'x, y, z'
loop_
 _atom_site_type_symbol
 _atom_site_label
 _atom_site_symmetry_multiplicity
 _atom_site_fract_x
 _atom_site_fract_y
 _atom_site_fract_z
 _atom_site_occupancy
  Mn  Mn0  1  0.82866100  0.00000000  0.21295800  1
  Mn  Mn1  1  0.91494250  0.25320150  0.71166500  1
  Mn  Mn2  1  0.91494250  0.74679850  0.71166500  1
  Mn  Mn3  1  0.32866100  0.50000000  0.21295800  1
  Mn  Mn4  1  0.41494250  0.75320150  0.71166500  1
  Mn  Mn5  1  0.41494250  0.24679850  0.71166500  1
  Cr  Cr6  1  0.58028050  0.74885550  0.20718500  1
  Cr  Cr7  1  0.66988400  0.00000000  0.48867300  1
  Cr  Cr8  1  0.58028050  0.25114450  0.20718500  1
  Cr  Cr9  1  0.66410450  0.50000000  0.70424100  1
  Cr  Cr10  1  0.83302450  0.50000000  0.98668900  1
  Cr  Cr11  1  0.08028050  0.24885550  0.20718500  1
  Cr  Cr12  1  0.16988400  0.50000000  0.48867300  1
  Cr  Cr13  1  0.08028050  0.75114450  0.20718500  1
  Cr  Cr14  1  0.16410450  0.00000000  0.70424100  1
  Cr  Cr15  1  0.33302450  0.00000000  0.98668900  1
  O  O16  1  0.58622450  0.75192550  0.60438700  1
  O  O17  1  0.52765000  0.00000000  0.33687600  1
  O  O18  1  0.66925250  0.00000000  0.09845500  1
  O  O19  1  0.99568500  0.00000000  0.31703400  1
  O  O20  1  0.99621950  0.00000000  0.81660600  1
  O  O21  1  0.58622450  0.24807450  0.60438700  1
  O  O22  1  0.73841300  0.78406800  0.33925100  1
  O  O23  1  0.73841300  0.21593200  0.33925100  1
  O  O24  1  0.67231600  0.50000000  0.10741700  1
  O  O25  1  0.83071650  0.00000000  0.60115100  1
  O  O26  1  0.76174950  0.28543550  0.83770200  1
  O  O27  1  0.76174950  0.71456450  0.83770200  1
  O  O28  1  0.83710900  0.50000000  0.59922700  1
  O  O29  1  0.91653450  0.25532350  0.10390600  1
  O  O30  1  0.97869400  0.50000000  0.83841400  1
  O  O31  1  0.91653450  0.74467650  0.10390600  1
  O  O32  1  0.08622450  0.25192550  0.60438700  1
  O  O33  1  0.02765000  0.50000000  0.33687600  1
  O  O34  1  0.16925250  0.50000000  0.09845500  1
  O  O35  1  0.49568500  0.50000000  0.31703400  1
  O  O36  1  0.49621950  0.50000000  0.81660600  1
  O  O37  1  0.08622450  0.74807450  0.60438700  1
  O  O38  1  0.23841300  0.28406800  0.33925100  1
  O  O39  1  0.23841300  0.71593200  0.33925100  1
  O  O40  1  0.17231600  0.00000000  0.10741700  1
  O  O41  1  0.33071650  0.50000000  0.60115100  1
  O  O42  1  0.26174950  0.78543550  0.83770200  1
  O  O43  1  0.26174950  0.21456450  0.83770200  1
  O  O44  1  0.33710900  0.00000000  0.59922700  1
  O  O45  1  0.41653450  0.75532350  0.10390600  1
  O  O46  1  0.47869400  0.00000000  0.83841400  1
  O  O47  1  0.41653450  0.24467650  0.10390600  1
