# generated using pymatgen
data_CrNi5(PO4)6
_symmetry_space_group_name_H-M   'P 1'
_cell_length_a   8.60917385
_cell_length_b   8.60917385
_cell_length_c   20.54774875
_cell_angle_alpha   90.00000000
_cell_angle_beta   90.00000000
_cell_angle_gamma   120.00000000
_symmetry_Int_Tables_number   1
_chemical_formula_structural   CrNi5(PO4)6
_chemical_formula_sum   'Cr3 Ni15 P18 O72'
_cell_volume   1318.91811764
_cell_formula_units_Z   3
loop_
 _symmetry_equiv_pos_site_id
 _symmetry_equiv_pos_as_xyz
  1  'x, y, z'
loop_
 _atom_site_type_symbol
 _atom_site_label
 _atom_site_symmetry_multiplicity
 _atom_site_fract_x
 _atom_site_fract_y
 _atom_site_fract_z
 _atom_site_occupancy
  Cr  Cr0  1  0.33333333  0.66666667  0.52503267  1
  Cr  Cr1  1  0.00000000  0.00000000  0.85836600  1
  Cr  Cr2  1  0.66666667  0.33333333  0.19169933  1
  Ni  Ni3  1  0.33333333  0.66666667  0.66795867  1
  Ni  Ni4  1  0.33333333  0.66666667  0.02605567  1
  Ni  Ni5  1  0.33333333  0.66666667  0.16702967  1
  Ni  Ni6  1  0.33333333  0.66666667  0.80877067  1
  Ni  Ni7  1  0.33333333  0.66666667  0.30822767  1
  Ni  Ni8  1  0.00000000  0.00000000  0.00129200  1
  Ni  Ni9  1  0.00000000  0.00000000  0.35938900  1
  Ni  Ni10  1  0.00000000  0.00000000  0.50036300  1
  Ni  Ni11  1  0.00000000  0.00000000  0.14210400  1
  Ni  Ni12  1  0.00000000  0.00000000  0.64156100  1
  Ni  Ni13  1  0.66666667  0.33333333  0.33462533  1
  Ni  Ni14  1  0.66666667  0.33333333  0.69272233  1
  Ni  Ni15  1  0.66666667  0.33333333  0.83369633  1
  Ni  Ni16  1  0.66666667  0.33333333  0.47543733  1
  Ni  Ni17  1  0.66666667  0.33333333  0.97489433  1
  P  P18  1  0.66642067  0.62761533  0.08330233  1
  P  P19  1  0.96119467  0.33357933  0.08330233  1
  P  P20  1  0.37238467  0.03880533  0.08330233  1
  P  P21  1  0.29648000  0.29667200  0.25004800  1
  P  P22  1  0.70332800  0.99980800  0.25004800  1
  P  P23  1  0.00019200  0.70352000  0.25004800  1
  P  P24  1  0.33308733  0.96094867  0.41663567  1
  P  P25  1  0.62786133  0.66691267  0.41663567  1
  P  P26  1  0.03905133  0.37213867  0.41663567  1
  P  P27  1  0.96314667  0.63000533  0.58338133  1
  P  P28  1  0.36999467  0.33314133  0.58338133  1
  P  P29  1  0.66685867  0.03685333  0.58338133  1
  P  P30  1  0.99975400  0.29428200  0.74996900  1
  P  P31  1  0.29452800  0.00024600  0.74996900  1
  P  P32  1  0.70571800  0.70547200  0.74996900  1
  P  P33  1  0.62981333  0.96333867  0.91671467  1
  P  P34  1  0.03666133  0.66647467  0.91671467  1
  P  P35  1  0.33352533  0.37018667  0.91671467  1
  O  O36  1  0.53944467  0.67844333  0.35411133  1
  O  O37  1  0.13899867  0.46055533  0.35411133  1
  O  O38  1  0.32155667  0.86100133  0.35411133  1
  O  O39  1  0.83370700  0.81678700  0.07400100  1
  O  O40  1  0.34789200  0.86393800  0.47790100  1
  O  O41  1  0.49878767  0.64531733  0.09601833  1
  O  O42  1  0.98308000  0.16629300  0.07400100  1
  O  O43  1  0.14652967  0.50121233  0.09601833  1
  O  O44  1  0.20609100  0.19909200  0.18736600  1
  O  O45  1  0.35468267  0.85347033  0.09601833  1
  O  O46  1  0.49217900  0.32424500  0.25695500  1
  O  O47  1  0.80090800  0.00699900  0.18736600  1
  O  O48  1  0.51604600  0.65210800  0.47790100  1
  O  O49  1  0.18321300  0.01692000  0.07400100  1
  O  O50  1  0.32245300  0.48763900  0.24010000  1
  O  O51  1  0.13606200  0.48395400  0.47790100  1
  O  O52  1  0.51236100  0.83481400  0.24010000  1
  O  O53  1  0.67575500  0.16793400  0.25695500  1
  O  O54  1  0.16518600  0.67754700  0.24010000  1
  O  O55  1  0.99300100  0.79390900  0.18736600  1
  O  O56  1  0.83206600  0.50782100  0.25695500  1
  O  O57  1  0.33553300  0.46437600  0.97917600  1
  O  O58  1  0.53562400  0.87115700  0.97917600  1
  O  O59  1  0.12884300  0.66446700  0.97917600  1
  O  O60  1  0.20611133  0.01177667  0.68744467  1
  O  O61  1  0.80566533  0.79388867  0.68744467  1
  O  O62  1  0.98822333  0.19433467  0.68744467  1
  O  O63  1  0.50037367  0.15012033  0.40733433  1
  O  O64  1  0.01455867  0.19727133  0.81123433  1
  O  O65  1  0.16545433  0.97865067  0.42935167  1
  O  O66  1  0.64974667  0.49962633  0.40733433  1
  O  O67  1  0.81319633  0.83454567  0.42935167  1
  O  O68  1  0.87275767  0.53242533  0.52069933  1
  O  O69  1  0.02134933  0.18680367  0.42935167  1
  O  O70  1  0.15884567  0.65757833  0.59028833  1
  O  O71  1  0.46757467  0.34033233  0.52069933  1
  O  O72  1  0.18271267  0.98544133  0.81123433  1
  O  O73  1  0.84987967  0.35025333  0.40733433  1
  O  O74  1  0.98911967  0.82097233  0.57343333  1
  O  O75  1  0.80272867  0.81728733  0.81123433  1
  O  O76  1  0.17902767  0.16814733  0.57343333  1
  O  O77  1  0.34242167  0.50126733  0.59028833  1
  O  O78  1  0.83185267  0.01088033  0.57343333  1
  O  O79  1  0.65966767  0.12724233  0.52069933  1
  O  O80  1  0.49873267  0.84115433  0.59028833  1
  O  O81  1  0.00219967  0.79770933  0.31250933  1
  O  O82  1  0.20229067  0.20449033  0.31250933  1
  O  O83  1  0.79550967  0.99780033  0.31250933  1
  O  O84  1  0.87277800  0.34511000  0.02077800  1
  O  O85  1  0.47233200  0.12722200  0.02077800  1
  O  O86  1  0.65489000  0.52766800  0.02077800  1
  O  O87  1  0.16704033  0.48345367  0.74066767  1
  O  O88  1  0.68122533  0.53060467  0.14456767  1
  O  O89  1  0.83212100  0.31198400  0.76268500  1
  O  O90  1  0.31641333  0.83295967  0.74066767  1
  O  O91  1  0.47986300  0.16787900  0.76268500  1
  O  O92  1  0.53942433  0.86575867  0.85403267  1
  O  O93  1  0.68801600  0.52013700  0.76268500  1
  O  O94  1  0.82551233  0.99091167  0.92362167  1
  O  O95  1  0.13424133  0.67366567  0.85403267  1
  O  O96  1  0.84937933  0.31877467  0.14456767  1
  O  O97  1  0.51654633  0.68358667  0.74066767  1
  O  O98  1  0.65578633  0.15430567  0.90676667  1
  O  O99  1  0.46939533  0.15062067  0.14456767  1
  O  O100  1  0.84569433  0.50148067  0.90676667  1
  O  O101  1  0.00908833  0.83460067  0.92362167  1
  O  O102  1  0.49851933  0.34421367  0.90676667  1
  O  O103  1  0.32633433  0.46057567  0.85403267  1
  O  O104  1  0.16539933  0.17448767  0.92362167  1
  O  O105  1  0.66886633  0.13104267  0.64584267  1
  O  O106  1  0.86895733  0.53782367  0.64584267  1
  O  O107  1  0.46217633  0.33113367  0.64584267  1
