# generated using pymatgen
data_LiMnSnO4
_symmetry_space_group_name_H-M   'P 1'
_cell_length_a   5.91324600
_cell_length_b   6.22951708
_cell_length_c   9.15170511
_cell_angle_alpha   90.00000000
_cell_angle_beta   90.00000000
_cell_angle_gamma   90.00000000
_symmetry_Int_Tables_number   1
_chemical_formula_structural   LiMnSnO4
_chemical_formula_sum   'Li4 Mn4 Sn4 O16'
_cell_volume   337.11831339
_cell_formula_units_Z   4
loop_
 _symmetry_equiv_pos_site_id
 _symmetry_equiv_pos_as_xyz
  1  'x, y, z'
loop_
 _atom_site_type_symbol
 _atom_site_label
 _atom_site_symmetry_multiplicity
 _atom_site_fract_x
 _atom_site_fract_y
 _atom_site_fract_z
 _atom_site_occupancy
  Li  Li0  1  0.50000000  0.25000000  0.36945950  1
  Li  Li1  1  0.50000000  0.75000000  0.63054050  1
  Li  Li2  1  0.00000000  0.75000000  0.86945950  1
  Li  Li3  1  0.00000000  0.25000000  0.13054050  1
  Mn  Mn4  1  0.75000000  0.75000000  0.25000000  1
  Mn  Mn5  1  0.75000000  0.25000000  0.75000000  1
  Mn  Mn6  1  0.25000000  0.25000000  0.75000000  1
  Mn  Mn7  1  0.25000000  0.75000000  0.25000000  1
  Sn  Sn8  1  0.00000000  0.00000000  0.50000000  1
  Sn  Sn9  1  0.00000000  0.50000000  0.50000000  1
  Sn  Sn10  1  0.50000000  0.50000000  0.00000000  1
  Sn  Sn11  1  0.50000000  0.00000000  0.00000000  1
  O  O12  1  0.76600750  0.25000000  0.50057100  1
  O  O13  1  0.23399250  0.25000000  0.50057100  1
  O  O14  1  0.76600750  0.75000000  0.49942900  1
  O  O15  1  0.23399250  0.75000000  0.49942900  1
  O  O16  1  0.00000000  0.03712150  0.73381500  1
  O  O17  1  0.00000000  0.46287850  0.73381500  1
  O  O18  1  0.00000000  0.96287850  0.26618500  1
  O  O19  1  0.00000000  0.53712150  0.26618500  1
  O  O20  1  0.26600750  0.75000000  0.00057100  1
  O  O21  1  0.73399250  0.75000000  0.00057100  1
  O  O22  1  0.26600750  0.25000000  0.99942900  1
  O  O23  1  0.73399250  0.25000000  0.99942900  1
  O  O24  1  0.50000000  0.53712150  0.23381500  1
  O  O25  1  0.50000000  0.96287850  0.23381500  1
  O  O26  1  0.50000000  0.46287850  0.76618500  1
  O  O27  1  0.50000000  0.03712150  0.76618500  1
