# generated using pymatgen
data_Li3MnOF3
_symmetry_space_group_name_H-M   'P 1'
_cell_length_a   9.94335800
_cell_length_b   3.06930200
_cell_length_c   10.47390239
_cell_angle_alpha   90.00000000
_cell_angle_beta   100.87969378
_cell_angle_gamma   90.00000000
_symmetry_Int_Tables_number   1
_chemical_formula_structural   Li3MnOF3
_chemical_formula_sum   'Li12 Mn4 O4 F12'
_cell_volume   313.90921180
_cell_formula_units_Z   4
loop_
 _symmetry_equiv_pos_site_id
 _symmetry_equiv_pos_as_xyz
  1  'x, y, z'
loop_
 _atom_site_type_symbol
 _atom_site_label
 _atom_site_symmetry_multiplicity
 _atom_site_fract_x
 _atom_site_fract_y
 _atom_site_fract_z
 _atom_site_occupancy
  Li  Li0  1  0.74983500  0.50000000  0.11389700  1
  Li  Li1  1  0.00000000  0.50000000  0.00000000  1
  Li  Li2  1  0.00000000  0.50000000  0.50000000  1
  Li  Li3  1  0.75016500  0.00000000  0.88610300  1
  Li  Li4  1  0.50122100  0.50000000  0.74877900  1
  Li  Li5  1  0.99877900  0.00000000  0.25122100  1
  Li  Li6  1  0.24983500  0.00000000  0.11389700  1
  Li  Li7  1  0.50000000  0.00000000  0.00000000  1
  Li  Li8  1  0.50000000  0.00000000  0.50000000  1
  Li  Li9  1  0.25016500  0.50000000  0.88610300  1
  Li  Li10  1  0.00122100  0.00000000  0.74877900  1
  Li  Li11  1  0.49877900  0.50000000  0.25122100  1
  Mn  Mn12  1  0.75657200  0.50000000  0.62010800  1
  Mn  Mn13  1  0.74342800  0.00000000  0.37989200  1
  Mn  Mn14  1  0.25657200  0.00000000  0.62010800  1
  Mn  Mn15  1  0.24342800  0.50000000  0.37989200  1
  O  O16  1  0.61984100  0.50000000  0.43243100  1
  O  O17  1  0.88015900  0.00000000  0.56756900  1
  O  O18  1  0.11984100  0.00000000  0.43243100  1
  O  O19  1  0.38015900  0.50000000  0.56756900  1
  F  F20  1  0.62615500  0.50000000  0.94055900  1
  F  F21  1  0.87597700  0.50000000  0.82579600  1
  F  F22  1  0.86992600  0.50000000  0.29022700  1
  F  F23  1  0.87384500  0.00000000  0.05944100  1
  F  F24  1  0.62402300  0.00000000  0.17420400  1
  F  F25  1  0.63007400  0.00000000  0.70977300  1
  F  F26  1  0.12615500  0.00000000  0.94055900  1
  F  F27  1  0.37597700  0.00000000  0.82579600  1
  F  F28  1  0.36992600  0.00000000  0.29022700  1
  F  F29  1  0.37384500  0.50000000  0.05944100  1
  F  F30  1  0.12402300  0.50000000  0.17420400  1
  F  F31  1  0.13007400  0.50000000  0.70977300  1
