# generated using pymatgen
data_Na3Ni5O8
_symmetry_space_group_name_H-M   'P 1'
_cell_length_a   10.22563000
_cell_length_b   6.01008400
_cell_length_c   10.25273712
_cell_angle_alpha   90.00000000
_cell_angle_beta   100.90920326
_cell_angle_gamma   90.00000000
_symmetry_Int_Tables_number   1
_chemical_formula_structural   Na3Ni5O8
_chemical_formula_sum   'Na12 Ni20 O32'
_cell_volume   618.71440448
_cell_formula_units_Z   4
loop_
 _symmetry_equiv_pos_site_id
 _symmetry_equiv_pos_as_xyz
  1  'x, y, z'
loop_
 _atom_site_type_symbol
 _atom_site_label
 _atom_site_symmetry_multiplicity
 _atom_site_fract_x
 _atom_site_fract_y
 _atom_site_fract_z
 _atom_site_occupancy
  Na  Na0  1  0.37410950  0.75333850  0.24774600  1
  Na  Na1  1  0.37276700  0.00000000  0.74892000  1
  Na  Na2  1  0.62723300  0.00000000  0.25108000  1
  Na  Na3  1  0.37410950  0.24666150  0.24774600  1
  Na  Na4  1  0.62589050  0.24666150  0.75225400  1
  Na  Na5  1  0.62589050  0.75333850  0.75225400  1
  Na  Na6  1  0.87410950  0.25333850  0.24774600  1
  Na  Na7  1  0.87276700  0.50000000  0.74892000  1
  Na  Na8  1  0.12723300  0.50000000  0.25108000  1
  Na  Na9  1  0.87410950  0.74666150  0.24774600  1
  Na  Na10  1  0.12589050  0.74666150  0.75225400  1
  Na  Na11  1  0.12589050  0.25333850  0.75225400  1
  Ni  Ni12  1  0.75108200  0.00000000  0.00374900  1
  Ni  Ni13  1  0.50000000  0.74863300  0.00000000  1
  Ni  Ni14  1  0.75000000  0.25000000  0.50000000  1
  Ni  Ni15  1  0.24891800  0.00000000  0.99625100  1
  Ni  Ni16  1  0.50000000  0.00000000  0.50000000  1
  Ni  Ni17  1  0.75000000  0.75000000  0.50000000  1
  Ni  Ni18  1  0.50000000  0.25136700  0.00000000  1
  Ni  Ni19  1  0.12399000  0.00000000  0.24957700  1
  Ni  Ni20  1  0.87601000  0.00000000  0.75042300  1
  Ni  Ni21  1  0.00000000  0.00000000  0.50000000  1
  Ni  Ni22  1  0.25108200  0.50000000  0.00374900  1
  Ni  Ni23  1  0.00000000  0.24863300  0.00000000  1
  Ni  Ni24  1  0.25000000  0.75000000  0.50000000  1
  Ni  Ni25  1  0.74891800  0.50000000  0.99625100  1
  Ni  Ni26  1  0.00000000  0.50000000  0.50000000  1
  Ni  Ni27  1  0.25000000  0.25000000  0.50000000  1
  Ni  Ni28  1  0.00000000  0.75136700  0.00000000  1
  Ni  Ni29  1  0.62399000  0.50000000  0.24957700  1
  Ni  Ni30  1  0.37601000  0.50000000  0.75042300  1
  Ni  Ni31  1  0.50000000  0.50000000  0.50000000  1
  O  O32  1  0.42409850  0.73871150  0.60629300  1
  O  O33  1  0.32757650  0.73556650  0.89224700  1
  O  O34  1  0.43635600  0.00000000  0.09821800  1
  O  O35  1  0.69639800  0.00000000  0.60652500  1
  O  O36  1  0.56364400  0.00000000  0.90178200  1
  O  O37  1  0.30360200  0.00000000  0.39347500  1
  O  O38  1  0.67242350  0.26443350  0.10775300  1
  O  O39  1  0.42409850  0.26128850  0.60629300  1
  O  O40  1  0.57590150  0.26128850  0.39370700  1
  O  O41  1  0.32757650  0.26443350  0.89224700  1
  O  O42  1  0.94742700  0.00000000  0.11003200  1
  O  O43  1  0.82710600  0.00000000  0.39824900  1
  O  O44  1  0.17289400  0.00000000  0.60175100  1
  O  O45  1  0.05257300  0.00000000  0.88996800  1
  O  O46  1  0.57590150  0.73871150  0.39370700  1
  O  O47  1  0.67242350  0.73556650  0.10775300  1
  O  O48  1  0.92409850  0.23871150  0.60629300  1
  O  O49  1  0.82757650  0.23556650  0.89224700  1
  O  O50  1  0.93635600  0.50000000  0.09821800  1
  O  O51  1  0.19639800  0.50000000  0.60652500  1
  O  O52  1  0.06364400  0.50000000  0.90178200  1
  O  O53  1  0.80360200  0.50000000  0.39347500  1
  O  O54  1  0.17242350  0.76443350  0.10775300  1
  O  O55  1  0.92409850  0.76128850  0.60629300  1
  O  O56  1  0.07590150  0.76128850  0.39370700  1
  O  O57  1  0.82757650  0.76443350  0.89224700  1
  O  O58  1  0.44742700  0.50000000  0.11003200  1
  O  O59  1  0.32710600  0.50000000  0.39824900  1
  O  O60  1  0.67289400  0.50000000  0.60175100  1
  O  O61  1  0.55257300  0.50000000  0.88996800  1
  O  O62  1  0.07590150  0.23871150  0.39370700  1
  O  O63  1  0.17242350  0.23556650  0.10775300  1
