# generated using pymatgen
data_Mn(Bi5O8)5
_symmetry_space_group_name_H-M   'P 1'
_cell_length_a   14.67915200
_cell_length_b   10.38141000
_cell_length_c   14.68229801
_cell_angle_alpha   90.00000000
_cell_angle_beta   90.00205655
_cell_angle_gamma   90.00000000
_symmetry_Int_Tables_number   1
_chemical_formula_structural   Mn(Bi5O8)5
_chemical_formula_sum   'Mn2 Bi50 O80'
_cell_volume   2237.43972885
_cell_formula_units_Z   2
loop_
 _symmetry_equiv_pos_site_id
 _symmetry_equiv_pos_as_xyz
  1  'x, y, z'
loop_
 _atom_site_type_symbol
 _atom_site_label
 _atom_site_symmetry_multiplicity
 _atom_site_fract_x
 _atom_site_fract_y
 _atom_site_fract_z
 _atom_site_occupancy
  Mn  Mn0  1  0.50000000  0.50114900  0.00000000  1
  Mn  Mn1  1  0.00000000  0.00114900  0.00000000  1
  Bi  Bi2  1  0.60115950  0.82016850  0.92142400  1
  Bi  Bi3  1  0.57915650  0.18023450  0.90225900  1
  Bi  Bi4  1  0.65326250  0.82002750  0.66465100  1
  Bi  Bi5  1  0.66398550  0.17629550  0.65246200  1
  Bi  Bi6  1  0.34879500  0.32380100  0.83013300  1
  Bi  Bi7  1  0.32968650  0.68110050  0.84699200  1
  Bi  Bi8  1  0.92818600  0.98355800  0.24964500  1
  Bi  Bi9  1  0.43065850  0.98711450  0.74855500  1
  Bi  Bi10  1  0.74824950  0.00941150  0.43064800  1
  Bi  Bi11  1  0.25059850  0.02172450  0.92803000  1
  Bi  Bi12  1  0.59169650  0.31844950  0.41465400  1
  Bi  Bi13  1  0.41520850  0.68021550  0.59526500  1
  Bi  Bi14  1  0.50000000  0.99828000  0.50000000  1
  Bi  Bi15  1  0.58479150  0.68021550  0.40473500  1
  Bi  Bi16  1  0.40830350  0.31844950  0.58534600  1
  Bi  Bi17  1  0.07181400  0.98355800  0.75035500  1
  Bi  Bi18  1  0.25175050  0.00941150  0.56935200  1
  Bi  Bi19  1  0.56934150  0.98711450  0.25144500  1
  Bi  Bi20  1  0.74940150  0.02172450  0.07197000  1
  Bi  Bi21  1  0.65120500  0.32380100  0.16986700  1
  Bi  Bi22  1  0.67031350  0.68110050  0.15300800  1
  Bi  Bi23  1  0.33601450  0.17629550  0.34753800  1
  Bi  Bi24  1  0.34673750  0.82002750  0.33534900  1
  Bi  Bi25  1  0.42084350  0.18023450  0.09774100  1
  Bi  Bi26  1  0.39884050  0.82016850  0.07857600  1
  Bi  Bi27  1  0.10115950  0.32016850  0.92142400  1
  Bi  Bi28  1  0.07915650  0.68023450  0.90225900  1
  Bi  Bi29  1  0.15326250  0.32002750  0.66465100  1
  Bi  Bi30  1  0.16398550  0.67629550  0.65246200  1
  Bi  Bi31  1  0.84879500  0.82380100  0.83013300  1
  Bi  Bi32  1  0.82968650  0.18110050  0.84699200  1
  Bi  Bi33  1  0.42818600  0.48355800  0.24964500  1
  Bi  Bi34  1  0.93065850  0.48711450  0.74855500  1
  Bi  Bi35  1  0.24824950  0.50941150  0.43064800  1
  Bi  Bi36  1  0.75059850  0.52172450  0.92803000  1
  Bi  Bi37  1  0.09169650  0.81844950  0.41465400  1
  Bi  Bi38  1  0.91520850  0.18021550  0.59526500  1
  Bi  Bi39  1  0.00000000  0.49828000  0.50000000  1
  Bi  Bi40  1  0.08479150  0.18021550  0.40473500  1
  Bi  Bi41  1  0.90830350  0.81844950  0.58534600  1
  Bi  Bi42  1  0.57181400  0.48355800  0.75035500  1
  Bi  Bi43  1  0.75175050  0.50941150  0.56935200  1
  Bi  Bi44  1  0.06934150  0.48711450  0.25144500  1
  Bi  Bi45  1  0.24940150  0.52172450  0.07197000  1
  Bi  Bi46  1  0.15120500  0.82380100  0.16986700  1
  Bi  Bi47  1  0.17031350  0.18110050  0.15300800  1
  Bi  Bi48  1  0.83601450  0.67629550  0.34753800  1
  Bi  Bi49  1  0.84673750  0.32002750  0.33534900  1
  Bi  Bi50  1  0.92084350  0.68023450  0.09774100  1
  Bi  Bi51  1  0.89884050  0.32016850  0.07857600  1
  O  O52  1  0.80207200  0.19517400  0.99908000  1
  O  O53  1  0.69073950  0.98935350  0.94210900  1
  O  O54  1  0.94123950  0.00686050  0.69297500  1
  O  O55  1  0.09666100  0.90526700  0.99981700  1
  O  O56  1  0.68836600  0.24775400  0.82121500  1
  O  O57  1  0.68124550  0.75027850  0.81262100  1
  O  O58  1  0.50006800  0.59618800  0.90348300  1
  O  O59  1  0.90333900  0.90526700  0.00018300  1
  O  O60  1  0.55734600  0.00850400  0.81596300  1
  O  O61  1  0.81419150  0.99514950  0.55758400  1
  O  O62  1  0.50019800  0.30433100  0.80686400  1
  O  O63  1  0.37973650  0.86832550  0.87129700  1
  O  O64  1  0.36969900  0.13418700  0.88080700  1
  O  O65  1  0.13037550  0.12772450  0.62608600  1
  O  O66  1  0.62450550  0.37032450  0.63300000  1
  O  O67  1  0.19792800  0.19517400  0.00092000  1
  O  O68  1  0.50020000  0.81721300  0.68579500  1
  O  O69  1  0.68028750  0.18347150  0.49940800  1
  O  O70  1  0.49998700  0.12522400  0.62620500  1
  O  O71  1  0.62673400  0.87100900  0.50039400  1
  O  O72  1  0.31948450  0.25674550  0.68988400  1
  O  O73  1  0.68900350  0.74509750  0.31690500  1
  O  O74  1  0.31099650  0.74509750  0.68309500  1
  O  O75  1  0.68051550  0.25674550  0.31011600  1
  O  O76  1  0.50001300  0.12522400  0.37379500  1
  O  O77  1  0.37326600  0.87100900  0.49960600  1
  O  O78  1  0.49980000  0.81721300  0.31420500  1
  O  O79  1  0.31971250  0.18347150  0.50059200  1
  O  O80  1  0.37549450  0.37032450  0.36700000  1
  O  O81  1  0.86962450  0.12772450  0.37391400  1
  O  O82  1  0.62026350  0.86832550  0.12870300  1
  O  O83  1  0.63030100  0.13418700  0.11919300  1
  O  O84  1  0.49980200  0.30433100  0.19313600  1
  O  O85  1  0.18580850  0.99514950  0.44241600  1
  O  O86  1  0.44265400  0.00850400  0.18403700  1
  O  O87  1  0.49993200  0.59618800  0.09651700  1
  O  O88  1  0.31875450  0.75027850  0.18737900  1
  O  O89  1  0.31163400  0.24775400  0.17878500  1
  O  O90  1  0.05876050  0.00686050  0.30702500  1
  O  O91  1  0.30926050  0.98935350  0.05789100  1
  O  O92  1  0.30207200  0.69517400  0.99908000  1
  O  O93  1  0.19073950  0.48935350  0.94210900  1
  O  O94  1  0.44123950  0.50686050  0.69297500  1
  O  O95  1  0.59666100  0.40526700  0.99981700  1
  O  O96  1  0.18836600  0.74775400  0.82121500  1
  O  O97  1  0.18124550  0.25027850  0.81262100  1
  O  O98  1  0.00006800  0.09618800  0.90348300  1
  O  O99  1  0.40333900  0.40526700  0.00018300  1
  O  O100  1  0.05734600  0.50850400  0.81596300  1
  O  O101  1  0.31419150  0.49514950  0.55758400  1
  O  O102  1  0.00019800  0.80433100  0.80686400  1
  O  O103  1  0.87973650  0.36832550  0.87129700  1
  O  O104  1  0.86969900  0.63418700  0.88080700  1
  O  O105  1  0.63037550  0.62772450  0.62608600  1
  O  O106  1  0.12450550  0.87032450  0.63300000  1
  O  O107  1  0.69792800  0.69517400  0.00092000  1
  O  O108  1  0.00020000  0.31721300  0.68579500  1
  O  O109  1  0.18028750  0.68347150  0.49940800  1
  O  O110  1  0.99998700  0.62522400  0.62620500  1
  O  O111  1  0.12673400  0.37100900  0.50039400  1
  O  O112  1  0.81948450  0.75674550  0.68988400  1
  O  O113  1  0.18900350  0.24509750  0.31690500  1
  O  O114  1  0.81099650  0.24509750  0.68309500  1
  O  O115  1  0.18051550  0.75674550  0.31011600  1
  O  O116  1  0.00001300  0.62522400  0.37379500  1
  O  O117  1  0.87326600  0.37100900  0.49960600  1
  O  O118  1  0.99980000  0.31721300  0.31420500  1
  O  O119  1  0.81971250  0.68347150  0.50059200  1
  O  O120  1  0.87549450  0.87032450  0.36700000  1
  O  O121  1  0.36962450  0.62772450  0.37391400  1
  O  O122  1  0.12026350  0.36832550  0.12870300  1
  O  O123  1  0.13030100  0.63418700  0.11919300  1
  O  O124  1  0.99980200  0.80433100  0.19313600  1
  O  O125  1  0.68580850  0.49514950  0.44241600  1
  O  O126  1  0.94265400  0.50850400  0.18403700  1
  O  O127  1  0.99993200  0.09618800  0.09651700  1
  O  O128  1  0.81875450  0.25027850  0.18737900  1
  O  O129  1  0.81163400  0.74775400  0.17878500  1
  O  O130  1  0.55876050  0.50686050  0.30702500  1
  O  O131  1  0.80926050  0.48935350  0.05789100  1
