# generated using pymatgen
data_LiNiPO4
_symmetry_space_group_name_H-M   'P 1'
_cell_length_a   5.22103000
_cell_length_b   7.50877354
_cell_length_c   8.63898682
_cell_angle_alpha   100.51096947
_cell_angle_beta   92.41153144
_cell_angle_gamma   97.48148891
_symmetry_Int_Tables_number   1
_chemical_formula_structural   LiNiPO4
_chemical_formula_sum   'Li4 Ni4 P4 O16'
_cell_volume   329.40733955
_cell_formula_units_Z   4
loop_
 _symmetry_equiv_pos_site_id
 _symmetry_equiv_pos_as_xyz
  1  'x, y, z'
loop_
 _atom_site_type_symbol
 _atom_site_label
 _atom_site_symmetry_multiplicity
 _atom_site_fract_x
 _atom_site_fract_y
 _atom_site_fract_z
 _atom_site_occupancy
  Li  Li0  1  0.88025300  0.97308500  0.64010000  1
  Li  Li1  1  0.11974700  0.02691500  0.35990000  1
  Li  Li2  1  0.70932900  0.46561400  0.82907300  1
  Li  Li3  1  0.29067100  0.53438600  0.17092700  1
  Ni  Ni4  1  0.28831000  0.79887600  0.89328300  1
  Ni  Ni5  1  0.28175700  0.36918100  0.58491000  1
  Ni  Ni6  1  0.71169000  0.20112400  0.10671700  1
  Ni  Ni7  1  0.71824300  0.63081900  0.41509000  1
  P  P8  1  0.71900700  0.28352700  0.46747400  1
  P  P9  1  0.28099300  0.71647300  0.53252600  1
  P  P10  1  0.81045600  0.78145900  0.08855100  1
  P  P11  1  0.18954400  0.21854100  0.91144900  1
  O  O12  1  0.94117600  0.18861600  0.52549300  1
  O  O13  1  0.05882400  0.81138400  0.47450700  1
  O  O14  1  0.92212100  0.28985800  0.94154400  1
  O  O15  1  0.07787900  0.71014200  0.05845600  1
  O  O16  1  0.79324200  0.36152200  0.31653800  1
  O  O17  1  0.20675800  0.63847800  0.68346200  1
  O  O18  1  0.69352900  0.45856600  0.59440500  1
  O  O19  1  0.30647100  0.54143400  0.40559500  1
  O  O20  1  0.86495100  0.98911300  0.16362400  1
  O  O21  1  0.13504900  0.01088700  0.83637600  1
  O  O22  1  0.65669500  0.67411200  0.19861000  1
  O  O23  1  0.34330500  0.32588800  0.80139000  1
  O  O24  1  0.64635800  0.74301900  0.92780400  1
  O  O25  1  0.35364200  0.25698100  0.07219600  1
  O  O26  1  0.45365200  0.16427500  0.44257300  1
  O  O27  1  0.54634800  0.83572500  0.55742700  1
