# generated using pymatgen
data_Ba8Nb7O24
_symmetry_space_group_name_H-M   'P 1'
_cell_length_a   5.93495852
_cell_length_b   5.93495852
_cell_length_c   19.23357300
_cell_angle_alpha   90.00000000
_cell_angle_beta   90.00000000
_cell_angle_gamma   120.00000000
_symmetry_Int_Tables_number   1
_chemical_formula_structural   Ba8Nb7O24
_chemical_formula_sum   'Ba8 Nb7 O24'
_cell_volume   586.71336045
_cell_formula_units_Z   1
loop_
 _symmetry_equiv_pos_site_id
 _symmetry_equiv_pos_as_xyz
  1  'x, y, z'
loop_
 _atom_site_type_symbol
 _atom_site_label
 _atom_site_symmetry_multiplicity
 _atom_site_fract_x
 _atom_site_fract_y
 _atom_site_fract_z
 _atom_site_occupancy
  Ba  Ba0  1  0.00000000  0.00000000  0.13220900  1
  Ba  Ba1  1  0.00000000  0.00000000  0.75525400  1
  Ba  Ba2  1  0.66666667  0.33333333  0.98564100  1
  Ba  Ba3  1  0.00000000  0.00000000  0.36598200  1
  Ba  Ba4  1  0.66666667  0.33333333  0.50431200  1
  Ba  Ba5  1  0.33333333  0.66666667  0.24915200  1
  Ba  Ba6  1  0.33333333  0.66666667  0.85457500  1
  Ba  Ba7  1  0.33333333  0.66666667  0.63248100  1
  Nb  Nb8  1  0.00000000  0.00000000  0.56339700  1
  Nb  Nb9  1  0.66666667  0.33333333  0.18270600  1
  Nb  Nb10  1  0.66666667  0.33333333  0.31816500  1
  Nb  Nb11  1  0.66666667  0.33333333  0.69734700  1
  Nb  Nb12  1  0.00000000  0.00000000  0.93366100  1
  Nb  Nb13  1  0.33333333  0.66666667  0.05946900  1
  Nb  Nb14  1  0.33333333  0.66666667  0.43892300  1
  O  O15  1  0.82784800  0.17215200  0.25041300  1
  O  O16  1  0.66178800  0.83089400  0.00760100  1
  O  O17  1  0.66801900  0.83400950  0.49880900  1
  O  O18  1  0.83667300  0.16332700  0.62053600  1
  O  O19  1  0.84315700  0.15684300  0.88326800  1
  O  O20  1  0.83667300  0.67334600  0.62053600  1
  O  O21  1  0.84315700  0.68631400  0.88326800  1
  O  O22  1  0.82784800  0.65569600  0.25041300  1
  O  O23  1  0.99385300  0.49692650  0.74127900  1
  O  O24  1  0.32665400  0.16332700  0.62053600  1
  O  O25  1  0.31368600  0.15684300  0.88326800  1
  O  O26  1  0.16910600  0.83089400  0.00760100  1
  O  O27  1  0.16599050  0.83400950  0.49880900  1
  O  O28  1  0.00631700  0.50315850  0.12697200  1
  O  O29  1  0.00528000  0.50264000  0.37686600  1
  O  O30  1  0.34430400  0.17215200  0.25041300  1
  O  O31  1  0.49736000  0.99472000  0.37686600  1
  O  O32  1  0.16910600  0.33821200  0.00760100  1
  O  O33  1  0.16599050  0.33198100  0.49880900  1
  O  O34  1  0.49684150  0.99368300  0.12697200  1
  O  O35  1  0.50307350  0.00614700  0.74127900  1
  O  O36  1  0.49684150  0.50315850  0.12697200  1
  O  O37  1  0.49736000  0.50264000  0.37686600  1
  O  O38  1  0.50307350  0.49692650  0.74127900  1
