# generated using pymatgen
data_Li4MnSi2O7
_symmetry_space_group_name_H-M   'P 1'
_cell_length_a   9.53942987
_cell_length_b   4.59490400
_cell_length_c   6.92124018
_cell_angle_alpha   90.00000000
_cell_angle_beta   101.67490310
_cell_angle_gamma   90.00000000
_symmetry_Int_Tables_number   1
_chemical_formula_structural   Li4MnSi2O7
_chemical_formula_sum   'Li8 Mn2 Si4 O14'
_cell_volume   297.10068634
_cell_formula_units_Z   2
loop_
 _symmetry_equiv_pos_site_id
 _symmetry_equiv_pos_as_xyz
  1  'x, y, z'
loop_
 _atom_site_type_symbol
 _atom_site_label
 _atom_site_symmetry_multiplicity
 _atom_site_fract_x
 _atom_site_fract_y
 _atom_site_fract_z
 _atom_site_occupancy
  Li  Li0  1  0.85040125  0.98106525  0.05988900  1
  Li  Li1  1  0.64959875  0.48106525  0.94011100  1
  Li  Li2  1  0.78806950  0.49510125  0.35111300  1
  Li  Li3  1  0.71193050  0.99510125  0.64888700  1
  Li  Li4  1  0.35040125  0.48106525  0.05988900  1
  Li  Li5  1  0.14959875  0.98106525  0.94011100  1
  Li  Li6  1  0.28806950  0.99510125  0.35111300  1
  Li  Li7  1  0.21193050  0.49510125  0.64888700  1
  Mn  Mn8  1  0.50000000  0.50223925  0.50000000  1
  Mn  Mn9  1  0.00000000  0.00223925  0.50000000  1
  Si  Si10  1  0.92380900  0.50994275  0.79109075  1
  Si  Si11  1  0.57619100  0.00994275  0.20890925  1
  Si  Si12  1  0.42380900  0.00994275  0.79109075  1
  Si  Si13  1  0.07619100  0.50994275  0.20890925  1
  O  O14  1  0.50000000  0.81743025  0.00000000  1
  O  O15  1  0.94754625  0.70966375  0.26793450  1
  O  O16  1  0.55245375  0.20966375  0.73206550  1
  O  O17  1  0.86334850  0.27623175  0.61363850  1
  O  O18  1  0.63665150  0.77623175  0.38636150  1
  O  O19  1  0.79395250  0.70470675  0.84211200  1
  O  O20  1  0.70604750  0.20470675  0.15788800  1
  O  O21  1  0.00000000  0.31743025  0.00000000  1
  O  O22  1  0.44754625  0.20966375  0.26793450  1
  O  O23  1  0.05245375  0.70966375  0.73206550  1
  O  O24  1  0.36334850  0.77623175  0.61363850  1
  O  O25  1  0.13665150  0.27623175  0.38636150  1
  O  O26  1  0.29395250  0.20470675  0.84211200  1
  O  O27  1  0.20604750  0.70470675  0.15788800  1
