# generated using pymatgen
data_Li4Nb2Ni3Sn3O16
_symmetry_space_group_name_H-M   'P 1'
_cell_length_a   10.59145000
_cell_length_b   6.14309600
_cell_length_c   9.84518309
_cell_angle_alpha   90.00000000
_cell_angle_beta   90.81463083
_cell_angle_gamma   90.00000000
_symmetry_Int_Tables_number   1
_chemical_formula_structural   Li4Nb2Ni3Sn3O16
_chemical_formula_sum   'Li8 Nb4 Ni6 Sn6 O32'
_cell_volume   640.50514350
_cell_formula_units_Z   2
loop_
 _symmetry_equiv_pos_site_id
 _symmetry_equiv_pos_as_xyz
  1  'x, y, z'
loop_
 _atom_site_type_symbol
 _atom_site_label
 _atom_site_symmetry_multiplicity
 _atom_site_fract_x
 _atom_site_fract_y
 _atom_site_fract_z
 _atom_site_occupancy
  Li  Li0  1  0.32607500  0.00000000  0.89803200  1
  Li  Li1  1  0.01269300  0.00000000  0.98428200  1
  Li  Li2  1  0.00690400  0.00000000  0.49847000  1
  Li  Li3  1  0.66844300  0.00000000  0.40664400  1
  Li  Li4  1  0.82607500  0.50000000  0.89803200  1
  Li  Li5  1  0.51269300  0.50000000  0.98428200  1
  Li  Li6  1  0.50690400  0.50000000  0.49847000  1
  Li  Li7  1  0.16844300  0.50000000  0.40664400  1
  Nb  Nb8  1  0.32435500  0.00000000  0.49936200  1
  Nb  Nb9  1  0.64824100  0.00000000  0.97788500  1
  Nb  Nb10  1  0.82435500  0.50000000  0.49936200  1
  Nb  Nb11  1  0.14824100  0.50000000  0.97788500  1
  Ni  Ni12  1  0.17109800  0.00000000  0.21461000  1
  Ni  Ni13  1  0.58390350  0.75552150  0.71230500  1
  Ni  Ni14  1  0.58390350  0.24447850  0.71230500  1
  Ni  Ni15  1  0.67109800  0.50000000  0.21461000  1
  Ni  Ni16  1  0.08390350  0.25552150  0.71230500  1
  Ni  Ni17  1  0.08390350  0.74447850  0.71230500  1
  Sn  Sn18  1  0.41471300  0.75278600  0.21454300  1
  Sn  Sn19  1  0.41471300  0.24721400  0.21454300  1
  Sn  Sn20  1  0.82885200  0.00000000  0.71654700  1
  Sn  Sn21  1  0.91471300  0.25278600  0.21454300  1
  Sn  Sn22  1  0.91471300  0.74721400  0.21454300  1
  Sn  Sn23  1  0.32885200  0.50000000  0.71654700  1
  O  O24  1  0.41366200  0.75317300  0.58820100  1
  O  O25  1  0.48704900  0.00000000  0.34128600  1
  O  O26  1  0.33302800  0.00000000  0.10171300  1
  O  O27  1  0.00448600  0.00000000  0.31215500  1
  O  O28  1  0.00217500  0.00000000  0.80024900  1
  O  O29  1  0.41366200  0.24682700  0.58820100  1
  O  O30  1  0.26303900  0.77950700  0.34662900  1
  O  O31  1  0.26303900  0.22049300  0.34662900  1
  O  O32  1  0.83886100  0.00000000  0.09375800  1
  O  O33  1  0.17145000  0.00000000  0.59138600  1
  O  O34  1  0.74034850  0.78099950  0.85189400  1
  O  O35  1  0.74034850  0.21900050  0.85189400  1
  O  O36  1  0.66516800  0.00000000  0.60951200  1
  O  O37  1  0.58325050  0.75396850  0.09216000  1
  O  O38  1  0.51322500  0.00000000  0.85046000  1
  O  O39  1  0.58325050  0.24603150  0.09216000  1
  O  O40  1  0.91366200  0.25317300  0.58820100  1
  O  O41  1  0.98704900  0.50000000  0.34128600  1
  O  O42  1  0.83302800  0.50000000  0.10171300  1
  O  O43  1  0.50448600  0.50000000  0.31215500  1
  O  O44  1  0.50217500  0.50000000  0.80024900  1
  O  O45  1  0.91366200  0.74682700  0.58820100  1
  O  O46  1  0.76303900  0.27950700  0.34662900  1
  O  O47  1  0.76303900  0.72049300  0.34662900  1
  O  O48  1  0.33886100  0.50000000  0.09375800  1
  O  O49  1  0.67145000  0.50000000  0.59138600  1
  O  O50  1  0.24034850  0.28099950  0.85189400  1
  O  O51  1  0.24034850  0.71900050  0.85189400  1
  O  O52  1  0.16516800  0.50000000  0.60951200  1
  O  O53  1  0.08325050  0.25396850  0.09216000  1
  O  O54  1  0.01322500  0.50000000  0.85046000  1
  O  O55  1  0.08325050  0.74603150  0.09216000  1
