# generated using pymatgen
data_Li2Mn3(P2O7)2
_symmetry_space_group_name_H-M   'P 1'
_cell_length_a   6.45726100
_cell_length_b   7.38751700
_cell_length_c   13.90634684
_cell_angle_alpha   90.00000000
_cell_angle_beta   93.86914267
_cell_angle_gamma   90.00000000
_symmetry_Int_Tables_number   1
_chemical_formula_structural   Li2Mn3(P2O7)2
_chemical_formula_sum   'Li4 Mn6 P8 O28'
_cell_volume   661.86421669
_cell_formula_units_Z   2
loop_
 _symmetry_equiv_pos_site_id
 _symmetry_equiv_pos_as_xyz
  1  'x, y, z'
loop_
 _atom_site_type_symbol
 _atom_site_label
 _atom_site_symmetry_multiplicity
 _atom_site_fract_x
 _atom_site_fract_y
 _atom_site_fract_z
 _atom_site_occupancy
  Li  Li0  1  0.56787700  0.30943200  0.04934500  1
  Li  Li1  1  0.01372800  0.17654800  0.43327900  1
  Li  Li2  1  0.98627200  0.67654800  0.56672100  1
  Li  Li3  1  0.43212300  0.80943200  0.95065500  1
  Mn  Mn4  1  0.83049800  0.98258200  0.09932000  1
  Mn  Mn5  1  0.26996500  0.62103300  0.27502900  1
  Mn  Mn6  1  0.54650600  0.14426300  0.38845100  1
  Mn  Mn7  1  0.45349400  0.64426300  0.61154900  1
  Mn  Mn8  1  0.73003500  0.12103300  0.72497100  1
  Mn  Mn9  1  0.16950200  0.48258200  0.90068000  1
  P  P10  1  0.10261600  0.30645500  0.10935500  1
  P  P11  1  0.36181200  0.98742800  0.17315500  1
  P  P12  1  0.87529600  0.80786200  0.32482300  1
  P  P13  1  0.64953300  0.51598100  0.41689000  1
  P  P14  1  0.35046700  0.01598100  0.58311000  1
  P  P15  1  0.12470400  0.30786200  0.67517700  1
  P  P16  1  0.63818800  0.48742800  0.82684500  1
  P  P17  1  0.89738400  0.80645500  0.89064500  1
  O  O18  1  0.25191000  0.36893600  0.03360300  1
  O  O19  1  0.87462800  0.29251400  0.07283700  1
  O  O20  1  0.15028300  0.08470600  0.12353700  1
  O  O21  1  0.53234800  0.07894700  0.11808700  1
  O  O22  1  0.33956300  0.78523900  0.15350300  1
  O  O23  1  0.14913600  0.39485900  0.20627600  1
  O  O24  1  0.88757300  0.82364700  0.21641600  1
  O  O25  1  0.36763500  0.03057900  0.27997900  1
  O  O26  1  0.67959500  0.66698500  0.33388200  1
  O  O27  1  0.42292500  0.45953800  0.39113600  1
  O  O28  1  0.06521600  0.71447400  0.37388100  1
  O  O29  1  0.78924800  0.35086000  0.40506300  1
  O  O30  1  0.81871100  0.98352500  0.37593200  1
  O  O31  1  0.68973500  0.61005000  0.51487200  1
  O  O32  1  0.31026500  0.11005000  0.48512800  1
  O  O33  1  0.18128900  0.48352500  0.62406800  1
  O  O34  1  0.21075200  0.85086000  0.59493700  1
  O  O35  1  0.93478400  0.21447400  0.62611900  1
  O  O36  1  0.57707500  0.95953800  0.60886400  1
  O  O37  1  0.32040500  0.16698500  0.66611800  1
  O  O38  1  0.63236500  0.53057900  0.72002100  1
  O  O39  1  0.11242700  0.32364700  0.78358400  1
  O  O40  1  0.85086400  0.89485900  0.79372400  1
  O  O41  1  0.66043700  0.28523900  0.84649700  1
  O  O42  1  0.46765200  0.57894700  0.88191300  1
  O  O43  1  0.84971700  0.58470600  0.87646300  1
  O  O44  1  0.12537200  0.79251400  0.92716300  1
  O  O45  1  0.74809000  0.86893600  0.96639700  1
