# generated using pymatgen
data_TiNb3(PO4)6
_symmetry_space_group_name_H-M   'P 1'
_cell_length_a   8.79693586
_cell_length_b   8.79693586
_cell_length_c   22.22573387
_cell_angle_alpha   90.00000000
_cell_angle_beta   90.00000000
_cell_angle_gamma   120.00000000
_symmetry_Int_Tables_number   1
_chemical_formula_structural   TiNb3(PO4)6
_chemical_formula_sum   'Ti3 Nb9 P18 O72'
_cell_volume   1489.53115857
_cell_formula_units_Z   3
loop_
 _symmetry_equiv_pos_site_id
 _symmetry_equiv_pos_as_xyz
  1  'x, y, z'
loop_
 _atom_site_type_symbol
 _atom_site_label
 _atom_site_symmetry_multiplicity
 _atom_site_fract_x
 _atom_site_fract_y
 _atom_site_fract_z
 _atom_site_occupancy
  Ti  Ti0  1  0.00000000  0.00000000  0.14154500  1
  Ti  Ti1  1  0.66666667  0.33333333  0.47487833  1
  Ti  Ti2  1  0.33333333  0.66666667  0.80821167  1
  Nb  Nb3  1  0.66666667  0.33333333  0.19226433  1
  Nb  Nb4  1  0.33333333  0.66666667  0.30815867  1
  Nb  Nb5  1  0.33333333  0.66666667  0.02600167  1
  Nb  Nb6  1  0.33333333  0.66666667  0.52559767  1
  Nb  Nb7  1  0.00000000  0.00000000  0.64149200  1
  Nb  Nb8  1  0.00000000  0.00000000  0.35933500  1
  Nb  Nb9  1  0.00000000  0.00000000  0.85893100  1
  Nb  Nb10  1  0.66666667  0.33333333  0.97482533  1
  Nb  Nb11  1  0.66666667  0.33333333  0.69266833  1
  P  P12  1  0.28131100  0.99933700  0.24871100  1
  P  P13  1  0.00066300  0.28197400  0.24871100  1
  P  P14  1  0.71802600  0.71868900  0.24871100  1
  P  P15  1  0.95167933  0.62339167  0.08390167  1
  P  P16  1  0.67171233  0.04832067  0.08390167  1
  P  P17  1  0.37660833  0.32828767  0.08390167  1
  P  P18  1  0.94797767  0.33267033  0.58204433  1
  P  P19  1  0.66732967  0.61530733  0.58204433  1
  P  P20  1  0.38469267  0.05202233  0.58204433  1
  P  P21  1  0.61834600  0.95672500  0.41723500  1
  P  P22  1  0.33837900  0.38165400  0.41723500  1
  P  P23  1  0.04327500  0.66162100  0.41723500  1
  P  P24  1  0.61464433  0.66600367  0.91537767  1
  P  P25  1  0.33399633  0.94864067  0.91537767  1
  P  P26  1  0.05135933  0.38535567  0.91537767  1
  P  P27  1  0.28501267  0.29005833  0.75056833  1
  P  P28  1  0.00504567  0.71498733  0.75056833  1
  P  P29  1  0.70994167  0.99495433  0.75056833  1
  O  O30  1  0.46786967  0.30812733  0.02749433  1
  O  O31  1  0.84025767  0.53213033  0.02749433  1
  O  O32  1  0.46729867  0.16220833  0.24290033  1
  O  O33  1  0.69187267  0.15974233  0.02749433  1
  O  O34  1  0.30524867  0.83773833  0.25707633  1
  O  O35  1  0.17048200  0.97452300  0.19316600  1
  O  O36  1  0.83779167  0.30509033  0.24290033  1
  O  O37  1  0.16226167  0.46751033  0.25707633  1
  O  O38  1  0.53248967  0.69475133  0.25707633  1
  O  O39  1  0.86483633  0.50618167  0.13951067  1
  O  O40  1  0.97263033  0.80496967  0.09114167  1
  O  O41  1  0.64134533  0.13516367  0.13951067  1
  O  O42  1  0.02547700  0.19595900  0.19316600  1
  O  O43  1  0.69490967  0.53270133  0.24290033  1
  O  O44  1  0.80404100  0.82951800  0.19316600  1
  O  O45  1  0.13470033  0.63959067  0.07625667  1
  O  O46  1  0.50489033  0.86529967  0.07625667  1
  O  O47  1  0.83233933  0.02736967  0.09114167  1
  O  O48  1  0.49381833  0.35865467  0.13951067  1
  O  O49  1  0.36040933  0.49510967  0.07625667  1
  O  O50  1  0.97514400  0.17220300  0.30607300  1
  O  O51  1  0.19503033  0.16766067  0.09114167  1
  O  O52  1  0.82779700  0.80294100  0.30607300  1
  O  O53  1  0.19705900  0.02485600  0.30607300  1
  O  O54  1  0.13453633  0.64146067  0.36082767  1
  O  O55  1  0.50692433  0.86546367  0.36082767  1
  O  O56  1  0.13396533  0.49554167  0.57623367  1
  O  O57  1  0.35853933  0.49307567  0.36082767  1
  O  O58  1  0.97191533  0.17107167  0.59040967  1
  O  O59  1  0.83714867  0.30785633  0.52649933  1
  O  O60  1  0.50445833  0.63842367  0.57623367  1
  O  O61  1  0.82892833  0.80084367  0.59040967  1
  O  O62  1  0.19915633  0.02808467  0.59040967  1
  O  O63  1  0.53150300  0.83951500  0.47284400  1
  O  O64  1  0.63929700  0.13830300  0.42447500  1
  O  O65  1  0.30801200  0.46849700  0.47284400  1
  O  O66  1  0.69214367  0.52929233  0.52649933  1
  O  O67  1  0.36157633  0.86603467  0.57623367  1
  O  O68  1  0.47070767  0.16285133  0.52649933  1
  O  O69  1  0.80136700  0.97292400  0.40959000  1
  O  O70  1  0.17155700  0.19863300  0.40959000  1
  O  O71  1  0.49900600  0.36070300  0.42447500  1
  O  O72  1  0.16048500  0.69198800  0.47284400  1
  O  O73  1  0.02707600  0.82844300  0.40959000  1
  O  O74  1  0.64181067  0.50553633  0.63940633  1
  O  O75  1  0.86169700  0.50099400  0.42447500  1
  O  O76  1  0.49446367  0.13627433  0.63940633  1
  O  O77  1  0.86372567  0.35818933  0.63940633  1
  O  O78  1  0.80120300  0.97479400  0.69416100  1
  O  O79  1  0.17359100  0.19879700  0.69416100  1
  O  O80  1  0.80063200  0.82887500  0.90956700  1
  O  O81  1  0.02520600  0.82640900  0.69416100  1
  O  O82  1  0.63858200  0.50440500  0.92374300  1
  O  O83  1  0.50381533  0.64118967  0.85983267  1
  O  O84  1  0.17112500  0.97175700  0.90956700  1
  O  O85  1  0.49559500  0.13417700  0.92374300  1
  O  O86  1  0.86582300  0.36141800  0.92374300  1
  O  O87  1  0.19816967  0.17284833  0.80617733  1
  O  O88  1  0.30596367  0.47163633  0.75780833  1
  O  O89  1  0.97467867  0.80183033  0.80617733  1
  O  O90  1  0.35881033  0.86262567  0.85983267  1
  O  O91  1  0.02824300  0.19936800  0.90956700  1
  O  O92  1  0.13737433  0.49618467  0.85983267  1
  O  O93  1  0.46803367  0.30625733  0.74292333  1
  O  O94  1  0.83822367  0.53196633  0.74292333  1
  O  O95  1  0.16567267  0.69403633  0.75780833  1
  O  O96  1  0.82715167  0.02532133  0.80617733  1
  O  O97  1  0.69374267  0.16177633  0.74292333  1
  O  O98  1  0.30847733  0.83886967  0.97273967  1
  O  O99  1  0.52836367  0.83432733  0.75780833  1
  O  O100  1  0.16113033  0.46960767  0.97273967  1
  O  O101  1  0.53039233  0.69152267  0.97273967  1
