# generated using pymatgen
data_Li4MnP2O9
_symmetry_space_group_name_H-M   'P 1'
_cell_length_a   14.18886000
_cell_length_b   6.78776800
_cell_length_c   7.02544320
_cell_angle_alpha   90.00000000
_cell_angle_beta   90.74957416
_cell_angle_gamma   90.00000000
_symmetry_Int_Tables_number   1
_chemical_formula_structural   Li4MnP2O9
_chemical_formula_sum   'Li16 Mn4 P8 O36'
_cell_volume   676.56737921
_cell_formula_units_Z   4
loop_
 _symmetry_equiv_pos_site_id
 _symmetry_equiv_pos_as_xyz
  1  'x, y, z'
loop_
 _atom_site_type_symbol
 _atom_site_label
 _atom_site_symmetry_multiplicity
 _atom_site_fract_x
 _atom_site_fract_y
 _atom_site_fract_z
 _atom_site_occupancy
  Li  Li0  1  0.60777000  0.50000000  0.23255300  1
  Li  Li1  1  0.63349500  0.00000000  0.71064900  1
  Li  Li2  1  0.75000000  0.75000000  0.50000000  1
  Li  Li3  1  0.75000000  0.25000000  0.50000000  1
  Li  Li4  1  0.86650500  0.50000000  0.28935100  1
  Li  Li5  1  0.89223000  0.00000000  0.76744700  1
  Li  Li6  1  0.00000000  0.24109400  0.00000000  1
  Li  Li7  1  0.00000000  0.75890600  0.00000000  1
  Li  Li8  1  0.10777000  0.00000000  0.23255300  1
  Li  Li9  1  0.13349500  0.50000000  0.71064900  1
  Li  Li10  1  0.25000000  0.25000000  0.50000000  1
  Li  Li11  1  0.25000000  0.75000000  0.50000000  1
  Li  Li12  1  0.36650500  0.00000000  0.28935100  1
  Li  Li13  1  0.39223000  0.50000000  0.76744700  1
  Li  Li14  1  0.50000000  0.74109400  0.00000000  1
  Li  Li15  1  0.50000000  0.25890600  0.00000000  1
  Mn  Mn16  1  0.75000000  0.25000000  0.00000000  1
  Mn  Mn17  1  0.75000000  0.75000000  0.00000000  1
  Mn  Mn18  1  0.25000000  0.75000000  0.00000000  1
  Mn  Mn19  1  0.25000000  0.25000000  0.00000000  1
  P  P20  1  0.60276500  0.00000000  0.24269000  1
  P  P21  1  0.62431900  0.50000000  0.70846000  1
  P  P22  1  0.87568100  0.00000000  0.29154000  1
  P  P23  1  0.89723500  0.50000000  0.75731000  1
  P  P24  1  0.10276500  0.50000000  0.24269000  1
  P  P25  1  0.12431900  0.00000000  0.70846000  1
  P  P26  1  0.37568100  0.50000000  0.29154000  1
  P  P27  1  0.39723500  0.00000000  0.75731000  1
  O  O28  1  0.99611000  0.50000000  0.23563600  1
  O  O29  1  0.53095200  0.50000000  0.81353200  1
  O  O30  1  0.62722900  0.50000000  0.49312000  1
  O  O31  1  0.63082100  0.80976900  0.12351500  1
  O  O32  1  0.63082100  0.19023100  0.12351500  1
  O  O33  1  0.65496500  0.00000000  0.43494000  1
  O  O34  1  0.68215750  0.69200350  0.76621400  1
  O  O35  1  0.68215750  0.30799650  0.76621400  1
  O  O36  1  0.73750900  0.50000000  0.10357900  1
  O  O37  1  0.76249100  0.00000000  0.89642100  1
  O  O38  1  0.81784250  0.19200350  0.23378600  1
  O  O39  1  0.81784250  0.80799650  0.23378600  1
  O  O40  1  0.84503500  0.50000000  0.56506000  1
  O  O41  1  0.86917900  0.30976900  0.87648500  1
  O  O42  1  0.86917900  0.69023100  0.87648500  1
  O  O43  1  0.87277100  0.00000000  0.50688000  1
  O  O44  1  0.96904800  0.00000000  0.18646800  1
  O  O45  1  0.50389000  0.00000000  0.76436400  1
  O  O46  1  0.49611000  0.00000000  0.23563600  1
  O  O47  1  0.03095200  0.00000000  0.81353200  1
  O  O48  1  0.12722900  0.00000000  0.49312000  1
  O  O49  1  0.13082100  0.30976900  0.12351500  1
  O  O50  1  0.13082100  0.69023100  0.12351500  1
  O  O51  1  0.15496500  0.50000000  0.43494000  1
  O  O52  1  0.18215750  0.19200350  0.76621400  1
  O  O53  1  0.18215750  0.80799650  0.76621400  1
  O  O54  1  0.23750900  0.00000000  0.10357900  1
  O  O55  1  0.26249100  0.50000000  0.89642100  1
  O  O56  1  0.31784250  0.69200350  0.23378600  1
  O  O57  1  0.31784250  0.30799650  0.23378600  1
  O  O58  1  0.34503500  0.00000000  0.56506000  1
  O  O59  1  0.36917900  0.80976900  0.87648500  1
  O  O60  1  0.36917900  0.19023100  0.87648500  1
  O  O61  1  0.37277100  0.50000000  0.50688000  1
  O  O62  1  0.46904800  0.50000000  0.18646800  1
  O  O63  1  0.00389000  0.50000000  0.76436400  1
