# generated using pymatgen
data_V5FeO12
_symmetry_space_group_name_H-M   'P 1'
_cell_length_a   10.12561600
_cell_length_b   9.18479800
_cell_length_c   5.87572323
_cell_angle_alpha   90.00000000
_cell_angle_beta   110.31070032
_cell_angle_gamma   90.00000000
_symmetry_Int_Tables_number   1
_chemical_formula_structural   V5FeO12
_chemical_formula_sum   'V10 Fe2 O24'
_cell_volume   512.47630978
_cell_formula_units_Z   2
loop_
 _symmetry_equiv_pos_site_id
 _symmetry_equiv_pos_as_xyz
  1  'x, y, z'
loop_
 _atom_site_type_symbol
 _atom_site_label
 _atom_site_symmetry_multiplicity
 _atom_site_fract_x
 _atom_site_fract_y
 _atom_site_fract_z
 _atom_site_occupancy
  V  V0  1  0.00000000  0.91508300  0.50000000  1
  V  V1  1  0.20244650  0.41015050  0.99113900  1
  V  V2  1  0.20142700  0.59320600  0.48604900  1
  V  V3  1  0.79755350  0.41015050  0.00886100  1
  V  V4  1  0.79857300  0.59320600  0.51395100  1
  V  V5  1  0.50000000  0.41508300  0.50000000  1
  V  V6  1  0.70244650  0.91015050  0.99113900  1
  V  V7  1  0.70142700  0.09320600  0.48604900  1
  V  V8  1  0.29755350  0.91015050  0.00886100  1
  V  V9  1  0.29857300  0.09320600  0.51395100  1
  Fe  Fe10  1  0.00000000  0.08581600  0.00000000  1
  Fe  Fe11  1  0.50000000  0.58581600  0.00000000  1
  O  O12  1  0.38544350  0.42144950  0.11715500  1
  O  O13  1  0.14628100  0.23652600  0.97069900  1
  O  O14  1  0.38553350  0.57332550  0.59541500  1
  O  O15  1  0.13525300  0.50590300  0.19133300  1
  O  O16  1  0.85371900  0.23652600  0.02930100  1
  O  O17  1  0.14322000  0.49185800  0.69752000  1
  O  O18  1  0.86474700  0.50590300  0.80866700  1
  O  O19  1  0.13423300  0.76713200  0.46311500  1
  O  O20  1  0.85678000  0.49185800  0.30248000  1
  O  O21  1  0.61455650  0.42144950  0.88284500  1
  O  O22  1  0.86576700  0.76713200  0.53688500  1
  O  O23  1  0.61446650  0.57332550  0.40458500  1
  O  O24  1  0.88544350  0.92144950  0.11715500  1
  O  O25  1  0.64628100  0.73652600  0.97069900  1
  O  O26  1  0.88553350  0.07332550  0.59541500  1
  O  O27  1  0.63525300  0.00590300  0.19133300  1
  O  O28  1  0.35371900  0.73652600  0.02930100  1
  O  O29  1  0.64322000  0.99185800  0.69752000  1
  O  O30  1  0.36474700  0.00590300  0.80866700  1
  O  O31  1  0.63423300  0.26713200  0.46311500  1
  O  O32  1  0.35678000  0.99185800  0.30248000  1
  O  O33  1  0.11455650  0.92144950  0.88284500  1
  O  O34  1  0.36576700  0.26713200  0.53688500  1
  O  O35  1  0.11446650  0.07332550  0.40458500  1
