# generated using pymatgen
data_LiTi4VO8
_symmetry_space_group_name_H-M   'P 1'
_cell_length_a   5.87483400
_cell_length_b   5.90520911
_cell_length_c   5.90472686
_cell_angle_alpha   119.68923459
_cell_angle_beta   91.01355098
_cell_angle_gamma   118.93145180
_symmetry_Int_Tables_number   1
_chemical_formula_structural   LiTi4VO8
_chemical_formula_sum   'Li1 Ti4 V1 O8'
_cell_volume   146.55780596
_cell_formula_units_Z   1
loop_
 _symmetry_equiv_pos_site_id
 _symmetry_equiv_pos_as_xyz
  1  'x, y, z'
loop_
 _atom_site_type_symbol
 _atom_site_label
 _atom_site_symmetry_multiplicity
 _atom_site_fract_x
 _atom_site_fract_y
 _atom_site_fract_z
 _atom_site_occupancy
  Li  Li0  1  0.50000000  0.00000000  0.50000000  1
  Ti  Ti1  1  0.00000000  0.00000000  0.00000000  1
  Ti  Ti2  1  0.00000000  0.00000000  0.50000000  1
  Ti  Ti3  1  0.50000000  0.50000000  0.00000000  1
  Ti  Ti4  1  0.00000000  0.50000000  0.50000000  1
  V  V5  1  0.50000000  0.50000000  0.50000000  1
  O  O6  1  0.00502500  0.21361600  0.77073300  1
  O  O7  1  0.46229600  0.27429200  0.23770400  1
  O  O8  1  0.99901300  0.75042200  0.74901000  1
  O  O9  1  0.49961600  0.74140500  0.25504600  1
  O  O10  1  0.50038400  0.25859500  0.74495400  1
  O  O11  1  0.00098700  0.24957800  0.25099000  1
  O  O12  1  0.53770400  0.72570800  0.76229600  1
  O  O13  1  0.99497500  0.78638400  0.22926700  1
