# generated using pymatgen
data_Sr2U4O11
_symmetry_space_group_name_H-M   'P 1'
_cell_length_a   20.07261800
_cell_length_b   3.84898800
_cell_length_c   6.82425199
_cell_angle_alpha   90.00000000
_cell_angle_beta   109.60278920
_cell_angle_gamma   90.00000000
_symmetry_Int_Tables_number   1
_chemical_formula_structural   Sr2U4O11
_chemical_formula_sum   'Sr4 U8 O22'
_cell_volume   496.67865086
_cell_formula_units_Z   2
loop_
 _symmetry_equiv_pos_site_id
 _symmetry_equiv_pos_as_xyz
  1  'x, y, z'
loop_
 _atom_site_type_symbol
 _atom_site_label
 _atom_site_symmetry_multiplicity
 _atom_site_fract_x
 _atom_site_fract_y
 _atom_site_fract_z
 _atom_site_occupancy
  Sr  Sr0  1  0.33498000  0.50000000  0.49624400  1
  Sr  Sr1  1  0.15948700  0.00000000  0.48814100  1
  Sr  Sr2  1  0.83498000  0.00000000  0.49624400  1
  Sr  Sr3  1  0.65948700  0.50000000  0.48814100  1
  U  U4  1  0.49738600  0.50000000  0.99601400  1
  U  U5  1  0.00019800  0.50000000  0.50878700  1
  U  U6  1  0.16677600  0.50000000  0.00469800  1
  U  U7  1  0.33574100  0.00000000  0.02899800  1
  U  U8  1  0.99738600  0.00000000  0.99601400  1
  U  U9  1  0.50019800  0.00000000  0.50878700  1
  U  U10  1  0.66677600  0.00000000  0.00469800  1
  U  U11  1  0.83574100  0.50000000  0.02899800  1
  O  O12  1  0.11750600  0.00000000  0.08392500  1
  O  O13  1  0.20499500  0.50000000  0.33428000  1
  O  O14  1  0.38260100  0.00000000  0.37732200  1
  O  O15  1  0.46791300  0.50000000  0.64487100  1
  O  O16  1  0.03474500  0.50000000  0.88713000  1
  O  O17  1  0.21903100  0.00000000  0.88980000  1
  O  O18  1  0.29487000  0.50000000  0.11791900  1
  O  O19  1  0.45526700  0.00000000  0.11694600  1
  O  O20  1  0.03057600  0.00000000  0.35831600  1
  O  O21  1  0.11558600  0.50000000  0.65529900  1
  O  O22  1  0.37105600  0.50000000  0.88000200  1
  O  O23  1  0.61750600  0.50000000  0.08392500  1
  O  O24  1  0.70499500  0.00000000  0.33428000  1
  O  O25  1  0.88260100  0.50000000  0.37732200  1
  O  O26  1  0.96791300  0.00000000  0.64487100  1
  O  O27  1  0.53474500  0.00000000  0.88713000  1
  O  O28  1  0.71903100  0.50000000  0.88980000  1
  O  O29  1  0.79487000  0.00000000  0.11791900  1
  O  O30  1  0.95526700  0.50000000  0.11694600  1
  O  O31  1  0.53057600  0.50000000  0.35831600  1
  O  O32  1  0.61558600  0.00000000  0.65529900  1
  O  O33  1  0.87105600  0.00000000  0.88000200  1
