# generated using pymatgen
data_Mn3Cr(PO4)6
_symmetry_space_group_name_H-M   'P 1'
_cell_length_a   8.41896645
_cell_length_b   8.41896645
_cell_length_c   21.51949591
_cell_angle_alpha   90.00000000
_cell_angle_beta   90.00000000
_cell_angle_gamma   120.00000000
_symmetry_Int_Tables_number   1
_chemical_formula_structural   Mn3Cr(PO4)6
_chemical_formula_sum   'Mn9 Cr3 P18 O72'
_cell_volume   1320.93145954
_cell_formula_units_Z   3
loop_
 _symmetry_equiv_pos_site_id
 _symmetry_equiv_pos_as_xyz
  1  'x, y, z'
loop_
 _atom_site_type_symbol
 _atom_site_label
 _atom_site_symmetry_multiplicity
 _atom_site_fract_x
 _atom_site_fract_y
 _atom_site_fract_z
 _atom_site_occupancy
  Mn  Mn0  1  0.66666667  0.33333333  0.18919533  1
  Mn  Mn1  1  0.33333333  0.66666667  0.31021867  1
  Mn  Mn2  1  0.33333333  0.66666667  0.02230467  1
  Mn  Mn3  1  0.33333333  0.66666667  0.52252867  1
  Mn  Mn4  1  0.00000000  0.00000000  0.64355200  1
  Mn  Mn5  1  0.00000000  0.00000000  0.35563800  1
  Mn  Mn6  1  0.00000000  0.00000000  0.85586200  1
  Mn  Mn7  1  0.66666667  0.33333333  0.97688533  1
  Mn  Mn8  1  0.66666667  0.33333333  0.68897133  1
  Cr  Cr9  1  0.00000000  0.00000000  0.14239000  1
  Cr  Cr10  1  0.66666667  0.33333333  0.47572333  1
  Cr  Cr11  1  0.33333333  0.66666667  0.80905667  1
  P  P12  1  0.28523900  0.00027900  0.25046400  1
  P  P13  1  0.99972100  0.28496000  0.25046400  1
  P  P14  1  0.71504000  0.71476100  0.25046400  1
  P  P15  1  0.95000467  0.61527933  0.08289033  1
  P  P16  1  0.66527467  0.04999533  0.08289033  1
  P  P17  1  0.38472067  0.33472533  0.08289033  1
  P  P18  1  0.95190567  0.33361233  0.58379733  1
  P  P19  1  0.66638767  0.61829333  0.58379733  1
  P  P20  1  0.38170667  0.04809433  0.58379733  1
  P  P21  1  0.61667133  0.94861267  0.41622367  1
  P  P22  1  0.33194133  0.38332867  0.41622367  1
  P  P23  1  0.05138733  0.66805867  0.41622367  1
  P  P24  1  0.61857233  0.66694567  0.91713067  1
  P  P25  1  0.33305433  0.95162667  0.91713067  1
  P  P26  1  0.04837333  0.38142767  0.91713067  1
  P  P27  1  0.28333800  0.28194600  0.74955700  1
  P  P28  1  0.99860800  0.71666200  0.74955700  1
  P  P29  1  0.71805400  0.00139200  0.74955700  1
  O  O30  1  0.46184233  0.29459767  0.02415367  1
  O  O31  1  0.83275533  0.53815767  0.02415367  1
  O  O32  1  0.47515967  0.17218333  0.24495133  1
  O  O33  1  0.70540233  0.16724467  0.02415367  1
  O  O34  1  0.30061967  0.82649833  0.25420033  1
  O  O35  1  0.17039400  0.97245900  0.19138000  1
  O  O36  1  0.82781667  0.30297633  0.24495133  1
  O  O37  1  0.17350167  0.47412133  0.25420033  1
  O  O38  1  0.52587867  0.69938033  0.25420033  1
  O  O39  1  0.86957500  0.50032500  0.14201300  1
  O  O40  1  0.97312133  0.80841967  0.08988567  1
  O  O41  1  0.63075000  0.13042500  0.14201300  1
  O  O42  1  0.02754100  0.19793500  0.19138000  1
  O  O43  1  0.69702367  0.52484033  0.24495133  1
  O  O44  1  0.80206500  0.82960600  0.19138000  1
  O  O45  1  0.14213600  0.63832400  0.07808200  1
  O  O46  1  0.49618800  0.85786400  0.07808200  1
  O  O47  1  0.83529833  0.02687867  0.08988567  1
  O  O48  1  0.49967500  0.36925000  0.14201300  1
  O  O49  1  0.36167600  0.50381200  0.07808200  1
  O  O50  1  0.96487700  0.16918100  0.30950000  1
  O  O51  1  0.19158033  0.16470167  0.08988567  1
  O  O52  1  0.83081900  0.79569600  0.30950000  1
  O  O53  1  0.20430400  0.03512300  0.30950000  1
  O  O54  1  0.12850900  0.62793100  0.35748700  1
  O  O55  1  0.49942200  0.87149100  0.35748700  1
  O  O56  1  0.14182633  0.50551667  0.57828467  1
  O  O57  1  0.37206900  0.50057800  0.35748700  1
  O  O58  1  0.96728633  0.15983167  0.58753367  1
  O  O59  1  0.83706067  0.30579233  0.52471333  1
  O  O60  1  0.49448333  0.63630967  0.57828467  1
  O  O61  1  0.84016833  0.80745467  0.58753367  1
  O  O62  1  0.19254533  0.03271367  0.58753367  1
  O  O63  1  0.53624167  0.83365833  0.47534633  1
  O  O64  1  0.63978800  0.14175300  0.42321900  1
  O  O65  1  0.29741667  0.46375833  0.47534633  1
  O  O66  1  0.69420767  0.53126833  0.52471333  1
  O  O67  1  0.36369033  0.85817367  0.57828467  1
  O  O68  1  0.46873167  0.16293933  0.52471333  1
  O  O69  1  0.80880267  0.97165733  0.41141533  1
  O  O70  1  0.16285467  0.19119733  0.41141533  1
  O  O71  1  0.50196500  0.36021200  0.42321900  1
  O  O72  1  0.16634167  0.70258333  0.47534633  1
  O  O73  1  0.02834267  0.83714533  0.41141533  1
  O  O74  1  0.63154367  0.50251433  0.64283333  1
  O  O75  1  0.85824700  0.49803500  0.42321900  1
  O  O76  1  0.49748567  0.12902933  0.64283333  1
  O  O77  1  0.87097067  0.36845633  0.64283333  1
  O  O78  1  0.79517567  0.96126433  0.69082033  1
  O  O79  1  0.16608867  0.20482433  0.69082033  1
  O  O80  1  0.80849300  0.83885000  0.91161800  1
  O  O81  1  0.03873567  0.83391133  0.69082033  1
  O  O82  1  0.63395300  0.49316500  0.92086700  1
  O  O83  1  0.50372733  0.63912567  0.85804667  1
  O  O84  1  0.16115000  0.96964300  0.91161800  1
  O  O85  1  0.50683500  0.14078800  0.92086700  1
  O  O86  1  0.85921200  0.36604700  0.92086700  1
  O  O87  1  0.20290833  0.16699167  0.80867967  1
  O  O88  1  0.30645467  0.47508633  0.75655233  1
  O  O89  1  0.96408333  0.79709167  0.80867967  1
  O  O90  1  0.36087433  0.86460167  0.85804667  1
  O  O91  1  0.03035700  0.19150700  0.91161800  1
  O  O92  1  0.13539833  0.49627267  0.85804667  1
  O  O93  1  0.47546933  0.30499067  0.74474867  1
  O  O94  1  0.82952133  0.52453067  0.74474867  1
  O  O95  1  0.16863167  0.69354533  0.75655233  1
  O  O96  1  0.83300833  0.03591667  0.80867967  1
  O  O97  1  0.69500933  0.17047867  0.74474867  1
  O  O98  1  0.29821033  0.83584767  0.97616667  1
  O  O99  1  0.52491367  0.83136833  0.75655233  1
  O  O100  1  0.16415233  0.46236267  0.97616667  1
  O  O101  1  0.53763733  0.70178967  0.97616667  1
