# generated using pymatgen
data_LiV(TeO4)3
_symmetry_space_group_name_H-M   'P 1'
_cell_length_a   4.90711400
_cell_length_b   8.45453300
_cell_length_c   5.17350828
_cell_angle_alpha   90.00000000
_cell_angle_beta   91.02774495
_cell_angle_gamma   90.00000000
_symmetry_Int_Tables_number   1
_chemical_formula_structural   LiV(TeO4)3
_chemical_formula_sum   'Li1 V1 Te3 O12'
_cell_volume   214.60065714
_cell_formula_units_Z   1
loop_
 _symmetry_equiv_pos_site_id
 _symmetry_equiv_pos_as_xyz
  1  'x, y, z'
loop_
 _atom_site_type_symbol
 _atom_site_label
 _atom_site_symmetry_multiplicity
 _atom_site_fract_x
 _atom_site_fract_y
 _atom_site_fract_z
 _atom_site_occupancy
  Li  Li0  1  0.00000000  0.29367500  0.50000000  1
  V  V1  1  0.00000000  0.09147200  0.00000000  1
  Te  Te2  1  0.50000000  0.40601500  0.00000000  1
  Te  Te3  1  0.00000000  0.91890400  0.50000000  1
  Te  Te4  1  0.50000000  0.60464400  0.50000000  1
  O  O5  1  0.75481500  0.25411800  0.87627800  1
  O  O6  1  0.71140100  0.57571500  0.81883400  1
  O  O7  1  0.79930400  0.93627800  0.81683000  1
  O  O8  1  0.28403000  0.43364900  0.67548000  1
  O  O9  1  0.20186200  0.08649100  0.68694400  1
  O  O10  1  0.25039300  0.75793300  0.64185900  1
  O  O11  1  0.74960700  0.75793300  0.35814100  1
  O  O12  1  0.79813800  0.08649100  0.31305600  1
  O  O13  1  0.71597000  0.43364900  0.32452000  1
  O  O14  1  0.20069600  0.93627800  0.18317000  1
  O  O15  1  0.28859900  0.57571500  0.18116600  1
  O  O16  1  0.24518500  0.25411800  0.12372200  1
