# generated using pymatgen
data_LiFe7(OF3)3
_symmetry_space_group_name_H-M   'P 1'
_cell_length_a   5.44956817
_cell_length_b   5.72286725
_cell_length_c   9.19479989
_cell_angle_alpha   105.74480814
_cell_angle_beta   88.95925505
_cell_angle_gamma   117.61620674
_symmetry_Int_Tables_number   1
_chemical_formula_structural   LiFe7(OF3)3
_chemical_formula_sum   'Li1 Fe7 O3 F9'
_cell_volume   242.60126597
_cell_formula_units_Z   1
loop_
 _symmetry_equiv_pos_site_id
 _symmetry_equiv_pos_as_xyz
  1  'x, y, z'
loop_
 _atom_site_type_symbol
 _atom_site_label
 _atom_site_symmetry_multiplicity
 _atom_site_fract_x
 _atom_site_fract_y
 _atom_site_fract_z
 _atom_site_occupancy
  Li  Li0  1  0.78913941  0.63357781  0.93189072  1
  Fe  Fe1  1  0.21615742  0.34494110  0.07990444  1
  Fe  Fe2  1  0.76068872  0.90386357  0.57619476  1
  Fe  Fe3  1  0.49464657  0.89005161  0.17153193  1
  Fe  Fe4  1  0.95812000  0.62820688  0.32460366  1
  Fe  Fe5  1  0.02493236  0.36572725  0.66537464  1
  Fe  Fe6  1  0.31505882  0.13889521  0.43576054  1
  Fe  Fe7  1  0.46435348  0.12352559  0.80876394  1
  O  O8  1  0.25308417  0.01209924  0.23322516  1
  O  O9  1  0.74384949  0.29349636  0.47266213  1
  O  O10  1  0.18622182  0.11571035  0.62623053  1
  F  F11  1  0.78881755  0.52848027  0.72266749  1
  F  F12  1  0.79365854  0.88278893  0.36209205  1
  F  F13  1  0.65738756  0.63524666  0.11640858  1
  F  F14  1  0.21650500  0.75699197  0.97301125  1
  F  F15  1  0.76050256  0.22371894  0.01526829  1
  F  F16  1  0.32159873  0.72492525  0.54313469  1
  F  F17  1  0.30765854  0.36604210  0.87240785  1
  F  F18  1  0.72964126  0.95757330  0.79540667  1
  F  F19  1  0.21797899  0.47413662  0.27346167  1
