# generated using pymatgen
data_Ni6OF11
_symmetry_space_group_name_H-M   'P 1'
_cell_length_a   6.62550800
_cell_length_b   20.00590400
_cell_length_c   3.08926600
_cell_angle_alpha   90.00000000
_cell_angle_beta   90.00000000
_cell_angle_gamma   90.00000000
_symmetry_Int_Tables_number   1
_chemical_formula_structural   Ni6OF11
_chemical_formula_sum   'Ni12 O2 F22'
_cell_volume   409.47997476
_cell_formula_units_Z   2
loop_
 _symmetry_equiv_pos_site_id
 _symmetry_equiv_pos_as_xyz
  1  'x, y, z'
loop_
 _atom_site_type_symbol
 _atom_site_label
 _atom_site_symmetry_multiplicity
 _atom_site_fract_x
 _atom_site_fract_y
 _atom_site_fract_z
 _atom_site_occupancy
  Ni  Ni0  1  0.99652700  0.00000000  0.00000000  1
  Ni  Ni1  1  0.50784100  0.00000000  0.50000000  1
  Ni  Ni2  1  0.99941650  0.33295350  0.00000000  1
  Ni  Ni3  1  0.50026250  0.33343350  0.50000000  1
  Ni  Ni4  1  0.00026250  0.16656650  0.50000000  1
  Ni  Ni5  1  0.49941650  0.16704650  0.00000000  1
  Ni  Ni6  1  0.49652700  0.50000000  0.00000000  1
  Ni  Ni7  1  0.00784100  0.50000000  0.50000000  1
  Ni  Ni8  1  0.49941650  0.83295350  0.00000000  1
  Ni  Ni9  1  0.00026250  0.83343350  0.50000000  1
  Ni  Ni10  1  0.50026250  0.66656650  0.50000000  1
  Ni  Ni11  1  0.99941650  0.66704650  0.00000000  1
  O  O12  1  0.69349500  0.00000000  0.00000000  1
  O  O13  1  0.19349500  0.50000000  0.00000000  1
  F  F14  1  0.30326400  0.33340000  0.00000000  1
  F  F15  1  0.30268100  0.00000000  0.00000000  1
  F  F16  1  0.00010050  0.39840450  0.50000000  1
  F  F17  1  0.99998450  0.26767350  0.50000000  1
  F  F18  1  0.50032200  0.43398700  0.50000000  1
  F  F19  1  0.69641600  0.33301600  0.00000000  1
  F  F20  1  0.80326400  0.16660000  0.00000000  1
  F  F21  1  0.49998450  0.23232650  0.50000000  1
  F  F22  1  0.00032200  0.06601300  0.50000000  1
  F  F23  1  0.50010050  0.10159550  0.50000000  1
  F  F24  1  0.19641600  0.16698400  0.00000000  1
  F  F25  1  0.80326400  0.83340000  0.00000000  1
  F  F26  1  0.80268100  0.50000000  0.00000000  1
  F  F27  1  0.50010050  0.89840450  0.50000000  1
  F  F28  1  0.49998450  0.76767350  0.50000000  1
  F  F29  1  0.00032200  0.93398700  0.50000000  1
  F  F30  1  0.19641600  0.83301600  0.00000000  1
  F  F31  1  0.30326400  0.66660000  0.00000000  1
  F  F32  1  0.99998450  0.73232650  0.50000000  1
  F  F33  1  0.50032200  0.56601300  0.50000000  1
  F  F34  1  0.00010050  0.60159550  0.50000000  1
  F  F35  1  0.69641600  0.66698400  0.00000000  1
