# generated using pymatgen
data_Li6Co(SiO4)2
_symmetry_space_group_name_H-M   'P 1'
_cell_length_a   5.10686770
_cell_length_b   5.53406394
_cell_length_c   6.23304036
_cell_angle_alpha   88.17825805
_cell_angle_beta   79.29449265
_cell_angle_gamma   84.28310582
_symmetry_Int_Tables_number   1
_chemical_formula_structural   Li6Co(SiO4)2
_chemical_formula_sum   'Li6 Co1 Si2 O8'
_cell_volume   172.21369237
_cell_formula_units_Z   1
loop_
 _symmetry_equiv_pos_site_id
 _symmetry_equiv_pos_as_xyz
  1  'x, y, z'
loop_
 _atom_site_type_symbol
 _atom_site_label
 _atom_site_symmetry_multiplicity
 _atom_site_fract_x
 _atom_site_fract_y
 _atom_site_fract_z
 _atom_site_occupancy
  Li  Li0  1  0.83411100  0.58520800  0.19069300  1
  Li  Li1  1  0.16588900  0.41479200  0.80930700  1
  Li  Li2  1  0.38248400  0.75179150  0.96511150  1
  Li  Li3  1  0.61751600  0.24820850  0.03488850  1
  Li  Li4  1  0.22021150  0.63818450  0.38863750  1
  Li  Li5  1  0.77978850  0.36181550  0.61136250  1
  Co  Co6  1  0.50000000  0.00000000  0.50000000  1
  Si  Si7  1  0.87232450  0.79623550  0.71960350  1
  Si  Si8  1  0.12767550  0.20376450  0.28039650  1
  O  O9  1  0.20034200  0.78109750  0.70415250  1
  O  O10  1  0.79965800  0.21890250  0.29584750  1
  O  O11  1  0.30934800  0.94316250  0.22709550  1
  O  O12  1  0.69065200  0.05683750  0.77290450  1
  O  O13  1  0.80620550  0.71245550  0.48154350  1
  O  O14  1  0.19379450  0.28754450  0.51845650  1
  O  O15  1  0.76417950  0.58115750  0.89532850  1
  O  O16  1  0.23582050  0.41884250  0.10467150  1
