# generated using pymatgen
data_Li5Mn6(BO3)6
_symmetry_space_group_name_H-M   'P 1'
_cell_length_a   28.67903400
_cell_length_b   6.36346000
_cell_length_c   8.25832036
_cell_angle_alpha   90.00000000
_cell_angle_beta   90.45758321
_cell_angle_gamma   90.00000000
_symmetry_Int_Tables_number   1
_chemical_formula_structural   Li5Mn6(BO3)6
_chemical_formula_sum   'Li20 Mn24 B24 O72'
_cell_volume   1507.07794247
_cell_formula_units_Z   4
loop_
 _symmetry_equiv_pos_site_id
 _symmetry_equiv_pos_as_xyz
  1  'x, y, z'
loop_
 _atom_site_type_symbol
 _atom_site_label
 _atom_site_symmetry_multiplicity
 _atom_site_fract_x
 _atom_site_fract_y
 _atom_site_fract_z
 _atom_site_occupancy
  Li  Li0  1  0.75436500  0.00000000  0.29072700  1
  Li  Li1  1  0.75415600  0.50000000  0.28943200  1
  Li  Li2  1  0.57013000  0.50000000  0.34159600  1
  Li  Li3  1  0.92553500  0.00000000  0.36772700  1
  Li  Li4  1  0.92492600  0.50000000  0.36956600  1
  Li  Li5  1  0.50431600  0.00000000  0.79012800  1
  Li  Li6  1  0.50414300  0.50000000  0.79038700  1
  Li  Li7  1  0.82014400  0.00000000  0.84143200  1
  Li  Li8  1  0.67494200  0.50000000  0.86846000  1
  Li  Li9  1  0.67543300  0.00000000  0.86899000  1
  Li  Li10  1  0.25436500  0.50000000  0.29072700  1
  Li  Li11  1  0.25415600  0.00000000  0.28943200  1
  Li  Li12  1  0.07013000  0.00000000  0.34159600  1
  Li  Li13  1  0.42553500  0.50000000  0.36772700  1
  Li  Li14  1  0.42492600  0.00000000  0.36956600  1
  Li  Li15  1  0.00431600  0.50000000  0.79012800  1
  Li  Li16  1  0.00414300  0.00000000  0.79038700  1
  Li  Li17  1  0.32014400  0.50000000  0.84143200  1
  Li  Li18  1  0.17494200  0.00000000  0.86846000  1
  Li  Li19  1  0.17543300  0.50000000  0.86899000  1
  Mn  Mn20  1  0.99934000  0.25219700  0.13757000  1
  Mn  Mn21  1  0.99934000  0.74780300  0.13757000  1
  Mn  Mn22  1  0.84251150  0.25289850  0.16597800  1
  Mn  Mn23  1  0.84251150  0.74710150  0.16597800  1
  Mn  Mn24  1  0.65797300  0.75245100  0.19549800  1
  Mn  Mn25  1  0.65797300  0.24754900  0.19549800  1
  Mn  Mn26  1  0.74930400  0.74801200  0.63758100  1
  Mn  Mn27  1  0.74930400  0.25198800  0.63758100  1
  Mn  Mn28  1  0.59248600  0.75346700  0.66581300  1
  Mn  Mn29  1  0.59248600  0.24653300  0.66581300  1
  Mn  Mn30  1  0.90793950  0.25281650  0.69551800  1
  Mn  Mn31  1  0.90793950  0.74718350  0.69551800  1
  Mn  Mn32  1  0.49934000  0.75219700  0.13757000  1
  Mn  Mn33  1  0.49934000  0.24780300  0.13757000  1
  Mn  Mn34  1  0.34251150  0.75289850  0.16597800  1
  Mn  Mn35  1  0.34251150  0.24710150  0.16597800  1
  Mn  Mn36  1  0.15797300  0.25245100  0.19549800  1
  Mn  Mn37  1  0.15797300  0.74754900  0.19549800  1
  Mn  Mn38  1  0.24930400  0.24801200  0.63758100  1
  Mn  Mn39  1  0.24930400  0.75198800  0.63758100  1
  Mn  Mn40  1  0.09248600  0.25346700  0.66581300  1
  Mn  Mn41  1  0.09248600  0.74653300  0.66581300  1
  Mn  Mn42  1  0.40793950  0.75281650  0.69551800  1
  Mn  Mn43  1  0.40793950  0.24718350  0.69551800  1
  B  B44  1  0.74901300  0.24622800  0.00167700  1
  B  B45  1  0.74901300  0.75377200  0.00167700  1
  B  B46  1  0.58416900  0.00000000  0.99557700  1
  B  B47  1  0.58329000  0.50000000  0.99654700  1
  B  B48  1  0.91780300  0.50000000  0.00403800  1
  B  B49  1  0.91699300  0.00000000  0.99998500  1
  B  B50  1  0.99900400  0.24548500  0.50181800  1
  B  B51  1  0.99900400  0.75451500  0.50181800  1
  B  B52  1  0.66692200  0.50000000  0.50026700  1
  B  B53  1  0.66797100  0.00000000  0.50369100  1
  B  B54  1  0.83353600  0.00000000  0.49603300  1
  B  B55  1  0.83389500  0.50000000  0.49620100  1
  B  B56  1  0.24901300  0.74622800  0.00167700  1
  B  B57  1  0.24901300  0.25377200  0.00167700  1
  B  B58  1  0.08416900  0.50000000  0.99557700  1
  B  B59  1  0.08329000  0.00000000  0.99654700  1
  B  B60  1  0.41780300  0.00000000  0.00403800  1
  B  B61  1  0.41699300  0.50000000  0.99998500  1
  B  B62  1  0.49900400  0.74548500  0.50181800  1
  B  B63  1  0.49900400  0.25451500  0.50181800  1
  B  B64  1  0.16692200  0.00000000  0.50026700  1
  B  B65  1  0.16797100  0.50000000  0.50369100  1
  B  B66  1  0.33353600  0.50000000  0.49603300  1
  B  B67  1  0.33389500  0.00000000  0.49620100  1
  O  O68  1  0.53508000  0.50000000  0.01049200  1
  O  O69  1  0.53610800  0.00000000  0.01147100  1
  O  O70  1  0.86852500  0.00000000  0.01508600  1
  O  O71  1  0.87029000  0.50000000  0.02208400  1
  O  O72  1  0.94726800  0.50000000  0.13976700  1
  O  O73  1  0.94559200  0.00000000  0.13572700  1
  O  O74  1  0.61386400  0.00000000  0.12745600  1
  O  O75  1  0.61052700  0.50000000  0.13702600  1
  O  O76  1  0.76974550  0.24950150  0.15597200  1
  O  O77  1  0.76974550  0.75049850  0.15597200  1
  O  O78  1  0.68709300  0.00000000  0.34782500  1
  O  O79  1  0.68620900  0.50000000  0.34523500  1
  O  O80  1  0.85446600  0.00000000  0.34513600  1
  O  O81  1  0.85322100  0.50000000  0.34221500  1
  O  O82  1  0.52597150  0.73179350  0.36603500  1
  O  O83  1  0.52597150  0.26820650  0.36603500  1
  O  O84  1  0.95022250  0.25100150  0.48895200  1
  O  O85  1  0.95022250  0.74899850  0.48895200  1
  O  O86  1  0.78570100  0.50000000  0.51241800  1
  O  O87  1  0.78543500  0.00000000  0.50948200  1
  O  O88  1  0.62040500  0.00000000  0.52168400  1
  O  O89  1  0.61852300  0.50000000  0.51551500  1
  O  O90  1  0.69742700  0.00000000  0.63900100  1
  O  O91  1  0.69554700  0.50000000  0.63638800  1
  O  O92  1  0.86073100  0.00000000  0.63675700  1
  O  O93  1  0.86356400  0.50000000  0.62786300  1
  O  O94  1  0.51974200  0.74955900  0.65605500  1
  O  O95  1  0.51974200  0.25044100  0.65605500  1
  O  O96  1  0.93708100  0.50000000  0.84854800  1
  O  O97  1  0.93616500  0.00000000  0.84463300  1
  O  O98  1  0.60370400  0.00000000  0.84176500  1
  O  O99  1  0.60403500  0.50000000  0.84545700  1
  O  O100  1  0.77599000  0.23249200  0.86593700  1
  O  O101  1  0.77599000  0.76750800  0.86593700  1
  O  O102  1  0.70023650  0.74734750  0.98887600  1
  O  O103  1  0.70023650  0.25265250  0.98887600  1
  O  O104  1  0.03508000  0.00000000  0.01049200  1
  O  O105  1  0.03610800  0.50000000  0.01147100  1
  O  O106  1  0.36852500  0.50000000  0.01508600  1
  O  O107  1  0.37029000  0.00000000  0.02208400  1
  O  O108  1  0.44726800  0.00000000  0.13976700  1
  O  O109  1  0.44559200  0.50000000  0.13572700  1
  O  O110  1  0.11386400  0.50000000  0.12745600  1
  O  O111  1  0.11052700  0.00000000  0.13702600  1
  O  O112  1  0.26974550  0.74950150  0.15597200  1
  O  O113  1  0.26974550  0.25049850  0.15597200  1
  O  O114  1  0.18709300  0.50000000  0.34782500  1
  O  O115  1  0.18620900  0.00000000  0.34523500  1
  O  O116  1  0.35446600  0.50000000  0.34513600  1
  O  O117  1  0.35322100  0.00000000  0.34221500  1
  O  O118  1  0.02597150  0.23179350  0.36603500  1
  O  O119  1  0.02597150  0.76820650  0.36603500  1
  O  O120  1  0.45022250  0.75100150  0.48895200  1
  O  O121  1  0.45022250  0.24899850  0.48895200  1
  O  O122  1  0.28570100  0.00000000  0.51241800  1
  O  O123  1  0.28543500  0.50000000  0.50948200  1
  O  O124  1  0.12040500  0.50000000  0.52168400  1
  O  O125  1  0.11852300  0.00000000  0.51551500  1
  O  O126  1  0.19742700  0.50000000  0.63900100  1
  O  O127  1  0.19554700  0.00000000  0.63638800  1
  O  O128  1  0.36073100  0.50000000  0.63675700  1
  O  O129  1  0.36356400  0.00000000  0.62786300  1
  O  O130  1  0.01974200  0.24955900  0.65605500  1
  O  O131  1  0.01974200  0.75044100  0.65605500  1
  O  O132  1  0.43708100  0.00000000  0.84854800  1
  O  O133  1  0.43616500  0.50000000  0.84463300  1
  O  O134  1  0.10370400  0.50000000  0.84176500  1
  O  O135  1  0.10403500  0.00000000  0.84545700  1
  O  O136  1  0.27599000  0.73249200  0.86593700  1
  O  O137  1  0.27599000  0.26750800  0.86593700  1
  O  O138  1  0.20023650  0.24734750  0.98887600  1
  O  O139  1  0.20023650  0.75265250  0.98887600  1
