# generated using pymatgen
data_LiMn2F6
_symmetry_space_group_name_H-M   'P 1'
_cell_length_a   8.86782859
_cell_length_b   8.86782859
_cell_length_c   4.67766000
_cell_angle_alpha   90.00000000
_cell_angle_beta   90.00000000
_cell_angle_gamma   120.00000000
_symmetry_Int_Tables_number   1
_chemical_formula_structural   LiMn2F6
_chemical_formula_sum   'Li3 Mn6 F18'
_cell_volume   318.56192165
_cell_formula_units_Z   3
loop_
 _symmetry_equiv_pos_site_id
 _symmetry_equiv_pos_as_xyz
  1  'x, y, z'
loop_
 _atom_site_type_symbol
 _atom_site_label
 _atom_site_symmetry_multiplicity
 _atom_site_fract_x
 _atom_site_fract_y
 _atom_site_fract_z
 _atom_site_occupancy
  Li  Li0  1  0.33333333  0.66666667  0.48560800  1
  Li  Li1  1  0.00000000  0.00000000  0.00000000  1
  Li  Li2  1  0.66666667  0.33333333  0.51439200  1
  Mn  Mn3  1  0.00000000  0.64405650  0.00000000  1
  Mn  Mn4  1  0.00000000  0.31339050  0.50000000  1
  Mn  Mn5  1  0.35594350  0.35594350  0.00000000  1
  Mn  Mn6  1  0.31339050  0.00000000  0.50000000  1
  Mn  Mn7  1  0.68660950  0.68660950  0.50000000  1
  Mn  Mn8  1  0.64405650  0.00000000  0.00000000  1
  F  F9  1  0.11467633  0.89108667  0.75366000  1
  F  F10  1  0.21179733  0.76849367  0.26743700  1
  F  F11  1  0.10534733  0.52385367  0.72874300  1
  F  F12  1  0.41850633  0.89465267  0.72874300  1
  F  F13  1  0.10891333  0.22358967  0.75366000  1
  F  F14  1  0.23150633  0.44330367  0.26743700  1
  F  F15  1  0.55669633  0.78820267  0.26743700  1
  F  F16  1  0.22358967  0.10891333  0.24634000  1
  F  F17  1  0.47614633  0.58149367  0.72874300  1
  F  F18  1  0.44330367  0.23150633  0.73256300  1
  F  F19  1  0.77641033  0.88532367  0.75366000  1
  F  F20  1  0.58149367  0.47614633  0.27125700  1
  F  F21  1  0.52385367  0.10534733  0.27125700  1
  F  F22  1  0.88532367  0.77641033  0.24634000  1
  F  F23  1  0.78820267  0.55669633  0.73256300  1
  F  F24  1  0.76849367  0.21179733  0.73256300  1
  F  F25  1  0.89465267  0.41850633  0.27125700  1
  F  F26  1  0.89108667  0.11467633  0.24634000  1
