# generated using pymatgen
data_Li4Fe3Co7O20
_symmetry_space_group_name_H-M   'P 1'
_cell_length_a   6.19013308
_cell_length_b   2.98404900
_cell_length_c   20.04924598
_cell_angle_alpha   90.00000000
_cell_angle_beta   97.76938617
_cell_angle_gamma   90.00000000
_symmetry_Int_Tables_number   1
_chemical_formula_structural   Li4Fe3Co7O20
_chemical_formula_sum   'Li4 Fe3 Co7 O20'
_cell_volume   366.94319519
_cell_formula_units_Z   1
loop_
 _symmetry_equiv_pos_site_id
 _symmetry_equiv_pos_as_xyz
  1  'x, y, z'
loop_
 _atom_site_type_symbol
 _atom_site_label
 _atom_site_symmetry_multiplicity
 _atom_site_fract_x
 _atom_site_fract_y
 _atom_site_fract_z
 _atom_site_occupancy
  Li  Li0  1  0.00000000  0.50000000  0.50000000  1
  Li  Li1  1  0.40429600  0.00000000  0.79718500  1
  Li  Li2  1  0.00000000  0.00000000  0.00000000  1
  Li  Li3  1  0.59570400  0.00000000  0.20281500  1
  Fe  Fe4  1  0.89943400  0.00000000  0.79721000  1
  Fe  Fe5  1  0.50000000  0.00000000  0.00000000  1
  Fe  Fe6  1  0.10056600  0.00000000  0.20279000  1
  Co  Co7  1  0.67845900  0.00000000  0.39823500  1
  Co  Co8  1  0.50000000  0.50000000  0.50000000  1
  Co  Co9  1  0.32154100  0.00000000  0.60176500  1
  Co  Co10  1  0.08348400  0.50000000  0.69248700  1
  Co  Co11  1  0.70157500  0.50000000  0.89935200  1
  Co  Co12  1  0.29842500  0.50000000  0.10064800  1
  Co  Co13  1  0.91651600  0.50000000  0.30751300  1
  O  O14  1  0.47991700  0.50000000  0.40774300  1
  O  O15  1  0.71859700  0.00000000  0.49031400  1
  O  O16  1  0.28140300  0.00000000  0.50968600  1
  O  O17  1  0.10015100  0.50000000  0.60117100  1
  O  O18  1  0.52008300  0.50000000  0.59225700  1
  O  O19  1  0.89381200  0.00000000  0.69797500  1
  O  O20  1  0.31749300  0.00000000  0.69191700  1
  O  O21  1  0.12792300  0.50000000  0.78891800  1
  O  O22  1  0.67965900  0.50000000  0.80527300  1
  O  O23  1  0.90055900  0.00000000  0.89917100  1
  O  O24  1  0.50232700  0.00000000  0.89864200  1
  O  O25  1  0.72297500  0.50000000  0.99331400  1
  O  O26  1  0.27702500  0.50000000  0.00668600  1
  O  O27  1  0.09944100  0.00000000  0.10082900  1
  O  O28  1  0.49767300  0.00000000  0.10135800  1
  O  O29  1  0.87207700  0.50000000  0.21108200  1
  O  O30  1  0.32034100  0.50000000  0.19472700  1
  O  O31  1  0.10618800  0.00000000  0.30202500  1
  O  O32  1  0.68250700  0.00000000  0.30808300  1
  O  O33  1  0.89984900  0.50000000  0.39882900  1
