# generated using pymatgen
data_Li4Mn3Co3(SbO8)2
_symmetry_space_group_name_H-M   'P 1'
_cell_length_a   10.37120081
_cell_length_b   5.88204517
_cell_length_c   9.74550952
_cell_angle_alpha   90.00000000
_cell_angle_beta   91.92578896
_cell_angle_gamma   90.00000000
_symmetry_Int_Tables_number   1
_chemical_formula_structural   Li4Mn3Co3(SbO8)2
_chemical_formula_sum   'Li8 Mn6 Co6 Sb4 O32'
_cell_volume   594.17802564
_cell_formula_units_Z   2
loop_
 _symmetry_equiv_pos_site_id
 _symmetry_equiv_pos_as_xyz
  1  'x, y, z'
loop_
 _atom_site_type_symbol
 _atom_site_label
 _atom_site_symmetry_multiplicity
 _atom_site_fract_x
 _atom_site_fract_y
 _atom_site_fract_z
 _atom_site_occupancy
  Li  Li0  1  0.15921650  0.50000000  0.90275900  1
  Li  Li1  1  0.00477000  0.00000000  0.98939900  1
  Li  Li2  1  0.01031150  0.00000000  0.48886000  1
  Li  Li3  1  0.33343800  0.00000000  0.40430900  1
  Li  Li4  1  0.65921650  0.00000000  0.90275900  1
  Li  Li5  1  0.50477000  0.50000000  0.98939900  1
  Li  Li6  1  0.51031150  0.50000000  0.48886000  1
  Li  Li7  1  0.83343800  0.50000000  0.40430900  1
  Mn  Mn8  1  0.32990700  0.50000000  0.20803500  1
  Mn  Mn9  1  0.41697750  0.75293250  0.71319200  1
  Mn  Mn10  1  0.41697750  0.24706750  0.71319200  1
  Mn  Mn11  1  0.82990700  0.00000000  0.20803500  1
  Mn  Mn12  1  0.91697750  0.25293250  0.71319200  1
  Mn  Mn13  1  0.91697750  0.74706750  0.71319200  1
  Co  Co14  1  0.08557950  0.25555950  0.21801600  1
  Co  Co15  1  0.08557950  0.74444050  0.21801600  1
  Co  Co16  1  0.17231650  0.00000000  0.71549300  1
  Co  Co17  1  0.58557950  0.75555950  0.21801600  1
  Co  Co18  1  0.58557950  0.24444050  0.21801600  1
  Co  Co19  1  0.67231650  0.50000000  0.71549300  1
  Sb  Sb20  1  0.17040700  0.50000000  0.48855100  1
  Sb  Sb21  1  0.32583300  0.00000000  0.98534800  1
  Sb  Sb22  1  0.67040700  0.00000000  0.48855100  1
  Sb  Sb23  1  0.82583300  0.50000000  0.98534800  1
  O  O24  1  0.01757700  0.50000000  0.34833500  1
  O  O25  1  0.16446600  0.50000000  0.11285300  1
  O  O26  1  0.49743400  0.50000000  0.29850400  1
  O  O27  1  0.00614400  0.00000000  0.80035000  1
  O  O28  1  0.16598250  0.00000000  0.09690500  1
  O  O29  1  0.34353800  0.50000000  0.59151700  1
  O  O30  1  0.33086600  0.00000000  0.61769600  1
  O  O31  1  0.47636450  0.00000000  0.84605800  1
  O  O32  1  0.09227100  0.24514400  0.59494800  1
  O  O33  1  0.09227100  0.75485600  0.59494800  1
  O  O34  1  0.23929000  0.27361800  0.34850600  1
  O  O35  1  0.23929000  0.72638200  0.34850600  1
  O  O36  1  0.24630400  0.78016300  0.84341200  1
  O  O37  1  0.24630400  0.21983700  0.84341200  1
  O  O38  1  0.41569100  0.74806900  0.08832500  1
  O  O39  1  0.41569100  0.25193100  0.08832500  1
  O  O40  1  0.51757700  0.00000000  0.34833500  1
  O  O41  1  0.66446600  0.00000000  0.11285300  1
  O  O42  1  0.99743400  0.00000000  0.29850400  1
  O  O43  1  0.50614400  0.50000000  0.80035000  1
  O  O44  1  0.66598250  0.50000000  0.09690500  1
  O  O45  1  0.84353800  0.00000000  0.59151700  1
  O  O46  1  0.83086600  0.50000000  0.61769600  1
  O  O47  1  0.97636450  0.50000000  0.84605800  1
  O  O48  1  0.59227100  0.74514400  0.59494800  1
  O  O49  1  0.59227100  0.25485600  0.59494800  1
  O  O50  1  0.73929000  0.77361800  0.34850600  1
  O  O51  1  0.73929000  0.22638200  0.34850600  1
  O  O52  1  0.74630400  0.28016300  0.84341200  1
  O  O53  1  0.74630400  0.71983700  0.84341200  1
  O  O54  1  0.91569100  0.24806900  0.08832500  1
  O  O55  1  0.91569100  0.75193100  0.08832500  1
