# generated using pymatgen
data_Li4Cr3Co3(SnO8)2
_symmetry_space_group_name_H-M   'P 1'
_cell_length_a   5.85325646
_cell_length_b   5.85952778
_cell_length_c   9.63616943
_cell_angle_alpha   90.08704454
_cell_angle_beta   90.75200545
_cell_angle_gamma   119.68701223
_symmetry_Int_Tables_number   1
_chemical_formula_structural   Li4Cr3Co3(SnO8)2
_chemical_formula_sum   'Li4 Cr3 Co3 Sn2 O16'
_cell_volume   287.07832405
_cell_formula_units_Z   1
loop_
 _symmetry_equiv_pos_site_id
 _symmetry_equiv_pos_as_xyz
  1  'x, y, z'
loop_
 _atom_site_type_symbol
 _atom_site_label
 _atom_site_symmetry_multiplicity
 _atom_site_fract_x
 _atom_site_fract_y
 _atom_site_fract_z
 _atom_site_occupancy
  Li  Li0  1  0.66035200  0.33273700  0.89100200  1
  Li  Li1  1  0.01030500  0.00358100  0.99449500  1
  Li  Li2  1  0.00570100  0.00469500  0.49511500  1
  Li  Li3  1  0.33248900  0.66561100  0.39333800  1
  Cr  Cr4  1  0.83232200  0.17606900  0.21748800  1
  Cr  Cr5  1  0.83186600  0.66032200  0.21455300  1
  Cr  Cr6  1  0.66123400  0.83182200  0.71524700  1
  Co  Co7  1  0.34052500  0.16906400  0.21481300  1
  Co  Co8  1  0.16899700  0.33960600  0.71522700  1
  Co  Co9  1  0.17097900  0.83136500  0.71503800  1
  Sn  Sn10  1  0.66393400  0.33009700  0.49493900  1
  Sn  Sn11  1  0.33172500  0.66419800  0.99127600  1
  O  O12  1  0.84511400  0.16004300  0.60017600  1
  O  O13  1  0.96807000  0.47428800  0.33843300  1
  O  O14  1  0.66062200  0.31975000  0.10796200  1
  O  O15  1  0.00664100  0.01171000  0.30624500  1
  O  O16  1  0.01620200  0.00495500  0.80735400  1
  O  O17  1  0.85030400  0.68541900  0.60196000  1
  O  O18  1  0.51366300  0.03217300  0.33460500  1
  O  O19  1  0.51116800  0.47646300  0.33668700  1
  O  O20  1  0.68448700  0.84864100  0.09977000  1
  O  O21  1  0.31593800  0.15519700  0.60698400  1
  O  O22  1  0.47613400  0.51192500  0.83665400  1
  O  O23  1  0.47095700  0.96770600  0.83433900  1
  O  O24  1  0.31646700  0.66172400  0.61240600  1
  O  O25  1  0.15872500  0.31924600  0.10277300  1
  O  O26  1  0.03220900  0.51884900  0.82756700  1
  O  O27  1  0.16287200  0.84244700  0.10139300  1
