# generated using pymatgen
data_NdTe3
_symmetry_space_group_name_H-M   'P 1'
_cell_length_a   4.39042600
_cell_length_b   27.52241200
_cell_length_c   4.39527800
_cell_angle_alpha   90.00000000
_cell_angle_beta   90.00000000
_cell_angle_gamma   90.00000000
_symmetry_Int_Tables_number   1
_chemical_formula_structural   NdTe3
_chemical_formula_sum   'Nd4 Te12'
_cell_volume   531.10391480
_cell_formula_units_Z   4
loop_
 _symmetry_equiv_pos_site_id
 _symmetry_equiv_pos_as_xyz
  1  'x, y, z'
loop_
 _atom_site_type_symbol
 _atom_site_label
 _atom_site_symmetry_multiplicity
 _atom_site_fract_x
 _atom_site_fract_y
 _atom_site_fract_z
 _atom_site_occupancy
  Nd  Nd0  1  0.50000000  0.82793600  0.75000000  1
  Nd  Nd1  1  0.00000000  0.67206400  0.25000000  1
  Nd  Nd2  1  0.00000000  0.32793600  0.75000000  1
  Nd  Nd3  1  0.50000000  0.17206400  0.25000000  1
  Te  Te4  1  0.50000000  0.57852100  0.25000000  1
  Te  Te5  1  0.00000000  0.92147900  0.75000000  1
  Te  Te6  1  0.00000000  0.79272300  0.25000000  1
  Te  Te7  1  0.50000000  0.70727700  0.75000000  1
  Te  Te8  1  0.00000000  0.57854300  0.75000000  1
  Te  Te9  1  0.50000000  0.92145700  0.25000000  1
  Te  Te10  1  0.00000000  0.07852100  0.25000000  1
  Te  Te11  1  0.50000000  0.42147900  0.75000000  1
  Te  Te12  1  0.50000000  0.29272300  0.25000000  1
  Te  Te13  1  0.00000000  0.20727700  0.75000000  1
  Te  Te14  1  0.50000000  0.07854300  0.75000000  1
  Te  Te15  1  0.00000000  0.42145700  0.25000000  1
