# generated using pymatgen
data_LiMn2(PO3)5
_symmetry_space_group_name_H-M   'P 1'
_cell_length_a   7.89757000
_cell_length_b   12.27074600
_cell_length_c   12.92298911
_cell_angle_alpha   90.00000000
_cell_angle_beta   96.81247462
_cell_angle_gamma   90.00000000
_symmetry_Int_Tables_number   1
_chemical_formula_structural   LiMn2(PO3)5
_chemical_formula_sum   'Li4 Mn8 P20 O60'
_cell_volume   1243.51293247
_cell_formula_units_Z   4
loop_
 _symmetry_equiv_pos_site_id
 _symmetry_equiv_pos_as_xyz
  1  'x, y, z'
loop_
 _atom_site_type_symbol
 _atom_site_label
 _atom_site_symmetry_multiplicity
 _atom_site_fract_x
 _atom_site_fract_y
 _atom_site_fract_z
 _atom_site_occupancy
  Li  Li0  1  0.46066150  0.41638450  0.78780500  1
  Li  Li1  1  0.46066150  0.58361550  0.28780500  1
  Li  Li2  1  0.96066150  0.91638450  0.78780500  1
  Li  Li3  1  0.96066150  0.08361550  0.28780500  1
  Mn  Mn4  1  0.45458000  0.76582400  0.76332900  1
  Mn  Mn5  1  0.45458000  0.23417600  0.26332900  1
  Mn  Mn6  1  0.75458600  0.03308400  0.59051100  1
  Mn  Mn7  1  0.75458600  0.96691600  0.09051100  1
  Mn  Mn8  1  0.95458000  0.26582400  0.76332900  1
  Mn  Mn9  1  0.95458000  0.73417600  0.26332900  1
  Mn  Mn10  1  0.25458600  0.53308400  0.59051100  1
  Mn  Mn11  1  0.25458600  0.46691600  0.09051100  1
  P  P12  1  0.33192000  0.31138100  0.50329800  1
  P  P13  1  0.35690850  0.95703950  0.56156600  1
  P  P14  1  0.27018300  0.11054300  0.83986400  1
  P  P15  1  0.33192000  0.68861900  0.00329800  1
  P  P16  1  0.35690850  0.04296050  0.06156600  1
  P  P17  1  0.27018300  0.88945700  0.33986400  1
  P  P18  1  0.56409300  0.63055700  0.53416600  1
  P  P19  1  0.56409300  0.36944300  0.03416600  1
  P  P20  1  0.65354150  0.10770450  0.80631100  1
  P  P21  1  0.65354150  0.89229550  0.30631100  1
  P  P22  1  0.83192000  0.81138100  0.50329800  1
  P  P23  1  0.85690850  0.45703950  0.56156600  1
  P  P24  1  0.77018300  0.61054300  0.83986400  1
  P  P25  1  0.83192000  0.18861900  0.00329800  1
  P  P26  1  0.85690850  0.54296050  0.06156600  1
  P  P27  1  0.77018300  0.38945700  0.33986400  1
  P  P28  1  0.06409300  0.13055700  0.53416600  1
  P  P29  1  0.06409300  0.86944300  0.03416600  1
  P  P30  1  0.15354150  0.60770450  0.80631100  1
  P  P31  1  0.15354150  0.39229550  0.30631100  1
  O  O32  1  0.16262650  0.01278450  0.81556700  1
  O  O33  1  0.16262650  0.98721550  0.31556700  1
  O  O34  1  0.37701550  0.88856250  0.65767400  1
  O  O35  1  0.37701550  0.11143750  0.15767400  1
  O  O36  1  0.18897150  0.02983550  0.56142100  1
  O  O37  1  0.18897150  0.97016450  0.06142100  1
  O  O38  1  0.31707000  0.12571300  0.96494400  1
  O  O39  1  0.31707000  0.87428700  0.46494400  1
  O  O40  1  0.71302100  0.72072700  0.79715000  1
  O  O41  1  0.71302100  0.27927300  0.29715000  1
  O  O42  1  0.45143200  0.74795200  0.94214100  1
  O  O43  1  0.45143200  0.25204800  0.44214100  1
  O  O44  1  0.45247600  0.38568800  0.93427100  1
  O  O45  1  0.50009400  0.03243400  0.54213400  1
  O  O46  1  0.45247600  0.61431200  0.43427100  1
  O  O47  1  0.45586150  0.08623250  0.80128800  1
  O  O48  1  0.50009400  0.96756600  0.04213400  1
  O  O49  1  0.45586150  0.91376750  0.30128800  1
  O  O50  1  0.46046850  0.64267250  0.62647700  1
  O  O51  1  0.46046850  0.35732750  0.12647700  1
  O  O52  1  0.68222600  0.73511900  0.53702500  1
  O  O53  1  0.68222600  0.26488100  0.03702500  1
  O  O54  1  0.69126500  0.21965200  0.76702500  1
  O  O55  1  0.69126500  0.78034800  0.26702500  1
  O  O56  1  0.72099450  0.09892950  0.92929700  1
  O  O57  1  0.72099450  0.90107050  0.42929700  1
  O  O58  1  0.73248500  0.01274900  0.75407200  1
  O  O59  1  0.73248500  0.98725100  0.25407200  1
  O  O60  1  0.39012800  0.37912800  0.59846300  1
  O  O61  1  0.39012800  0.62087200  0.09846300  1
  O  O62  1  0.66262650  0.51278450  0.81556700  1
  O  O63  1  0.66262650  0.48721550  0.31556700  1
  O  O64  1  0.87701550  0.38856250  0.65767400  1
  O  O65  1  0.87701550  0.61143750  0.15767400  1
  O  O66  1  0.68897150  0.52983550  0.56142100  1
  O  O67  1  0.68897150  0.47016450  0.06142100  1
  O  O68  1  0.81707000  0.62571300  0.96494400  1
  O  O69  1  0.81707000  0.37428700  0.46494400  1
  O  O70  1  0.21302100  0.22072700  0.79715000  1
  O  O71  1  0.21302100  0.77927300  0.29715000  1
  O  O72  1  0.95143200  0.24795200  0.94214100  1
  O  O73  1  0.95143200  0.75204800  0.44214100  1
  O  O74  1  0.95247600  0.88568800  0.93427100  1
  O  O75  1  0.00009400  0.53243400  0.54213400  1
  O  O76  1  0.95247600  0.11431200  0.43427100  1
  O  O77  1  0.95586150  0.58623250  0.80128800  1
  O  O78  1  0.00009400  0.46756600  0.04213400  1
  O  O79  1  0.95586150  0.41376750  0.30128800  1
  O  O80  1  0.96046850  0.14267250  0.62647700  1
  O  O81  1  0.96046850  0.85732750  0.12647700  1
  O  O82  1  0.18222600  0.23511900  0.53702500  1
  O  O83  1  0.18222600  0.76488100  0.03702500  1
  O  O84  1  0.19126500  0.71965200  0.76702500  1
  O  O85  1  0.19126500  0.28034800  0.26702500  1
  O  O86  1  0.22099450  0.59892950  0.92929700  1
  O  O87  1  0.22099450  0.40107050  0.42929700  1
  O  O88  1  0.23248500  0.51274900  0.75407200  1
  O  O89  1  0.23248500  0.48725100  0.25407200  1
  O  O90  1  0.89012800  0.87912800  0.59846300  1
  O  O91  1  0.89012800  0.12087200  0.09846300  1
