# generated using pymatgen
data_Li4Ti2Ni3Sn3O16
_symmetry_space_group_name_H-M   'P 1'
_cell_length_a   10.37049400
_cell_length_b   6.10007000
_cell_length_c   9.63158854
_cell_angle_alpha   90.00000000
_cell_angle_beta   92.13012634
_cell_angle_gamma   90.00000000
_symmetry_Int_Tables_number   1
_chemical_formula_structural   Li4Ti2Ni3Sn3O16
_chemical_formula_sum   'Li8 Ti4 Ni6 Sn6 O32'
_cell_volume   608.88037763
_cell_formula_units_Z   2
loop_
 _symmetry_equiv_pos_site_id
 _symmetry_equiv_pos_as_xyz
  1  'x, y, z'
loop_
 _atom_site_type_symbol
 _atom_site_label
 _atom_site_symmetry_multiplicity
 _atom_site_fract_x
 _atom_site_fract_y
 _atom_site_fract_z
 _atom_site_occupancy
  Li  Li0  1  0.32281200  0.00000000  0.89074600  1
  Li  Li1  1  0.02048300  0.00000000  0.98941500  1
  Li  Li2  1  0.01250000  0.00000000  0.50056400  1
  Li  Li3  1  0.66693700  0.00000000  0.40268000  1
  Li  Li4  1  0.82281200  0.50000000  0.89074600  1
  Li  Li5  1  0.52048300  0.50000000  0.98941500  1
  Li  Li6  1  0.51250000  0.50000000  0.50056400  1
  Li  Li7  1  0.16693700  0.50000000  0.40268000  1
  Ti  Ti8  1  0.32354900  0.00000000  0.49417700  1
  Ti  Ti9  1  0.64194400  0.00000000  0.98608400  1
  Ti  Ti10  1  0.82354900  0.50000000  0.49417700  1
  Ti  Ti11  1  0.14194400  0.50000000  0.98608400  1
  Ni  Ni12  1  0.17092600  0.00000000  0.21659700  1
  Ni  Ni13  1  0.58227350  0.75825250  0.71435200  1
  Ni  Ni14  1  0.58227350  0.24174750  0.71435200  1
  Ni  Ni15  1  0.67092600  0.50000000  0.21659700  1
  Ni  Ni16  1  0.08227350  0.25825250  0.71435200  1
  Ni  Ni17  1  0.08227350  0.74174750  0.71435200  1
  Sn  Sn18  1  0.41416550  0.75341550  0.21366500  1
  Sn  Sn19  1  0.41416550  0.24658450  0.21366500  1
  Sn  Sn20  1  0.83030600  0.00000000  0.71484700  1
  Sn  Sn21  1  0.91416550  0.25341550  0.21366500  1
  Sn  Sn22  1  0.91416550  0.74658450  0.21366500  1
  Sn  Sn23  1  0.33030600  0.50000000  0.71484700  1
  O  O24  1  0.42329700  0.74733400  0.59743900  1
  O  O25  1  0.48781100  0.00000000  0.34253900  1
  O  O26  1  0.32656600  0.00000000  0.09822200  1
  O  O27  1  0.00617300  0.00000000  0.31342500  1
  O  O28  1  0.01447100  0.00000000  0.80201000  1
  O  O29  1  0.42329700  0.25266600  0.59743900  1
  O  O30  1  0.26457950  0.77662950  0.35308900  1
  O  O31  1  0.26457950  0.22337050  0.35308900  1
  O  O32  1  0.83612900  0.00000000  0.08636200  1
  O  O33  1  0.18076400  0.00000000  0.59133700  1
  O  O34  1  0.73138350  0.77787950  0.83913400  1
  O  O35  1  0.73138350  0.22212050  0.83913400  1
  O  O36  1  0.65185800  0.00000000  0.61148800  1
  O  O37  1  0.58251300  0.75871100  0.09123300  1
  O  O38  1  0.51285800  0.00000000  0.84960700  1
  O  O39  1  0.58251300  0.24128900  0.09123300  1
  O  O40  1  0.92329700  0.24733400  0.59743900  1
  O  O41  1  0.98781100  0.50000000  0.34253900  1
  O  O42  1  0.82656600  0.50000000  0.09822200  1
  O  O43  1  0.50617300  0.50000000  0.31342500  1
  O  O44  1  0.51447100  0.50000000  0.80201000  1
  O  O45  1  0.92329700  0.75266600  0.59743900  1
  O  O46  1  0.76457950  0.27662950  0.35308900  1
  O  O47  1  0.76457950  0.72337050  0.35308900  1
  O  O48  1  0.33612900  0.50000000  0.08636200  1
  O  O49  1  0.68076400  0.50000000  0.59133700  1
  O  O50  1  0.23138350  0.27787950  0.83913400  1
  O  O51  1  0.23138350  0.72212050  0.83913400  1
  O  O52  1  0.15185800  0.50000000  0.61148800  1
  O  O53  1  0.08251300  0.25871100  0.09123300  1
  O  O54  1  0.01285800  0.50000000  0.84960700  1
  O  O55  1  0.08251300  0.74128900  0.09123300  1
