# generated using pymatgen
data_LiNiPO4
_symmetry_space_group_name_H-M   'P 1'
_cell_length_a   4.97629872
_cell_length_b   4.97629872
_cell_length_c   23.23330819
_cell_angle_alpha   90.00000000
_cell_angle_beta   90.00000000
_cell_angle_gamma   120.00000000
_symmetry_Int_Tables_number   1
_chemical_formula_structural   LiNiPO4
_chemical_formula_sum   'Li6 Ni6 P6 O24'
_cell_volume   498.25833149
_cell_formula_units_Z   6
loop_
 _symmetry_equiv_pos_site_id
 _symmetry_equiv_pos_as_xyz
  1  'x, y, z'
loop_
 _atom_site_type_symbol
 _atom_site_label
 _atom_site_symmetry_multiplicity
 _atom_site_fract_x
 _atom_site_fract_y
 _atom_site_fract_z
 _atom_site_occupancy
  Li  Li0  1  0.33333333  0.66666667  0.81325317  1
  Li  Li1  1  0.00000000  0.00000000  0.85341350  1
  Li  Li2  1  0.00000000  0.00000000  0.14658650  1
  Li  Li3  1  0.66666667  0.33333333  0.18674683  1
  Li  Li4  1  0.66666667  0.33333333  0.47991983  1
  Li  Li5  1  0.33333333  0.66666667  0.52008017  1
  Ni  Ni6  1  0.00000000  0.00000000  0.72729433  1
  Ni  Ni7  1  0.33333333  0.66666667  0.93937233  1
  Ni  Ni8  1  0.66666667  0.33333333  0.06062767  1
  Ni  Ni9  1  1.00000000  0.00000000  0.27270567  1
  Ni  Ni10  1  0.33333333  0.66666667  0.39396100  1
  Ni  Ni11  1  0.66666667  0.33333333  0.60603900  1
  P  P12  1  0.66666667  0.33333333  0.91265133  1
  P  P13  1  0.66666667  0.33333333  0.75401533  1
  P  P14  1  0.33333333  0.66666667  0.24598467  1
  P  P15  1  0.33333333  0.66666667  0.08734867  1
  P  P16  1  0.00000000  0.00000000  0.57931800  1
  P  P17  1  0.00000000  0.00000000  0.42068200  1
  O  O18  1  0.66666667  0.33333333  0.97874683  1
  O  O19  1  0.33333333  0.66666667  0.02125317  1
  O  O20  1  0.97703767  0.61448483  0.89095333  1
  O  O21  1  0.94781817  0.30411383  0.77571333  1
  O  O22  1  0.38551517  0.36255283  0.89095333  1
  O  O23  1  0.35629567  0.05218183  0.77571333  1
  O  O24  1  0.69588617  0.64370433  0.77571333  1
  O  O25  1  0.63744717  0.02296233  0.89095333  1
  O  O26  1  0.33333333  0.66666667  0.31208017  1
  O  O27  1  0.00000000  0.00000000  0.35458650  1
  O  O28  1  0.64370433  0.94781817  0.22428667  1
  O  O29  1  0.61448483  0.63744717  0.10904667  1
  O  O30  1  0.05218183  0.69588617  0.22428667  1
  O  O31  1  0.02296233  0.38551517  0.10904667  1
  O  O32  1  0.36255283  0.97703767  0.10904667  1
  O  O33  1  0.30411383  0.35629567  0.22428667  1
  O  O34  1  0.00000000  0.00000000  0.64541350  1
  O  O35  1  0.66666667  0.33333333  0.68791983  1
  O  O36  1  0.31037100  0.28115150  0.55762000  1
  O  O37  1  0.28115150  0.97078050  0.44238000  1
  O  O38  1  0.71884850  0.02921950  0.55762000  1
  O  O39  1  0.68962900  0.71884850  0.44238000  1
  O  O40  1  0.02921950  0.31037100  0.44238000  1
  O  O41  1  0.97078050  0.68962900  0.55762000  1
