# generated using pymatgen
data_Li7Zr3Nb(TeO6)4
_symmetry_space_group_name_H-M   'P 1'
_cell_length_a   5.25802203
_cell_length_b   5.25802203
_cell_length_c   55.37213968
_cell_angle_alpha   90.00000000
_cell_angle_beta   90.00000000
_cell_angle_gamma   120.00000000
_symmetry_Int_Tables_number   1
_chemical_formula_structural   Li7Zr3Nb(TeO6)4
_chemical_formula_sum   'Li21 Zr9 Nb3 Te12 O72'
_cell_volume   1325.76558148
_cell_formula_units_Z   3
loop_
 _symmetry_equiv_pos_site_id
 _symmetry_equiv_pos_as_xyz
  1  'x, y, z'
loop_
 _atom_site_type_symbol
 _atom_site_label
 _atom_site_symmetry_multiplicity
 _atom_site_fract_x
 _atom_site_fract_y
 _atom_site_fract_z
 _atom_site_occupancy
  Li  Li0  1  0.33333333  0.66666667  0.22394867  1
  Li  Li1  1  0.00000000  0.00000000  0.05804300  1
  Li  Li2  1  0.00000000  0.00000000  0.30771800  1
  Li  Li3  1  0.66666667  0.33333333  0.01159533  1
  Li  Li4  1  0.66666667  0.33333333  0.14152533  1
  Li  Li5  1  0.66666667  0.33333333  0.26134633  1
  Li  Li6  1  0.33333333  0.66666667  0.09554967  1
  Li  Li7  1  0.00000000  0.00000000  0.55728200  1
  Li  Li8  1  0.66666667  0.33333333  0.39137633  1
  Li  Li9  1  0.66666667  0.33333333  0.64105133  1
  Li  Li10  1  0.33333333  0.66666667  0.34492867  1
  Li  Li11  1  0.33333333  0.66666667  0.47485867  1
  Li  Li12  1  0.33333333  0.66666667  0.59467967  1
  Li  Li13  1  0.00000000  0.00000000  0.42888300  1
  Li  Li14  1  0.66666667  0.33333333  0.89061533  1
  Li  Li15  1  0.33333333  0.66666667  0.72470967  1
  Li  Li16  1  0.33333333  0.66666667  0.97438467  1
  Li  Li17  1  0.00000000  0.00000000  0.67826200  1
  Li  Li18  1  0.00000000  0.00000000  0.80819200  1
  Li  Li19  1  0.00000000  0.00000000  0.92801300  1
  Li  Li20  1  0.66666667  0.33333333  0.76221633  1
  Zr  Zr21  1  0.66666667  0.33333333  0.33291733  1
  Zr  Zr22  1  0.00000000  0.00000000  0.24917800  1
  Zr  Zr23  1  0.66666667  0.33333333  0.08354233  1
  Zr  Zr24  1  0.33333333  0.66666667  0.66625067  1
  Zr  Zr25  1  0.66666667  0.33333333  0.58251133  1
  Zr  Zr26  1  0.33333333  0.66666667  0.41687567  1
  Zr  Zr27  1  0.00000000  0.00000000  0.99958400  1
  Zr  Zr28  1  0.33333333  0.66666667  0.91584467  1
  Zr  Zr29  1  0.00000000  0.00000000  0.75020900  1
  Nb  Nb30  1  0.33333333  0.66666667  0.16701667  1
  Nb  Nb31  1  0.00000000  0.00000000  0.50035000  1
  Nb  Nb32  1  0.66666667  0.33333333  0.83368333  1
  Te  Te33  1  0.33333333  0.66666667  0.29119867  1
  Te  Te34  1  0.00000000  0.00000000  0.12598400  1
  Te  Te35  1  0.66666667  0.33333333  0.20766733  1
  Te  Te36  1  0.33333333  0.66666667  0.04176767  1
  Te  Te37  1  0.00000000  0.00000000  0.62453200  1
  Te  Te38  1  0.66666667  0.33333333  0.45931733  1
  Te  Te39  1  0.33333333  0.66666667  0.54100067  1
  Te  Te40  1  0.00000000  0.00000000  0.37510100  1
  Te  Te41  1  0.66666667  0.33333333  0.95786533  1
  Te  Te42  1  0.33333333  0.66666667  0.79265067  1
  Te  Te43  1  0.00000000  0.00000000  0.87433400  1
  Te  Te44  1  0.66666667  0.33333333  0.70843433  1
  O  O45  1  0.69080800  0.05269800  0.22921500  1
  O  O46  1  0.61679100  0.97093800  0.31294900  1
  O  O47  1  0.02906200  0.64585300  0.31294900  1
  O  O48  1  0.67641900  0.96209600  0.14658100  1
  O  O49  1  0.65496467  0.69804933  0.02239633  1
  O  O50  1  0.65432200  0.69737600  0.27197800  1
  O  O51  1  0.99841833  0.39861667  0.18811467  1
  O  O52  1  0.60138333  0.59980167  0.18811467  1
  O  O53  1  0.04305400  0.34567800  0.27197800  1
  O  O54  1  0.71423167  0.67750933  0.10660733  1
  O  O55  1  0.35414700  0.38320900  0.31294900  1
  O  O56  1  0.35471767  0.38412233  0.06347733  1
  O  O57  1  0.28567700  0.32358100  0.14658100  1
  O  O58  1  0.36189000  0.30919200  0.22921500  1
  O  O59  1  0.32249067  0.03672233  0.10660733  1
  O  O60  1  0.30262400  0.95694600  0.27197800  1
  O  O61  1  0.30195067  0.95691533  0.02239633  1
  O  O62  1  0.40019833  0.00158167  0.18811467  1
  O  O63  1  0.03790400  0.71432300  0.14658100  1
  O  O64  1  0.94730200  0.63811000  0.22921500  1
  O  O65  1  0.61587767  0.97059533  0.06347733  1
  O  O66  1  0.02940467  0.64528233  0.06347733  1
  O  O67  1  0.96327767  0.28576833  0.10660733  1
  O  O68  1  0.04308467  0.34503533  0.02239633  1
  O  O69  1  0.35747467  0.38603133  0.56254833  1
  O  O70  1  0.28345767  0.30427133  0.64628233  1
  O  O71  1  0.69572867  0.97918633  0.64628233  1
  O  O72  1  0.34308567  0.29542933  0.47991433  1
  O  O73  1  0.32163133  0.03138267  0.35572967  1
  O  O74  1  0.32098867  0.03070933  0.60531133  1
  O  O75  1  0.66508500  0.73195000  0.52144800  1
  O  O76  1  0.26805000  0.93313500  0.52144800  1
  O  O77  1  0.70972067  0.67901133  0.60531133  1
  O  O78  1  0.38089833  0.01084267  0.43994067  1
  O  O79  1  0.02081367  0.71654233  0.64628233  1
  O  O80  1  0.02138433  0.71745567  0.39681067  1
  O  O81  1  0.95234367  0.65691433  0.47991433  1
  O  O82  1  0.02855667  0.64252533  0.56254833  1
  O  O83  1  0.98915733  0.37005567  0.43994067  1
  O  O84  1  0.96929067  0.29027933  0.60531133  1
  O  O85  1  0.96861733  0.29024867  0.35572967  1
  O  O86  1  0.06686500  0.33491500  0.52144800  1
  O  O87  1  0.70457067  0.04765633  0.47991433  1
  O  O88  1  0.61396867  0.97144333  0.56254833  1
  O  O89  1  0.28254433  0.30392867  0.39681067  1
  O  O90  1  0.69607133  0.97861567  0.39681067  1
  O  O91  1  0.62994433  0.61910167  0.43994067  1
  O  O92  1  0.70975133  0.67836867  0.35572967  1
  O  O93  1  0.02414133  0.71936467  0.89588167  1
  O  O94  1  0.95012433  0.63760467  0.97961567  1
  O  O95  1  0.36239533  0.31251967  0.97961567  1
  O  O96  1  0.00975233  0.62876267  0.81324767  1
  O  O97  1  0.98829800  0.36471600  0.68906300  1
  O  O98  1  0.98765533  0.36404267  0.93864467  1
  O  O99  1  0.33175167  0.06528333  0.85478133  1
  O  O100  1  0.93471667  0.26646833  0.85478133  1
  O  O101  1  0.37638733  0.01234467  0.93864467  1
  O  O102  1  0.04756500  0.34417600  0.77327400  1
  O  O103  1  0.68748033  0.04987567  0.97961567  1
  O  O104  1  0.68805100  0.05078900  0.73014400  1
  O  O105  1  0.61901033  0.99024767  0.81324767  1
  O  O106  1  0.69522333  0.97585867  0.89588167  1
  O  O107  1  0.65582400  0.70338900  0.77327400  1
  O  O108  1  0.63595733  0.62361267  0.93864467  1
  O  O109  1  0.63528400  0.62358200  0.68906300  1
  O  O110  1  0.73353167  0.66824833  0.85478133  1
  O  O111  1  0.37123733  0.38098967  0.81324767  1
  O  O112  1  0.28063533  0.30477667  0.89588167  1
  O  O113  1  0.94921100  0.63726200  0.73014400  1
  O  O114  1  0.36273800  0.31194900  0.73014400  1
  O  O115  1  0.29661100  0.95243500  0.77327400  1
  O  O116  1  0.37641800  0.01170200  0.68906300  1
