# generated using pymatgen
data_Li2NbO3
_symmetry_space_group_name_H-M   'P 1'
_cell_length_a   5.38735800
_cell_length_b   8.85832800
_cell_length_c   5.20499426
_cell_angle_alpha   90.00000000
_cell_angle_beta   111.97849883
_cell_angle_gamma   90.00000000
_symmetry_Int_Tables_number   1
_chemical_formula_structural   Li2NbO3
_chemical_formula_sum   'Li8 Nb4 O12'
_cell_volume   230.34538694
_cell_formula_units_Z   4
loop_
 _symmetry_equiv_pos_site_id
 _symmetry_equiv_pos_as_xyz
  1  'x, y, z'
loop_
 _atom_site_type_symbol
 _atom_site_label
 _atom_site_symmetry_multiplicity
 _atom_site_fract_x
 _atom_site_fract_y
 _atom_site_fract_z
 _atom_site_occupancy
  Li  Li0  1  0.50000000  0.76289200  0.75000000  1
  Li  Li1  1  0.50000000  0.08007600  0.75000000  1
  Li  Li2  1  0.50000000  0.91992400  0.25000000  1
  Li  Li3  1  0.50000000  0.23710800  0.25000000  1
  Li  Li4  1  0.00000000  0.26289200  0.75000000  1
  Li  Li5  1  0.00000000  0.58007600  0.75000000  1
  Li  Li6  1  0.00000000  0.41992400  0.25000000  1
  Li  Li7  1  0.00000000  0.73710800  0.25000000  1
  Nb  Nb8  1  0.50000000  0.41572300  0.75000000  1
  Nb  Nb9  1  0.50000000  0.58427700  0.25000000  1
  Nb  Nb10  1  0.00000000  0.91572300  0.75000000  1
  Nb  Nb11  1  0.00000000  0.08427700  0.25000000  1
  O  O12  1  0.24034250  0.91940950  0.50377600  1
  O  O13  1  0.24034250  0.08059050  0.00377600  1
  O  O14  1  0.75000000  0.25000000  0.00000000  1
  O  O15  1  0.75965750  0.91940950  0.99622400  1
  O  O16  1  0.75000000  0.75000000  0.50000000  1
  O  O17  1  0.75965750  0.08059050  0.49622400  1
  O  O18  1  0.74034250  0.41940950  0.50377600  1
  O  O19  1  0.74034250  0.58059050  0.00377600  1
  O  O20  1  0.25000000  0.75000000  0.00000000  1
  O  O21  1  0.25965750  0.41940950  0.99622400  1
  O  O22  1  0.25000000  0.25000000  0.50000000  1
  O  O23  1  0.25965750  0.58059050  0.49622400  1
