# generated using pymatgen
data_LiMn2O4
_symmetry_space_group_name_H-M   'P 1'
_cell_length_a   5.89500420
_cell_length_b   5.89500420
_cell_length_c   14.59654448
_cell_angle_alpha   90.00000000
_cell_angle_beta   90.00000000
_cell_angle_gamma   120.00000000
_symmetry_Int_Tables_number   1
_chemical_formula_structural   LiMn2O4
_chemical_formula_sum   'Li6 Mn12 O24'
_cell_volume   439.28758055
_cell_formula_units_Z   6
loop_
 _symmetry_equiv_pos_site_id
 _symmetry_equiv_pos_as_xyz
  1  'x, y, z'
loop_
 _atom_site_type_symbol
 _atom_site_label
 _atom_site_symmetry_multiplicity
 _atom_site_fract_x
 _atom_site_fract_y
 _atom_site_fract_z
 _atom_site_occupancy
  Li  Li0  1  0.00000000  0.00000000  0.11657700  1
  Li  Li1  1  0.33333333  0.66666667  0.16593467  1
  Li  Li2  1  0.66666667  0.33333333  0.44991033  1
  Li  Li3  1  0.00000000  0.00000000  0.49926800  1
  Li  Li4  1  0.33333333  0.66666667  0.78324367  1
  Li  Li5  1  0.66666667  0.33333333  0.83260133  1
  Mn  Mn6  1  0.00452667  0.50226333  0.00126233  1
  Mn  Mn7  1  0.49773667  0.50226333  0.00126233  1
  Mn  Mn8  1  0.49773667  0.99547333  0.00126233  1
  Mn  Mn9  1  0.66666667  0.33333333  0.21469733  1
  Mn  Mn10  1  0.67119333  0.83559667  0.33459567  1
  Mn  Mn11  1  0.16440333  0.83559667  0.33459567  1
  Mn  Mn12  1  0.16440333  0.32880667  0.33459567  1
  Mn  Mn13  1  0.33333333  0.66666667  0.54803067  1
  Mn  Mn14  1  0.33786000  0.16893000  0.66792900  1
  Mn  Mn15  1  0.83107000  0.16893000  0.66792900  1
  Mn  Mn16  1  0.83107000  0.66214000  0.66792900  1
  Mn  Mn17  1  0.00000000  0.00000000  0.88136400  1
  O  O18  1  0.00000000  0.00000000  0.26265300  1
  O  O19  1  0.18087167  0.36174333  0.07051133  1
  O  O20  1  0.18087167  0.81912833  0.07051133  1
  O  O21  1  0.63825667  0.81912833  0.07051133  1
  O  O22  1  0.03350400  0.51675200  0.26196100  1
  O  O23  1  0.48324800  0.51675200  0.26196100  1
  O  O24  1  0.48324800  0.96649600  0.26196100  1
  O  O25  1  0.66666667  0.33333333  0.07226733  1
  O  O26  1  0.66666667  0.33333333  0.59598633  1
  O  O27  1  0.84753833  0.69507667  0.40384467  1
  O  O28  1  0.84753833  0.15246167  0.40384467  1
  O  O29  1  0.30492333  0.15246167  0.40384467  1
  O  O30  1  0.70017067  0.85008533  0.59529433  1
  O  O31  1  0.14991467  0.85008533  0.59529433  1
  O  O32  1  0.14991467  0.29982933  0.59529433  1
  O  O33  1  0.33333333  0.66666667  0.40560067  1
  O  O34  1  0.33333333  0.66666667  0.92931967  1
  O  O35  1  0.51420500  0.02841000  0.73717800  1
  O  O36  1  0.51420500  0.48579500  0.73717800  1
  O  O37  1  0.97159000  0.48579500  0.73717800  1
  O  O38  1  0.36683733  0.18341867  0.92862767  1
  O  O39  1  0.81658133  0.18341867  0.92862767  1
  O  O40  1  0.81658133  0.63316267  0.92862767  1
  O  O41  1  0.00000000  0.00000000  0.73893400  1
