# generated using pymatgen
data_Li2Fe3CoO8
_symmetry_space_group_name_H-M   'P 1'
_cell_length_a   10.21130572
_cell_length_b   5.90924500
_cell_length_c   6.03172543
_cell_angle_alpha   90.00000000
_cell_angle_beta   125.16987273
_cell_angle_gamma   90.00000000
_symmetry_Int_Tables_number   1
_chemical_formula_structural   Li2Fe3CoO8
_chemical_formula_sum   'Li4 Fe6 Co2 O16'
_cell_volume   297.51914258
_cell_formula_units_Z   2
loop_
 _symmetry_equiv_pos_site_id
 _symmetry_equiv_pos_as_xyz
  1  'x, y, z'
loop_
 _atom_site_type_symbol
 _atom_site_label
 _atom_site_symmetry_multiplicity
 _atom_site_fract_x
 _atom_site_fract_y
 _atom_site_fract_z
 _atom_site_occupancy
  Li  Li0  1  0.75000000  0.25000000  0.50000000  1
  Li  Li1  1  0.75000000  0.75000000  0.50000000  1
  Li  Li2  1  0.25000000  0.75000000  0.50000000  1
  Li  Li3  1  0.25000000  0.25000000  0.50000000  1
  Fe  Fe4  1  0.00000000  0.50000000  0.00000000  1
  Fe  Fe5  1  0.75000000  0.25000000  0.00000000  1
  Fe  Fe6  1  0.25000000  0.25000000  0.00000000  1
  Fe  Fe7  1  0.50000000  0.00000000  0.00000000  1
  Fe  Fe8  1  0.25000000  0.75000000  0.00000000  1
  Fe  Fe9  1  0.75000000  0.75000000  0.00000000  1
  Co  Co10  1  0.00000000  0.00000000  0.00000000  1
  Co  Co11  1  0.50000000  0.50000000  0.00000000  1
  O  O12  1  0.49390950  0.73862150  0.20596200  1
  O  O13  1  0.49390950  0.26137850  0.20596200  1
  O  O14  1  0.73065750  0.00000000  0.21317900  1
  O  O15  1  0.22854650  0.00000000  0.21223100  1
  O  O16  1  0.27145350  0.50000000  0.78776900  1
  O  O17  1  0.76934250  0.50000000  0.78682100  1
  O  O18  1  0.00609050  0.23862150  0.79403800  1
  O  O19  1  0.00609050  0.76137850  0.79403800  1
  O  O20  1  0.99390950  0.23862150  0.20596200  1
  O  O21  1  0.99390950  0.76137850  0.20596200  1
  O  O22  1  0.23065750  0.50000000  0.21317900  1
  O  O23  1  0.72854650  0.50000000  0.21223100  1
  O  O24  1  0.77145350  0.00000000  0.78776900  1
  O  O25  1  0.26934250  0.00000000  0.78682100  1
  O  O26  1  0.50609050  0.73862150  0.79403800  1
  O  O27  1  0.50609050  0.26137850  0.79403800  1
