# generated using pymatgen
data_Li2MnP2O7
_symmetry_space_group_name_H-M   'P 1'
_cell_length_a   7.34220800
_cell_length_b   12.73519800
_cell_length_c   11.63824669
_cell_angle_alpha   90.00000000
_cell_angle_beta   91.88182330
_cell_angle_gamma   90.00000000
_symmetry_Int_Tables_number   1
_chemical_formula_structural   Li2MnP2O7
_chemical_formula_sum   'Li16 Mn8 P16 O56'
_cell_volume   1087.64122058
_cell_formula_units_Z   8
loop_
 _symmetry_equiv_pos_site_id
 _symmetry_equiv_pos_as_xyz
  1  'x, y, z'
loop_
 _atom_site_type_symbol
 _atom_site_label
 _atom_site_symmetry_multiplicity
 _atom_site_fract_x
 _atom_site_fract_y
 _atom_site_fract_z
 _atom_site_occupancy
  Li  Li0  1  0.52730000  0.78094600  0.50871800  1
  Li  Li1  1  0.02730000  0.71905400  0.00871800  1
  Li  Li2  1  0.50000000  0.77119500  0.75000000  1
  Li  Li3  1  0.00000000  0.71072800  0.75000000  1
  Li  Li4  1  0.50000000  0.78927200  0.25000000  1
  Li  Li5  1  0.00000000  0.72880500  0.25000000  1
  Li  Li6  1  0.47270000  0.78094600  0.99128200  1
  Li  Li7  1  0.97270000  0.71905400  0.49128200  1
  Li  Li8  1  0.02730000  0.28094600  0.50871800  1
  Li  Li9  1  0.52730000  0.21905400  0.00871800  1
  Li  Li10  1  0.00000000  0.27119500  0.75000000  1
  Li  Li11  1  0.50000000  0.21072800  0.75000000  1
  Li  Li12  1  0.00000000  0.28927200  0.25000000  1
  Li  Li13  1  0.50000000  0.22880500  0.25000000  1
  Li  Li14  1  0.97270000  0.28094600  0.99128200  1
  Li  Li15  1  0.47270000  0.21905400  0.49128200  1
  Mn  Mn16  1  0.17582850  0.50176350  0.61924800  1
  Mn  Mn17  1  0.67582850  0.99823650  0.11924800  1
  Mn  Mn18  1  0.82417150  0.50176350  0.88075200  1
  Mn  Mn19  1  0.32417150  0.99823650  0.38075200  1
  Mn  Mn20  1  0.67582850  0.00176350  0.61924800  1
  Mn  Mn21  1  0.17582850  0.49823650  0.11924800  1
  Mn  Mn22  1  0.32417150  0.00176350  0.88075200  1
  Mn  Mn23  1  0.82417150  0.49823650  0.38075200  1
  P  P24  1  0.32871600  0.59979700  0.87829700  1
  P  P25  1  0.82871600  0.90020300  0.37829700  1
  P  P26  1  0.78548300  0.87921500  0.86482900  1
  P  P27  1  0.28548300  0.62078500  0.36482900  1
  P  P28  1  0.21451700  0.87921500  0.63517100  1
  P  P29  1  0.71451700  0.62078500  0.13517100  1
  P  P30  1  0.67128400  0.59979700  0.62170300  1
  P  P31  1  0.17128400  0.90020300  0.12170300  1
  P  P32  1  0.82871600  0.09979700  0.87829700  1
  P  P33  1  0.32871600  0.40020300  0.37829700  1
  P  P34  1  0.28548300  0.37921500  0.86482900  1
  P  P35  1  0.78548300  0.12078500  0.36482900  1
  P  P36  1  0.71451700  0.37921500  0.63517100  1
  P  P37  1  0.21451700  0.12078500  0.13517100  1
  P  P38  1  0.17128400  0.09979700  0.62170300  1
  P  P39  1  0.67128400  0.40020300  0.12170300  1
  O  O40  1  0.92047400  0.98210300  0.87668600  1
  O  O41  1  0.42047400  0.51789700  0.37668600  1
  O  O42  1  0.23182450  0.61433350  0.99286500  1
  O  O43  1  0.73182450  0.88566650  0.49286500  1
  O  O44  1  0.69863100  0.87847600  0.74258100  1
  O  O45  1  0.19863100  0.62152400  0.24258100  1
  O  O46  1  0.18950350  0.60046050  0.77553000  1
  O  O47  1  0.68950350  0.89953950  0.27553000  1
  O  O48  1  0.63783500  0.90028600  0.95516600  1
  O  O49  1  0.13783500  0.59971400  0.45516600  1
  O  O50  1  0.09464500  0.78388800  0.61681500  1
  O  O51  1  0.59464500  0.71611200  0.11681500  1
  O  O52  1  0.51181400  0.67430500  0.62811100  1
  O  O53  1  0.01181400  0.82569500  0.12811100  1
  O  O54  1  0.48818600  0.67430500  0.87188900  1
  O  O55  1  0.98818600  0.82569500  0.37188900  1
  O  O56  1  0.90535500  0.78388800  0.88318500  1
  O  O57  1  0.40535500  0.71611200  0.38318500  1
  O  O58  1  0.36216500  0.90028600  0.54483400  1
  O  O59  1  0.86216500  0.59971400  0.04483400  1
  O  O60  1  0.81049650  0.60046050  0.72447000  1
  O  O61  1  0.31049650  0.89953950  0.22447000  1
  O  O62  1  0.30136900  0.87847600  0.75741900  1
  O  O63  1  0.80136900  0.62152400  0.25741900  1
  O  O64  1  0.76817550  0.61433350  0.50713500  1
  O  O65  1  0.26817550  0.88566650  0.00713500  1
  O  O66  1  0.07952600  0.98210300  0.62331400  1
  O  O67  1  0.57952600  0.51789700  0.12331400  1
  O  O68  1  0.42047400  0.48210300  0.87668600  1
  O  O69  1  0.92047400  0.01789700  0.37668600  1
  O  O70  1  0.73182450  0.11433350  0.99286500  1
  O  O71  1  0.23182450  0.38566650  0.49286500  1
  O  O72  1  0.19863100  0.37847600  0.74258100  1
  O  O73  1  0.69863100  0.12152400  0.24258100  1
  O  O74  1  0.68950350  0.10046050  0.77553000  1
  O  O75  1  0.18950350  0.39953950  0.27553000  1
  O  O76  1  0.13783500  0.40028600  0.95516600  1
  O  O77  1  0.63783500  0.09971400  0.45516600  1
  O  O78  1  0.59464500  0.28388800  0.61681500  1
  O  O79  1  0.09464500  0.21611200  0.11681500  1
  O  O80  1  0.01181400  0.17430500  0.62811100  1
  O  O81  1  0.51181400  0.32569500  0.12811100  1
  O  O82  1  0.98818600  0.17430500  0.87188900  1
  O  O83  1  0.48818600  0.32569500  0.37188900  1
  O  O84  1  0.40535500  0.28388800  0.88318500  1
  O  O85  1  0.90535500  0.21611200  0.38318500  1
  O  O86  1  0.86216500  0.40028600  0.54483400  1
  O  O87  1  0.36216500  0.09971400  0.04483400  1
  O  O88  1  0.31049650  0.10046050  0.72447000  1
  O  O89  1  0.81049650  0.39953950  0.22447000  1
  O  O90  1  0.80136900  0.37847600  0.75741900  1
  O  O91  1  0.30136900  0.12152400  0.25741900  1
  O  O92  1  0.26817550  0.11433350  0.50713500  1
  O  O93  1  0.76817550  0.38566650  0.00713500  1
  O  O94  1  0.57952600  0.48210300  0.62331400  1
  O  O95  1  0.07952600  0.01789700  0.12331400  1
