# generated using pymatgen
data_Li3Nb(CuO2)4
_symmetry_space_group_name_H-M   'P 1'
_cell_length_a   11.08643200
_cell_length_b   5.73760600
_cell_length_c   5.92263267
_cell_angle_alpha   90.00000000
_cell_angle_beta   120.85504665
_cell_angle_gamma   90.00000000
_symmetry_Int_Tables_number   1
_chemical_formula_structural   Li3Nb(CuO2)4
_chemical_formula_sum   'Li6 Nb2 Cu8 O16'
_cell_volume   323.41577894
_cell_formula_units_Z   2
loop_
 _symmetry_equiv_pos_site_id
 _symmetry_equiv_pos_as_xyz
  1  'x, y, z'
loop_
 _atom_site_type_symbol
 _atom_site_label
 _atom_site_symmetry_multiplicity
 _atom_site_fract_x
 _atom_site_fract_y
 _atom_site_fract_z
 _atom_site_occupancy
  Li  Li0  1  0.25000000  0.25000000  0.00000000  1
  Li  Li1  1  0.25000000  0.75000000  0.00000000  1
  Li  Li2  1  0.00000000  0.00000000  0.50000000  1
  Li  Li3  1  0.75000000  0.75000000  0.00000000  1
  Li  Li4  1  0.75000000  0.25000000  0.00000000  1
  Li  Li5  1  0.50000000  0.50000000  0.50000000  1
  Nb  Nb6  1  0.00000000  0.50000000  0.00000000  1
  Nb  Nb7  1  0.50000000  0.00000000  0.00000000  1
  Cu  Cu8  1  0.00000000  0.00000000  0.00000000  1
  Cu  Cu9  1  0.25000000  0.75000000  0.50000000  1
  Cu  Cu10  1  0.25000000  0.25000000  0.50000000  1
  Cu  Cu11  1  0.00000000  0.50000000  0.50000000  1
  Cu  Cu12  1  0.50000000  0.50000000  0.00000000  1
  Cu  Cu13  1  0.75000000  0.25000000  0.50000000  1
  Cu  Cu14  1  0.75000000  0.75000000  0.50000000  1
  Cu  Cu15  1  0.50000000  0.00000000  0.50000000  1
  O  O16  1  0.21659900  0.50000000  0.23381900  1
  O  O17  1  0.02377450  0.75747550  0.78981000  1
  O  O18  1  0.02377450  0.24252450  0.78981000  1
  O  O19  1  0.28340100  0.00000000  0.76618100  1
  O  O20  1  0.29061900  0.00000000  0.31916500  1
  O  O21  1  0.47622550  0.74252450  0.21019000  1
  O  O22  1  0.47622550  0.25747550  0.21019000  1
  O  O23  1  0.20938100  0.50000000  0.68083500  1
  O  O24  1  0.71659900  0.00000000  0.23381900  1
  O  O25  1  0.52377450  0.25747550  0.78981000  1
  O  O26  1  0.52377450  0.74252450  0.78981000  1
  O  O27  1  0.78340100  0.50000000  0.76618100  1
  O  O28  1  0.79061900  0.50000000  0.31916500  1
  O  O29  1  0.97622550  0.24252450  0.21019000  1
  O  O30  1  0.97622550  0.75747550  0.21019000  1
  O  O31  1  0.70938100  0.00000000  0.68083500  1
