# generated using pymatgen
data_Li2V2FeO6
_symmetry_space_group_name_H-M   'P 1'
_cell_length_a   8.98456400
_cell_length_b   4.97878200
_cell_length_c   10.12165835
_cell_angle_alpha   90.00000000
_cell_angle_beta   92.59210275
_cell_angle_gamma   90.00000000
_symmetry_Int_Tables_number   1
_chemical_formula_structural   Li2V2FeO6
_chemical_formula_sum   'Li8 V8 Fe4 O24'
_cell_volume   452.30063692
_cell_formula_units_Z   4
loop_
 _symmetry_equiv_pos_site_id
 _symmetry_equiv_pos_as_xyz
  1  'x, y, z'
loop_
 _atom_site_type_symbol
 _atom_site_label
 _atom_site_symmetry_multiplicity
 _atom_site_fract_x
 _atom_site_fract_y
 _atom_site_fract_z
 _atom_site_occupancy
  Li  Li0  1  0.83325450  0.64026150  0.24890400  1
  Li  Li1  1  0.83325450  0.35973850  0.74890400  1
  Li  Li2  1  0.66674550  0.14026150  0.25109600  1
  Li  Li3  1  0.66674550  0.85973850  0.75109600  1
  Li  Li4  1  0.33325450  0.14026150  0.24890400  1
  Li  Li5  1  0.33325450  0.85973850  0.74890400  1
  Li  Li6  1  0.16674550  0.64026150  0.25109600  1
  Li  Li7  1  0.16674550  0.35973850  0.75109600  1
  V  V8  1  0.92043600  0.76355800  0.98980300  1
  V  V9  1  0.92043600  0.23644200  0.48980300  1
  V  V10  1  0.57956400  0.26355800  0.51019700  1
  V  V11  1  0.57956400  0.73644200  0.01019700  1
  V  V12  1  0.42043600  0.26355800  0.98980300  1
  V  V13  1  0.42043600  0.73644200  0.48980300  1
  V  V14  1  0.07956400  0.76355800  0.51019700  1
  V  V15  1  0.07956400  0.23644200  0.01019700  1
  Fe  Fe16  1  0.75000000  0.25000000  0.00000000  1
  Fe  Fe17  1  0.75000000  0.75000000  0.50000000  1
  Fe  Fe18  1  0.25000000  0.75000000  0.00000000  1
  Fe  Fe19  1  0.25000000  0.25000000  0.50000000  1
  O  O20  1  0.90395400  0.91248200  0.39245000  1
  O  O21  1  0.91595500  0.57040900  0.59935900  1
  O  O22  1  0.59604600  0.41248200  0.10755000  1
  O  O23  1  0.91595500  0.42959100  0.09935900  1
  O  O24  1  0.58404500  0.07040900  0.90064100  1
  O  O25  1  0.74433150  0.58566850  0.89362100  1
  O  O26  1  0.90395400  0.08751800  0.89245000  1
  O  O27  1  0.58404500  0.92959100  0.40064100  1
  O  O28  1  0.74433150  0.41433150  0.39362100  1
  O  O29  1  0.59604600  0.58751800  0.60755000  1
  O  O30  1  0.75566850  0.08566850  0.60637900  1
  O  O31  1  0.75566850  0.91433150  0.10637900  1
  O  O32  1  0.40395400  0.41248200  0.39245000  1
  O  O33  1  0.41595500  0.07040900  0.59935900  1
  O  O34  1  0.09604600  0.91248200  0.10755000  1
  O  O35  1  0.41595500  0.92959100  0.09935900  1
  O  O36  1  0.08404500  0.57040900  0.90064100  1
  O  O37  1  0.24433150  0.08566850  0.89362100  1
  O  O38  1  0.40395400  0.58751800  0.89245000  1
  O  O39  1  0.08404500  0.42959100  0.40064100  1
  O  O40  1  0.24433150  0.91433150  0.39362100  1
  O  O41  1  0.09604600  0.08751800  0.60755000  1
  O  O42  1  0.25566850  0.58566850  0.60637900  1
  O  O43  1  0.25566850  0.41433150  0.10637900  1
