# generated using pymatgen
data_TmTe3O8
_symmetry_space_group_name_H-M   'P 1'
_cell_length_a   12.53454200
_cell_length_b   5.57862600
_cell_length_c   10.48311154
_cell_angle_alpha   90.00000000
_cell_angle_beta   116.16688533
_cell_angle_gamma   90.00000000
_symmetry_Int_Tables_number   1
_chemical_formula_structural   TmTe3O8
_chemical_formula_sum   'Tm4 Te12 O32'
_cell_volume   657.91056544
_cell_formula_units_Z   4
loop_
 _symmetry_equiv_pos_site_id
 _symmetry_equiv_pos_as_xyz
  1  'x, y, z'
loop_
 _atom_site_type_symbol
 _atom_site_label
 _atom_site_symmetry_multiplicity
 _atom_site_fract_x
 _atom_site_fract_y
 _atom_site_fract_z
 _atom_site_occupancy
  Tm  Tm0  1  0.00000000  0.56086700  0.75000000  1
  Tm  Tm1  1  0.00000000  0.43913300  0.25000000  1
  Tm  Tm2  1  0.50000000  0.06086700  0.75000000  1
  Tm  Tm3  1  0.50000000  0.93913300  0.25000000  1
  Te  Te4  1  0.71966500  0.41463800  0.35609100  1
  Te  Te5  1  0.78033500  0.91463800  0.14390900  1
  Te  Te6  1  0.00000000  0.00000000  0.50000000  1
  Te  Te7  1  0.21966500  0.08536200  0.85609100  1
  Te  Te8  1  0.00000000  0.00000000  0.00000000  1
  Te  Te9  1  0.28033500  0.58536200  0.64390900  1
  Te  Te10  1  0.21966500  0.91463800  0.35609100  1
  Te  Te11  1  0.28033500  0.41463800  0.14390900  1
  Te  Te12  1  0.50000000  0.50000000  0.50000000  1
  Te  Te13  1  0.71966500  0.58536200  0.85609100  1
  Te  Te14  1  0.50000000  0.50000000  0.00000000  1
  Te  Te15  1  0.78033500  0.08536200  0.64390900  1
  O  O16  1  0.60929700  0.75696700  0.13273200  1
  O  O17  1  0.82202850  0.39537150  0.58575900  1
  O  O18  1  0.91729350  0.23824950  0.82954100  1
  O  O19  1  0.89452300  0.88716200  0.59607100  1
  O  O20  1  0.89070300  0.25696700  0.36726800  1
  O  O21  1  0.82202850  0.60462850  0.08575900  1
  O  O22  1  0.10547700  0.88716200  0.90392900  1
  O  O23  1  0.91729350  0.76175050  0.32954100  1
  O  O24  1  0.08270650  0.23824950  0.67045900  1
  O  O25  1  0.89452300  0.11283800  0.09607100  1
  O  O26  1  0.17797150  0.39537150  0.91424100  1
  O  O27  1  0.10929700  0.74303300  0.63273200  1
  O  O28  1  0.10547700  0.11283800  0.40392900  1
  O  O29  1  0.08270650  0.76175050  0.17045900  1
  O  O30  1  0.17797150  0.60462850  0.41424100  1
  O  O31  1  0.39070300  0.24303300  0.86726800  1
  O  O32  1  0.10929700  0.25696700  0.13273200  1
  O  O33  1  0.32202850  0.89537150  0.58575900  1
  O  O34  1  0.41729350  0.73824950  0.82954100  1
  O  O35  1  0.39452300  0.38716200  0.59607100  1
  O  O36  1  0.39070300  0.75696700  0.36726800  1
  O  O37  1  0.32202850  0.10462850  0.08575900  1
  O  O38  1  0.60547700  0.38716200  0.90392900  1
  O  O39  1  0.41729350  0.26175050  0.32954100  1
  O  O40  1  0.58270650  0.73824950  0.67045900  1
  O  O41  1  0.39452300  0.61283800  0.09607100  1
  O  O42  1  0.67797150  0.89537150  0.91424100  1
  O  O43  1  0.60929700  0.24303300  0.63273200  1
  O  O44  1  0.60547700  0.61283800  0.40392900  1
  O  O45  1  0.58270650  0.26175050  0.17045900  1
  O  O46  1  0.67797150  0.10462850  0.41424100  1
  O  O47  1  0.89070300  0.74303300  0.86726800  1
