# generated using pymatgen
data_FeOF
_symmetry_space_group_name_H-M   'P 1'
_cell_length_a   9.50399500
_cell_length_b   3.10840700
_cell_length_c   14.29663581
_cell_angle_alpha   90.00000000
_cell_angle_beta   90.31844476
_cell_angle_gamma   90.00000000
_symmetry_Int_Tables_number   1
_chemical_formula_structural   FeOF
_chemical_formula_sum   'Fe12 O12 F12'
_cell_volume   422.34876049
_cell_formula_units_Z   12
loop_
 _symmetry_equiv_pos_site_id
 _symmetry_equiv_pos_as_xyz
  1  'x, y, z'
loop_
 _atom_site_type_symbol
 _atom_site_label
 _atom_site_symmetry_multiplicity
 _atom_site_fract_x
 _atom_site_fract_y
 _atom_site_fract_z
 _atom_site_occupancy
  Fe  Fe0  1  0.00848800  0.00000000  0.99476600  1
  Fe  Fe1  1  0.01848500  0.00000000  0.66843600  1
  Fe  Fe2  1  0.00240000  0.00000000  0.33132900  1
  Fe  Fe3  1  0.23151700  0.50000000  0.83559900  1
  Fe  Fe4  1  0.24760600  0.50000000  0.51442100  1
  Fe  Fe5  1  0.25679500  0.50000000  0.14569300  1
  Fe  Fe6  1  0.49794800  0.00000000  0.65748900  1
  Fe  Fe7  1  0.51213100  0.00000000  0.00380500  1
  Fe  Fe8  1  0.51625400  0.00000000  0.33506300  1
  Fe  Fe9  1  0.74829700  0.50000000  0.85009200  1
  Fe  Fe10  1  0.72671800  0.50000000  0.50502300  1
  Fe  Fe11  1  0.72732300  0.50000000  0.16783000  1
  O  O12  1  0.09719200  0.50000000  0.73022000  1
  O  O13  1  0.09322600  0.50000000  0.06280100  1
  O  O14  1  0.15675900  0.00000000  0.89805200  1
  O  O15  1  0.14753500  0.00000000  0.56096400  1
  O  O16  1  0.34857600  0.00000000  0.09400200  1
  O  O17  1  0.40279300  0.50000000  0.60347300  1
  O  O18  1  0.59855600  0.50000000  0.06339900  1
  O  O19  1  0.59448800  0.50000000  0.39974200  1
  O  O20  1  0.65248600  0.00000000  0.89884000  1
  O  O21  1  0.65672600  0.00000000  0.57044200  1
  O  O22  1  0.64871200  0.00000000  0.23236900  1
  O  O23  1  0.90447900  0.50000000  0.93973600  1
  F  F24  1  0.10556200  0.50000000  0.39576500  1
  F  F25  1  0.15828800  0.00000000  0.22736900  1
  F  F26  1  0.35355000  0.00000000  0.76951900  1
  F  F27  1  0.34490200  0.00000000  0.43284500  1
  F  F28  1  0.40536300  0.50000000  0.92852000  1
  F  F29  1  0.39620000  0.50000000  0.26808200  1
  F  F30  1  0.59876700  0.50000000  0.73553600  1
  F  F31  1  0.84552900  0.00000000  0.76785200  1
  F  F32  1  0.84603800  0.00000000  0.10688800  1
  F  F33  1  0.84761500  0.00000000  0.43739800  1
  F  F34  1  0.90028300  0.50000000  0.60151400  1
  F  F35  1  0.90241100  0.50000000  0.26512900  1
