# generated using pymatgen
data_Li3Ti3VO8
_symmetry_space_group_name_H-M   'P 1'
_cell_length_a   10.28515241
_cell_length_b   5.96781549
_cell_length_c   6.05155950
_cell_angle_alpha   90.00000000
_cell_angle_beta   124.80451839
_cell_angle_gamma   90.00000000
_symmetry_Int_Tables_number   1
_chemical_formula_structural   Li3Ti3VO8
_chemical_formula_sum   'Li6 Ti6 V2 O16'
_cell_volume   304.99428392
_cell_formula_units_Z   2
loop_
 _symmetry_equiv_pos_site_id
 _symmetry_equiv_pos_as_xyz
  1  'x, y, z'
loop_
 _atom_site_type_symbol
 _atom_site_label
 _atom_site_symmetry_multiplicity
 _atom_site_fract_x
 _atom_site_fract_y
 _atom_site_fract_z
 _atom_site_occupancy
  Li  Li0  1  0.50000000  0.00000000  0.50000000  1
  Li  Li1  1  0.75000000  0.75000000  0.50000000  1
  Li  Li2  1  0.25000000  0.75000000  0.50000000  1
  Li  Li3  1  0.00000000  0.50000000  0.50000000  1
  Li  Li4  1  0.25000000  0.25000000  0.50000000  1
  Li  Li5  1  0.75000000  0.25000000  0.50000000  1
  Ti  Ti6  1  0.00000000  0.50000000  0.00000000  1
  Ti  Ti7  1  0.75000000  0.75000000  0.00000000  1
  Ti  Ti8  1  0.25000000  0.75000000  0.00000000  1
  Ti  Ti9  1  0.50000000  0.00000000  0.00000000  1
  Ti  Ti10  1  0.25000000  0.25000000  0.00000000  1
  Ti  Ti11  1  0.75000000  0.25000000  0.00000000  1
  V  V12  1  0.00000000  0.00000000  0.00000000  1
  V  V13  1  0.50000000  0.50000000  0.00000000  1
  O  O14  1  0.26320450  0.00000000  0.77995550  1
  O  O15  1  0.23679550  0.50000000  0.22004450  1
  O  O16  1  0.74918600  0.00000000  0.76755400  1
  O  O17  1  0.75081400  0.50000000  0.23244600  1
  O  O18  1  0.51287000  0.76602850  0.78095200  1
  O  O19  1  0.51287000  0.23397150  0.78095200  1
  O  O20  1  0.98713000  0.26602850  0.21904800  1
  O  O21  1  0.98713000  0.73397150  0.21904800  1
  O  O22  1  0.76320450  0.50000000  0.77995550  1
  O  O23  1  0.73679550  0.00000000  0.22004450  1
  O  O24  1  0.24918600  0.50000000  0.76755400  1
  O  O25  1  0.25081400  0.00000000  0.23244600  1
  O  O26  1  0.01287000  0.26602850  0.78095200  1
  O  O27  1  0.01287000  0.73397150  0.78095200  1
  O  O28  1  0.48713000  0.76602850  0.21904800  1
  O  O29  1  0.48713000  0.23397150  0.21904800  1
