# generated using pymatgen
data_Co2OF3
_symmetry_space_group_name_H-M   'P 1'
_cell_length_a   6.29695700
_cell_length_b   6.41314031
_cell_length_c   6.82890708
_cell_angle_alpha   90.00000000
_cell_angle_beta   90.00000000
_cell_angle_gamma   90.00000000
_symmetry_Int_Tables_number   1
_chemical_formula_structural   Co2OF3
_chemical_formula_sum   'Co8 O4 F12'
_cell_volume   275.77359011
_cell_formula_units_Z   4
loop_
 _symmetry_equiv_pos_site_id
 _symmetry_equiv_pos_as_xyz
  1  'x, y, z'
loop_
 _atom_site_type_symbol
 _atom_site_label
 _atom_site_symmetry_multiplicity
 _atom_site_fract_x
 _atom_site_fract_y
 _atom_site_fract_z
 _atom_site_occupancy
  Co  Co0  1  0.50000000  0.78659050  0.75000000  1
  Co  Co1  1  0.75000000  0.25000000  0.75000000  1
  Co  Co2  1  0.75000000  0.75000000  0.25000000  1
  Co  Co3  1  0.00000000  0.71340950  0.75000000  1
  Co  Co4  1  0.00000000  0.28659050  0.25000000  1
  Co  Co5  1  0.25000000  0.75000000  0.25000000  1
  Co  Co6  1  0.25000000  0.25000000  0.75000000  1
  Co  Co7  1  0.50000000  0.21340950  0.25000000  1
  O  O8  1  0.50000000  0.05898900  0.75000000  1
  O  O9  1  0.50000000  0.94101100  0.25000000  1
  O  O10  1  0.00000000  0.55898900  0.25000000  1
  O  O11  1  0.00000000  0.44101100  0.75000000  1
  F  F12  1  0.00000000  0.03091100  0.75000000  1
  F  F13  1  0.00000000  0.96908900  0.25000000  1
  F  F14  1  0.75000000  0.75000000  0.55645000  1
  F  F15  1  0.25000000  0.75000000  0.55645000  1
  F  F16  1  0.75000000  0.25000000  0.44355000  1
  F  F17  1  0.25000000  0.25000000  0.44355000  1
  F  F18  1  0.50000000  0.53091100  0.25000000  1
  F  F19  1  0.50000000  0.46908900  0.75000000  1
  F  F20  1  0.25000000  0.25000000  0.05645000  1
  F  F21  1  0.75000000  0.25000000  0.05645000  1
  F  F22  1  0.25000000  0.75000000  0.94355000  1
  F  F23  1  0.75000000  0.75000000  0.94355000  1
