# generated using pymatgen
data_Li2Ti3O6
_symmetry_space_group_name_H-M   'P 1'
_cell_length_a   5.70820200
_cell_length_b   8.64574800
_cell_length_c   17.11979000
_cell_angle_alpha   90.00000000
_cell_angle_beta   90.00000000
_cell_angle_gamma   90.00000000
_symmetry_Int_Tables_number   1
_chemical_formula_structural   Li2Ti3O6
_chemical_formula_sum   'Li16 Ti24 O48'
_cell_volume   844.89032970
_cell_formula_units_Z   8
loop_
 _symmetry_equiv_pos_site_id
 _symmetry_equiv_pos_as_xyz
  1  'x, y, z'
loop_
 _atom_site_type_symbol
 _atom_site_label
 _atom_site_symmetry_multiplicity
 _atom_site_fract_x
 _atom_site_fract_y
 _atom_site_fract_z
 _atom_site_occupancy
  Li  Li0  1  0.50000000  0.00000000  0.33099900  1
  Li  Li1  1  0.75000000  0.75000000  0.08099900  1
  Li  Li2  1  0.00000000  0.00000000  0.16900100  1
  Li  Li3  1  0.75000000  0.75000000  0.41900100  1
  Li  Li4  1  0.50000000  0.50000000  0.83099900  1
  Li  Li5  1  0.75000000  0.25000000  0.58099900  1
  Li  Li6  1  0.00000000  0.50000000  0.66900100  1
  Li  Li7  1  0.75000000  0.25000000  0.91900100  1
  Li  Li8  1  0.00000000  0.00000000  0.83099900  1
  Li  Li9  1  0.25000000  0.75000000  0.58099900  1
  Li  Li10  1  0.50000000  0.00000000  0.66900100  1
  Li  Li11  1  0.25000000  0.75000000  0.91900100  1
  Li  Li12  1  0.00000000  0.50000000  0.33099900  1
  Li  Li13  1  0.25000000  0.25000000  0.08099900  1
  Li  Li14  1  0.50000000  0.50000000  0.16900100  1
  Li  Li15  1  0.25000000  0.25000000  0.41900100  1
  Ti  Ti16  1  0.75000000  0.75000000  0.25000000  1
  Ti  Ti17  1  0.00000000  0.00000000  0.33510300  1
  Ti  Ti18  1  0.50000000  0.00000000  0.16489700  1
  Ti  Ti19  1  0.75000000  0.25000000  0.08510300  1
  Ti  Ti20  1  0.00000000  0.00000000  0.00000000  1
  Ti  Ti21  1  0.75000000  0.25000000  0.41489700  1
  Ti  Ti22  1  0.75000000  0.25000000  0.75000000  1
  Ti  Ti23  1  0.00000000  0.50000000  0.83510300  1
  Ti  Ti24  1  0.50000000  0.50000000  0.66489700  1
  Ti  Ti25  1  0.75000000  0.75000000  0.58510300  1
  Ti  Ti26  1  0.00000000  0.50000000  0.50000000  1
  Ti  Ti27  1  0.75000000  0.75000000  0.91489700  1
  Ti  Ti28  1  0.25000000  0.75000000  0.75000000  1
  Ti  Ti29  1  0.50000000  0.00000000  0.83510300  1
  Ti  Ti30  1  0.00000000  0.00000000  0.66489700  1
  Ti  Ti31  1  0.25000000  0.25000000  0.58510300  1
  Ti  Ti32  1  0.50000000  0.00000000  0.50000000  1
  Ti  Ti33  1  0.25000000  0.25000000  0.91489700  1
  Ti  Ti34  1  0.25000000  0.25000000  0.25000000  1
  Ti  Ti35  1  0.50000000  0.50000000  0.33510300  1
  Ti  Ti36  1  0.00000000  0.50000000  0.16489700  1
  Ti  Ti37  1  0.25000000  0.75000000  0.08510300  1
  Ti  Ti38  1  0.50000000  0.50000000  0.00000000  1
  Ti  Ti39  1  0.25000000  0.75000000  0.41489700  1
  O  O40  1  0.99384250  0.75910250  0.33577400  1
  O  O41  1  0.00615750  0.24089750  0.33577400  1
  O  O42  1  0.75000000  0.98637800  0.25000000  1
  O  O43  1  0.49384250  0.24089750  0.16422600  1
  O  O44  1  0.75000000  0.51362200  0.25000000  1
  O  O45  1  0.75615750  0.00910250  0.08577400  1
  O  O46  1  0.50000000  0.26362200  0.00000000  1
  O  O47  1  0.50615750  0.75910250  0.16422600  1
  O  O48  1  0.24384250  0.99089750  0.08577400  1
  O  O49  1  0.25615750  0.99089750  0.41422600  1
  O  O50  1  0.50000000  0.73637800  0.00000000  1
  O  O51  1  0.74384250  0.00910250  0.41422600  1
  O  O52  1  0.99384250  0.25910250  0.83577400  1
  O  O53  1  0.00615750  0.74089750  0.83577400  1
  O  O54  1  0.75000000  0.48637800  0.75000000  1
  O  O55  1  0.49384250  0.74089750  0.66422600  1
  O  O56  1  0.75000000  0.01362200  0.75000000  1
  O  O57  1  0.75615750  0.50910250  0.58577400  1
  O  O58  1  0.50000000  0.76362200  0.50000000  1
  O  O59  1  0.50615750  0.25910250  0.66422600  1
  O  O60  1  0.24384250  0.49089750  0.58577400  1
  O  O61  1  0.25615750  0.49089750  0.91422600  1
  O  O62  1  0.50000000  0.23637800  0.50000000  1
  O  O63  1  0.74384250  0.50910250  0.91422600  1
  O  O64  1  0.49384250  0.75910250  0.83577400  1
  O  O65  1  0.50615750  0.24089750  0.83577400  1
  O  O66  1  0.25000000  0.98637800  0.75000000  1
  O  O67  1  0.99384250  0.24089750  0.66422600  1
  O  O68  1  0.25000000  0.51362200  0.75000000  1
  O  O69  1  0.25615750  0.00910250  0.58577400  1
  O  O70  1  0.00000000  0.26362200  0.50000000  1
  O  O71  1  0.00615750  0.75910250  0.66422600  1
  O  O72  1  0.74384250  0.99089750  0.58577400  1
  O  O73  1  0.75615750  0.99089750  0.91422600  1
  O  O74  1  0.00000000  0.73637800  0.50000000  1
  O  O75  1  0.24384250  0.00910250  0.91422600  1
  O  O76  1  0.49384250  0.25910250  0.33577400  1
  O  O77  1  0.50615750  0.74089750  0.33577400  1
  O  O78  1  0.25000000  0.48637800  0.25000000  1
  O  O79  1  0.99384250  0.74089750  0.16422600  1
  O  O80  1  0.25000000  0.01362200  0.25000000  1
  O  O81  1  0.25615750  0.50910250  0.08577400  1
  O  O82  1  0.00000000  0.76362200  0.00000000  1
  O  O83  1  0.00615750  0.25910250  0.16422600  1
  O  O84  1  0.74384250  0.49089750  0.08577400  1
  O  O85  1  0.75615750  0.49089750  0.41422600  1
  O  O86  1  0.00000000  0.23637800  0.00000000  1
  O  O87  1  0.24384250  0.50910250  0.41422600  1
