# generated using pymatgen
data_Li4Ti2Mn3O10
_symmetry_space_group_name_H-M   'P 1'
_cell_length_a   5.19680854
_cell_length_b   5.26261566
_cell_length_c   7.97895216
_cell_angle_alpha   72.26295025
_cell_angle_beta   73.78203563
_cell_angle_gamma   78.06870574
_symmetry_Int_Tables_number   1
_chemical_formula_structural   Li4Ti2Mn3O10
_chemical_formula_sum   'Li4 Ti2 Mn3 O10'
_cell_volume   197.79763587
_cell_formula_units_Z   1
loop_
 _symmetry_equiv_pos_site_id
 _symmetry_equiv_pos_as_xyz
  1  'x, y, z'
loop_
 _atom_site_type_symbol
 _atom_site_label
 _atom_site_symmetry_multiplicity
 _atom_site_fract_x
 _atom_site_fract_y
 _atom_site_fract_z
 _atom_site_occupancy
  Li  Li0  1  0.24098700  0.51946150  0.60229750  1
  Li  Li1  1  0.75901300  0.48053850  0.39770250  1
  Li  Li2  1  0.38197800  0.42482650  0.24909900  1
  Li  Li3  1  0.61802200  0.57517350  0.75090100  1
  Ti  Ti4  1  0.08615300  0.94840450  0.32428200  1
  Ti  Ti5  1  0.91384700  0.05159550  0.67571800  1
  Mn  Mn6  1  0.00000000  0.50000000  0.00000000  1
  Mn  Mn7  1  0.32394100  0.01434650  0.88216100  1
  Mn  Mn8  1  0.67605900  0.98565350  0.11783900  1
  O  O9  1  0.99833600  0.75344850  0.17428200  1
  O  O10  1  0.00166400  0.24655150  0.82571800  1
  O  O11  1  0.10846800  0.21938000  0.44740050  1
  O  O12  1  0.89153200  0.78062000  0.55259950  1
  O  O13  1  0.33573600  0.19937850  0.07354100  1
  O  O14  1  0.66426400  0.80062150  0.92645900  1
  O  O15  1  0.22968000  0.77116000  0.77577200  1
  O  O16  1  0.77032000  0.22884000  0.22422800  1
  O  O17  1  0.41225100  0.72910750  0.33672650  1
  O  O18  1  0.58774900  0.27089250  0.66327350  1
