# generated using pymatgen
data_Mn3Fe(PO4)6
_symmetry_space_group_name_H-M   'P 1'
_cell_length_a   8.53930974
_cell_length_b   8.53930974
_cell_length_c   21.81431164
_cell_angle_alpha   90.00000000
_cell_angle_beta   90.00000000
_cell_angle_gamma   120.00000000
_symmetry_Int_Tables_number   1
_chemical_formula_structural   Mn3Fe(PO4)6
_chemical_formula_sum   'Mn9 Fe3 P18 O72'
_cell_volume   1377.58269452
_cell_formula_units_Z   3
loop_
 _symmetry_equiv_pos_site_id
 _symmetry_equiv_pos_as_xyz
  1  'x, y, z'
loop_
 _atom_site_type_symbol
 _atom_site_label
 _atom_site_symmetry_multiplicity
 _atom_site_fract_x
 _atom_site_fract_y
 _atom_site_fract_z
 _atom_site_occupancy
  Mn  Mn0  1  0.66666667  0.33333333  0.18841933  1
  Mn  Mn1  1  0.33333333  0.66666667  0.31131567  1
  Mn  Mn2  1  0.33333333  0.66666667  0.02086567  1
  Mn  Mn3  1  0.33333333  0.66666667  0.52175267  1
  Mn  Mn4  1  0.00000000  0.00000000  0.64464900  1
  Mn  Mn5  1  0.00000000  0.00000000  0.35419900  1
  Mn  Mn6  1  0.00000000  0.00000000  0.85508600  1
  Mn  Mn7  1  0.66666667  0.33333333  0.97798233  1
  Mn  Mn8  1  0.66666667  0.33333333  0.68753233  1
  Fe  Fe9  1  0.00000000  0.00000000  0.14263400  1
  Fe  Fe10  1  0.66666667  0.33333333  0.47596733  1
  Fe  Fe11  1  0.33333333  0.66666667  0.80930067  1
  P  P12  1  0.71418667  0.00070133  0.25027733  1
  P  P13  1  0.28651467  0.28581333  0.25027733  1
  P  P14  1  0.99929867  0.71348533  0.25027733  1
  P  P15  1  0.66301033  0.61442167  0.08250167  1
  P  P16  1  0.38557833  0.04858867  0.08250167  1
  P  P17  1  0.95141133  0.33698967  0.08250167  1
  P  P18  1  0.38085333  0.33403467  0.58361067  1
  P  P19  1  0.95318133  0.61914667  0.58361067  1
  P  P20  1  0.66596533  0.04681867  0.58361067  1
  P  P21  1  0.32967700  0.94775500  0.41583500  1
  P  P22  1  0.05224500  0.38192200  0.41583500  1
  P  P23  1  0.61807800  0.67032300  0.41583500  1
  P  P24  1  0.04752000  0.66736800  0.91694400  1
  P  P25  1  0.61984800  0.95248000  0.91694400  1
  P  P26  1  0.33263200  0.38015200  0.91694400  1
  P  P27  1  0.99634367  0.28108833  0.74916833  1
  P  P28  1  0.71891167  0.71525533  0.74916833  1
  P  P29  1  0.28474467  0.00365633  0.74916833  1
  O  O30  1  0.83576933  0.30250867  0.02445267  1
  O  O31  1  0.69749133  0.53326067  0.02445267  1
  O  O32  1  0.69447067  0.17129533  0.24515433  1
  O  O33  1  0.46673933  0.16423067  0.02445267  1
  O  O34  1  0.52257100  0.83271400  0.25640300  1
  O  O35  1  0.79339700  0.96594000  0.19319300  1
  O  O36  1  0.47682467  0.30552933  0.24515433  1
  O  O37  1  0.31014300  0.47742900  0.25640300  1
  O  O38  1  0.16728600  0.68985700  0.25640300  1
  O  O39  1  0.62994267  0.50027233  0.14122433  1
  O  O40  1  0.83020267  0.80142633  0.08809333  1
  O  O41  1  0.49972767  0.12967033  0.14122433  1
  O  O42  1  0.17254300  0.20660300  0.19319300  1
  O  O43  1  0.82870467  0.52317533  0.24515433  1
  O  O44  1  0.03406000  0.82745700  0.19319300  1
  O  O45  1  0.49238967  0.63340433  0.07745233  1
  O  O46  1  0.36659567  0.85898533  0.07745233  1
  O  O47  1  0.19857367  0.02877633  0.08809333  1
  O  O48  1  0.87032967  0.37005733  0.14122433  1
  O  O49  1  0.14101467  0.50761033  0.07745233  1
  O  O50  1  0.20606833  0.17131167  0.30905967  1
  O  O51  1  0.97122367  0.16979733  0.08809333  1
  O  O52  1  0.96524333  0.79393167  0.30905967  1
  O  O53  1  0.82868833  0.03475667  0.30905967  1
  O  O54  1  0.50243600  0.63584200  0.35778600  1
  O  O55  1  0.36415800  0.86659400  0.35778600  1
  O  O56  1  0.36113733  0.50462867  0.57848767  1
  O  O57  1  0.13340600  0.49756400  0.35778600  1
  O  O58  1  0.18923767  0.16604733  0.58973633  1
  O  O59  1  0.46006367  0.29927333  0.52652633  1
  O  O60  1  0.14349133  0.63886267  0.57848767  1
  O  O61  1  0.97680967  0.81076233  0.58973633  1
  O  O62  1  0.83395267  0.02319033  0.58973633  1
  O  O63  1  0.29660933  0.83360567  0.47455767  1
  O  O64  1  0.49686933  0.13475967  0.42142667  1
  O  O65  1  0.16639433  0.46300367  0.47455767  1
  O  O66  1  0.83920967  0.53993633  0.52652633  1
  O  O67  1  0.49537133  0.85650867  0.57848767  1
  O  O68  1  0.70072667  0.16079033  0.52652633  1
  O  O69  1  0.15905633  0.96673767  0.41078567  1
  O  O70  1  0.03326233  0.19231867  0.41078567  1
  O  O71  1  0.86524033  0.36210967  0.42142667  1
  O  O72  1  0.53699633  0.70339067  0.47455767  1
  O  O73  1  0.80768133  0.84094367  0.41078567  1
  O  O74  1  0.87273500  0.50464500  0.64239300  1
  O  O75  1  0.63789033  0.50313067  0.42142667  1
  O  O76  1  0.63191000  0.12726500  0.64239300  1
  O  O77  1  0.49535500  0.36809000  0.64239300  1
  O  O78  1  0.16910267  0.96917533  0.69111933  1
  O  O79  1  0.03082467  0.19992733  0.69111933  1
  O  O80  1  0.02780400  0.83796200  0.91182100  1
  O  O81  1  0.80007267  0.83089733  0.69111933  1
  O  O82  1  0.85590433  0.49938067  0.92306967  1
  O  O83  1  0.12673033  0.63260667  0.85985967  1
  O  O84  1  0.81015800  0.97219600  0.91182100  1
  O  O85  1  0.64347633  0.14409567  0.92306967  1
  O  O86  1  0.50061933  0.35652367  0.92306967  1
  O  O87  1  0.96327600  0.16693900  0.80789100  1
  O  O88  1  0.16353600  0.46809300  0.75476000  1
  O  O89  1  0.83306100  0.79633700  0.80789100  1
  O  O90  1  0.50587633  0.87326967  0.85985967  1
  O  O91  1  0.16203800  0.18984200  0.91182100  1
  O  O92  1  0.36739333  0.49412367  0.85985967  1
  O  O93  1  0.82572300  0.30007100  0.74411900  1
  O  O94  1  0.69992900  0.52565200  0.74411900  1
  O  O95  1  0.53190700  0.69544300  0.75476000  1
  O  O96  1  0.20366300  0.03672400  0.80789100  1
  O  O97  1  0.47434800  0.17427700  0.74411900  1
  O  O98  1  0.53940167  0.83797833  0.97572633  1
  O  O99  1  0.30455700  0.83646400  0.75476000  1
  O  O100  1  0.29857667  0.46059833  0.97572633  1
  O  O101  1  0.16202167  0.70142333  0.97572633  1
