# generated using pymatgen
data_MnV2(PO4)3
_symmetry_space_group_name_H-M   'P 1'
_cell_length_a   8.63758057
_cell_length_b   8.63758057
_cell_length_c   21.16424063
_cell_angle_alpha   90.00000000
_cell_angle_beta   90.00000000
_cell_angle_gamma   120.00000000
_symmetry_Int_Tables_number   1
_chemical_formula_structural   MnV2(PO4)3
_chemical_formula_sum   'Mn6 V12 P18 O72'
_cell_volume   1367.46917621
_cell_formula_units_Z   6
loop_
 _symmetry_equiv_pos_site_id
 _symmetry_equiv_pos_as_xyz
  1  'x, y, z'
loop_
 _atom_site_type_symbol
 _atom_site_label
 _atom_site_symmetry_multiplicity
 _atom_site_fract_x
 _atom_site_fract_y
 _atom_site_fract_z
 _atom_site_occupancy
  Mn  Mn0  1  0.00000000  0.00000000  0.00000000  1
  Mn  Mn1  1  0.33333333  0.66666667  0.16666667  1
  Mn  Mn2  1  0.66666667  0.33333333  0.33333333  1
  Mn  Mn3  1  0.00000000  0.00000000  0.50000000  1
  Mn  Mn4  1  0.33333333  0.66666667  0.66666667  1
  Mn  Mn5  1  0.66666667  0.33333333  0.83333333  1
  V  V6  1  0.00000000  0.00000000  0.14382300  1
  V  V7  1  0.33333333  0.66666667  0.02284367  1
  V  V8  1  0.33333333  0.66666667  0.31048967  1
  V  V9  1  0.66666667  0.33333333  0.18951033  1
  V  V10  1  0.66666667  0.33333333  0.47715633  1
  V  V11  1  0.00000000  0.00000000  0.35617700  1
  V  V12  1  0.00000000  0.00000000  0.64382300  1
  V  V13  1  0.33333333  0.66666667  0.52284367  1
  V  V14  1  0.33333333  0.66666667  0.81048967  1
  V  V15  1  0.66666667  0.33333333  0.68951033  1
  V  V16  1  0.66666667  0.33333333  0.97715633  1
  V  V17  1  0.00000000  0.00000000  0.85617700  1
  P  P18  1  0.95804567  0.33333333  0.08333333  1
  P  P19  1  0.37528767  0.04195433  0.08333333  1
  P  P20  1  0.66666667  0.62471233  0.08333333  1
  P  P21  1  0.00000000  0.70862100  0.25000000  1
  P  P22  1  0.29137900  0.29137900  0.25000000  1
  P  P23  1  0.70862100  0.00000000  0.25000000  1
  P  P24  1  0.62471233  0.66666667  0.41666667  1
  P  P25  1  0.04195433  0.37528767  0.41666667  1
  P  P26  1  0.33333333  0.95804567  0.41666667  1
  P  P27  1  0.66666667  0.04195433  0.58333333  1
  P  P28  1  0.95804567  0.62471233  0.58333333  1
  P  P29  1  0.37528767  0.33333333  0.58333333  1
  P  P30  1  0.29137900  0.00000000  0.75000000  1
  P  P31  1  0.70862100  0.70862100  0.75000000  1
  P  P32  1  0.00000000  0.29137900  0.75000000  1
  P  P33  1  0.33333333  0.37528767  0.91666667  1
  P  P34  1  0.62471233  0.95804567  0.91666667  1
  P  P35  1  0.04195433  0.66666667  0.91666667  1
  O  O36  1  0.80813267  0.00271533  0.31028933  1
  O  O37  1  0.99728467  0.80541733  0.31028933  1
  O  O38  1  0.97986533  0.16495267  0.07919667  1
  O  O39  1  0.19458267  0.19186733  0.31028933  1
  O  O40  1  0.86124933  0.33604867  0.14362267  1
  O  O41  1  0.14824600  0.50171400  0.08747000  1
  O  O42  1  0.18508733  0.02013467  0.07919667  1
  O  O43  1  0.35346800  0.85175400  0.08747000  1
  O  O44  1  0.00271533  0.80813267  0.18971067  1
  O  O45  1  0.49828600  0.64653200  0.08747000  1
  O  O46  1  0.83161933  0.51842067  0.25413667  1
  O  O47  1  0.19186733  0.19458267  0.18971067  1
  O  O48  1  0.47479933  0.13875067  0.14362267  1
  O  O49  1  0.83504733  0.81491267  0.07919667  1
  O  O50  1  0.16838067  0.68680133  0.24586333  1
  O  O51  1  0.66395133  0.52520067  0.14362267  1
  O  O52  1  0.31319867  0.48157933  0.24586333  1
  O  O53  1  0.48157933  0.31319867  0.25413667  1
  O  O54  1  0.51842067  0.83161933  0.24586333  1
  O  O55  1  0.80541733  0.99728467  0.18971067  1
  O  O56  1  0.47208400  0.14146600  0.02304400  1
  O  O57  1  0.68680133  0.16838067  0.25413667  1
  O  O58  1  0.66938200  0.52791600  0.02304400  1
  O  O59  1  0.85853400  0.33061800  0.02304400  1
  O  O60  1  0.47479933  0.33604867  0.64362267  1
  O  O61  1  0.66395133  0.13875067  0.64362267  1
  O  O62  1  0.64653200  0.49828600  0.41253000  1
  O  O63  1  0.86124933  0.52520067  0.64362267  1
  O  O64  1  0.52791600  0.66938200  0.47695600  1
  O  O65  1  0.81491267  0.83504733  0.42080333  1
  O  O66  1  0.85175400  0.35346800  0.41253000  1
  O  O67  1  0.02013467  0.18508733  0.42080333  1
  O  O68  1  0.66938200  0.14146600  0.52304400  1
  O  O69  1  0.16495267  0.97986533  0.42080333  1
  O  O70  1  0.49828600  0.85175400  0.58747000  1
  O  O71  1  0.85853400  0.52791600  0.52304400  1
  O  O72  1  0.14146600  0.47208400  0.47695600  1
  O  O73  1  0.50171400  0.14824600  0.41253000  1
  O  O74  1  0.83504733  0.02013467  0.57919667  1
  O  O75  1  0.33061800  0.85853400  0.47695600  1
  O  O76  1  0.97986533  0.81491267  0.57919667  1
  O  O77  1  0.14824600  0.64653200  0.58747000  1
  O  O78  1  0.18508733  0.16495267  0.57919667  1
  O  O79  1  0.47208400  0.33061800  0.52304400  1
  O  O80  1  0.13875067  0.47479933  0.35637733  1
  O  O81  1  0.35346800  0.50171400  0.58747000  1
  O  O82  1  0.33604867  0.86124933  0.35637733  1
  O  O83  1  0.52520067  0.66395133  0.35637733  1
  O  O84  1  0.14146600  0.66938200  0.97695600  1
  O  O85  1  0.33061800  0.47208400  0.97695600  1
  O  O86  1  0.31319867  0.83161933  0.74586333  1
  O  O87  1  0.52791600  0.85853400  0.97695600  1
  O  O88  1  0.19458267  0.00271533  0.81028933  1
  O  O89  1  0.48157933  0.16838067  0.75413667  1
  O  O90  1  0.51842067  0.68680133  0.74586333  1
  O  O91  1  0.68680133  0.51842067  0.75413667  1
  O  O92  1  0.33604867  0.47479933  0.85637733  1
  O  O93  1  0.83161933  0.31319867  0.75413667  1
  O  O94  1  0.16495267  0.18508733  0.92080333  1
  O  O95  1  0.52520067  0.86124933  0.85637733  1
  O  O96  1  0.80813267  0.80541733  0.81028933  1
  O  O97  1  0.16838067  0.48157933  0.74586333  1
  O  O98  1  0.50171400  0.35346800  0.91253000  1
  O  O99  1  0.99728467  0.19186733  0.81028933  1
  O  O100  1  0.64653200  0.14824600  0.91253000  1
  O  O101  1  0.81491267  0.97986533  0.92080333  1
  O  O102  1  0.85175400  0.49828600  0.91253000  1
  O  O103  1  0.13875067  0.66395133  0.85637733  1
  O  O104  1  0.80541733  0.80813267  0.68971067  1
  O  O105  1  0.02013467  0.83504733  0.92080333  1
  O  O106  1  0.00271533  0.19458267  0.68971067  1
  O  O107  1  0.19186733  0.99728467  0.68971067  1
