# generated using pymatgen
data_FeOF
_symmetry_space_group_name_H-M   'P 1'
_cell_length_a   9.46413626
_cell_length_b   3.11168400
_cell_length_c   14.21879794
_cell_angle_alpha   90.00000000
_cell_angle_beta   90.05942679
_cell_angle_gamma   90.00000000
_symmetry_Int_Tables_number   1
_chemical_formula_structural   FeOF
_chemical_formula_sum   'Fe12 O12 F12'
_cell_volume   418.73486210
_cell_formula_units_Z   12
loop_
 _symmetry_equiv_pos_site_id
 _symmetry_equiv_pos_as_xyz
  1  'x, y, z'
loop_
 _atom_site_type_symbol
 _atom_site_label
 _atom_site_symmetry_multiplicity
 _atom_site_fract_x
 _atom_site_fract_y
 _atom_site_fract_z
 _atom_site_occupancy
  Fe  Fe0  1  0.98490500  0.00000000  0.99872300  1
  Fe  Fe1  1  0.97366600  0.00000000  0.32605700  1
  Fe  Fe2  1  0.00005600  0.00000000  0.67451100  1
  Fe  Fe3  1  0.76465000  0.50000000  0.15935000  1
  Fe  Fe4  1  0.78158700  0.50000000  0.50407000  1
  Fe  Fe5  1  0.74396600  0.50000000  0.85628700  1
  Fe  Fe6  1  0.48698800  0.00000000  0.32990200  1
  Fe  Fe7  1  0.47759000  0.00000000  0.98818100  1
  Fe  Fe8  1  0.49558600  0.00000000  0.67482800  1
  Fe  Fe9  1  0.27377300  0.50000000  0.16180000  1
  Fe  Fe10  1  0.25906900  0.50000000  0.48768400  1
  Fe  Fe11  1  0.25239600  0.50000000  0.82509200  1
  O  O12  1  0.89776800  0.50000000  0.26615000  1
  O  O13  1  0.90558900  0.50000000  0.60770700  1
  O  O14  1  0.90943000  0.50000000  0.93461100  1
  O  O15  1  0.84703700  0.00000000  0.10021800  1
  O  O16  1  0.85177600  0.00000000  0.43714300  1
  O  O17  1  0.64499800  0.00000000  0.90099100  1
  O  O18  1  0.40418100  0.50000000  0.26990400  1
  O  O19  1  0.39203700  0.50000000  0.92947900  1
  O  O20  1  0.34855400  0.00000000  0.09965000  1
  O  O21  1  0.35048900  0.00000000  0.43727100  1
  O  O22  1  0.35311200  0.00000000  0.76271400  1
  O  O23  1  0.09965200  0.50000000  0.73497700  1
  F  F24  1  0.83843300  0.00000000  0.77261700  1
  F  F25  1  0.65192400  0.00000000  0.23249800  1
  F  F26  1  0.64554800  0.00000000  0.56970400  1
  F  F27  1  0.59590300  0.50000000  0.06816200  1
  F  F28  1  0.59956400  0.50000000  0.40028600  1
  F  F29  1  0.60576900  0.50000000  0.72815800  1
  F  F30  1  0.40537400  0.50000000  0.60104900  1
  F  F31  1  0.15151400  0.00000000  0.23284000  1
  F  F32  1  0.15225900  0.00000000  0.90146300  1
  F  F33  1  0.15885800  0.00000000  0.56203100  1
  F  F34  1  0.09871400  0.50000000  0.06713500  1
  F  F35  1  0.09728700  0.50000000  0.39675800  1
