# generated using pymatgen
data_Fe10O19F
_symmetry_space_group_name_H-M   'P 1'
_cell_length_a   6.51313400
_cell_length_b   6.61147600
_cell_length_c   14.81546700
_cell_angle_alpha   90.00000000
_cell_angle_beta   90.00000000
_cell_angle_gamma   90.00000000
_symmetry_Int_Tables_number   1
_chemical_formula_structural   Fe10O19F
_chemical_formula_sum   'Fe20 O38 F2'
_cell_volume   637.97518219
_cell_formula_units_Z   2
loop_
 _symmetry_equiv_pos_site_id
 _symmetry_equiv_pos_as_xyz
  1  'x, y, z'
loop_
 _atom_site_type_symbol
 _atom_site_label
 _atom_site_symmetry_multiplicity
 _atom_site_fract_x
 _atom_site_fract_y
 _atom_site_fract_z
 _atom_site_occupancy
  Fe  Fe0  1  0.50000000  0.49364100  0.10477800  1
  Fe  Fe1  1  0.50000000  0.49842300  0.30193700  1
  Fe  Fe2  1  0.50000000  0.49948300  0.50000000  1
  Fe  Fe3  1  0.50000000  0.49842300  0.69806300  1
  Fe  Fe4  1  0.50000000  0.49364100  0.89522200  1
  Fe  Fe5  1  0.50000000  0.99827400  0.20053300  1
  Fe  Fe6  1  0.50000000  0.99914100  0.59993600  1
  Fe  Fe7  1  0.50000000  0.99914100  0.40006400  1
  Fe  Fe8  1  0.50000000  0.99827400  0.79946700  1
  Fe  Fe9  1  0.50000000  0.02036500  0.00000000  1
  Fe  Fe10  1  0.00000000  0.99364100  0.10477800  1
  Fe  Fe11  1  0.00000000  0.99842300  0.30193700  1
  Fe  Fe12  1  0.00000000  0.99948300  0.50000000  1
  Fe  Fe13  1  0.00000000  0.99842300  0.69806300  1
  Fe  Fe14  1  0.00000000  0.99364100  0.89522200  1
  Fe  Fe15  1  0.00000000  0.49827400  0.20053300  1
  Fe  Fe16  1  0.00000000  0.49914100  0.59993600  1
  Fe  Fe17  1  0.00000000  0.49914100  0.40006400  1
  Fe  Fe18  1  0.00000000  0.49827400  0.79946700  1
  Fe  Fe19  1  0.00000000  0.52036500  0.00000000  1
  O  O20  1  0.50000000  0.30525700  0.20631200  1
  O  O21  1  0.50000000  0.31060600  0.40110900  1
  O  O22  1  0.50000000  0.31060600  0.59889100  1
  O  O23  1  0.50000000  0.30525700  0.79368800  1
  O  O24  1  0.50000000  0.31829300  0.00000000  1
  O  O25  1  0.30798350  0.00236750  0.10040600  1
  O  O26  1  0.30961300  0.99738100  0.30070400  1
  O  O27  1  0.30969600  0.99972600  0.50000000  1
  O  O28  1  0.30961300  0.99738100  0.69929600  1
  O  O29  1  0.30798350  0.00236750  0.89959400  1
  O  O30  1  0.69201650  0.00236750  0.10040600  1
  O  O31  1  0.69038700  0.99738100  0.30070400  1
  O  O32  1  0.69030400  0.99972600  0.50000000  1
  O  O33  1  0.69038700  0.99738100  0.69929600  1
  O  O34  1  0.69201650  0.00236750  0.89959400  1
  O  O35  1  0.50000000  0.68825400  0.20404500  1
  O  O36  1  0.50000000  0.68728300  0.59929600  1
  O  O37  1  0.50000000  0.68728300  0.40070400  1
  O  O38  1  0.50000000  0.68825400  0.79595500  1
  O  O39  1  0.00000000  0.80525700  0.20631200  1
  O  O40  1  0.00000000  0.81060600  0.40110900  1
  O  O41  1  0.00000000  0.81060600  0.59889100  1
  O  O42  1  0.00000000  0.80525700  0.79368800  1
  O  O43  1  0.00000000  0.81829300  0.00000000  1
  O  O44  1  0.80798350  0.50236750  0.10040600  1
  O  O45  1  0.80961300  0.49738100  0.30070400  1
  O  O46  1  0.80969600  0.49972600  0.50000000  1
  O  O47  1  0.80961300  0.49738100  0.69929600  1
  O  O48  1  0.80798350  0.50236750  0.89959400  1
  O  O49  1  0.19201650  0.50236750  0.10040600  1
  O  O50  1  0.19038700  0.49738100  0.30070400  1
  O  O51  1  0.19030400  0.49972600  0.50000000  1
  O  O52  1  0.19038700  0.49738100  0.69929600  1
  O  O53  1  0.19201650  0.50236750  0.89959400  1
  O  O54  1  0.00000000  0.18825400  0.20404500  1
  O  O55  1  0.00000000  0.18728300  0.59929600  1
  O  O56  1  0.00000000  0.18728300  0.40070400  1
  O  O57  1  0.00000000  0.18825400  0.79595500  1
  F  F58  1  0.50000000  0.70165400  0.00000000  1
  F  F59  1  0.00000000  0.20165400  0.00000000  1
