# generated using pymatgen
data_Ti3CrCu2(PO4)6
_symmetry_space_group_name_H-M   'P 1'
_cell_length_a   8.61712176
_cell_length_b   8.61712176
_cell_length_c   21.09547930
_cell_angle_alpha   90.00000000
_cell_angle_beta   90.00000000
_cell_angle_gamma   120.00000000
_symmetry_Int_Tables_number   1
_chemical_formula_structural   Ti3CrCu2(PO4)6
_chemical_formula_sum   'Ti9 Cr3 Cu6 P18 O72'
_cell_volume   1356.57712149
_cell_formula_units_Z   3
loop_
 _symmetry_equiv_pos_site_id
 _symmetry_equiv_pos_as_xyz
  1  'x, y, z'
loop_
 _atom_site_type_symbol
 _atom_site_label
 _atom_site_symmetry_multiplicity
 _atom_site_fract_x
 _atom_site_fract_y
 _atom_site_fract_z
 _atom_site_occupancy
  Ti  Ti0  1  0.33333333  0.66666667  0.52422167  1
  Ti  Ti1  1  0.33333333  0.66666667  0.30976367  1
  Ti  Ti2  1  0.33333333  0.66666667  0.02314367  1
  Ti  Ti3  1  0.00000000  0.00000000  0.85755500  1
  Ti  Ti4  1  0.00000000  0.00000000  0.64309700  1
  Ti  Ti5  1  0.00000000  0.00000000  0.35647700  1
  Ti  Ti6  1  0.66666667  0.33333333  0.19088833  1
  Ti  Ti7  1  0.66666667  0.33333333  0.97643033  1
  Ti  Ti8  1  0.66666667  0.33333333  0.68981033  1
  Cr  Cr9  1  0.33333333  0.66666667  0.80840567  1
  Cr  Cr10  1  0.00000000  0.00000000  0.14173900  1
  Cr  Cr11  1  0.66666667  0.33333333  0.47507233  1
  Cu  Cu12  1  0.33333333  0.66666667  0.66770967  1
  Cu  Cu13  1  0.33333333  0.66666667  0.16692967  1
  Cu  Cu14  1  0.00000000  0.00000000  0.00104300  1
  Cu  Cu15  1  0.00000000  0.00000000  0.50026300  1
  Cu  Cu16  1  0.66666667  0.33333333  0.33437633  1
  Cu  Cu17  1  0.66666667  0.33333333  0.83359633  1
  P  P18  1  0.37378400  0.04165900  0.08354100  1
  P  P19  1  0.95834100  0.33212500  0.08354100  1
  P  P20  1  0.66787500  0.62621600  0.08354100  1
  P  P21  1  0.00000033  0.70994067  0.24920367  1
  P  P22  1  0.70994033  0.99999967  0.24920367  1
  P  P23  1  0.29005933  0.29005967  0.24920367  1
  P  P24  1  0.04045067  0.37499233  0.41687433  1
  P  P25  1  0.62500767  0.66545833  0.41687433  1
  P  P26  1  0.33454167  0.95954933  0.41687433  1
  P  P27  1  0.66666700  0.04327400  0.58253700  1
  P  P28  1  0.37660700  0.33333300  0.58253700  1
  P  P29  1  0.95672600  0.62339300  0.58253700  1
  P  P30  1  0.70711733  0.70832567  0.75020767  1
  P  P31  1  0.29167433  0.99879167  0.75020767  1
  P  P32  1  0.00120833  0.29288267  0.75020767  1
  P  P33  1  0.33333367  0.37660733  0.91587033  1
  P  P34  1  0.04327367  0.66666633  0.91587033  1
  P  P35  1  0.62339267  0.95672633  0.91587033  1
  O  O36  1  0.33599700  0.85610400  0.35739000  1
  O  O37  1  0.14389600  0.47989300  0.35739000  1
  O  O38  1  0.83081000  0.51993400  0.25358000  1
  O  O39  1  0.52010700  0.66400300  0.35739000  1
  O  O40  1  0.00754867  0.80991133  0.18928933  1
  O  O41  1  0.16807467  0.68685133  0.24830033  1
  O  O42  1  0.68912400  0.16919000  0.25358000  1
  O  O43  1  0.51877667  0.83192533  0.24830033  1
  O  O44  1  0.48055667  0.14302333  0.14317933  1
  O  O45  1  0.31314867  0.48122333  0.24830033  1
  O  O46  1  0.18711200  0.02354200  0.07897500  1
  O  O47  1  0.85697667  0.33753333  0.14317933  1
  O  O48  1  0.80236267  0.99245133  0.18928933  1
  O  O49  1  0.48006600  0.31087600  0.25358000  1
  O  O50  1  0.35716633  0.85389967  0.08673267  1
  O  O51  1  0.19008867  0.19763733  0.18928933  1
  O  O52  1  0.14610033  0.50326667  0.08673267  1
  O  O53  1  0.97645800  0.16357000  0.07897500  1
  O  O54  1  0.49673333  0.64283367  0.08673267  1
  O  O55  1  0.66246667  0.51944333  0.14317933  1
  O  O56  1  0.14773333  0.67136567  0.97641567  1
  O  O57  1  0.83643000  0.81288800  0.07897500  1
  O  O58  1  0.52363233  0.85226667  0.97641567  1
  O  O59  1  0.32863433  0.47636767  0.97641567  1
  O  O60  1  0.00266367  0.18943733  0.69072333  1
  O  O61  1  0.81056267  0.81322633  0.69072333  1
  O  O62  1  0.49747667  0.85326733  0.58691333  1
  O  O63  1  0.18677367  0.99733633  0.69072333  1
  O  O64  1  0.67421533  0.14324467  0.52262267  1
  O  O65  1  0.83474133  0.02018467  0.58163367  1
  O  O66  1  0.35579067  0.50252333  0.58691333  1
  O  O67  1  0.18544333  0.16525867  0.58163367  1
  O  O68  1  0.14722333  0.47635667  0.47651267  1
  O  O69  1  0.97981533  0.81455667  0.58163367  1
  O  O70  1  0.85377867  0.35687533  0.41230833  1
  O  O71  1  0.52364333  0.67086667  0.47651267  1
  O  O72  1  0.46902933  0.32578467  0.52262267  1
  O  O73  1  0.14673267  0.64420933  0.58691333  1
  O  O74  1  0.02383300  0.18723300  0.42006600  1
  O  O75  1  0.85675533  0.53097067  0.52262267  1
  O  O76  1  0.81276700  0.83660000  0.42006600  1
  O  O77  1  0.64312467  0.49690333  0.41230833  1
  O  O78  1  0.16340000  0.97616700  0.42006600  1
  O  O79  1  0.32913333  0.85277667  0.47651267  1
  O  O80  1  0.81440000  0.00469900  0.30974900  1
  O  O81  1  0.50309667  0.14622133  0.41230833  1
  O  O82  1  0.19029900  0.18560000  0.30974900  1
  O  O83  1  0.99530100  0.80970100  0.30974900  1
  O  O84  1  0.66933033  0.52277067  0.02405667  1
  O  O85  1  0.47722933  0.14655967  0.02405667  1
  O  O86  1  0.16414333  0.18660067  0.92024667  1
  O  O87  1  0.85344033  0.33066967  0.02405667  1
  O  O88  1  0.34088200  0.47657800  0.85595600  1
  O  O89  1  0.50140800  0.35351800  0.91496700  1
  O  O90  1  0.02245733  0.83585667  0.92024667  1
  O  O91  1  0.85211000  0.49859200  0.91496700  1
  O  O92  1  0.81389000  0.80969000  0.80984600  1
  O  O93  1  0.64648200  0.14789000  0.91496700  1
  O  O94  1  0.52044533  0.69020867  0.74564167  1
  O  O95  1  0.19031000  0.00420000  0.80984600  1
  O  O96  1  0.13569600  0.65911800  0.85595600  1
  O  O97  1  0.81339933  0.97754267  0.92024667  1
  O  O98  1  0.69049967  0.52056633  0.75339933  1
  O  O99  1  0.52342200  0.86430400  0.85595600  1
  O  O100  1  0.47943367  0.16993333  0.75339933  1
  O  O101  1  0.30979133  0.83023667  0.74564167  1
  O  O102  1  0.83006667  0.30950033  0.75339933  1
  O  O103  1  0.99580000  0.18611000  0.80984600  1
  O  O104  1  0.48106667  0.33803233  0.64308233  1
  O  O105  1  0.16976333  0.47955467  0.74564167  1
  O  O106  1  0.85696567  0.51893333  0.64308233  1
  O  O107  1  0.66196767  0.14303433  0.64308233  1
