# generated using pymatgen
data_LiFePO5
_symmetry_space_group_name_H-M   'P 1'
_cell_length_a   13.30652200
_cell_length_b   5.31996400
_cell_length_c   10.70953351
_cell_angle_alpha   90.00000000
_cell_angle_beta   111.57608681
_cell_angle_gamma   90.00000000
_symmetry_Int_Tables_number   1
_chemical_formula_structural   LiFePO5
_chemical_formula_sum   'Li8 Fe8 P8 O40'
_cell_volume   705.00806357
_cell_formula_units_Z   8
loop_
 _symmetry_equiv_pos_site_id
 _symmetry_equiv_pos_as_xyz
  1  'x, y, z'
loop_
 _atom_site_type_symbol
 _atom_site_label
 _atom_site_symmetry_multiplicity
 _atom_site_fract_x
 _atom_site_fract_y
 _atom_site_fract_z
 _atom_site_occupancy
  Li  Li0  1  0.00000000  0.01022300  0.25000000  1
  Li  Li1  1  0.25000000  0.25000000  0.00000000  1
  Li  Li2  1  0.00000000  0.98977700  0.75000000  1
  Li  Li3  1  0.75000000  0.25000000  0.50000000  1
  Li  Li4  1  0.50000000  0.51022300  0.25000000  1
  Li  Li5  1  0.75000000  0.75000000  0.00000000  1
  Li  Li6  1  0.50000000  0.48977700  0.75000000  1
  Li  Li7  1  0.25000000  0.75000000  0.50000000  1
  Fe  Fe8  1  0.25000000  0.75000000  0.00000000  1
  Fe  Fe9  1  0.00000000  0.00000000  0.00000000  1
  Fe  Fe10  1  0.00000000  0.00000000  0.50000000  1
  Fe  Fe11  1  0.75000000  0.75000000  0.50000000  1
  Fe  Fe12  1  0.75000000  0.25000000  0.00000000  1
  Fe  Fe13  1  0.50000000  0.50000000  0.00000000  1
  Fe  Fe14  1  0.50000000  0.50000000  0.50000000  1
  Fe  Fe15  1  0.25000000  0.25000000  0.50000000  1
  P  P16  1  0.62408100  0.00534700  0.18404000  1
  P  P17  1  0.12408100  0.49465300  0.68404000  1
  P  P18  1  0.37591900  0.99465300  0.81596000  1
  P  P19  1  0.87591900  0.50534700  0.31596000  1
  P  P20  1  0.12408100  0.50534700  0.18404000  1
  P  P21  1  0.62408100  0.99465300  0.68404000  1
  P  P22  1  0.87591900  0.49465300  0.81596000  1
  P  P23  1  0.37591900  0.00534700  0.31596000  1
  O  O24  1  0.81398350  0.50365550  0.16341800  1
  O  O25  1  0.70085950  0.01105850  0.10368500  1
  O  O26  1  0.12736400  0.96465900  0.95823800  1
  O  O27  1  0.05008950  0.74107150  0.14739500  1
  O  O28  1  0.05962600  0.25713800  0.14668300  1
  O  O29  1  0.87263600  0.03534100  0.04176200  1
  O  O30  1  0.18601650  0.49634450  0.83658200  1
  O  O31  1  0.29914050  0.98894150  0.89631500  1
  O  O32  1  0.05008950  0.25892850  0.64739500  1
  O  O33  1  0.05962600  0.74286200  0.64668300  1
  O  O34  1  0.94991050  0.25892850  0.85260500  1
  O  O35  1  0.94037400  0.74286200  0.85331700  1
  O  O36  1  0.31398350  0.99634450  0.66341800  1
  O  O37  1  0.20085950  0.48894150  0.60368500  1
  O  O38  1  0.12736400  0.03534100  0.45823800  1
  O  O39  1  0.94991050  0.74107150  0.35260500  1
  O  O40  1  0.94037400  0.25713800  0.35331700  1
  O  O41  1  0.87263600  0.96465900  0.54176200  1
  O  O42  1  0.79914050  0.51105850  0.39631500  1
  O  O43  1  0.68601650  0.00365550  0.33658200  1
  O  O44  1  0.31398350  0.00365550  0.16341800  1
  O  O45  1  0.20085950  0.51105850  0.10368500  1
  O  O46  1  0.62736400  0.46465900  0.95823800  1
  O  O47  1  0.55008950  0.24107150  0.14739500  1
  O  O48  1  0.55962600  0.75713800  0.14668300  1
  O  O49  1  0.37263600  0.53534100  0.04176200  1
  O  O50  1  0.68601650  0.99634450  0.83658200  1
  O  O51  1  0.79914050  0.48894150  0.89631500  1
  O  O52  1  0.55008950  0.75892850  0.64739500  1
  O  O53  1  0.55962600  0.24286200  0.64668300  1
  O  O54  1  0.44991050  0.75892850  0.85260500  1
  O  O55  1  0.44037400  0.24286200  0.85331700  1
  O  O56  1  0.81398350  0.49634450  0.66341800  1
  O  O57  1  0.70085950  0.98894150  0.60368500  1
  O  O58  1  0.62736400  0.53534100  0.45823800  1
  O  O59  1  0.44991050  0.24107150  0.35260500  1
  O  O60  1  0.44037400  0.75713800  0.35331700  1
  O  O61  1  0.37263600  0.46465900  0.54176200  1
  O  O62  1  0.29914050  0.01105850  0.39631500  1
  O  O63  1  0.18601650  0.50365550  0.33658200  1
