# generated using pymatgen
data_MnPO4
_symmetry_space_group_name_H-M   'P 1'
_cell_length_a   8.58204303
_cell_length_b   8.58204303
_cell_length_c   21.18300208
_cell_angle_alpha   90.00000000
_cell_angle_beta   90.00000000
_cell_angle_gamma   120.00000000
_symmetry_Int_Tables_number   1
_chemical_formula_structural   MnPO4
_chemical_formula_sum   'Mn18 P18 O72'
_cell_volume   1351.13740081
_cell_formula_units_Z   18
loop_
 _symmetry_equiv_pos_site_id
 _symmetry_equiv_pos_as_xyz
  1  'x, y, z'
loop_
 _atom_site_type_symbol
 _atom_site_label
 _atom_site_symmetry_multiplicity
 _atom_site_fract_x
 _atom_site_fract_y
 _atom_site_fract_z
 _atom_site_occupancy
  Mn  Mn0  1  0.00000000  0.00000000  0.00000000  1
  Mn  Mn1  1  0.33333333  0.66666667  0.02291467  1
  Mn  Mn2  1  0.66666667  0.33333333  0.18958133  1
  Mn  Mn3  1  0.33333333  0.66666667  0.16666667  1
  Mn  Mn4  1  0.00000000  0.00000000  0.14375200  1
  Mn  Mn5  1  0.33333333  0.66666667  0.31041867  1
  Mn  Mn6  1  0.66666667  0.33333333  0.33333333  1
  Mn  Mn7  1  0.00000000  0.00000000  0.35624800  1
  Mn  Mn8  1  0.33333333  0.66666667  0.52291467  1
  Mn  Mn9  1  0.00000000  0.00000000  0.50000000  1
  Mn  Mn10  1  0.66666667  0.33333333  0.47708533  1
  Mn  Mn11  1  0.00000000  0.00000000  0.64375200  1
  Mn  Mn12  1  0.33333333  0.66666667  0.66666667  1
  Mn  Mn13  1  0.66666667  0.33333333  0.68958133  1
  Mn  Mn14  1  0.00000000  0.00000000  0.85624800  1
  Mn  Mn15  1  0.66666667  0.33333333  0.83333333  1
  Mn  Mn16  1  0.33333333  0.66666667  0.81041867  1
  Mn  Mn17  1  0.66666667  0.33333333  0.97708533  1
  P  P18  1  0.37646567  0.04313233  0.08333333  1
  P  P19  1  0.66666667  0.62353433  0.08333333  1
  P  P20  1  0.95686767  0.33333333  0.08333333  1
  P  P21  1  0.70979900  0.00000000  0.25000000  1
  P  P22  1  0.00000000  0.70979900  0.25000000  1
  P  P23  1  0.29020100  0.29020100  0.25000000  1
  P  P24  1  0.04313233  0.37646567  0.41666667  1
  P  P25  1  0.33333333  0.95686767  0.41666667  1
  P  P26  1  0.62353433  0.66666667  0.41666667  1
  P  P27  1  0.37646567  0.33333333  0.58333333  1
  P  P28  1  0.66666667  0.04313233  0.58333333  1
  P  P29  1  0.95686767  0.62353433  0.58333333  1
  P  P30  1  0.70979900  0.70979900  0.75000000  1
  P  P31  1  0.00000000  0.29020100  0.75000000  1
  P  P32  1  0.29020100  0.00000000  0.75000000  1
  P  P33  1  0.04313233  0.66666667  0.91666667  1
  P  P34  1  0.33333333  0.37646567  0.91666667  1
  P  P35  1  0.62353433  0.95686767  0.91666667  1
  O  O36  1  0.67624267  0.53404033  0.02233533  1
  O  O37  1  0.85779767  0.32375733  0.02233533  1
  O  O38  1  0.46595967  0.14220233  0.02233533  1
  O  O39  1  0.18503167  0.02260033  0.07890533  1
  O  O40  1  0.47553567  0.13262633  0.14433133  1
  O  O41  1  0.35593367  0.85169833  0.08776133  1
  O  O42  1  0.83756867  0.81496833  0.07890533  1
  O  O43  1  0.49576467  0.64406633  0.08776133  1
  O  O44  1  0.79929300  0.99042400  0.18900200  1
  O  O45  1  0.14830167  0.50423533  0.08776133  1
  O  O46  1  0.68926700  0.17090200  0.25442800  1
  O  O47  1  0.00957600  0.80886900  0.18900200  1
  O  O48  1  0.65709067  0.52446433  0.14433133  1
  O  O49  1  0.97739967  0.16243133  0.07890533  1
  O  O50  1  0.51836500  0.82909800  0.24557200  1
  O  O51  1  0.86737367  0.34290933  0.14433133  1
  O  O52  1  0.17090200  0.68926700  0.24557200  1
  O  O53  1  0.82909800  0.51836500  0.25442800  1
  O  O54  1  0.31073300  0.48163500  0.24557200  1
  O  O55  1  0.19113100  0.20070700  0.18900200  1
  O  O56  1  0.48163500  0.31073300  0.25442800  1
  O  O57  1  0.20070700  0.19113100  0.31099800  1
  O  O58  1  0.80886900  0.00957600  0.31099800  1
  O  O59  1  0.99042400  0.79929300  0.31099800  1
  O  O60  1  0.34290933  0.86737367  0.35566867  1
  O  O61  1  0.52446433  0.65709067  0.35566867  1
  O  O62  1  0.13262633  0.47553567  0.35566867  1
  O  O63  1  0.85169833  0.35593367  0.41223867  1
  O  O64  1  0.14220233  0.46595967  0.47766467  1
  O  O65  1  0.02260033  0.18503167  0.42109467  1
  O  O66  1  0.50423533  0.14830167  0.41223867  1
  O  O67  1  0.16243133  0.97739967  0.42109467  1
  O  O68  1  0.46595967  0.32375733  0.52233533  1
  O  O69  1  0.81496833  0.83756867  0.42109467  1
  O  O70  1  0.35593367  0.50423533  0.58776133  1
  O  O71  1  0.67624267  0.14220233  0.52233533  1
  O  O72  1  0.32375733  0.85779767  0.47766467  1
  O  O73  1  0.64406633  0.49576467  0.41223867  1
  O  O74  1  0.18503167  0.16243133  0.57890533  1
  O  O75  1  0.53404033  0.67624267  0.47766467  1
  O  O76  1  0.83756867  0.02260033  0.57890533  1
  O  O77  1  0.49576467  0.85169833  0.58776133  1
  O  O78  1  0.97739967  0.81496833  0.57890533  1
  O  O79  1  0.85779767  0.53404033  0.52233533  1
  O  O80  1  0.14830167  0.64406633  0.58776133  1
  O  O81  1  0.86737367  0.52446433  0.64433133  1
  O  O82  1  0.47553567  0.34290933  0.64433133  1
  O  O83  1  0.65709067  0.13262633  0.64433133  1
  O  O84  1  0.00957600  0.20070700  0.68900200  1
  O  O85  1  0.19113100  0.99042400  0.68900200  1
  O  O86  1  0.79929300  0.80886900  0.68900200  1
  O  O87  1  0.51836500  0.68926700  0.74557200  1
  O  O88  1  0.80886900  0.79929300  0.81099800  1
  O  O89  1  0.68926700  0.51836500  0.75442800  1
  O  O90  1  0.17090200  0.48163500  0.74557200  1
  O  O91  1  0.82909800  0.31073300  0.75442800  1
  O  O92  1  0.13262633  0.65709067  0.85566867  1
  O  O93  1  0.48163500  0.17090200  0.75442800  1
  O  O94  1  0.02260033  0.83756867  0.92109467  1
  O  O95  1  0.34290933  0.47553567  0.85566867  1
  O  O96  1  0.99042400  0.19113100  0.81099800  1
  O  O97  1  0.31073300  0.82909800  0.74557200  1
  O  O98  1  0.85169833  0.49576467  0.91223867  1
  O  O99  1  0.20070700  0.00957600  0.81099800  1
  O  O100  1  0.50423533  0.35593367  0.91223867  1
  O  O101  1  0.16243133  0.18503167  0.92109467  1
  O  O102  1  0.64406633  0.14830167  0.91223867  1
  O  O103  1  0.52446433  0.86737367  0.85566867  1
  O  O104  1  0.81496833  0.97739967  0.92109467  1
  O  O105  1  0.53404033  0.85779767  0.97766467  1
  O  O106  1  0.14220233  0.67624267  0.97766467  1
  O  O107  1  0.32375733  0.46595967  0.97766467  1
