# generated using pymatgen
data_Na5V12O32
_symmetry_space_group_name_H-M   'P 1'
_cell_length_a   14.95265200
_cell_length_b   7.29658800
_cell_length_c   12.37662351
_cell_angle_alpha   90.00000000
_cell_angle_beta   107.78025755
_cell_angle_gamma   90.00000000
_symmetry_Int_Tables_number   1
_chemical_formula_structural   Na5V12O32
_chemical_formula_sum   'Na10 V24 O64'
_cell_volume   1285.83197197
_cell_formula_units_Z   2
loop_
 _symmetry_equiv_pos_site_id
 _symmetry_equiv_pos_as_xyz
  1  'x, y, z'
loop_
 _atom_site_type_symbol
 _atom_site_label
 _atom_site_symmetry_multiplicity
 _atom_site_fract_x
 _atom_site_fract_y
 _atom_site_fract_z
 _atom_site_occupancy
  Na  Na0  1  0.62488400  0.50000000  0.31866200  1
  Na  Na1  1  0.62556000  0.00000000  0.31644900  1
  Na  Na2  1  0.62417250  0.24836750  0.68108900  1
  Na  Na3  1  0.62417250  0.75163250  0.68108900  1
  Na  Na4  1  0.59052700  0.50000000  0.94902800  1
  Na  Na5  1  0.12488400  0.00000000  0.31866200  1
  Na  Na6  1  0.12556000  0.50000000  0.31644900  1
  Na  Na7  1  0.12417250  0.74836750  0.68108900  1
  Na  Na8  1  0.12417250  0.25163250  0.68108900  1
  Na  Na9  1  0.09052700  0.00000000  0.94902800  1
  V  V10  1  0.84381300  0.50000000  0.19384500  1
  V  V11  1  0.84175900  0.00000000  0.19216000  1
  V  V12  1  0.80366600  0.24973100  0.53799900  1
  V  V13  1  0.80366600  0.75026900  0.53799900  1
  V  V14  1  0.78233400  0.50000000  0.91966200  1
  V  V15  1  0.77988800  0.00000000  0.92003900  1
  V  V16  1  0.97076700  0.25106000  0.08187300  1
  V  V17  1  0.97076700  0.74894000  0.08187300  1
  V  V18  1  0.94583400  0.00000000  0.46029300  1
  V  V19  1  0.94577300  0.50000000  0.46102900  1
  V  V20  1  0.90468250  0.25053450  0.80539600  1
  V  V21  1  0.90468250  0.74946550  0.80539600  1
  V  V22  1  0.34381300  0.00000000  0.19384500  1
  V  V23  1  0.34175900  0.50000000  0.19216000  1
  V  V24  1  0.30366600  0.74973100  0.53799900  1
  V  V25  1  0.30366600  0.25026900  0.53799900  1
  V  V26  1  0.28233400  0.00000000  0.91966200  1
  V  V27  1  0.27988800  0.50000000  0.92003900  1
  V  V28  1  0.47076700  0.75106000  0.08187300  1
  V  V29  1  0.47076700  0.24894000  0.08187300  1
  V  V30  1  0.44583400  0.50000000  0.46029300  1
  V  V31  1  0.44577300  0.00000000  0.46102900  1
  V  V32  1  0.40468250  0.75053450  0.80539600  1
  V  V33  1  0.40468250  0.24946550  0.80539600  1
  O  O34  1  0.87268600  0.24982000  0.17351400  1
  O  O35  1  0.87268600  0.75018000  0.17351400  1
  O  O36  1  0.74889400  0.50000000  0.04617200  1
  O  O37  1  0.74964800  0.00000000  0.04791000  1
  O  O38  1  0.84317600  0.00000000  0.53677600  1
  O  O39  1  0.84345600  0.50000000  0.53750000  1
  O  O40  1  0.77210000  0.00000000  0.27159900  1
  O  O41  1  0.77132500  0.50000000  0.26964300  1
  O  O42  1  0.78745050  0.75058950  0.67226700  1
  O  O43  1  0.78745050  0.24941050  0.67226700  1
  O  O44  1  0.69703000  0.75004200  0.44627700  1
  O  O45  1  0.69703000  0.24995800  0.44627700  1
  O  O46  1  0.81704500  0.25021800  0.92705900  1
  O  O47  1  0.81704500  0.74978200  0.92705900  1
  O  O48  1  0.57256850  0.25174050  0.18322000  1
  O  O49  1  0.57256850  0.74825950  0.18322000  1
  O  O50  1  0.67783800  0.50000000  0.81982200  1
  O  O51  1  0.67876000  0.00000000  0.81764500  1
  O  O52  1  0.93224400  0.50000000  0.07408600  1
  O  O53  1  0.93459800  0.00000000  0.07309100  1
  O  O54  1  0.55268400  0.50000000  0.55194500  1
  O  O55  1  0.55264600  0.00000000  0.55234200  1
  O  O56  1  0.96174000  0.00000000  0.32608500  1
  O  O57  1  0.96164100  0.50000000  0.32616400  1
  O  O58  1  0.97902000  0.24590100  0.73131100  1
  O  O59  1  0.97902000  0.75409900  0.73131100  1
  O  O60  1  0.90642950  0.25027050  0.46211700  1
  O  O61  1  0.90642950  0.74972950  0.46211700  1
  O  O62  1  0.50096850  0.24905850  0.95436900  1
  O  O63  1  0.50096850  0.75094150  0.95436900  1
  O  O64  1  0.87614200  0.50000000  0.82665500  1
  O  O65  1  0.87826700  0.00000000  0.82824900  1
  O  O66  1  0.37268600  0.74982000  0.17351400  1
  O  O67  1  0.37268600  0.25018000  0.17351400  1
  O  O68  1  0.24889400  0.00000000  0.04617200  1
  O  O69  1  0.24964800  0.50000000  0.04791000  1
  O  O70  1  0.34317600  0.50000000  0.53677600  1
  O  O71  1  0.34345600  0.00000000  0.53750000  1
  O  O72  1  0.27210000  0.50000000  0.27159900  1
  O  O73  1  0.27132500  0.00000000  0.26964300  1
  O  O74  1  0.28745050  0.25058950  0.67226700  1
  O  O75  1  0.28745050  0.74941050  0.67226700  1
  O  O76  1  0.19703000  0.25004200  0.44627700  1
  O  O77  1  0.19703000  0.74995800  0.44627700  1
  O  O78  1  0.31704500  0.75021800  0.92705900  1
  O  O79  1  0.31704500  0.24978200  0.92705900  1
  O  O80  1  0.07256850  0.75174050  0.18322000  1
  O  O81  1  0.07256850  0.24825950  0.18322000  1
  O  O82  1  0.17783800  0.00000000  0.81982200  1
  O  O83  1  0.17876000  0.50000000  0.81764500  1
  O  O84  1  0.43224400  0.00000000  0.07408600  1
  O  O85  1  0.43459800  0.50000000  0.07309100  1
  O  O86  1  0.05268400  0.00000000  0.55194500  1
  O  O87  1  0.05264600  0.50000000  0.55234200  1
  O  O88  1  0.46174000  0.50000000  0.32608500  1
  O  O89  1  0.46164100  0.00000000  0.32616400  1
  O  O90  1  0.47902000  0.74590100  0.73131100  1
  O  O91  1  0.47902000  0.25409900  0.73131100  1
  O  O92  1  0.40642950  0.75027050  0.46211700  1
  O  O93  1  0.40642950  0.24972950  0.46211700  1
  O  O94  1  0.00096850  0.74905850  0.95436900  1
  O  O95  1  0.00096850  0.25094150  0.95436900  1
  O  O96  1  0.37614200  0.00000000  0.82665500  1
  O  O97  1  0.37826700  0.50000000  0.82824900  1
