# generated using pymatgen
data_Li6CrO6
_symmetry_space_group_name_H-M   'P 1'
_cell_length_a   9.82683200
_cell_length_b   5.61539200
_cell_length_c   10.90349245
_cell_angle_alpha   90.00000000
_cell_angle_beta   91.04672176
_cell_angle_gamma   90.00000000
_symmetry_Int_Tables_number   1
_chemical_formula_structural   Li6CrO6
_chemical_formula_sum   'Li24 Cr4 O24'
_cell_volume   601.57081907
_cell_formula_units_Z   4
loop_
 _symmetry_equiv_pos_site_id
 _symmetry_equiv_pos_as_xyz
  1  'x, y, z'
loop_
 _atom_site_type_symbol
 _atom_site_label
 _atom_site_symmetry_multiplicity
 _atom_site_fract_x
 _atom_site_fract_y
 _atom_site_fract_z
 _atom_site_occupancy
  Li  Li0  1  0.67902850  0.29449850  0.73366100  1
  Li  Li1  1  0.69175350  0.30647650  0.14770400  1
  Li  Li2  1  0.67902850  0.70550150  0.23366100  1
  Li  Li3  1  0.85214650  0.14493450  0.25785600  1
  Li  Li4  1  0.69175350  0.69352350  0.64770400  1
  Li  Li5  1  0.82740750  0.49814950  0.40981000  1
  Li  Li6  1  0.66433450  0.98111350  0.91003800  1
  Li  Li7  1  0.82740750  0.50185050  0.90981000  1
  Li  Li8  1  0.66433450  0.01888650  0.41003800  1
  Li  Li9  1  0.98570500  0.37652300  0.73133100  1
  Li  Li10  1  0.85214650  0.85506550  0.75785600  1
  Li  Li11  1  0.98570500  0.62347700  0.23133100  1
  Li  Li12  1  0.17902850  0.79449850  0.73366100  1
  Li  Li13  1  0.19175350  0.80647650  0.14770400  1
  Li  Li14  1  0.17902850  0.20550150  0.23366100  1
  Li  Li15  1  0.35214650  0.64493450  0.25785600  1
  Li  Li16  1  0.19175350  0.19352350  0.64770400  1
  Li  Li17  1  0.32740750  0.99814950  0.40981000  1
  Li  Li18  1  0.16433450  0.48111350  0.91003800  1
  Li  Li19  1  0.32740750  0.00185050  0.90981000  1
  Li  Li20  1  0.16433450  0.51888650  0.41003800  1
  Li  Li21  1  0.48570500  0.87652300  0.73133100  1
  Li  Li22  1  0.35214650  0.35506550  0.75785600  1
  Li  Li23  1  0.48570500  0.12347700  0.23133100  1
  Cr  Cr24  1  0.50091650  0.49943450  0.50158900  1
  Cr  Cr25  1  0.50091650  0.50056550  0.00158900  1
  Cr  Cr26  1  0.00091650  0.99943450  0.50158900  1
  Cr  Cr27  1  0.00091650  0.00056550  0.00158900  1
  O  O28  1  0.64268600  0.35402800  0.95764400  1
  O  O29  1  0.64268600  0.64597200  0.45764400  1
  O  O30  1  0.86163550  0.14154050  0.44922400  1
  O  O31  1  0.81947250  0.48180750  0.23769800  1
  O  O32  1  0.66823500  0.97177600  0.73796800  1
  O  O33  1  0.50703300  0.49728200  0.15513800  1
  O  O34  1  0.50703300  0.50271800  0.65513800  1
  O  O35  1  0.81947250  0.51819250  0.73769800  1
  O  O36  1  0.66823500  0.02822400  0.23796800  1
  O  O37  1  0.99818000  0.27911900  0.94789000  1
  O  O38  1  0.86163550  0.85845950  0.94922400  1
  O  O39  1  0.99818000  0.72088100  0.44789000  1
  O  O40  1  0.14268600  0.85402800  0.95764400  1
  O  O41  1  0.14268600  0.14597200  0.45764400  1
  O  O42  1  0.36163550  0.64154050  0.44922400  1
  O  O43  1  0.31947250  0.98180750  0.23769800  1
  O  O44  1  0.16823500  0.47177600  0.73796800  1
  O  O45  1  0.00703300  0.99728200  0.15513800  1
  O  O46  1  0.00703300  0.00271800  0.65513800  1
  O  O47  1  0.31947250  0.01819250  0.73769800  1
  O  O48  1  0.16823500  0.52822400  0.23796800  1
  O  O49  1  0.49818000  0.77911900  0.94789000  1
  O  O50  1  0.36163550  0.35845950  0.94922400  1
  O  O51  1  0.49818000  0.22088100  0.44789000  1
