# generated using pymatgen
data_Ba2Nb8O11
_symmetry_space_group_name_H-M   'P 1'
_cell_length_a   6.00410000
_cell_length_b   6.00410000
_cell_length_c   16.51155200
_cell_angle_alpha   90.00000000
_cell_angle_beta   90.00000000
_cell_angle_gamma   90.00000000
_symmetry_Int_Tables_number   1
_chemical_formula_structural   Ba2Nb8O11
_chemical_formula_sum   'Ba4 Nb16 O22'
_cell_volume   595.22851792
_cell_formula_units_Z   2
loop_
 _symmetry_equiv_pos_site_id
 _symmetry_equiv_pos_as_xyz
  1  'x, y, z'
loop_
 _atom_site_type_symbol
 _atom_site_label
 _atom_site_symmetry_multiplicity
 _atom_site_fract_x
 _atom_site_fract_y
 _atom_site_fract_z
 _atom_site_occupancy
  Ba  Ba0  1  0.00000000  0.50000000  0.00000000  1
  Ba  Ba1  1  0.50000000  0.00000000  0.00000000  1
  Ba  Ba2  1  0.50000000  0.00000000  0.50000000  1
  Ba  Ba3  1  0.00000000  0.50000000  0.50000000  1
  Nb  Nb4  1  0.25000000  0.75000000  0.25000000  1
  Nb  Nb5  1  0.75000000  0.75000000  0.25000000  1
  Nb  Nb6  1  0.25000000  0.25000000  0.25000000  1
  Nb  Nb7  1  0.00000000  0.00000000  0.12686500  1
  Nb  Nb8  1  0.50000000  0.50000000  0.12665200  1
  Nb  Nb9  1  0.75000000  0.25000000  0.25000000  1
  Nb  Nb10  1  0.50000000  0.50000000  0.37313500  1
  Nb  Nb11  1  0.00000000  0.00000000  0.37334800  1
  Nb  Nb12  1  0.75000000  0.25000000  0.75000000  1
  Nb  Nb13  1  0.25000000  0.25000000  0.75000000  1
  Nb  Nb14  1  0.75000000  0.75000000  0.75000000  1
  Nb  Nb15  1  0.50000000  0.50000000  0.62686500  1
  Nb  Nb16  1  0.00000000  0.00000000  0.62665200  1
  Nb  Nb17  1  0.25000000  0.75000000  0.75000000  1
  Nb  Nb18  1  0.00000000  0.00000000  0.87313500  1
  Nb  Nb19  1  0.50000000  0.50000000  0.87334800  1
  O  O20  1  0.50000000  0.50000000  0.00000000  1
  O  O21  1  0.24918450  0.75081550  0.12084250  1
  O  O22  1  0.75081550  0.75081550  0.12084250  1
  O  O23  1  0.50000000  0.00000000  0.25000000  1
  O  O24  1  0.24918450  0.24918450  0.12084250  1
  O  O25  1  0.74918450  0.25081550  0.37915750  1
  O  O26  1  0.75081550  0.24918450  0.12084250  1
  O  O27  1  0.00000000  0.50000000  0.25000000  1
  O  O28  1  0.74918450  0.74918450  0.37915750  1
  O  O29  1  0.25081550  0.25081550  0.37915750  1
  O  O30  1  0.25081550  0.74918450  0.37915750  1
  O  O31  1  0.00000000  0.00000000  0.50000000  1
  O  O32  1  0.74918450  0.25081550  0.62084250  1
  O  O33  1  0.25081550  0.25081550  0.62084250  1
  O  O34  1  0.00000000  0.50000000  0.75000000  1
  O  O35  1  0.74918450  0.74918450  0.62084250  1
  O  O36  1  0.24918450  0.75081550  0.87915750  1
  O  O37  1  0.25081550  0.74918450  0.62084250  1
  O  O38  1  0.50000000  0.00000000  0.75000000  1
  O  O39  1  0.24918450  0.24918450  0.87915750  1
  O  O40  1  0.75081550  0.75081550  0.87915750  1
  O  O41  1  0.75081550  0.24918450  0.87915750  1
