# generated using pymatgen
data_Na5Co2As(CO4)4
_symmetry_space_group_name_H-M   'P 1'
_cell_length_a   14.06154600
_cell_length_b   14.24922000
_cell_length_c   9.90830843
_cell_angle_alpha   90.00000000
_cell_angle_beta   134.72435698
_cell_angle_gamma   90.00000000
_symmetry_Int_Tables_number   1
_chemical_formula_structural   Na5Co2As(CO4)4
_chemical_formula_sum   'Na20 Co8 As4 C16 O64'
_cell_volume   1410.54842761
_cell_formula_units_Z   4
loop_
 _symmetry_equiv_pos_site_id
 _symmetry_equiv_pos_as_xyz
  1  'x, y, z'
loop_
 _atom_site_type_symbol
 _atom_site_label
 _atom_site_symmetry_multiplicity
 _atom_site_fract_x
 _atom_site_fract_y
 _atom_site_fract_z
 _atom_site_occupancy
  Na  Na0  1  0.00000000  0.08725800  0.75000000  1
  Na  Na1  1  0.72136600  0.37328600  0.17941900  1
  Na  Na2  1  0.72119500  0.37328700  0.76234400  1
  Na  Na3  1  0.22136600  0.12671400  0.67941900  1
  Na  Na4  1  0.27880500  0.37328700  0.73765600  1
  Na  Na5  1  0.22119500  0.12671300  0.26234400  1
  Na  Na6  1  0.27863400  0.37328600  0.32058100  1
  Na  Na7  1  0.77880500  0.12671300  0.23765600  1
  Na  Na8  1  0.77863400  0.12671400  0.82058100  1
  Na  Na9  1  0.50000000  0.41274200  0.25000000  1
  Na  Na10  1  0.50000000  0.58725800  0.75000000  1
  Na  Na11  1  0.22136600  0.87328600  0.17941900  1
  Na  Na12  1  0.22119500  0.87328700  0.76234400  1
  Na  Na13  1  0.72136600  0.62671400  0.67941900  1
  Na  Na14  1  0.77880500  0.87328700  0.73765600  1
  Na  Na15  1  0.72119500  0.62671300  0.26234400  1
  Na  Na16  1  0.77863400  0.87328600  0.32058100  1
  Na  Na17  1  0.27880500  0.62671300  0.23765600  1
  Na  Na18  1  0.27863400  0.62671400  0.82058100  1
  Na  Na19  1  0.00000000  0.91274200  0.25000000  1
  Co  Co20  1  0.25000000  0.25000000  0.00000000  1
  Co  Co21  1  0.50000000  0.00000000  0.50000000  1
  Co  Co22  1  0.50000000  0.00000000  0.00000000  1
  Co  Co23  1  0.75000000  0.25000000  0.50000000  1
  Co  Co24  1  0.75000000  0.75000000  0.00000000  1
  Co  Co25  1  0.00000000  0.50000000  0.50000000  1
  Co  Co26  1  0.00000000  0.50000000  0.00000000  1
  Co  Co27  1  0.25000000  0.75000000  0.50000000  1
  As  As28  1  0.00000000  0.12787700  0.25000000  1
  As  As29  1  0.50000000  0.37212300  0.75000000  1
  As  As30  1  0.50000000  0.62787700  0.25000000  1
  As  As31  1  0.00000000  0.87212300  0.75000000  1
  C  C32  1  0.00020200  0.28652500  0.57392700  1
  C  C33  1  0.32040050  0.03741750  0.06918700  1
  C  C34  1  0.67959950  0.03741750  0.43081300  1
  C  C35  1  0.50020200  0.21347500  0.07392700  1
  C  C36  1  0.99979800  0.28652500  0.92607300  1
  C  C37  1  0.82040050  0.46258250  0.56918700  1
  C  C38  1  0.17959950  0.46258250  0.93081300  1
  C  C39  1  0.49979800  0.21347500  0.42607300  1
  C  C40  1  0.50020200  0.78652500  0.57392700  1
  C  C41  1  0.82040050  0.53741750  0.06918700  1
  C  C42  1  0.17959950  0.53741750  0.43081300  1
  C  C43  1  0.00020200  0.71347500  0.07392700  1
  C  C44  1  0.49979800  0.78652500  0.92607300  1
  C  C45  1  0.32040050  0.96258250  0.56918700  1
  C  C46  1  0.67959950  0.96258250  0.93081300  1
  C  C47  1  0.99979800  0.71347500  0.42607300  1
  O  O48  1  0.91416850  0.22721550  0.53859000  1
  O  O49  1  0.33309550  0.02059150  0.20982300  1
  O  O50  1  0.95768850  0.35900150  0.46634000  1
  O  O51  1  0.24553850  0.10704750  0.95443000  1
  O  O52  1  0.12769700  0.26948500  0.71166100  1
  O  O53  1  0.00083550  0.05670250  0.39251000  1
  O  O54  1  0.85407550  0.19159750  0.10522700  1
  O  O55  1  0.87398100  0.48247100  0.03391300  1
  O  O56  1  0.41416850  0.27278450  0.03859000  1
  O  O57  1  0.12601900  0.48247100  0.46608700  1
  O  O58  1  0.99916450  0.05670250  0.10749000  1
  O  O59  1  0.14592450  0.19159750  0.39477300  1
  O  O60  1  0.87230300  0.26948500  0.78833900  1
  O  O61  1  0.83309550  0.47940850  0.70982300  1
  O  O62  1  0.75446150  0.10704750  0.54557000  1
  O  O63  1  0.45768850  0.14099850  0.96634000  1
  O  O64  1  0.74553850  0.39295250  0.45443000  1
  O  O65  1  0.04231150  0.35900150  0.03366000  1
  O  O66  1  0.66690450  0.02059150  0.29017700  1
  O  O67  1  0.62769700  0.23051500  0.21166100  1
  O  O68  1  0.35407550  0.30840250  0.60522700  1
  O  O69  1  0.50083550  0.44329750  0.89251000  1
  O  O70  1  0.08583150  0.22721550  0.96141000  1
  O  O71  1  0.37398100  0.01752900  0.53391300  1
  O  O72  1  0.62601900  0.01752900  0.96608700  1
  O  O73  1  0.49916450  0.44329750  0.60749000  1
  O  O74  1  0.64592450  0.30840250  0.89477300  1
  O  O75  1  0.37230300  0.23051500  0.28833900  1
  O  O76  1  0.25446150  0.39295250  0.04557000  1
  O  O77  1  0.54231150  0.14099850  0.53366000  1
  O  O78  1  0.16690450  0.47940850  0.79017700  1
  O  O79  1  0.58583150  0.27278450  0.46141000  1
  O  O80  1  0.41416850  0.72721550  0.53859000  1
  O  O81  1  0.83309550  0.52059150  0.20982300  1
  O  O82  1  0.45768850  0.85900150  0.46634000  1
  O  O83  1  0.74553850  0.60704750  0.95443000  1
  O  O84  1  0.62769700  0.76948500  0.71166100  1
  O  O85  1  0.50083550  0.55670250  0.39251000  1
  O  O86  1  0.35407550  0.69159750  0.10522700  1
  O  O87  1  0.37398100  0.98247100  0.03391300  1
  O  O88  1  0.91416850  0.77278450  0.03859000  1
  O  O89  1  0.62601900  0.98247100  0.46608700  1
  O  O90  1  0.49916450  0.55670250  0.10749000  1
  O  O91  1  0.64592450  0.69159750  0.39477300  1
  O  O92  1  0.37230300  0.76948500  0.78833900  1
  O  O93  1  0.33309550  0.97940850  0.70982300  1
  O  O94  1  0.25446150  0.60704750  0.54557000  1
  O  O95  1  0.95768850  0.64099850  0.96634000  1
  O  O96  1  0.24553850  0.89295250  0.45443000  1
  O  O97  1  0.54231150  0.85900150  0.03366000  1
  O  O98  1  0.16690450  0.52059150  0.29017700  1
  O  O99  1  0.12769700  0.73051500  0.21166100  1
  O  O100  1  0.85407550  0.80840250  0.60522700  1
  O  O101  1  0.00083550  0.94329750  0.89251000  1
  O  O102  1  0.58583150  0.72721550  0.96141000  1
  O  O103  1  0.87398100  0.51752900  0.53391300  1
  O  O104  1  0.12601900  0.51752900  0.96608700  1
  O  O105  1  0.99916450  0.94329750  0.60749000  1
  O  O106  1  0.14592450  0.80840250  0.89477300  1
  O  O107  1  0.87230300  0.73051500  0.28833900  1
  O  O108  1  0.75446150  0.89295250  0.04557000  1
  O  O109  1  0.04231150  0.64099850  0.53366000  1
  O  O110  1  0.66690450  0.97940850  0.79017700  1
  O  O111  1  0.08583150  0.77278450  0.46141000  1
