# generated using pymatgen
data_LiVF6
_symmetry_space_group_name_H-M   'P 1'
_cell_length_a   9.21163500
_cell_length_b   9.38823000
_cell_length_c   15.62011393
_cell_angle_alpha   90.00000000
_cell_angle_beta   125.74429932
_cell_angle_gamma   90.00000000
_symmetry_Int_Tables_number   1
_chemical_formula_structural   LiVF6
_chemical_formula_sum   'Li8 V8 F48'
_cell_volume   1096.38695253
_cell_formula_units_Z   8
loop_
 _symmetry_equiv_pos_site_id
 _symmetry_equiv_pos_as_xyz
  1  'x, y, z'
loop_
 _atom_site_type_symbol
 _atom_site_label
 _atom_site_symmetry_multiplicity
 _atom_site_fract_x
 _atom_site_fract_y
 _atom_site_fract_z
 _atom_site_occupancy
  Li  Li0  1  0.74686500  0.86990200  0.85395900  1
  Li  Li1  1  0.03719100  0.13041200  0.14095900  1
  Li  Li2  1  0.25015500  0.37324400  0.64633400  1
  Li  Li3  1  0.53518100  0.49860200  0.00720800  1
  Li  Li4  1  0.03719100  0.86958800  0.64095900  1
  Li  Li5  1  0.74686500  0.13009800  0.35395900  1
  Li  Li6  1  0.25015500  0.62675600  0.14633400  1
  Li  Li7  1  0.53518100  0.50139800  0.50720800  1
  V  V8  1  0.37067300  0.71990800  0.61357900  1
  V  V9  1  0.62720000  0.21660100  0.88222000  1
  V  V10  1  0.12998300  0.28096600  0.38119800  1
  V  V11  1  0.86735900  0.78154400  0.12121300  1
  V  V12  1  0.12998300  0.71903400  0.88119800  1
  V  V13  1  0.86735900  0.21845600  0.62121300  1
  V  V14  1  0.37067300  0.28009200  0.11357900  1
  V  V15  1  0.62720000  0.78339900  0.38222000  1
  F  F16  1  0.52214500  0.59333000  0.61227300  1
  F  F17  1  0.77878000  0.33375500  0.88192100  1
  F  F18  1  0.33211300  0.38303600  0.42462800  1
  F  F19  1  0.06817700  0.67798900  0.16069400  1
  F  F20  1  0.45342400  0.86134000  0.57912400  1
  F  F21  1  0.70168600  0.06910400  0.83978900  1
  F  F22  1  0.83449500  0.81714100  0.99368700  1
  F  F23  1  0.09398000  0.24678600  0.25462800  1
  F  F24  1  0.00724500  0.94210500  0.17275200  1
  F  F25  1  0.25984700  0.12236800  0.43466600  1
  F  F26  1  0.54483800  0.75888900  0.75414900  1
  F  F27  1  0.80376700  0.17706400  0.02149000  1
  F  F28  1  0.19968100  0.67692300  0.48083300  1
  F  F29  1  0.45274500  0.25993600  0.74413000  1
  F  F30  1  0.73671600  0.61768800  0.06355100  1
  F  F31  1  0.99670400  0.43702200  0.32755900  1
  F  F32  1  0.90719300  0.74693800  0.24410000  1
  F  F33  1  0.16759300  0.31718100  0.50817000  1
  F  F34  1  0.30104400  0.57103000  0.66032700  1
  F  F35  1  0.54626800  0.36299100  0.92213600  1
  F  F36  1  0.21627600  0.83721700  0.61853400  1
  F  F37  1  0.48126700  0.09704300  0.88648600  1
  F  F38  1  0.92956900  0.17675000  0.33817600  1
  F  F39  1  0.67151900  0.88056800  0.07592500  1
  F  F40  1  0.33211300  0.61696400  0.92462800  1
  F  F41  1  0.06817700  0.32201100  0.66069400  1
  F  F42  1  0.52214500  0.40667000  0.11227300  1
  F  F43  1  0.77878000  0.66624500  0.38192100  1
  F  F44  1  0.45342400  0.13866000  0.07912400  1
  F  F45  1  0.70168600  0.93089600  0.33978900  1
  F  F46  1  0.83449500  0.18285900  0.49368700  1
  F  F47  1  0.09398000  0.75321400  0.75462800  1
  F  F48  1  0.00724500  0.05789500  0.67275200  1
  F  F49  1  0.25984700  0.87763200  0.93466600  1
  F  F50  1  0.54483800  0.24111100  0.25414900  1
  F  F51  1  0.80376700  0.82293600  0.52149000  1
  F  F52  1  0.19968100  0.32307700  0.98083300  1
  F  F53  1  0.45274500  0.74006400  0.24413000  1
  F  F54  1  0.73671600  0.38231200  0.56355100  1
  F  F55  1  0.99670400  0.56297800  0.82755900  1
  F  F56  1  0.90719300  0.25306200  0.74410000  1
  F  F57  1  0.16759300  0.68281900  0.00817000  1
  F  F58  1  0.30104400  0.42897000  0.16032700  1
  F  F59  1  0.54626800  0.63700900  0.42213600  1
  F  F60  1  0.92956900  0.82325000  0.83817600  1
  F  F61  1  0.67151900  0.11943200  0.57592500  1
  F  F62  1  0.21627600  0.16278300  0.11853400  1
  F  F63  1  0.48126700  0.90295700  0.38648600  1
