# generated using pymatgen
data_LiMn(PO4)2
_symmetry_space_group_name_H-M   'P 1'
_cell_length_a   9.38472846
_cell_length_b   8.12581265
_cell_length_c   9.01609534
_cell_angle_alpha   90.00000000
_cell_angle_beta   117.76573127
_cell_angle_gamma   90.00000000
_symmetry_Int_Tables_number   1
_chemical_formula_structural   LiMn(PO4)2
_chemical_formula_sum   'Li4 Mn4 P8 O32'
_cell_volume   608.38914858
_cell_formula_units_Z   4
loop_
 _symmetry_equiv_pos_site_id
 _symmetry_equiv_pos_as_xyz
  1  'x, y, z'
loop_
 _atom_site_type_symbol
 _atom_site_label
 _atom_site_symmetry_multiplicity
 _atom_site_fract_x
 _atom_site_fract_y
 _atom_site_fract_z
 _atom_site_occupancy
  Li  Li0  1  0.88871250  0.27335850  0.50833300  1
  Li  Li1  1  0.88871250  0.72664150  0.00833300  1
  Li  Li2  1  0.38871250  0.77335850  0.50833300  1
  Li  Li3  1  0.38871250  0.22664150  0.00833300  1
  Mn  Mn4  1  0.49798200  0.64931900  0.24745600  1
  Mn  Mn5  1  0.49798200  0.35068100  0.74745600  1
  Mn  Mn6  1  0.99798200  0.14931900  0.24745600  1
  Mn  Mn7  1  0.99798200  0.85068100  0.74745600  1
  P  P8  1  0.72575650  0.56133350  0.64535600  1
  P  P9  1  0.72575650  0.43866650  0.14535600  1
  P  P10  1  0.27479800  0.56645700  0.84995200  1
  P  P11  1  0.27479800  0.43354300  0.34995200  1
  P  P12  1  0.22575650  0.06133350  0.64535600  1
  P  P13  1  0.22575650  0.93866650  0.14535600  1
  P  P14  1  0.77479800  0.06645700  0.84995200  1
  P  P15  1  0.77479800  0.93354300  0.34995200  1
  O  O16  1  0.38849300  0.66579000  0.00772400  1
  O  O17  1  0.14732900  0.00868000  0.75655500  1
  O  O18  1  0.81407800  0.42736500  0.60922900  1
  O  O19  1  0.64732900  0.49132000  0.25655500  1
  O  O20  1  0.09223150  0.15610550  0.49263500  1
  O  O21  1  0.85026150  0.30842150  0.26623500  1
  O  O22  1  0.22796050  0.39902050  0.89518800  1
  O  O23  1  0.35026150  0.19157850  0.76623500  1
  O  O24  1  0.62870500  0.82704900  0.23823100  1
  O  O25  1  0.81407800  0.57263500  0.10922900  1
  O  O26  1  0.12870500  0.67295100  0.73823100  1
  O  O27  1  0.88849300  0.83421000  0.50772400  1
  O  O28  1  0.35848900  0.52957300  0.73879900  1
  O  O29  1  0.22796050  0.60097950  0.39518800  1
  O  O30  1  0.85848900  0.97042700  0.23879900  1
  O  O31  1  0.59223150  0.34389450  0.99263500  1
  O  O32  1  0.88849300  0.16579000  0.00772400  1
  O  O33  1  0.64732900  0.50868000  0.75655500  1
  O  O34  1  0.31407800  0.92736500  0.60922900  1
  O  O35  1  0.14732900  0.99132000  0.25655500  1
  O  O36  1  0.59223150  0.65610550  0.49263500  1
  O  O37  1  0.35026150  0.80842150  0.26623500  1
  O  O38  1  0.72796050  0.89902050  0.89518800  1
  O  O39  1  0.85026150  0.69157850  0.76623500  1
  O  O40  1  0.12870500  0.32704900  0.23823100  1
  O  O41  1  0.31407800  0.07263500  0.10922900  1
  O  O42  1  0.62870500  0.17295100  0.73823100  1
  O  O43  1  0.38849300  0.33421000  0.50772400  1
  O  O44  1  0.85848900  0.02957300  0.73879900  1
  O  O45  1  0.72796050  0.10097950  0.39518800  1
  O  O46  1  0.35848900  0.47042700  0.23879900  1
  O  O47  1  0.09223150  0.84389450  0.99263500  1
