# generated using pymatgen
data_VOF
_symmetry_space_group_name_H-M   'P 1'
_cell_length_a   5.22628136
_cell_length_b   4.67496100
_cell_length_c   5.71342155
_cell_angle_alpha   90.00000000
_cell_angle_beta   92.37571958
_cell_angle_gamma   90.00000000
_symmetry_Int_Tables_number   1
_chemical_formula_structural   VOF
_chemical_formula_sum   'V4 O4 F4'
_cell_volume   139.47411186
_cell_formula_units_Z   4
loop_
 _symmetry_equiv_pos_site_id
 _symmetry_equiv_pos_as_xyz
  1  'x, y, z'
loop_
 _atom_site_type_symbol
 _atom_site_label
 _atom_site_symmetry_multiplicity
 _atom_site_fract_x
 _atom_site_fract_y
 _atom_site_fract_z
 _atom_site_occupancy
  V  V0  1  0.72308250  0.48154300  0.34394450  1
  V  V1  1  0.72308250  0.01845700  0.84394450  1
  V  V2  1  0.27691750  0.98154300  0.15605550  1
  V  V3  1  0.27691750  0.51845700  0.65605550  1
  O  O4  1  0.58136650  0.21996600  0.12062050  1
  O  O5  1  0.58136650  0.28003400  0.62062050  1
  O  O6  1  0.41863350  0.71996600  0.37937950  1
  O  O7  1  0.41863350  0.78003400  0.87937950  1
  F  F8  1  0.91762650  0.76882100  0.11243950  1
  F  F9  1  0.91762650  0.73117900  0.61243950  1
  F  F10  1  0.08237350  0.26882100  0.38756050  1
  F  F11  1  0.08237350  0.23117900  0.88756050  1
