# generated using pymatgen
data_Li4TiCrO6
_symmetry_space_group_name_H-M   'P 1'
_cell_length_a   5.05581123
_cell_length_b   8.78607900
_cell_length_c   19.39852374
_cell_angle_alpha   90.00000000
_cell_angle_beta   94.94086560
_cell_angle_gamma   90.00000000
_symmetry_Int_Tables_number   1
_chemical_formula_structural   Li4TiCrO6
_chemical_formula_sum   'Li32 Ti8 Cr8 O48'
_cell_volume   858.49514381
_cell_formula_units_Z   8
loop_
 _symmetry_equiv_pos_site_id
 _symmetry_equiv_pos_as_xyz
  1  'x, y, z'
loop_
 _atom_site_type_symbol
 _atom_site_label
 _atom_site_symmetry_multiplicity
 _atom_site_fract_x
 _atom_site_fract_y
 _atom_site_fract_z
 _atom_site_occupancy
  Li  Li0  1  0.25000000  0.25000000  0.00000000  1
  Li  Li1  1  0.13125300  0.24553000  0.62472050  1
  Li  Li2  1  0.00000000  0.40608300  0.75000000  1
  Li  Li3  1  0.75000000  0.25000000  0.50000000  1
  Li  Li4  1  0.63125300  0.25447000  0.12472050  1
  Li  Li5  1  0.50000000  0.25018800  0.75000000  1
  Li  Li6  1  0.50000000  0.40871300  0.25000000  1
  Li  Li7  1  0.00000000  0.24981200  0.25000000  1
  Li  Li8  1  0.24493900  0.08658500  0.49983950  1
  Li  Li9  1  0.74493900  0.41341500  0.99983950  1
  Li  Li10  1  0.75506100  0.08658500  0.00016050  1
  Li  Li11  1  0.25506100  0.41341500  0.50016050  1
  Li  Li12  1  0.00000000  0.09128700  0.75000000  1
  Li  Li13  1  0.86874700  0.24553000  0.87527950  1
  Li  Li14  1  0.50000000  0.09391700  0.25000000  1
  Li  Li15  1  0.36874700  0.25447000  0.37527950  1
  Li  Li16  1  0.75000000  0.75000000  0.00000000  1
  Li  Li17  1  0.63125300  0.74553000  0.62472050  1
  Li  Li18  1  0.50000000  0.90608300  0.75000000  1
  Li  Li19  1  0.25000000  0.75000000  0.50000000  1
  Li  Li20  1  0.13125300  0.75447000  0.12472050  1
  Li  Li21  1  0.00000000  0.75018800  0.75000000  1
  Li  Li22  1  0.00000000  0.90871300  0.25000000  1
  Li  Li23  1  0.50000000  0.74981200  0.25000000  1
  Li  Li24  1  0.74493900  0.58658500  0.49983950  1
  Li  Li25  1  0.24493900  0.91341500  0.99983950  1
  Li  Li26  1  0.25506100  0.58658500  0.00016050  1
  Li  Li27  1  0.75506100  0.91341500  0.50016050  1
  Li  Li28  1  0.50000000  0.59128700  0.75000000  1
  Li  Li29  1  0.36874700  0.74553000  0.87527950  1
  Li  Li30  1  0.00000000  0.59391700  0.25000000  1
  Li  Li31  1  0.86874700  0.75447000  0.37527950  1
  Ti  Ti32  1  0.37557200  0.08026400  0.87503250  1
  Ti  Ti33  1  0.87557200  0.41973600  0.37503250  1
  Ti  Ti34  1  0.62442800  0.08026400  0.62496750  1
  Ti  Ti35  1  0.12442800  0.41973600  0.12496750  1
  Ti  Ti36  1  0.87557200  0.58026400  0.87503250  1
  Ti  Ti37  1  0.37557200  0.91973600  0.37503250  1
  Ti  Ti38  1  0.12442800  0.58026400  0.62496750  1
  Ti  Ti39  1  0.62442800  0.91973600  0.12496750  1
  Cr  Cr40  1  0.87550950  0.08003550  0.37488150  1
  Cr  Cr41  1  0.37550950  0.41996450  0.87488150  1
  Cr  Cr42  1  0.12449050  0.08003550  0.12511850  1
  Cr  Cr43  1  0.62449050  0.41996450  0.62511850  1
  Cr  Cr44  1  0.37550950  0.58003550  0.37488150  1
  Cr  Cr45  1  0.87550950  0.91996450  0.87488150  1
  Cr  Cr46  1  0.62449050  0.58003550  0.12511850  1
  Cr  Cr47  1  0.12449050  0.91996450  0.62511850  1
  O  O48  1  0.21425600  0.24554200  0.81657450  1
  O  O49  1  0.53944050  0.24942950  0.93193150  1
  O  O50  1  0.71809200  0.24282300  0.31752050  1
  O  O51  1  0.92400750  0.42354350  0.56864450  1
  O  O52  1  0.07599250  0.42354350  0.93135550  1
  O  O53  1  0.03944050  0.25057050  0.43193150  1
  O  O54  1  0.32765200  0.06897600  0.68207250  1
  O  O55  1  0.43053650  0.42300150  0.06796250  1
  O  O56  1  0.56946350  0.42300150  0.43203750  1
  O  O57  1  0.33011300  0.42305000  0.68068950  1
  O  O58  1  0.67234800  0.06897600  0.81792750  1
  O  O59  1  0.83011300  0.07695000  0.18068950  1
  O  O60  1  0.66988700  0.42305000  0.81931050  1
  O  O61  1  0.82765200  0.43102400  0.18207250  1
  O  O62  1  0.16988700  0.07695000  0.31931050  1
  O  O63  1  0.93053650  0.07699850  0.56796250  1
  O  O64  1  0.06946350  0.07699850  0.93203750  1
  O  O65  1  0.17234800  0.43102400  0.31792750  1
  O  O66  1  0.46055950  0.24942950  0.56806850  1
  O  O67  1  0.42400750  0.07645650  0.06864450  1
  O  O68  1  0.57599250  0.07645650  0.43135550  1
  O  O69  1  0.78574400  0.24554200  0.68342550  1
  O  O70  1  0.96055950  0.25057050  0.06806850  1
  O  O71  1  0.28574400  0.25445800  0.18342550  1
  O  O72  1  0.71425600  0.74554200  0.81657450  1
  O  O73  1  0.03944050  0.74942950  0.93193150  1
  O  O74  1  0.21809200  0.74282300  0.31752050  1
  O  O75  1  0.42400750  0.92354350  0.56864450  1
  O  O76  1  0.57599250  0.92354350  0.93135550  1
  O  O77  1  0.53944050  0.75057050  0.43193150  1
  O  O78  1  0.82765200  0.56897600  0.68207250  1
  O  O79  1  0.93053650  0.92300150  0.06796250  1
  O  O80  1  0.06946350  0.92300150  0.43203750  1
  O  O81  1  0.83011300  0.92305000  0.68068950  1
  O  O82  1  0.17234800  0.56897600  0.81792750  1
  O  O83  1  0.33011300  0.57695000  0.18068950  1
  O  O84  1  0.16988700  0.92305000  0.81931050  1
  O  O85  1  0.32765200  0.93102400  0.18207250  1
  O  O86  1  0.66988700  0.57695000  0.31931050  1
  O  O87  1  0.43053650  0.57699850  0.56796250  1
  O  O88  1  0.56946350  0.57699850  0.93203750  1
  O  O89  1  0.67234800  0.93102400  0.31792750  1
  O  O90  1  0.96055950  0.74942950  0.56806850  1
  O  O91  1  0.92400750  0.57645650  0.06864450  1
  O  O92  1  0.07599250  0.57645650  0.43135550  1
  O  O93  1  0.28574400  0.74554200  0.68342550  1
  O  O94  1  0.46055950  0.75057050  0.06806850  1
  O  O95  1  0.78574400  0.75445800  0.18342550  1
