# generated using pymatgen
data_CoPH16NO10
_symmetry_space_group_name_H-M   'P 1'
_cell_length_a   6.13774700
_cell_length_b   6.98591400
_cell_length_c   11.24202200
_cell_angle_alpha   90.00000000
_cell_angle_beta   90.00000000
_cell_angle_gamma   90.00000000
_symmetry_Int_Tables_number   1
_chemical_formula_structural   CoPH16NO10
_chemical_formula_sum   'Co2 P2 H32 N2 O20'
_cell_volume   482.03286396
_cell_formula_units_Z   2
loop_
 _symmetry_equiv_pos_site_id
 _symmetry_equiv_pos_as_xyz
  1  'x, y, z'
loop_
 _atom_site_type_symbol
 _atom_site_label
 _atom_site_symmetry_multiplicity
 _atom_site_fract_x
 _atom_site_fract_y
 _atom_site_fract_z
 _atom_site_occupancy
  Co  Co0  1  0.62266200  0.50000000  0.88898200  1
  Co  Co1  1  0.37733800  0.00000000  0.38898200  1
  P  P2  1  0.00123000  0.50000000  0.51448800  1
  P  P3  1  0.99877000  0.00000000  0.01448800  1
  H  H4  1  0.17022800  0.50000000  0.85050500  1
  H  H5  1  0.27222200  0.50000000  0.71742600  1
  H  H6  1  0.78165000  0.50000000  0.29169600  1
  H  H7  1  0.64633300  0.50000000  0.15506700  1
  H  H8  1  0.00826300  0.61718800  0.00734100  1
  H  H9  1  0.53870100  0.62005100  0.26788400  1
  H  H10  1  0.79091100  0.69850000  0.69434000  1
  H  H11  1  0.38179800  0.67935600  0.52997700  1
  H  H12  1  0.36816500  0.75008800  0.01941800  1
  H  H13  1  0.16974400  0.67966300  0.31454800  1
  H  H14  1  0.83025600  0.82033700  0.81454800  1
  H  H15  1  0.63183500  0.74991200  0.51941800  1
  H  H16  1  0.61820200  0.82064400  0.02997700  1
  H  H17  1  0.20908900  0.80150000  0.19434000  1
  H  H18  1  0.46129900  0.87994900  0.76788400  1
  H  H19  1  0.99173700  0.88281200  0.50734100  1
  H  H20  1  0.21835000  0.00000000  0.79169600  1
  H  H21  1  0.35366700  0.00000000  0.65506700  1
  H  H22  1  0.72777800  0.00000000  0.21742600  1
  H  H23  1  0.82977200  0.00000000  0.35050500  1
  H  H24  1  0.99173700  0.11718800  0.50734100  1
  H  H25  1  0.46129900  0.12005100  0.76788400  1
  H  H26  1  0.20908900  0.19850000  0.19434000  1
  H  H27  1  0.61820200  0.17935600  0.02997700  1
  H  H28  1  0.63183500  0.25008800  0.51941800  1
  H  H29  1  0.83025600  0.17966300  0.81454800  1
  H  H30  1  0.16974400  0.32033700  0.31454800  1
  H  H31  1  0.36816500  0.24991200  0.01941800  1
  H  H32  1  0.38179800  0.32064400  0.52997700  1
  H  H33  1  0.79091100  0.30150000  0.69434000  1
  H  H34  1  0.53870100  0.37994900  0.26788400  1
  H  H35  1  0.00826300  0.38281200  0.00734100  1
  N  N36  1  0.63069400  0.50000000  0.24638900  1
  N  N37  1  0.36930600  0.00000000  0.74638900  1
  O  O38  1  0.30735300  0.50000000  0.80467300  1
  O  O39  1  0.95209900  0.50000000  0.96507600  1
  O  O40  1  0.23438100  0.50000000  0.56983000  1
  O  O41  1  0.02007500  0.50000000  0.37621200  1
  O  O42  1  0.87839900  0.68265900  0.55735900  1
  O  O43  1  0.52331300  0.70657300  0.00980400  1
  O  O44  1  0.72844500  0.72562300  0.77592400  1
  O  O45  1  0.27155500  0.77437700  0.27592400  1
  O  O46  1  0.47668700  0.79342700  0.50980400  1
  O  O47  1  0.12160100  0.81734100  0.05735900  1
  O  O48  1  0.04790100  0.00000000  0.46507600  1
  O  O49  1  0.97992500  0.00000000  0.87621200  1
  O  O50  1  0.69264700  0.00000000  0.30467300  1
  O  O51  1  0.76561900  0.00000000  0.06983000  1
  O  O52  1  0.12160100  0.18265900  0.05735900  1
  O  O53  1  0.47668700  0.20657300  0.50980400  1
  O  O54  1  0.27155500  0.22562300  0.27592400  1
  O  O55  1  0.72844500  0.27437700  0.77592400  1
  O  O56  1  0.52331300  0.29342700  0.00980400  1
  O  O57  1  0.87839900  0.31734100  0.55735900  1
