# generated using pymatgen
data_Li4Ti2Co3Ni3O16
_symmetry_space_group_name_H-M   'P 1'
_cell_length_a   10.20438200
_cell_length_b   5.68669200
_cell_length_c   9.40156967
_cell_angle_alpha   90.00000000
_cell_angle_beta   92.61144901
_cell_angle_gamma   90.00000000
_symmetry_Int_Tables_number   1
_chemical_formula_structural   Li4Ti2Co3Ni3O16
_chemical_formula_sum   'Li8 Ti4 Co6 Ni6 O32'
_cell_volume   544.99877727
_cell_formula_units_Z   2
loop_
 _symmetry_equiv_pos_site_id
 _symmetry_equiv_pos_as_xyz
  1  'x, y, z'
loop_
 _atom_site_type_symbol
 _atom_site_label
 _atom_site_symmetry_multiplicity
 _atom_site_fract_x
 _atom_site_fract_y
 _atom_site_fract_z
 _atom_site_occupancy
  Li  Li0  1  0.65803900  0.00000000  0.89695700  1
  Li  Li1  1  0.99969800  0.00000000  0.99460500  1
  Li  Li2  1  0.50453000  0.50000000  0.49652200  1
  Li  Li3  1  0.83246500  0.50000000  0.39383600  1
  Li  Li4  1  0.15803900  0.50000000  0.89695700  1
  Li  Li5  1  0.49969800  0.50000000  0.99460500  1
  Li  Li6  1  0.00453000  0.00000000  0.49652200  1
  Li  Li7  1  0.33246500  0.00000000  0.39383600  1
  Ti  Ti8  1  0.66966600  0.00000000  0.49547600  1
  Ti  Ti9  1  0.83072400  0.50000000  0.99571000  1
  Ti  Ti10  1  0.16966600  0.50000000  0.49547600  1
  Ti  Ti11  1  0.33072400  0.00000000  0.99571000  1
  Co  Co12  1  0.58818350  0.24537250  0.21606100  1
  Co  Co13  1  0.58818350  0.75462750  0.21606100  1
  Co  Co14  1  0.67137100  0.50000000  0.71634800  1
  Co  Co15  1  0.08818350  0.74537250  0.21606100  1
  Co  Co16  1  0.08818350  0.25462750  0.21606100  1
  Co  Co17  1  0.17137100  0.00000000  0.71634800  1
  Ni  Ni18  1  0.83229300  0.00000000  0.21139900  1
  Ni  Ni19  1  0.91546400  0.74738300  0.71388000  1
  Ni  Ni20  1  0.91546400  0.25261700  0.71388000  1
  Ni  Ni21  1  0.33229300  0.50000000  0.21139900  1
  Ni  Ni22  1  0.41546400  0.24738300  0.71388000  1
  Ni  Ni23  1  0.41546400  0.75261700  0.71388000  1
  O  O24  1  0.59357200  0.25324900  0.59841700  1
  O  O25  1  0.51894900  0.00000000  0.33329700  1
  O  O26  1  0.65367300  0.00000000  0.11010800  1
  O  O27  1  0.51152500  0.50000000  0.30533100  1
  O  O28  1  0.50748100  0.50000000  0.80446900  1
  O  O29  1  0.59357200  0.74675100  0.59841700  1
  O  O30  1  0.73069900  0.22890900  0.34101700  1
  O  O31  1  0.73069900  0.77109100  0.34101700  1
  O  O32  1  0.66537800  0.50000000  0.10416400  1
  O  O33  1  0.84060900  0.00000000  0.59148800  1
  O  O34  1  0.74990200  0.71918400  0.84163800  1
  O  O35  1  0.74990200  0.28081600  0.84163800  1
  O  O36  1  0.82839400  0.50000000  0.61428400  1
  O  O37  1  0.92480450  0.74356950  0.09155300  1
  O  O38  1  0.97555100  0.50000000  0.83895200  1
  O  O39  1  0.92480450  0.25643050  0.09155300  1
  O  O40  1  0.09357200  0.75324900  0.59841700  1
  O  O41  1  0.01894900  0.50000000  0.33329700  1
  O  O42  1  0.15367300  0.50000000  0.11010800  1
  O  O43  1  0.01152500  0.00000000  0.30533100  1
  O  O44  1  0.00748100  0.00000000  0.80446900  1
  O  O45  1  0.09357200  0.24675100  0.59841700  1
  O  O46  1  0.23069900  0.72890900  0.34101700  1
  O  O47  1  0.23069900  0.27109100  0.34101700  1
  O  O48  1  0.16537800  0.00000000  0.10416400  1
  O  O49  1  0.34060900  0.50000000  0.59148800  1
  O  O50  1  0.24990200  0.21918400  0.84163800  1
  O  O51  1  0.24990200  0.78081600  0.84163800  1
  O  O52  1  0.32839400  0.00000000  0.61428400  1
  O  O53  1  0.42480450  0.24356950  0.09155300  1
  O  O54  1  0.47555100  0.00000000  0.83895200  1
  O  O55  1  0.42480450  0.75643050  0.09155300  1
