# generated using pymatgen
data_NaMnO2
_symmetry_space_group_name_H-M   'P 1'
_cell_length_a   6.05423353
_cell_length_b   6.05423353
_cell_length_c   9.78407300
_cell_angle_alpha   90.00000000
_cell_angle_beta   90.00000000
_cell_angle_gamma   90.00000000
_symmetry_Int_Tables_number   1
_chemical_formula_structural   NaMnO2
_chemical_formula_sum   'Na8 Mn8 O16'
_cell_volume   358.62290404
_cell_formula_units_Z   8
loop_
 _symmetry_equiv_pos_site_id
 _symmetry_equiv_pos_as_xyz
  1  'x, y, z'
loop_
 _atom_site_type_symbol
 _atom_site_label
 _atom_site_symmetry_multiplicity
 _atom_site_fract_x
 _atom_site_fract_y
 _atom_site_fract_z
 _atom_site_occupancy
  Na  Na0  1  0.25000000  0.00000000  0.37500000  1
  Na  Na1  1  0.50000000  0.75000000  0.12500000  1
  Na  Na2  1  0.50000000  0.25000000  0.12500000  1
  Na  Na3  1  0.75000000  0.00000000  0.37500000  1
  Na  Na4  1  0.75000000  0.50000000  0.87500000  1
  Na  Na5  1  0.00000000  0.25000000  0.62500000  1
  Na  Na6  1  0.00000000  0.75000000  0.62500000  1
  Na  Na7  1  0.25000000  0.50000000  0.87500000  1
  Mn  Mn8  1  0.50000000  0.75000000  0.62500000  1
  Mn  Mn9  1  0.75000000  0.50000000  0.37500000  1
  Mn  Mn10  1  0.50000000  0.25000000  0.62500000  1
  Mn  Mn11  1  0.25000000  0.50000000  0.37500000  1
  Mn  Mn12  1  0.00000000  0.25000000  0.12500000  1
  Mn  Mn13  1  0.25000000  0.00000000  0.87500000  1
  Mn  Mn14  1  0.00000000  0.75000000  0.12500000  1
  Mn  Mn15  1  0.75000000  0.00000000  0.87500000  1
  O  O16  1  0.71107400  0.50000000  0.62304750  1
  O  O17  1  0.50000000  0.28892600  0.37695250  1
  O  O18  1  0.50000000  0.71107400  0.37695250  1
  O  O19  1  0.21107400  0.50000000  0.12695250  1
  O  O20  1  0.28892600  0.50000000  0.62304750  1
  O  O21  1  0.00000000  0.28892600  0.37304750  1
  O  O22  1  0.00000000  0.71107400  0.37304750  1
  O  O23  1  0.78892600  0.50000000  0.12695250  1
  O  O24  1  0.21107400  0.00000000  0.12304750  1
  O  O25  1  0.00000000  0.78892600  0.87695250  1
  O  O26  1  0.00000000  0.21107400  0.87695250  1
  O  O27  1  0.71107400  0.00000000  0.62695250  1
  O  O28  1  0.78892600  0.00000000  0.12304750  1
  O  O29  1  0.50000000  0.78892600  0.87304750  1
  O  O30  1  0.50000000  0.21107400  0.87304750  1
  O  O31  1  0.28892600  0.00000000  0.62695250  1
