# generated using pymatgen
data_Li2Mn3SnO8
_symmetry_space_group_name_H-M   'P 1'
_cell_length_a   6.06570179
_cell_length_b   6.06570179
_cell_length_c   14.57484211
_cell_angle_alpha   90.00000000
_cell_angle_beta   90.00000000
_cell_angle_gamma   120.00000000
_symmetry_Int_Tables_number   1
_chemical_formula_structural   Li2Mn3SnO8
_chemical_formula_sum   'Li6 Mn9 Sn3 O24'
_cell_volume   464.40469425
_cell_formula_units_Z   3
loop_
 _symmetry_equiv_pos_site_id
 _symmetry_equiv_pos_as_xyz
  1  'x, y, z'
loop_
 _atom_site_type_symbol
 _atom_site_label
 _atom_site_symmetry_multiplicity
 _atom_site_fract_x
 _atom_site_fract_y
 _atom_site_fract_z
 _atom_site_occupancy
  Li  Li0  1  0.33333333  0.66666667  0.54831467  1
  Li  Li1  1  0.33333333  0.66666667  0.17041167  1
  Li  Li2  1  0.00000000  0.00000000  0.88164800  1
  Li  Li3  1  0.00000000  0.00000000  0.50374500  1
  Li  Li4  1  0.66666667  0.33333333  0.21498133  1
  Li  Li5  1  0.66666667  0.33333333  0.83707833  1
  Mn  Mn6  1  0.17294800  0.34589600  0.33141900  1
  Mn  Mn7  1  0.65410400  0.82705200  0.33141900  1
  Mn  Mn8  1  0.17294800  0.82705200  0.33141900  1
  Mn  Mn9  1  0.83961467  0.67922933  0.66475233  1
  Mn  Mn10  1  0.32077067  0.16038533  0.66475233  1
  Mn  Mn11  1  0.83961467  0.16038533  0.66475233  1
  Mn  Mn12  1  0.50628133  0.01256267  0.99808567  1
  Mn  Mn13  1  0.98743733  0.49371867  0.99808567  1
  Mn  Mn14  1  0.50628133  0.49371867  0.99808567  1
  Sn  Sn15  1  0.33333333  0.66666667  0.77912667  1
  Sn  Sn16  1  0.00000000  0.00000000  0.11246000  1
  Sn  Sn17  1  0.66666667  0.33333333  0.44579333  1
  O  O18  1  0.33333333  0.66666667  0.41262667  1
  O  O19  1  0.48505600  0.51494400  0.26400300  1
  O  O20  1  0.02988800  0.51494400  0.26400300  1
  O  O21  1  0.48505600  0.97011200  0.26400300  1
  O  O22  1  0.18239467  0.36478933  0.07321733  1
  O  O23  1  0.63521067  0.81760533  0.07321733  1
  O  O24  1  0.18239467  0.81760533  0.07321733  1
  O  O25  1  0.33333333  0.66666667  0.91693467  1
  O  O26  1  0.00000000  0.00000000  0.74596000  1
  O  O27  1  0.15172267  0.84827733  0.59733633  1
  O  O28  1  0.69655467  0.84827733  0.59733633  1
  O  O29  1  0.15172267  0.30344533  0.59733633  1
  O  O30  1  0.84906133  0.69812267  0.40655067  1
  O  O31  1  0.30187733  0.15093867  0.40655067  1
  O  O32  1  0.84906133  0.15093867  0.40655067  1
  O  O33  1  0.00000000  0.00000000  0.25026800  1
  O  O34  1  0.66666667  0.33333333  0.07929333  1
  O  O35  1  0.81838933  0.18161067  0.93066967  1
  O  O36  1  0.36322133  0.18161067  0.93066967  1
  O  O37  1  0.81838933  0.63677867  0.93066967  1
  O  O38  1  0.51572800  0.03145600  0.73988400  1
  O  O39  1  0.96854400  0.48427200  0.73988400  1
  O  O40  1  0.51572800  0.48427200  0.73988400  1
  O  O41  1  0.66666667  0.33333333  0.58360133  1
