# generated using pymatgen
data_Li7Fe3Co(PO4)6
_symmetry_space_group_name_H-M   'P 1'
_cell_length_a   8.84354851
_cell_length_b   8.84354851
_cell_length_c   21.47807455
_cell_angle_alpha   90.00000000
_cell_angle_beta   90.00000000
_cell_angle_gamma   120.00000000
_symmetry_Int_Tables_number   1
_chemical_formula_structural   Li7Fe3Co(PO4)6
_chemical_formula_sum   'Li21 Fe9 Co3 P18 O72'
_cell_volume   1454.71896931
_cell_formula_units_Z   3
loop_
 _symmetry_equiv_pos_site_id
 _symmetry_equiv_pos_as_xyz
  1  'x, y, z'
loop_
 _atom_site_type_symbol
 _atom_site_label
 _atom_site_symmetry_multiplicity
 _atom_site_fract_x
 _atom_site_fract_y
 _atom_site_fract_z
 _atom_site_occupancy
  Li  Li0  1  0.27529200  0.89088700  0.61423800  1
  Li  Li1  1  0.10911300  0.38440500  0.61423800  1
  Li  Li2  1  0.36877333  0.27789867  0.43225767  1
  Li  Li3  1  0.61559500  0.72470800  0.61423800  1
  Li  Li4  1  0.90912533  0.63122667  0.43225767  1
  Li  Li5  1  0.00000000  0.00000000  0.52035567  1
  Li  Li6  1  0.72210133  0.09087467  0.43225767  1
  Li  Li7  1  0.94195867  0.22422033  0.94757133  1
  Li  Li8  1  0.77577967  0.71773833  0.94757133  1
  Li  Li9  1  0.03544000  0.61123200  0.76559100  1
  Li  Li10  1  0.28226167  0.05804133  0.94757133  1
  Li  Li11  1  0.57579200  0.96456000  0.76559100  1
  Li  Li12  1  0.66666667  0.33333333  0.85368900  1
  Li  Li13  1  0.38876800  0.42420800  0.76559100  1
  Li  Li14  1  0.60862533  0.55755367  0.28090467  1
  Li  Li15  1  0.44244633  0.05107167  0.28090467  1
  Li  Li16  1  0.70210667  0.94456533  0.09892433  1
  Li  Li17  1  0.94892833  0.39137467  0.28090467  1
  Li  Li18  1  0.24245867  0.29789333  0.09892433  1
  Li  Li19  1  0.33333333  0.66666667  0.18702233  1
  Li  Li20  1  0.05543467  0.75754133  0.09892433  1
  Fe  Fe21  1  0.00000000  0.00000000  0.64945667  1
  Fe  Fe22  1  0.00000000  0.00000000  0.85264433  1
  Fe  Fe23  1  0.00000000  0.00000000  0.35525000  1
  Fe  Fe24  1  0.66666667  0.33333333  0.98279000  1
  Fe  Fe25  1  0.66666667  0.33333333  0.18597767  1
  Fe  Fe26  1  0.66666667  0.33333333  0.68858333  1
  Fe  Fe27  1  0.33333333  0.66666667  0.31612333  1
  Fe  Fe28  1  0.33333333  0.66666667  0.51931100  1
  Fe  Fe29  1  0.33333333  0.66666667  0.02191667  1
  Co  Co30  1  0.00000000  0.00000000  0.15212300  1
  Co  Co31  1  0.66666667  0.33333333  0.48545633  1
  Co  Co32  1  0.33333333  0.66666667  0.81878967  1
  P  P33  1  0.37143767  0.32983633  0.58294933  1
  P  P34  1  0.04087967  0.37170633  0.41784833  1
  P  P35  1  0.67016367  0.04160133  0.58294933  1
  P  P36  1  0.33082667  0.95912033  0.41784833  1
  P  P37  1  0.95839867  0.62856233  0.58294933  1
  P  P38  1  0.62829367  0.66917333  0.41784833  1
  P  P39  1  0.03810433  0.66316967  0.91628267  1
  P  P40  1  0.70754633  0.70503967  0.75118167  1
  P  P41  1  0.33683033  0.37493467  0.91628267  1
  P  P42  1  0.99749333  0.29245367  0.75118167  1
  P  P43  1  0.62506533  0.96189567  0.91628267  1
  P  P44  1  0.29496033  0.00250667  0.75118167  1
  P  P45  1  0.70477100  0.99650300  0.24961600  1
  P  P46  1  0.37421300  0.03837300  0.08451500  1
  P  P47  1  0.00349700  0.70826800  0.24961600  1
  P  P48  1  0.66416000  0.62578700  0.08451500  1
  P  P49  1  0.29173200  0.29522900  0.24961600  1
  P  P50  1  0.96162700  0.33584000  0.08451500  1
  O  O51  1  0.80458200  0.99432500  0.30774800  1
  O  O52  1  0.38003000  0.51208800  0.58336900  1
  O  O53  1  0.17229667  0.18862633  0.58578333  1
  O  O54  1  0.18974300  0.19541800  0.30774800  1
  O  O55  1  0.17254667  0.45421033  0.47176033  1
  O  O56  1  0.87524633  0.38675067  0.42280767  1
  O  O57  1  0.00567500  0.81025700  0.30774800  1
  O  O58  1  0.44249667  0.29571433  0.52297333  1
  O  O59  1  0.98030033  0.17240367  0.41715967  1
  O  O60  1  0.48791200  0.86794200  0.58336900  1
  O  O61  1  0.70428567  0.14678233  0.52297333  1
  O  O62  1  0.81137367  0.98367033  0.58578333  1
  O  O63  1  0.19210333  0.01969967  0.41715967  1
  O  O64  1  0.28166367  0.82745333  0.47176033  1
  O  O65  1  0.51150433  0.12475367  0.42280767  1
  O  O66  1  0.01632967  0.82770333  0.58578333  1
  O  O67  1  0.54578967  0.71833633  0.47176033  1
  O  O68  1  0.00172833  0.20625767  0.68836867  1
  O  O69  1  0.13205800  0.61997000  0.58336900  1
  O  O70  1  0.85321767  0.55750333  0.52297333  1
  O  O71  1  0.79374233  0.79547067  0.68836867  1
  O  O72  1  0.82759633  0.80789667  0.41715967  1
  O  O73  1  0.61324933  0.48849567  0.42280767  1
  O  O74  1  0.20452933  0.99827167  0.68836867  1
  O  O75  1  0.47124867  0.32765833  0.64108133  1
  O  O76  1  0.04669667  0.84542133  0.91670233  1
  O  O77  1  0.83896333  0.52195967  0.91911667  1
  O  O78  1  0.85640967  0.52875133  0.64108133  1
  O  O79  1  0.83921333  0.78754367  0.80509367  1
  O  O80  1  0.54191300  0.72008400  0.75614100  1
  O  O81  1  0.67234167  0.14359033  0.64108133  1
  O  O82  1  0.10916333  0.62904767  0.85630667  1
  O  O83  1  0.64696700  0.50573700  0.75049300  1
  O  O84  1  0.15457867  0.20127533  0.91670233  1
  O  O85  1  0.37095233  0.48011567  0.85630667  1
  O  O86  1  0.47804033  0.31700367  0.91911667  1
  O  O87  1  0.85877000  0.35303300  0.75049300  1
  O  O88  1  0.94833033  0.16078667  0.80509367  1
  O  O89  1  0.17817100  0.45808700  0.75614100  1
  O  O90  1  0.68299633  0.16103667  0.91911667  1
  O  O91  1  0.21245633  0.05166967  0.80509367  1
  O  O92  1  0.66839500  0.53959100  0.02170200  1
  O  O93  1  0.79872467  0.95330333  0.91670233  1
  O  O94  1  0.51988433  0.89083667  0.85630667  1
  O  O95  1  0.46040900  0.12880400  0.02170200  1
  O  O96  1  0.49426300  0.14123000  0.75049300  1
  O  O97  1  0.27991600  0.82182900  0.75614100  1
  O  O98  1  0.87119600  0.33160500  0.02170200  1
  O  O99  1  0.13791533  0.66099167  0.97441467  1
  O  O100  1  0.71336333  0.17875467  0.25003567  1
  O  O101  1  0.50563000  0.85529300  0.25245000  1
  O  O102  1  0.52307633  0.86208467  0.97441467  1
  O  O103  1  0.50588000  0.12087700  0.13842700  1
  O  O104  1  0.20857967  0.05341733  0.08947433  1
  O  O105  1  0.33900833  0.47692367  0.97441467  1
  O  O106  1  0.77583000  0.96238100  0.18964000  1
  O  O107  1  0.31363367  0.83907033  0.08382633  1
  O  O108  1  0.82124533  0.53460867  0.25003567  1
  O  O109  1  0.03761900  0.81344900  0.18964000  1
  O  O110  1  0.14470700  0.65033700  0.25245000  1
  O  O111  1  0.52543667  0.68636633  0.08382633  1
  O  O112  1  0.61499700  0.49412000  0.13842700  1
  O  O113  1  0.84483767  0.79142033  0.08947433  1
  O  O114  1  0.34966300  0.49437000  0.25245000  1
  O  O115  1  0.87912300  0.38500300  0.13842700  1
  O  O116  1  0.33506167  0.87292433  0.35503533  1
  O  O117  1  0.46539133  0.28663667  0.25003567  1
  O  O118  1  0.18655100  0.22417000  0.18964000  1
  O  O119  1  0.12707567  0.46213733  0.35503533  1
  O  O120  1  0.16092967  0.47456333  0.08382633  1
  O  O121  1  0.94658267  0.15516233  0.08947433  1
  O  O122  1  0.53786267  0.66493833  0.35503533  1
