# generated using pymatgen
data_Na2FeBAsO7
_symmetry_space_group_name_H-M   'P 1'
_cell_length_a   5.39865850
_cell_length_b   6.86082500
_cell_length_c   9.18472735
_cell_angle_alpha   90.00000000
_cell_angle_beta   92.21094261
_cell_angle_gamma   90.00000000
_symmetry_Int_Tables_number   1
_chemical_formula_structural   Na2FeBAsO7
_chemical_formula_sum   'Na4 Fe2 B2 As2 O14'
_cell_volume   339.94217041
_cell_formula_units_Z   2
loop_
 _symmetry_equiv_pos_site_id
 _symmetry_equiv_pos_as_xyz
  1  'x, y, z'
loop_
 _atom_site_type_symbol
 _atom_site_label
 _atom_site_symmetry_multiplicity
 _atom_site_fract_x
 _atom_site_fract_y
 _atom_site_fract_z
 _atom_site_occupancy
  Na  Na0  1  0.76390600  0.00342700  0.22041600  1
  Na  Na1  1  0.76390600  0.49657300  0.22041600  1
  Na  Na2  1  0.23609400  0.50342700  0.77958400  1
  Na  Na3  1  0.23609400  0.99657300  0.77958400  1
  Fe  Fe4  1  0.21780900  0.25000000  0.34411700  1
  Fe  Fe5  1  0.78219100  0.75000000  0.65588300  1
  B  B6  1  0.27419300  0.25000000  0.07924300  1
  B  B7  1  0.72580700  0.75000000  0.92075700  1
  As  As8  1  0.27612100  0.75000000  0.42567700  1
  As  As9  1  0.72387900  0.25000000  0.57432300  1
  O  O10  1  0.69639900  0.75000000  0.06476800  1
  O  O11  1  0.04411400  0.25000000  0.13991300  1
  O  O12  1  0.46500000  0.25000000  0.18486900  1
  O  O13  1  0.20128800  0.95076500  0.32281900  1
  O  O14  1  0.20128800  0.54923500  0.32281900  1
  O  O15  1  0.87091300  0.25000000  0.41104500  1
  O  O16  1  0.59383200  0.75000000  0.46770000  1
  O  O17  1  0.40616800  0.25000000  0.53230000  1
  O  O18  1  0.12908700  0.75000000  0.58895500  1
  O  O19  1  0.79871200  0.45076500  0.67718100  1
  O  O20  1  0.79871200  0.04923500  0.67718100  1
  O  O21  1  0.53500000  0.75000000  0.81513100  1
  O  O22  1  0.95588600  0.75000000  0.86008700  1
  O  O23  1  0.30360100  0.25000000  0.93523200  1
