# generated using pymatgen
data_Li3Ti2NiO6
_symmetry_space_group_name_H-M   'P 1'
_cell_length_a   12.88305800
_cell_length_b   2.93123600
_cell_length_c   6.01621447
_cell_angle_alpha   90.00000000
_cell_angle_beta   104.17307630
_cell_angle_gamma   90.00000000
_symmetry_Int_Tables_number   1
_chemical_formula_structural   Li3Ti2NiO6
_chemical_formula_sum   'Li6 Ti4 Ni2 O12'
_cell_volume   220.27640419
_cell_formula_units_Z   2
loop_
 _symmetry_equiv_pos_site_id
 _symmetry_equiv_pos_as_xyz
  1  'x, y, z'
loop_
 _atom_site_type_symbol
 _atom_site_label
 _atom_site_symmetry_multiplicity
 _atom_site_fract_x
 _atom_site_fract_y
 _atom_site_fract_z
 _atom_site_occupancy
  Li  Li0  1  0.00000000  0.00000000  0.00000000  1
  Li  Li1  1  0.16393100  0.50000000  0.33614900  1
  Li  Li2  1  0.33606900  0.00000000  0.66385100  1
  Li  Li3  1  0.50000000  0.50000000  0.00000000  1
  Li  Li4  1  0.66393100  0.00000000  0.33614900  1
  Li  Li5  1  0.83606900  0.50000000  0.66385100  1
  Ti  Ti6  1  0.16092800  0.50000000  0.82568500  1
  Ti  Ti7  1  0.33907200  0.00000000  0.17431500  1
  Ti  Ti8  1  0.66092800  0.00000000  0.82568500  1
  Ti  Ti9  1  0.83907200  0.50000000  0.17431500  1
  Ni  Ni10  1  0.00000000  0.00000000  0.50000000  1
  Ni  Ni11  1  0.50000000  0.50000000  0.50000000  1
  O  O12  1  0.16701700  0.00000000  0.59732800  1
  O  O13  1  0.32597400  0.50000000  0.92867100  1
  O  O14  1  0.33298300  0.50000000  0.40267200  1
  O  O15  1  0.49182000  0.00000000  0.24879500  1
  O  O16  1  0.00818000  0.50000000  0.75120500  1
  O  O17  1  0.17402600  0.00000000  0.07132900  1
  O  O18  1  0.66701700  0.50000000  0.59732800  1
  O  O19  1  0.82597400  0.00000000  0.92867100  1
  O  O20  1  0.83298300  0.00000000  0.40267200  1
  O  O21  1  0.99182000  0.50000000  0.24879500  1
  O  O22  1  0.50818000  0.00000000  0.75120500  1
  O  O23  1  0.67402600  0.50000000  0.07132900  1
