# generated using pymatgen
data_FeOF
_symmetry_space_group_name_H-M   'P 1'
_cell_length_a   5.08808510
_cell_length_b   4.68367700
_cell_length_c   5.73324223
_cell_angle_alpha   90.00000000
_cell_angle_beta   91.17630900
_cell_angle_gamma   90.00000000
_symmetry_Int_Tables_number   1
_chemical_formula_structural   FeOF
_chemical_formula_sum   'Fe4 O4 F4'
_cell_volume   136.59979927
_cell_formula_units_Z   4
loop_
 _symmetry_equiv_pos_site_id
 _symmetry_equiv_pos_as_xyz
  1  'x, y, z'
loop_
 _atom_site_type_symbol
 _atom_site_label
 _atom_site_symmetry_multiplicity
 _atom_site_fract_x
 _atom_site_fract_y
 _atom_site_fract_z
 _atom_site_occupancy
  Fe  Fe0  1  0.28081050  0.47447400  0.33436150  1
  Fe  Fe1  1  0.71918950  0.52552600  0.66563850  1
  Fe  Fe2  1  0.28081050  0.02552600  0.83436150  1
  Fe  Fe3  1  0.71918950  0.97447400  0.16563850  1
  O  O4  1  0.41868550  0.27473300  0.61049950  1
  O  O5  1  0.41868550  0.22526700  0.11049950  1
  O  O6  1  0.58131450  0.77473300  0.88950050  1
  O  O7  1  0.58131450  0.72526700  0.38950050  1
  F  F8  1  0.07517650  0.73473300  0.62671350  1
  F  F9  1  0.07517650  0.76526700  0.12671350  1
  F  F10  1  0.92482350  0.23473300  0.87328650  1
  F  F11  1  0.92482350  0.26526700  0.37328650  1
