# generated using pymatgen
data_MnCrO4
_symmetry_space_group_name_H-M   'P 1'
_cell_length_a   10.22969800
_cell_length_b   9.46092200
_cell_length_c   6.96073754
_cell_angle_alpha   90.00000000
_cell_angle_beta   104.00200358
_cell_angle_gamma   90.00000000
_symmetry_Int_Tables_number   1
_chemical_formula_structural   MnCrO4
_chemical_formula_sum   'Mn8 Cr8 O32'
_cell_volume   653.65993331
_cell_formula_units_Z   8
loop_
 _symmetry_equiv_pos_site_id
 _symmetry_equiv_pos_as_xyz
  1  'x, y, z'
loop_
 _atom_site_type_symbol
 _atom_site_label
 _atom_site_symmetry_multiplicity
 _atom_site_fract_x
 _atom_site_fract_y
 _atom_site_fract_z
 _atom_site_occupancy
  Mn  Mn0  1  0.70754200  0.50000000  0.86796000  1
  Mn  Mn1  1  0.00000000  0.18496800  0.50000000  1
  Mn  Mn2  1  0.00000000  0.81503200  0.50000000  1
  Mn  Mn3  1  0.29245800  0.50000000  0.13204000  1
  Mn  Mn4  1  0.20754200  0.00000000  0.86796000  1
  Mn  Mn5  1  0.50000000  0.68496800  0.50000000  1
  Mn  Mn6  1  0.50000000  0.31503200  0.50000000  1
  Mn  Mn7  1  0.79245800  0.00000000  0.13204000  1
  Cr  Cr8  1  0.77389900  0.50000000  0.41083900  1
  Cr  Cr9  1  0.00000000  0.25488200  0.00000000  1
  Cr  Cr10  1  0.00000000  0.74511800  0.00000000  1
  Cr  Cr11  1  0.22610100  0.50000000  0.58916100  1
  Cr  Cr12  1  0.27389900  0.00000000  0.41083900  1
  Cr  Cr13  1  0.50000000  0.75488200  0.00000000  1
  Cr  Cr14  1  0.50000000  0.24511800  0.00000000  1
  Cr  Cr15  1  0.72610100  0.00000000  0.58916100  1
  O  O16  1  0.64387300  0.50000000  0.53699100  1
  O  O17  1  0.71054000  0.50000000  0.16975800  1
  O  O18  1  0.86817650  0.35144250  0.89603200  1
  O  O19  1  0.86817650  0.64855750  0.89603200  1
  O  O20  1  0.86162750  0.64546550  0.47598700  1
  O  O21  1  0.86162750  0.35453450  0.47598700  1
  O  O22  1  0.04453450  0.84307450  0.81888500  1
  O  O23  1  0.04453450  0.15692550  0.81888500  1
  O  O24  1  0.95546550  0.15692550  0.18111500  1
  O  O25  1  0.95546550  0.84307450  0.18111500  1
  O  O26  1  0.13837250  0.35453450  0.52401300  1
  O  O27  1  0.13837250  0.64546550  0.52401300  1
  O  O28  1  0.13182350  0.35144250  0.10396800  1
  O  O29  1  0.13182350  0.64855750  0.10396800  1
  O  O30  1  0.28946000  0.50000000  0.83024200  1
  O  O31  1  0.35612700  0.50000000  0.46300900  1
  O  O32  1  0.14387300  0.00000000  0.53699100  1
  O  O33  1  0.21054000  0.00000000  0.16975800  1
  O  O34  1  0.36817650  0.85144250  0.89603200  1
  O  O35  1  0.36817650  0.14855750  0.89603200  1
  O  O36  1  0.36162750  0.14546550  0.47598700  1
  O  O37  1  0.36162750  0.85453450  0.47598700  1
  O  O38  1  0.54453450  0.34307450  0.81888500  1
  O  O39  1  0.54453450  0.65692550  0.81888500  1
  O  O40  1  0.45546550  0.65692550  0.18111500  1
  O  O41  1  0.45546550  0.34307450  0.18111500  1
  O  O42  1  0.63837250  0.85453450  0.52401300  1
  O  O43  1  0.63837250  0.14546550  0.52401300  1
  O  O44  1  0.63182350  0.85144250  0.10396800  1
  O  O45  1  0.63182350  0.14855750  0.10396800  1
  O  O46  1  0.78946000  0.00000000  0.83024200  1
  O  O47  1  0.85612700  0.00000000  0.46300900  1
