# generated using pymatgen
data_NaNi2O3
_symmetry_space_group_name_H-M   'P 1'
_cell_length_a   5.26630637
_cell_length_b   9.00599635
_cell_length_c   5.33809756
_cell_angle_alpha   90.00000000
_cell_angle_beta   110.07527869
_cell_angle_gamma   90.00000000
_symmetry_Int_Tables_number   1
_chemical_formula_structural   NaNi2O3
_chemical_formula_sum   'Na4 Ni8 O12'
_cell_volume   237.79466307
_cell_formula_units_Z   4
loop_
 _symmetry_equiv_pos_site_id
 _symmetry_equiv_pos_as_xyz
  1  'x, y, z'
loop_
 _atom_site_type_symbol
 _atom_site_label
 _atom_site_symmetry_multiplicity
 _atom_site_fract_x
 _atom_site_fract_y
 _atom_site_fract_z
 _atom_site_occupancy
  Na  Na0  1  0.50000000  0.33026050  0.00000000  1
  Na  Na1  1  0.50000000  0.66973950  0.00000000  1
  Na  Na2  1  0.00000000  0.83026050  0.00000000  1
  Na  Na3  1  0.00000000  0.16973950  0.00000000  1
  Ni  Ni4  1  0.50000000  0.00000000  0.00000000  1
  Ni  Ni5  1  0.00000000  0.00000000  0.50000000  1
  Ni  Ni6  1  0.50000000  0.83587200  0.50000000  1
  Ni  Ni7  1  0.50000000  0.16412800  0.50000000  1
  Ni  Ni8  1  0.00000000  0.50000000  0.00000000  1
  Ni  Ni9  1  0.50000000  0.50000000  0.50000000  1
  Ni  Ni10  1  0.00000000  0.33587200  0.50000000  1
  Ni  Ni11  1  0.00000000  0.66412800  0.50000000  1
  O  O12  1  0.28520000  0.00000000  0.26136900  1
  O  O13  1  0.71480000  0.00000000  0.73863100  1
  O  O14  1  0.76310700  0.15121050  0.29066850  1
  O  O15  1  0.76310700  0.84878950  0.29066850  1
  O  O16  1  0.23689300  0.84878950  0.70933150  1
  O  O17  1  0.23689300  0.15121050  0.70933150  1
  O  O18  1  0.78520000  0.50000000  0.26136900  1
  O  O19  1  0.21480000  0.50000000  0.73863100  1
  O  O20  1  0.26310700  0.65121050  0.29066850  1
  O  O21  1  0.26310700  0.34878950  0.29066850  1
  O  O22  1  0.73689300  0.34878950  0.70933150  1
  O  O23  1  0.73689300  0.65121050  0.70933150  1
