# generated using pymatgen
data_Li4TiNi3O8
_symmetry_space_group_name_H-M   'P 1'
_cell_length_a   5.85201499
_cell_length_b   5.85201499
_cell_length_c   14.54001758
_cell_angle_alpha   90.00000000
_cell_angle_beta   90.00000000
_cell_angle_gamma   120.00000000
_symmetry_Int_Tables_number   1
_chemical_formula_structural   Li4TiNi3O8
_chemical_formula_sum   'Li12 Ti3 Ni9 O24'
_cell_volume   431.22747550
_cell_formula_units_Z   3
loop_
 _symmetry_equiv_pos_site_id
 _symmetry_equiv_pos_as_xyz
  1  'x, y, z'
loop_
 _atom_site_type_symbol
 _atom_site_label
 _atom_site_symmetry_multiplicity
 _atom_site_fract_x
 _atom_site_fract_y
 _atom_site_fract_z
 _atom_site_occupancy
  Li  Li0  1  0.16666667  0.33333333  0.83333333  1
  Li  Li1  1  0.66666667  0.33333333  0.83333333  1
  Li  Li2  1  0.66666667  0.83333333  0.83333333  1
  Li  Li3  1  0.16666667  0.83333333  0.83333333  1
  Li  Li4  1  0.83333333  0.66666667  0.16666667  1
  Li  Li5  1  0.33333333  0.66666667  0.16666667  1
  Li  Li6  1  0.33333333  0.16666667  0.16666667  1
  Li  Li7  1  0.83333333  0.16666667  0.16666667  1
  Li  Li8  1  0.50000000  0.00000000  0.50000000  1
  Li  Li9  1  1.00000000  1.00000000  0.50000000  1
  Li  Li10  1  0.00000000  0.50000000  0.50000000  1
  Li  Li11  1  0.50000000  0.50000000  0.50000000  1
  Ti  Ti12  1  0.33333333  0.66666667  0.66666667  1
  Ti  Ti13  1  1.00000000  1.00000000  0.00000000  1
  Ti  Ti14  1  0.66666667  0.33333333  0.33333333  1
  Ni  Ni15  1  0.83333333  0.66666667  0.66666667  1
  Ni  Ni16  1  0.00000000  0.50000000  0.00000000  1
  Ni  Ni17  1  0.83333333  0.16666667  0.66666667  1
  Ni  Ni18  1  0.50000000  0.00000000  0.00000000  1
  Ni  Ni19  1  0.66666667  0.83333333  0.33333333  1
  Ni  Ni20  1  0.50000000  0.50000000  0.00000000  1
  Ni  Ni21  1  0.16666667  0.33333333  0.33333333  1
  Ni  Ni22  1  0.33333333  0.16666667  0.66666667  1
  Ni  Ni23  1  0.16666667  0.83333333  0.33333333  1
  O  O24  1  0.84046733  0.68093467  0.92116267  1
  O  O25  1  0.49286600  0.98573200  0.74550400  1
  O  O26  1  0.33333333  0.66666667  0.92818967  1
  O  O27  1  0.01426800  0.50713400  0.74550400  1
  O  O28  1  0.00000000  0.00000000  0.73847700  1
  O  O29  1  0.31906533  0.15953267  0.92116267  1
  O  O30  1  0.84046733  0.15953267  0.92116267  1
  O  O31  1  0.49286600  0.50713400  0.74550400  1
  O  O32  1  0.50713400  0.01426800  0.25449600  1
  O  O33  1  0.15953267  0.31906533  0.07883733  1
  O  O34  1  0.00000000  0.00000000  0.26152300  1
  O  O35  1  0.68093467  0.84046733  0.07883733  1
  O  O36  1  0.66666667  0.33333333  0.07181033  1
  O  O37  1  0.98573200  0.49286600  0.25449600  1
  O  O38  1  0.50713400  0.49286600  0.25449600  1
  O  O39  1  0.15953267  0.84046733  0.07883733  1
  O  O40  1  0.17380067  0.34760133  0.58782933  1
  O  O41  1  0.82619933  0.65239867  0.41217067  1
  O  O42  1  0.66666667  0.33333333  0.59485633  1
  O  O43  1  0.34760133  0.17380067  0.41217067  1
  O  O44  1  0.33333333  0.66666667  0.40514367  1
  O  O45  1  0.65239867  0.82619933  0.58782933  1
  O  O46  1  0.17380067  0.82619933  0.58782933  1
  O  O47  1  0.82619933  0.17380067  0.41217067  1
