# generated using pymatgen
data_Li3Cr4O8
_symmetry_space_group_name_H-M   'P 1'
_cell_length_a   5.89273150
_cell_length_b   5.89273150
_cell_length_c   14.70143593
_cell_angle_alpha   90.00000000
_cell_angle_beta   90.00000000
_cell_angle_gamma   120.00000000
_symmetry_Int_Tables_number   1
_chemical_formula_structural   Li3Cr4O8
_chemical_formula_sum   'Li9 Cr12 O24'
_cell_volume   442.10323583
_cell_formula_units_Z   3
loop_
 _symmetry_equiv_pos_site_id
 _symmetry_equiv_pos_as_xyz
  1  'x, y, z'
loop_
 _atom_site_type_symbol
 _atom_site_label
 _atom_site_symmetry_multiplicity
 _atom_site_fract_x
 _atom_site_fract_y
 _atom_site_fract_z
 _atom_site_occupancy
  Li  Li0  1  0.50000000  0.50000000  0.00000000  1
  Li  Li1  1  0.33333333  0.16666667  0.66666667  1
  Li  Li2  1  0.83333333  0.66666667  0.66666667  1
  Li  Li3  1  0.16666667  0.83333333  0.33333333  1
  Li  Li4  1  0.00000000  0.50000000  1.00000000  1
  Li  Li5  1  0.50000000  0.00000000  1.00000000  1
  Li  Li6  1  0.83333333  0.16666667  0.66666667  1
  Li  Li7  1  0.66666667  0.83333333  0.33333333  1
  Li  Li8  1  0.16666667  0.33333333  0.33333333  1
  Cr  Cr9  1  0.66666667  0.33333333  0.83333333  1
  Cr  Cr10  1  0.16666667  0.33333333  0.83333333  1
  Cr  Cr11  1  0.66666667  0.83333333  0.83333333  1
  Cr  Cr12  1  0.16666667  0.83333333  0.83333333  1
  Cr  Cr13  1  0.33333333  0.66666667  0.16666667  1
  Cr  Cr14  1  0.83333333  0.66666667  0.16666667  1
  Cr  Cr15  1  0.33333333  0.16666667  0.16666667  1
  Cr  Cr16  1  0.83333333  0.16666667  0.16666667  1
  Cr  Cr17  1  1.00000000  1.00000000  0.50000000  1
  Cr  Cr18  1  0.50000000  0.00000000  0.50000000  1
  Cr  Cr19  1  0.00000000  0.50000000  0.50000000  1
  Cr  Cr20  1  0.50000000  0.50000000  0.50000000  1
  O  O21  1  0.00000000  0.00000000  0.75851900  1
  O  O22  1  0.33333333  0.66666667  0.90814767  1
  O  O23  1  0.50722925  0.01445850  0.76140300  1
  O  O24  1  0.98554150  0.49277075  0.76140300  1
  O  O25  1  0.50722925  0.49277075  0.76140300  1
  O  O26  1  0.82610408  0.17389592  0.90526367  1
  O  O27  1  0.34779183  0.17389592  0.90526367  1
  O  O28  1  0.82610408  0.65220817  0.90526367  1
  O  O29  1  0.66666667  0.33333333  0.09185233  1
  O  O30  1  1.00000000  0.00000000  0.24148100  1
  O  O31  1  0.17389592  0.34779183  0.09473633  1
  O  O32  1  0.65220817  0.82610408  0.09473633  1
  O  O33  1  0.17389592  0.82610408  0.09473633  1
  O  O34  1  0.49277075  0.50722925  0.23859700  1
  O  O35  1  0.01445850  0.50722925  0.23859700  1
  O  O36  1  0.49277075  0.98554150  0.23859700  1
  O  O37  1  0.33333333  0.66666667  0.42518567  1
  O  O38  1  0.66666667  0.33333333  0.57481433  1
  O  O39  1  0.84056258  0.68112517  0.42806967  1
  O  O40  1  0.31887483  0.15943742  0.42806967  1
  O  O41  1  0.84056258  0.15943742  0.42806967  1
  O  O42  1  0.15943742  0.84056258  0.57193033  1
  O  O43  1  0.68112517  0.84056258  0.57193033  1
  O  O44  1  0.15943742  0.31887483  0.57193033  1
