# generated using pymatgen
data_Ti3Mn3Cr2O16
_symmetry_space_group_name_H-M   'P 1'
_cell_length_a   10.14714600
_cell_length_b   5.87232000
_cell_length_c   8.90693462
_cell_angle_alpha   90.00000000
_cell_angle_beta   90.18338418
_cell_angle_gamma   90.00000000
_symmetry_Int_Tables_number   1
_chemical_formula_structural   Ti3Mn3Cr2O16
_chemical_formula_sum   'Ti6 Mn6 Cr4 O32'
_cell_volume   530.73736358
_cell_formula_units_Z   2
loop_
 _symmetry_equiv_pos_site_id
 _symmetry_equiv_pos_as_xyz
  1  'x, y, z'
loop_
 _atom_site_type_symbol
 _atom_site_label
 _atom_site_symmetry_multiplicity
 _atom_site_fract_x
 _atom_site_fract_y
 _atom_site_fract_z
 _atom_site_occupancy
  Ti  Ti0  1  0.41954750  0.74919150  0.20983100  1
  Ti  Ti1  1  0.41954750  0.25080850  0.20983100  1
  Ti  Ti2  1  0.84062500  0.00000000  0.70747500  1
  Ti  Ti3  1  0.91954750  0.24919150  0.20983100  1
  Ti  Ti4  1  0.91954750  0.75080850  0.20983100  1
  Ti  Ti5  1  0.34062500  0.50000000  0.70747500  1
  Mn  Mn6  1  0.17156500  0.00000000  0.20979900  1
  Mn  Mn7  1  0.58531350  0.75511450  0.71023600  1
  Mn  Mn8  1  0.58531350  0.24488550  0.71023600  1
  Mn  Mn9  1  0.67156500  0.50000000  0.20979900  1
  Mn  Mn10  1  0.08531350  0.25511450  0.71023600  1
  Mn  Mn11  1  0.08531350  0.74488550  0.71023600  1
  Cr  Cr12  1  0.32825800  0.00000000  0.48764400  1
  Cr  Cr13  1  0.66612800  0.00000000  0.98518900  1
  Cr  Cr14  1  0.82825800  0.50000000  0.48764400  1
  Cr  Cr15  1  0.16612800  0.50000000  0.98518900  1
  O  O16  1  0.41397850  0.75340550  0.60221200  1
  O  O17  1  0.47377000  0.00000000  0.34392900  1
  O  O18  1  0.33221700  0.00000000  0.09798100  1
  O  O19  1  0.00431600  0.00000000  0.31520100  1
  O  O20  1  0.00438100  0.00000000  0.81572600  1
  O  O21  1  0.41397850  0.24659450  0.60221200  1
  O  O22  1  0.25782900  0.78698700  0.33982200  1
  O  O23  1  0.25782900  0.21301300  0.33982200  1
  O  O24  1  0.82901400  0.00000000  0.10490000  1
  O  O25  1  0.17148900  0.00000000  0.60396000  1
  O  O26  1  0.73475400  0.78482800  0.84097700  1
  O  O27  1  0.73475400  0.21517200  0.84097700  1
  O  O28  1  0.66331500  0.00000000  0.60045600  1
  O  O29  1  0.58606650  0.75803650  0.10124300  1
  O  O30  1  0.52011200  0.00000000  0.83483300  1
  O  O31  1  0.58606650  0.24196350  0.10124300  1
  O  O32  1  0.91397850  0.25340550  0.60221200  1
  O  O33  1  0.97377000  0.50000000  0.34392900  1
  O  O34  1  0.83221700  0.50000000  0.09798100  1
  O  O35  1  0.50431600  0.50000000  0.31520100  1
  O  O36  1  0.50438100  0.50000000  0.81572600  1
  O  O37  1  0.91397850  0.74659450  0.60221200  1
  O  O38  1  0.75782900  0.28698700  0.33982200  1
  O  O39  1  0.75782900  0.71301300  0.33982200  1
  O  O40  1  0.32901400  0.50000000  0.10490000  1
  O  O41  1  0.67148900  0.50000000  0.60396000  1
  O  O42  1  0.23475400  0.28482800  0.84097700  1
  O  O43  1  0.23475400  0.71517200  0.84097700  1
  O  O44  1  0.16331500  0.50000000  0.60045600  1
  O  O45  1  0.08606650  0.25803650  0.10124300  1
  O  O46  1  0.02011200  0.50000000  0.83483300  1
  O  O47  1  0.08606650  0.74196350  0.10124300  1
