# generated using pymatgen
data_Li4Mn3Cu3(TeO8)2
_symmetry_space_group_name_H-M   'P 1'
_cell_length_a   10.36901073
_cell_length_b   5.94139176
_cell_length_c   9.89960721
_cell_angle_alpha   90.00000000
_cell_angle_beta   92.74890835
_cell_angle_gamma   90.00000000
_symmetry_Int_Tables_number   1
_chemical_formula_structural   Li4Mn3Cu3(TeO8)2
_chemical_formula_sum   'Li8 Mn6 Cu6 Te4 O32'
_cell_volume   609.17692837
_cell_formula_units_Z   2
loop_
 _symmetry_equiv_pos_site_id
 _symmetry_equiv_pos_as_xyz
  1  'x, y, z'
loop_
 _atom_site_type_symbol
 _atom_site_label
 _atom_site_symmetry_multiplicity
 _atom_site_fract_x
 _atom_site_fract_y
 _atom_site_fract_z
 _atom_site_occupancy
  Li  Li0  1  0.16803050  0.50000000  0.08217500  1
  Li  Li1  1  0.49799050  0.50000000  0.01587600  1
  Li  Li2  1  0.49966650  0.50000000  0.52210700  1
  Li  Li3  1  0.34144850  0.00000000  0.58859800  1
  Li  Li4  1  0.66803050  0.00000000  0.08217500  1
  Li  Li5  1  0.99799050  0.00000000  0.01587600  1
  Li  Li6  1  0.99966650  0.00000000  0.52210700  1
  Li  Li7  1  0.84144850  0.50000000  0.58859800  1
  Mn  Mn8  1  0.32829650  0.50000000  0.78770700  1
  Mn  Mn9  1  0.41603200  0.24600800  0.28843600  1
  Mn  Mn10  1  0.41603200  0.75399200  0.28843600  1
  Mn  Mn11  1  0.82829650  0.00000000  0.78770700  1
  Mn  Mn12  1  0.91603200  0.74600800  0.28843600  1
  Mn  Mn13  1  0.91603200  0.25399200  0.28843600  1
  Cu  Cu14  1  0.08370750  0.74669350  0.79013800  1
  Cu  Cu15  1  0.08370750  0.25330650  0.79013800  1
  Cu  Cu16  1  0.16985500  0.00000000  0.28936300  1
  Cu  Cu17  1  0.58370750  0.24669350  0.79013800  1
  Cu  Cu18  1  0.58370750  0.75330650  0.79013800  1
  Cu  Cu19  1  0.66985500  0.50000000  0.28936300  1
  Te  Te20  1  0.16942600  0.50000000  0.51961200  1
  Te  Te21  1  0.33002550  0.00000000  0.01677900  1
  Te  Te22  1  0.66942600  0.00000000  0.51961200  1
  Te  Te23  1  0.83002550  0.50000000  0.01677900  1
  O  O24  1  0.08102400  0.74557000  0.41531000  1
  O  O25  1  0.02601550  0.50000000  0.64691000  1
  O  O26  1  0.17048400  0.50000000  0.87837600  1
  O  O27  1  0.49401400  0.50000000  0.71015300  1
  O  O28  1  0.49571100  0.50000000  0.20635900  1
  O  O29  1  0.08102400  0.25443000  0.41531000  1
  O  O30  1  0.25329050  0.72095250  0.64121700  1
  O  O31  1  0.25329050  0.27904750  0.64121700  1
  O  O32  1  0.16066500  0.00000000  0.91659800  1
  O  O33  1  0.32295050  0.50000000  0.40718000  1
  O  O34  1  0.26411950  0.22677950  0.14578000  1
  O  O35  1  0.26411950  0.77322050  0.14578000  1
  O  O36  1  0.34055850  0.00000000  0.38040500  1
  O  O37  1  0.40347700  0.24420900  0.91084900  1
  O  O38  1  0.48548800  0.00000000  0.14059000  1
  O  O39  1  0.40347700  0.75579100  0.91084900  1
  O  O40  1  0.58102400  0.24557000  0.41531000  1
  O  O41  1  0.52601550  0.00000000  0.64691000  1
  O  O42  1  0.67048400  0.00000000  0.87837600  1
  O  O43  1  0.99401400  0.00000000  0.71015300  1
  O  O44  1  0.99571100  0.00000000  0.20635900  1
  O  O45  1  0.58102400  0.75443000  0.41531000  1
  O  O46  1  0.75329050  0.22095250  0.64121700  1
  O  O47  1  0.75329050  0.77904750  0.64121700  1
  O  O48  1  0.66066500  0.50000000  0.91659800  1
  O  O49  1  0.82295050  0.00000000  0.40718000  1
  O  O50  1  0.76411950  0.72677950  0.14578000  1
  O  O51  1  0.76411950  0.27322050  0.14578000  1
  O  O52  1  0.84055850  0.50000000  0.38040500  1
  O  O53  1  0.90347700  0.74420900  0.91084900  1
  O  O54  1  0.98548800  0.50000000  0.14059000  1
  O  O55  1  0.90347700  0.25579100  0.91084900  1
