# generated using pymatgen
data_Li3Mn(NiO2)4
_symmetry_space_group_name_H-M   'P 1'
_cell_length_a   10.18018284
_cell_length_b   5.87739886
_cell_length_c   5.86750284
_cell_angle_alpha   90.00000000
_cell_angle_beta   124.98125476
_cell_angle_gamma   90.00000000
_symmetry_Int_Tables_number   1
_chemical_formula_structural   Li3Mn(NiO2)4
_chemical_formula_sum   'Li6 Mn2 Ni8 O16'
_cell_volume   287.64579252
_cell_formula_units_Z   2
loop_
 _symmetry_equiv_pos_site_id
 _symmetry_equiv_pos_as_xyz
  1  'x, y, z'
loop_
 _atom_site_type_symbol
 _atom_site_label
 _atom_site_symmetry_multiplicity
 _atom_site_fract_x
 _atom_site_fract_y
 _atom_site_fract_z
 _atom_site_occupancy
  Li  Li0  1  0.25000000  0.75000000  0.50000000  1
  Li  Li1  1  0.00000000  0.00000000  0.50000000  1
  Li  Li2  1  0.25000000  0.25000000  0.50000000  1
  Li  Li3  1  0.75000000  0.25000000  0.50000000  1
  Li  Li4  1  0.50000000  0.50000000  0.50000000  1
  Li  Li5  1  0.75000000  0.75000000  0.50000000  1
  Mn  Mn6  1  0.00000000  0.50000000  0.00000000  1
  Mn  Mn7  1  0.50000000  0.00000000  0.00000000  1
  Ni  Ni8  1  0.00000000  0.50000000  0.50000000  1
  Ni  Ni9  1  0.00000000  0.00000000  0.00000000  1
  Ni  Ni10  1  0.25000000  0.75000000  0.00000000  1
  Ni  Ni11  1  0.25000000  0.25000000  0.00000000  1
  Ni  Ni12  1  0.50000000  0.00000000  0.50000000  1
  Ni  Ni13  1  0.50000000  0.50000000  0.00000000  1
  Ni  Ni14  1  0.75000000  0.25000000  0.00000000  1
  Ni  Ni15  1  0.75000000  0.75000000  0.00000000  1
  O  O16  1  0.23469500  0.50000000  0.22598400  1
  O  O17  1  0.00116900  0.73581000  0.23698000  1
  O  O18  1  0.00116900  0.26419000  0.23698000  1
  O  O19  1  0.24935000  0.00000000  0.23055100  1
  O  O20  1  0.25065000  0.50000000  0.76944900  1
  O  O21  1  0.49883100  0.23581000  0.76302000  1
  O  O22  1  0.49883100  0.76419000  0.76302000  1
  O  O23  1  0.26530500  0.00000000  0.77401600  1
  O  O24  1  0.73469500  0.00000000  0.22598400  1
  O  O25  1  0.50116900  0.23581000  0.23698000  1
  O  O26  1  0.50116900  0.76419000  0.23698000  1
  O  O27  1  0.74935000  0.50000000  0.23055100  1
  O  O28  1  0.75065000  0.00000000  0.76944900  1
  O  O29  1  0.99883100  0.73581000  0.76302000  1
  O  O30  1  0.99883100  0.26419000  0.76302000  1
  O  O31  1  0.76530500  0.50000000  0.77401600  1
