# generated using pymatgen
data_Li2V2O5F2
_symmetry_space_group_name_H-M   'P 1'
_cell_length_a   12.11356400
_cell_length_b   7.26827200
_cell_length_c   6.87989077
_cell_angle_alpha   90.00000000
_cell_angle_beta   121.59661890
_cell_angle_gamma   90.00000000
_symmetry_Int_Tables_number   1
_chemical_formula_structural   Li2V2O5F2
_chemical_formula_sum   'Li8 V8 O20 F8'
_cell_volume   515.94190137
_cell_formula_units_Z   4
loop_
 _symmetry_equiv_pos_site_id
 _symmetry_equiv_pos_as_xyz
  1  'x, y, z'
loop_
 _atom_site_type_symbol
 _atom_site_label
 _atom_site_symmetry_multiplicity
 _atom_site_fract_x
 _atom_site_fract_y
 _atom_site_fract_z
 _atom_site_occupancy
  Li  Li0  1  0.42376600  0.01659000  0.42222100  1
  Li  Li1  1  0.29620750  0.26925150  0.04707900  1
  Li  Li2  1  0.42376600  0.98341000  0.92222100  1
  Li  Li3  1  0.29620750  0.73074850  0.54707900  1
  Li  Li4  1  0.92376600  0.51659000  0.42222100  1
  Li  Li5  1  0.79620750  0.76925150  0.04707900  1
  Li  Li6  1  0.92376600  0.48341000  0.92222100  1
  Li  Li7  1  0.79620750  0.23074850  0.54707900  1
  V  V8  1  0.02147100  0.00994000  0.02742200  1
  V  V9  1  0.74056200  0.79210700  0.47768700  1
  V  V10  1  0.02147100  0.99006000  0.52742200  1
  V  V11  1  0.74056200  0.20789300  0.97768700  1
  V  V12  1  0.52147100  0.50994000  0.02742200  1
  V  V13  1  0.24056200  0.29210700  0.47768700  1
  V  V14  1  0.52147100  0.49006000  0.52742200  1
  V  V15  1  0.24056200  0.70789300  0.97768700  1
  O  O16  1  0.36769250  0.30353350  0.42803300  1
  O  O17  1  0.62952900  0.31547300  0.68580200  1
  O  O18  1  0.48169400  0.42755700  0.23013700  1
  O  O19  1  0.68303250  0.00344850  0.43801500  1
  O  O20  1  0.36769250  0.69646650  0.92803300  1
  O  O21  1  0.62952900  0.68452700  0.18580200  1
  O  O22  1  0.62689800  0.33490200  0.05742200  1
  O  O23  1  0.48169400  0.57244300  0.73013700  1
  O  O24  1  0.68303250  0.99655150  0.93801500  1
  O  O25  1  0.62689800  0.66509800  0.55742200  1
  O  O26  1  0.86769250  0.80353350  0.42803300  1
  O  O27  1  0.12952900  0.81547300  0.68580200  1
  O  O28  1  0.98169400  0.92755700  0.23013700  1
  O  O29  1  0.18303250  0.50344850  0.43801500  1
  O  O30  1  0.86769250  0.19646650  0.92803300  1
  O  O31  1  0.12952900  0.18452700  0.18580200  1
  O  O32  1  0.12689800  0.83490200  0.05742200  1
  O  O33  1  0.98169400  0.07244300  0.73013700  1
  O  O34  1  0.18303250  0.49655150  0.93801500  1
  O  O35  1  0.12689800  0.16509800  0.55742200  1
  F  F36  1  0.35333300  0.02391100  0.10531300  1
  F  F37  1  0.35565450  0.30039850  0.81070800  1
  F  F38  1  0.35333300  0.97608900  0.60531300  1
  F  F39  1  0.35565450  0.69960150  0.31070800  1
  F  F40  1  0.85333300  0.52391100  0.10531300  1
  F  F41  1  0.85565450  0.80039850  0.81070800  1
  F  F42  1  0.85333300  0.47608900  0.60531300  1
  F  F43  1  0.85565450  0.19960150  0.31070800  1
