# generated using pymatgen
data_Na3Ni2P2(CO7)2
_symmetry_space_group_name_H-M   'P 1'
_cell_length_a   8.80231900
_cell_length_b   6.49951600
_cell_length_c   10.27206498
_cell_angle_alpha   90.00000000
_cell_angle_beta   91.62891640
_cell_angle_gamma   90.00000000
_symmetry_Int_Tables_number   1
_chemical_formula_structural   Na3Ni2P2(CO7)2
_chemical_formula_sum   'Na6 Ni4 P4 C4 O28'
_cell_volume   587.43570958
_cell_formula_units_Z   2
loop_
 _symmetry_equiv_pos_site_id
 _symmetry_equiv_pos_as_xyz
  1  'x, y, z'
loop_
 _atom_site_type_symbol
 _atom_site_label
 _atom_site_symmetry_multiplicity
 _atom_site_fract_x
 _atom_site_fract_y
 _atom_site_fract_z
 _atom_site_occupancy
  Na  Na0  1  0.25644200  0.01466900  0.87297100  1
  Na  Na1  1  0.25563200  0.48753200  0.87574500  1
  Na  Na2  1  0.25642500  0.47177700  0.37780100  1
  Na  Na3  1  0.74357500  0.97177700  0.62219900  1
  Na  Na4  1  0.74355800  0.51466900  0.12702900  1
  Na  Na5  1  0.74436800  0.98753200  0.12425500  1
  Ni  Ni6  1  0.34252700  0.75460200  0.60673300  1
  Ni  Ni7  1  0.34334000  0.75454400  0.11197100  1
  Ni  Ni8  1  0.65666000  0.25454400  0.88802900  1
  Ni  Ni9  1  0.65747300  0.25460200  0.39326700  1
  P  P10  1  0.42506500  0.25072700  0.63990300  1
  P  P11  1  0.42348100  0.25175300  0.14033800  1
  P  P12  1  0.57651900  0.75175300  0.85966200  1
  P  P13  1  0.57493500  0.75072700  0.36009700  1
  C  C14  1  0.07031500  0.74635000  0.64293300  1
  C  C15  1  0.07176200  0.75089700  0.14400900  1
  C  C16  1  0.92823800  0.25089700  0.85599100  1
  C  C17  1  0.92968500  0.24635000  0.35706700  1
  O  O18  1  0.06851900  0.25048100  0.83990100  1
  O  O19  1  0.06805000  0.24700700  0.33568800  1
  O  O20  1  0.12721900  0.74451300  0.52876900  1
  O  O21  1  0.13253300  0.75349500  0.02979400  1
  O  O22  1  0.17388500  0.74886500  0.73731600  1
  O  O23  1  0.17272900  0.74869600  0.23829800  1
  O  O24  1  0.31977200  0.06476500  0.61321600  1
  O  O25  1  0.32407400  0.43789200  0.60471700  1
  O  O26  1  0.32436000  0.06538400  0.10108000  1
  O  O27  1  0.32220000  0.43872200  0.10395000  1
  O  O28  1  0.42512200  0.75234900  0.93358300  1
  O  O29  1  0.42588500  0.74301100  0.43259600  1
  O  O30  1  0.46318700  0.25424700  0.79037100  1
  O  O31  1  0.46629900  0.25787600  0.28756100  1
  O  O32  1  0.53370100  0.75787600  0.71243900  1
  O  O33  1  0.53681300  0.75424700  0.20962900  1
  O  O34  1  0.57411500  0.24301100  0.56740400  1
  O  O35  1  0.57487800  0.25234900  0.06641700  1
  O  O36  1  0.67564000  0.56538400  0.89892000  1
  O  O37  1  0.67780000  0.93872200  0.89605000  1
  O  O38  1  0.68022800  0.56476500  0.38678400  1
  O  O39  1  0.67592600  0.93789200  0.39528300  1
  O  O40  1  0.82727100  0.24869600  0.76170200  1
  O  O41  1  0.82611500  0.24886500  0.26268400  1
  O  O42  1  0.86746700  0.25349500  0.97020600  1
  O  O43  1  0.87278100  0.24451300  0.47123100  1
  O  O44  1  0.93195000  0.74700700  0.66431200  1
  O  O45  1  0.93148100  0.75048100  0.16009900  1
