# generated using pymatgen
data_Ga2NiO4
_symmetry_space_group_name_H-M   'P 1'
_cell_length_a   8.41094000
_cell_length_b   8.41094000
_cell_length_c   8.41094000
_cell_angle_alpha   90.00000000
_cell_angle_beta   90.00000000
_cell_angle_gamma   90.00000000
_symmetry_Int_Tables_number   1
_chemical_formula_structural   Ga2NiO4
_chemical_formula_sum   'Ga16 Ni8 O32'
_cell_volume   595.02279654
_cell_formula_units_Z   8
loop_
 _symmetry_equiv_pos_site_id
 _symmetry_equiv_pos_as_xyz
  1  'x, y, z'
loop_
 _atom_site_type_symbol
 _atom_site_label
 _atom_site_symmetry_multiplicity
 _atom_site_fract_x
 _atom_site_fract_y
 _atom_site_fract_z
 _atom_site_occupancy
  Ga  Ga0  1  0.12500000  0.12500000  0.12500000  1
  Ga  Ga1  1  0.37500000  0.12500000  0.37500000  1
  Ga  Ga2  1  0.62500000  0.87500000  0.37500000  1
  Ga  Ga3  1  0.87500000  0.87500000  0.12500000  1
  Ga  Ga4  1  0.12500000  0.62500000  0.62500000  1
  Ga  Ga5  1  0.37500000  0.62500000  0.87500000  1
  Ga  Ga6  1  0.62500000  0.37500000  0.87500000  1
  Ga  Ga7  1  0.87500000  0.37500000  0.62500000  1
  Ga  Ga8  1  0.62500000  0.12500000  0.62500000  1
  Ga  Ga9  1  0.87500000  0.12500000  0.87500000  1
  Ga  Ga10  1  0.12500000  0.87500000  0.87500000  1
  Ga  Ga11  1  0.37500000  0.87500000  0.62500000  1
  Ga  Ga12  1  0.62500000  0.62500000  0.12500000  1
  Ga  Ga13  1  0.87500000  0.62500000  0.37500000  1
  Ga  Ga14  1  0.12500000  0.37500000  0.37500000  1
  Ga  Ga15  1  0.37500000  0.37500000  0.12500000  1
  Ni  Ni16  1  0.00000000  0.00000000  0.50000000  1
  Ni  Ni17  1  0.25000000  0.75000000  0.25000000  1
  Ni  Ni18  1  0.00000000  0.50000000  0.00000000  1
  Ni  Ni19  1  0.25000000  0.25000000  0.75000000  1
  Ni  Ni20  1  0.50000000  0.00000000  0.00000000  1
  Ni  Ni21  1  0.75000000  0.75000000  0.75000000  1
  Ni  Ni22  1  0.50000000  0.50000000  0.50000000  1
  Ni  Ni23  1  0.75000000  0.25000000  0.25000000  1
  O  O24  1  0.61384833  0.11384833  0.38615167  1
  O  O25  1  0.11384833  0.88615167  0.11384833  1
  O  O26  1  0.13615167  0.36384833  0.13615167  1
  O  O27  1  0.88615167  0.11384833  0.11384833  1
  O  O28  1  0.13615167  0.13615167  0.36384833  1
  O  O29  1  0.38615167  0.88615167  0.38615167  1
  O  O30  1  0.36384833  0.36384833  0.36384833  1
  O  O31  1  0.36384833  0.13615167  0.13615167  1
  O  O32  1  0.61384833  0.61384833  0.88615167  1
  O  O33  1  0.11384833  0.38615167  0.61384833  1
  O  O34  1  0.13615167  0.86384833  0.63615167  1
  O  O35  1  0.88615167  0.61384833  0.61384833  1
  O  O36  1  0.13615167  0.63615167  0.86384833  1
  O  O37  1  0.38615167  0.38615167  0.88615167  1
  O  O38  1  0.36384833  0.86384833  0.86384833  1
  O  O39  1  0.36384833  0.63615167  0.63615167  1
  O  O40  1  0.11384833  0.11384833  0.88615167  1
  O  O41  1  0.61384833  0.88615167  0.61384833  1
  O  O42  1  0.63615167  0.36384833  0.63615167  1
  O  O43  1  0.38615167  0.11384833  0.61384833  1
  O  O44  1  0.63615167  0.13615167  0.86384833  1
  O  O45  1  0.88615167  0.88615167  0.88615167  1
  O  O46  1  0.86384833  0.36384833  0.86384833  1
  O  O47  1  0.86384833  0.13615167  0.63615167  1
  O  O48  1  0.11384833  0.61384833  0.38615167  1
  O  O49  1  0.61384833  0.38615167  0.11384833  1
  O  O50  1  0.63615167  0.86384833  0.13615167  1
  O  O51  1  0.38615167  0.61384833  0.11384833  1
  O  O52  1  0.63615167  0.63615167  0.36384833  1
  O  O53  1  0.88615167  0.38615167  0.38615167  1
  O  O54  1  0.86384833  0.86384833  0.36384833  1
  O  O55  1  0.86384833  0.63615167  0.13615167  1
