# generated using pymatgen
data_Li4FeNi5O12
_symmetry_space_group_name_H-M   'P 1'
_cell_length_a   5.02196404
_cell_length_b   8.50991824
_cell_length_c   9.95904849
_cell_angle_alpha   90.00000000
_cell_angle_beta   91.28876334
_cell_angle_gamma   90.00000000
_symmetry_Int_Tables_number   1
_chemical_formula_structural   Li4FeNi5O12
_chemical_formula_sum   'Li8 Fe2 Ni10 O24'
_cell_volume   425.50724518
_cell_formula_units_Z   2
loop_
 _symmetry_equiv_pos_site_id
 _symmetry_equiv_pos_as_xyz
  1  'x, y, z'
loop_
 _atom_site_type_symbol
 _atom_site_label
 _atom_site_symmetry_multiplicity
 _atom_site_fract_x
 _atom_site_fract_y
 _atom_site_fract_z
 _atom_site_occupancy
  Li  Li0  1  0.60063250  0.24949850  0.25175700  1
  Li  Li1  1  0.39936750  0.24949850  0.74824300  1
  Li  Li2  1  0.60470050  0.74741550  0.25040500  1
  Li  Li3  1  0.39529950  0.74741550  0.74959500  1
  Li  Li4  1  0.10063250  0.74949850  0.25175700  1
  Li  Li5  1  0.89936750  0.74949850  0.74824300  1
  Li  Li6  1  0.10470050  0.24741550  0.25040500  1
  Li  Li7  1  0.89529950  0.24741550  0.74959500  1
  Fe  Fe8  1  0.00000000  0.00035000  0.50000000  1
  Fe  Fe9  1  0.50000000  0.50035000  0.50000000  1
  Ni  Ni10  1  0.50000000  0.33348500  0.00000000  1
  Ni  Ni11  1  0.50000000  0.83506950  0.50000000  1
  Ni  Ni12  1  0.50000000  0.16525950  0.50000000  1
  Ni  Ni13  1  0.50000000  0.66331400  0.00000000  1
  Ni  Ni14  1  0.50000000  0.00144200  0.00000000  1
  Ni  Ni15  1  0.00000000  0.83348500  0.00000000  1
  Ni  Ni16  1  0.00000000  0.33506950  0.50000000  1
  Ni  Ni17  1  0.00000000  0.66525950  0.50000000  1
  Ni  Ni18  1  0.00000000  0.16331400  0.00000000  1
  Ni  Ni19  1  0.00000000  0.50144200  0.00000000  1
  O  O20  1  0.65037150  0.32420850  0.60876600  1
  O  O21  1  0.34962850  0.32420850  0.39123400  1
  O  O22  1  0.64956350  0.18018750  0.89248100  1
  O  O23  1  0.67521600  0.82527100  0.89905100  1
  O  O24  1  0.35043650  0.18018750  0.10751900  1
  O  O25  1  0.83575700  0.99712800  0.09428500  1
  O  O26  1  0.32478400  0.82527100  0.10094900  1
  O  O27  1  0.64964350  0.67585850  0.61052100  1
  O  O28  1  0.67171100  0.99911900  0.59745500  1
  O  O29  1  0.35035650  0.67585850  0.38947900  1
  O  O30  1  0.32828900  0.99911900  0.40254500  1
  O  O31  1  0.16424300  0.99712800  0.90571500  1
  O  O32  1  0.15037150  0.82420850  0.60876600  1
  O  O33  1  0.84962850  0.82420850  0.39123400  1
  O  O34  1  0.14956350  0.68018750  0.89248100  1
  O  O35  1  0.17521600  0.32527100  0.89905100  1
  O  O36  1  0.85043650  0.68018750  0.10751900  1
  O  O37  1  0.33575700  0.49712800  0.09428500  1
  O  O38  1  0.82478400  0.32527100  0.10094900  1
  O  O39  1  0.14964350  0.17585850  0.61052100  1
  O  O40  1  0.17171100  0.49911900  0.59745500  1
  O  O41  1  0.85035650  0.17585850  0.38947900  1
  O  O42  1  0.82828900  0.49911900  0.40254500  1
  O  O43  1  0.66424300  0.49712800  0.90571500  1
