# generated using pymatgen
data_Mn7O12
_symmetry_space_group_name_H-M   'P 1'
_cell_length_a   7.37237580
_cell_length_b   7.37237580
_cell_length_c   7.37237580
_cell_angle_alpha   90.00000000
_cell_angle_beta   90.00000000
_cell_angle_gamma   90.00000000
_symmetry_Int_Tables_number   1
_chemical_formula_structural   Mn7O12
_chemical_formula_sum   'Mn14 O24'
_cell_volume   400.70281598
_cell_formula_units_Z   2
loop_
 _symmetry_equiv_pos_site_id
 _symmetry_equiv_pos_as_xyz
  1  'x, y, z'
loop_
 _atom_site_type_symbol
 _atom_site_label
 _atom_site_symmetry_multiplicity
 _atom_site_fract_x
 _atom_site_fract_y
 _atom_site_fract_z
 _atom_site_occupancy
  Mn  Mn0  1  0.00000000  0.00000000  0.50000000  1
  Mn  Mn1  1  0.25000000  0.75000000  0.75000000  1
  Mn  Mn2  1  0.25000000  0.75000000  0.25000000  1
  Mn  Mn3  1  0.25000000  0.25000000  0.25000000  1
  Mn  Mn4  1  0.00000000  0.50000000  0.50000000  1
  Mn  Mn5  1  0.00000000  0.50000000  0.00000000  1
  Mn  Mn6  1  0.25000000  0.25000000  0.75000000  1
  Mn  Mn7  1  0.50000000  0.50000000  0.00000000  1
  Mn  Mn8  1  0.75000000  0.25000000  0.25000000  1
  Mn  Mn9  1  0.75000000  0.25000000  0.75000000  1
  Mn  Mn10  1  0.75000000  0.75000000  0.75000000  1
  Mn  Mn11  1  0.50000000  0.00000000  0.00000000  1
  Mn  Mn12  1  0.50000000  0.00000000  0.50000000  1
  Mn  Mn13  1  0.75000000  0.75000000  0.25000000  1
  O  O14  1  0.50000000  0.68944950  0.18394350  1
  O  O15  1  0.31055050  0.81605650  0.50000000  1
  O  O16  1  0.50000000  0.68944950  0.81605650  1
  O  O17  1  0.31605650  0.00000000  0.81055050  1
  O  O18  1  0.31055050  0.18394350  0.50000000  1
  O  O19  1  0.81605650  0.50000000  0.68944950  1
  O  O20  1  0.68394350  0.00000000  0.81055050  1
  O  O21  1  0.18944950  0.31605650  0.00000000  1
  O  O22  1  0.18394350  0.50000000  0.68944950  1
  O  O23  1  0.00000000  0.81055050  0.68394350  1
  O  O24  1  0.18944950  0.68394350  0.00000000  1
  O  O25  1  0.00000000  0.81055050  0.31605650  1
  O  O26  1  0.00000000  0.18944950  0.68394350  1
  O  O27  1  0.81055050  0.31605650  0.00000000  1
  O  O28  1  0.00000000  0.18944950  0.31605650  1
  O  O29  1  0.81605650  0.50000000  0.31055050  1
  O  O30  1  0.81055050  0.68394350  0.00000000  1
  O  O31  1  0.31605650  0.00000000  0.18944950  1
  O  O32  1  0.18394350  0.50000000  0.31055050  1
  O  O33  1  0.68944950  0.81605650  0.50000000  1
  O  O34  1  0.68394350  0.00000000  0.18944950  1
  O  O35  1  0.50000000  0.31055050  0.18394350  1
  O  O36  1  0.68944950  0.18394350  0.50000000  1
  O  O37  1  0.50000000  0.31055050  0.81605650  1
