# generated using pymatgen
data_Mn2O3F
_symmetry_space_group_name_H-M   'P 1'
_cell_length_a   6.04211600
_cell_length_b   13.48695311
_cell_length_c   6.33003546
_cell_angle_alpha   90.00000000
_cell_angle_beta   90.00000000
_cell_angle_gamma   90.00000000
_symmetry_Int_Tables_number   1
_chemical_formula_structural   Mn2O3F
_chemical_formula_sum   'Mn16 O24 F8'
_cell_volume   515.83291333
_cell_formula_units_Z   8
loop_
 _symmetry_equiv_pos_site_id
 _symmetry_equiv_pos_as_xyz
  1  'x, y, z'
loop_
 _atom_site_type_symbol
 _atom_site_label
 _atom_site_symmetry_multiplicity
 _atom_site_fract_x
 _atom_site_fract_y
 _atom_site_fract_z
 _atom_site_occupancy
  Mn  Mn0  1  0.76207100  0.00000000  0.00000000  1
  Mn  Mn1  1  0.23792900  0.00000000  0.00000000  1
  Mn  Mn2  1  0.00000000  0.24264200  0.00000000  1
  Mn  Mn3  1  0.50000000  0.00000000  0.50000000  1
  Mn  Mn4  1  0.50000000  0.25735800  0.00000000  1
  Mn  Mn5  1  0.00000000  0.00000000  0.50000000  1
  Mn  Mn6  1  0.25000000  0.25000000  0.50000000  1
  Mn  Mn7  1  0.75000000  0.25000000  0.50000000  1
  Mn  Mn8  1  0.26207100  0.50000000  0.00000000  1
  Mn  Mn9  1  0.73792900  0.50000000  0.00000000  1
  Mn  Mn10  1  0.50000000  0.74264200  0.00000000  1
  Mn  Mn11  1  0.00000000  0.50000000  0.50000000  1
  Mn  Mn12  1  0.00000000  0.75735800  0.00000000  1
  Mn  Mn13  1  0.50000000  0.50000000  0.50000000  1
  Mn  Mn14  1  0.75000000  0.75000000  0.50000000  1
  Mn  Mn15  1  0.25000000  0.75000000  0.50000000  1
  O  O16  1  0.00000000  0.09178050  0.00000000  1
  O  O17  1  0.75109300  0.00000000  0.69462300  1
  O  O18  1  0.24890700  0.00000000  0.69462300  1
  O  O19  1  0.75000000  0.25000000  0.80626800  1
  O  O20  1  0.75109300  0.00000000  0.30537700  1
  O  O21  1  0.24890700  0.00000000  0.30537700  1
  O  O22  1  0.25000000  0.25000000  0.80626800  1
  O  O23  1  0.50000000  0.40821950  0.00000000  1
  O  O24  1  0.50000000  0.15543700  0.50000000  1
  O  O25  1  0.00000000  0.34456300  0.50000000  1
  O  O26  1  0.75000000  0.25000000  0.19373200  1
  O  O27  1  0.25000000  0.25000000  0.19373200  1
  O  O28  1  0.50000000  0.59178050  0.00000000  1
  O  O29  1  0.25109300  0.50000000  0.69462300  1
  O  O30  1  0.74890700  0.50000000  0.69462300  1
  O  O31  1  0.25000000  0.75000000  0.80626800  1
  O  O32  1  0.25109300  0.50000000  0.30537700  1
  O  O33  1  0.74890700  0.50000000  0.30537700  1
  O  O34  1  0.75000000  0.75000000  0.80626800  1
  O  O35  1  0.00000000  0.90821950  0.00000000  1
  O  O36  1  0.00000000  0.65543700  0.50000000  1
  O  O37  1  0.50000000  0.84456300  0.50000000  1
  O  O38  1  0.25000000  0.75000000  0.19373200  1
  O  O39  1  0.75000000  0.75000000  0.19373200  1
  F  F40  1  0.50000000  0.09338800  0.00000000  1
  F  F41  1  0.00000000  0.14115150  0.50000000  1
  F  F42  1  0.00000000  0.40661200  0.00000000  1
  F  F43  1  0.50000000  0.35884850  0.50000000  1
  F  F44  1  0.00000000  0.59338800  0.00000000  1
  F  F45  1  0.50000000  0.64115150  0.50000000  1
  F  F46  1  0.50000000  0.90661200  0.00000000  1
  F  F47  1  0.00000000  0.85884850  0.50000000  1
