# generated using pymatgen
data_Ta5Pb11O26
_symmetry_space_group_name_H-M   'P 1'
_cell_length_a   13.30720600
_cell_length_b   7.67019600
_cell_length_c   13.46593793
_cell_angle_alpha   90.00000000
_cell_angle_beta   109.73934235
_cell_angle_gamma   90.00000000
_symmetry_Int_Tables_number   1
_chemical_formula_structural   Ta5Pb11O26
_chemical_formula_sum   'Ta10 Pb22 O52'
_cell_volume   1293.68873645
_cell_formula_units_Z   2
loop_
 _symmetry_equiv_pos_site_id
 _symmetry_equiv_pos_as_xyz
  1  'x, y, z'
loop_
 _atom_site_type_symbol
 _atom_site_label
 _atom_site_symmetry_multiplicity
 _atom_site_fract_x
 _atom_site_fract_y
 _atom_site_fract_z
 _atom_site_occupancy
  Ta  Ta0  1  0.00000000  0.00000000  0.00000000  1
  Ta  Ta1  1  0.25000000  0.25000000  0.00000000  1
  Ta  Ta2  1  0.25000000  0.75000000  0.00000000  1
  Ta  Ta3  1  0.25000000  0.75000000  0.50000000  1
  Ta  Ta4  1  0.25000000  0.25000000  0.50000000  1
  Ta  Ta5  1  0.50000000  0.50000000  0.00000000  1
  Ta  Ta6  1  0.75000000  0.75000000  0.00000000  1
  Ta  Ta7  1  0.75000000  0.25000000  0.00000000  1
  Ta  Ta8  1  0.75000000  0.25000000  0.50000000  1
  Ta  Ta9  1  0.75000000  0.75000000  0.50000000  1
  Pb  Pb10  1  0.00000000  0.50000000  0.00000000  1
  Pb  Pb11  1  0.50227000  0.75384600  0.25731500  1
  Pb  Pb12  1  0.50227000  0.24615400  0.25731500  1
  Pb  Pb13  1  0.25137100  0.50000000  0.25668900  1
  Pb  Pb14  1  0.50000000  0.50000000  0.50000000  1
  Pb  Pb15  1  0.50000000  0.00000000  0.50000000  1
  Pb  Pb16  1  0.24906500  0.00000000  0.24579200  1
  Pb  Pb17  1  0.49773000  0.24615400  0.74268500  1
  Pb  Pb18  1  0.49773000  0.75384600  0.74268500  1
  Pb  Pb19  1  0.74862900  0.50000000  0.74331100  1
  Pb  Pb20  1  0.75093500  0.00000000  0.75420800  1
  Pb  Pb21  1  0.50000000  0.00000000  0.00000000  1
  Pb  Pb22  1  0.00227000  0.25384600  0.25731500  1
  Pb  Pb23  1  0.00227000  0.74615400  0.25731500  1
  Pb  Pb24  1  0.75137100  0.00000000  0.25668900  1
  Pb  Pb25  1  0.00000000  0.00000000  0.50000000  1
  Pb  Pb26  1  0.00000000  0.50000000  0.50000000  1
  Pb  Pb27  1  0.74906500  0.50000000  0.24579200  1
  Pb  Pb28  1  0.99773000  0.74615400  0.74268500  1
  Pb  Pb29  1  0.99773000  0.25384600  0.74268500  1
  Pb  Pb30  1  0.24862900  0.00000000  0.74331100  1
  Pb  Pb31  1  0.25093500  0.50000000  0.75420800  1
  O  O32  1  0.21563000  0.50000000  0.02012000  1
  O  O33  1  0.07937000  0.00000000  0.15512500  1
  O  O34  1  0.21738750  0.21061150  0.34453000  1
  O  O35  1  0.40300600  0.31361600  0.02243100  1
  O  O36  1  0.21738750  0.78938850  0.34453000  1
  O  O37  1  0.56816500  0.00000000  0.19906000  1
  O  O38  1  0.40300600  0.68638400  0.02243100  1
  O  O39  1  0.72720600  0.50000000  0.52438200  1
  O  O40  1  0.28895200  0.21523400  0.15589600  1
  O  O41  1  0.59307650  0.78520250  0.46704000  1
  O  O42  1  0.28895200  0.78476600  0.15589600  1
  O  O43  1  0.59307650  0.21479750  0.46704000  1
  O  O44  1  0.42272800  0.00000000  0.32877800  1
  O  O45  1  0.57727200  0.00000000  0.67122200  1
  O  O46  1  0.71104800  0.21523400  0.84410400  1
  O  O47  1  0.40692350  0.78520250  0.53296000  1
  O  O48  1  0.71104800  0.78476600  0.84410400  1
  O  O49  1  0.40692350  0.21479750  0.53296000  1
  O  O50  1  0.27279400  0.50000000  0.47561800  1
  O  O51  1  0.59699400  0.31361600  0.97756900  1
  O  O52  1  0.78261250  0.21061150  0.65547000  1
  O  O53  1  0.59699400  0.68638400  0.97756900  1
  O  O54  1  0.43183500  0.00000000  0.80094000  1
  O  O55  1  0.78261250  0.78938850  0.65547000  1
  O  O56  1  0.92063000  0.00000000  0.84487500  1
  O  O57  1  0.78437000  0.50000000  0.97988000  1
  O  O58  1  0.71563000  0.00000000  0.02012000  1
  O  O59  1  0.57937000  0.50000000  0.15512500  1
  O  O60  1  0.71738750  0.71061150  0.34453000  1
  O  O61  1  0.90300600  0.81361600  0.02243100  1
  O  O62  1  0.71738750  0.28938850  0.34453000  1
  O  O63  1  0.06816500  0.50000000  0.19906000  1
  O  O64  1  0.90300600  0.18638400  0.02243100  1
  O  O65  1  0.22720600  0.00000000  0.52438200  1
  O  O66  1  0.78895200  0.71523400  0.15589600  1
  O  O67  1  0.09307650  0.28520250  0.46704000  1
  O  O68  1  0.78895200  0.28476600  0.15589600  1
  O  O69  1  0.09307650  0.71479750  0.46704000  1
  O  O70  1  0.92272800  0.50000000  0.32877800  1
  O  O71  1  0.07727200  0.50000000  0.67122200  1
  O  O72  1  0.21104800  0.71523400  0.84410400  1
  O  O73  1  0.90692350  0.28520250  0.53296000  1
  O  O74  1  0.21104800  0.28476600  0.84410400  1
  O  O75  1  0.90692350  0.71479750  0.53296000  1
  O  O76  1  0.77279400  0.00000000  0.47561800  1
  O  O77  1  0.09699400  0.81361600  0.97756900  1
  O  O78  1  0.28261250  0.71061150  0.65547000  1
  O  O79  1  0.09699400  0.18638400  0.97756900  1
  O  O80  1  0.93183500  0.50000000  0.80094000  1
  O  O81  1  0.28261250  0.28938850  0.65547000  1
  O  O82  1  0.42063000  0.50000000  0.84487500  1
  O  O83  1  0.28437000  0.00000000  0.97988000  1
