# generated using pymatgen
data_Fe2NiO4
_symmetry_space_group_name_H-M   'P 1'
_cell_length_a   10.36224200
_cell_length_b   6.02459800
_cell_length_c   19.92552847
_cell_angle_alpha   90.00000000
_cell_angle_beta   100.40838078
_cell_angle_gamma   90.00000000
_symmetry_Int_Tables_number   1
_chemical_formula_structural   Fe2NiO4
_chemical_formula_sum   'Fe32 Ni16 O64'
_cell_volume   1223.44911714
_cell_formula_units_Z   16
loop_
 _symmetry_equiv_pos_site_id
 _symmetry_equiv_pos_as_xyz
  1  'x, y, z'
loop_
 _atom_site_type_symbol
 _atom_site_label
 _atom_site_symmetry_multiplicity
 _atom_site_fract_x
 _atom_site_fract_y
 _atom_site_fract_z
 _atom_site_occupancy
  Fe  Fe0  1  0.69139800  0.00000000  0.06160000  1
  Fe  Fe1  1  0.46981150  0.74759850  0.15417200  1
  Fe  Fe2  1  0.43919500  0.00000000  0.31057000  1
  Fe  Fe3  1  0.99646800  0.50000000  0.50080000  1
  Fe  Fe4  1  0.34459500  0.00000000  0.02999900  1
  Fe  Fe5  1  0.46981150  0.25240150  0.15417200  1
  Fe  Fe6  1  0.71822750  0.24777850  0.40728500  1
  Fe  Fe7  1  0.69024200  0.50000000  0.56283400  1
  Fe  Fe8  1  0.74753800  0.50000000  0.75023100  1
  Fe  Fe9  1  0.59282200  0.50000000  0.27773300  1
  Fe  Fe10  1  0.71822750  0.75222150  0.40728500  1
  Fe  Fe11  1  0.96910350  0.74992350  0.65693200  1
  Fe  Fe12  1  0.94109700  0.00000000  0.81365500  1
  Fe  Fe13  1  0.46910350  0.75007650  0.65693200  1
  Fe  Fe14  1  0.72146650  0.74821650  0.90738000  1
  Fe  Fe15  1  0.22146650  0.75178350  0.90738000  1
  Fe  Fe16  1  0.19139800  0.50000000  0.06160000  1
  Fe  Fe17  1  0.96981150  0.24759850  0.15417200  1
  Fe  Fe18  1  0.93919500  0.50000000  0.31057000  1
  Fe  Fe19  1  0.49646800  0.00000000  0.50080000  1
  Fe  Fe20  1  0.84459500  0.50000000  0.02999900  1
  Fe  Fe21  1  0.96981150  0.75240150  0.15417200  1
  Fe  Fe22  1  0.21822750  0.74777850  0.40728500  1
  Fe  Fe23  1  0.19024200  0.00000000  0.56283400  1
  Fe  Fe24  1  0.24753800  0.00000000  0.75023100  1
  Fe  Fe25  1  0.09282200  0.00000000  0.27773300  1
  Fe  Fe26  1  0.21822750  0.25222150  0.40728500  1
  Fe  Fe27  1  0.46910350  0.24992350  0.65693200  1
  Fe  Fe28  1  0.44109700  0.50000000  0.81365500  1
  Fe  Fe29  1  0.96910350  0.25007650  0.65693200  1
  Fe  Fe30  1  0.22146650  0.24821650  0.90738000  1
  Fe  Fe31  1  0.72146650  0.25178350  0.90738000  1
  Ni  Ni32  1  0.49875600  0.50000000  0.99939300  1
  Ni  Ni33  1  0.74928600  0.00000000  0.25161900  1
  Ni  Ni34  1  0.21688400  0.00000000  0.15500300  1
  Ni  Ni35  1  0.96699200  0.00000000  0.40661000  1
  Ni  Ni36  1  0.71889100  0.00000000  0.65672700  1
  Ni  Ni37  1  0.84450400  0.00000000  0.53140300  1
  Ni  Ni38  1  0.96887900  0.50000000  0.90757700  1
  Ni  Ni39  1  0.09397200  0.50000000  0.78289300  1
  Ni  Ni40  1  0.99875600  0.00000000  0.99939300  1
  Ni  Ni41  1  0.24928600  0.50000000  0.25161900  1
  Ni  Ni42  1  0.71688400  0.50000000  0.15500300  1
  Ni  Ni43  1  0.46699200  0.50000000  0.40661000  1
  Ni  Ni44  1  0.21889100  0.50000000  0.65672700  1
  Ni  Ni45  1  0.34450400  0.50000000  0.53140300  1
  Ni  Ni46  1  0.46887900  0.00000000  0.90757700  1
  Ni  Ni47  1  0.59397200  0.00000000  0.78289300  1
  O  O48  1  0.28875050  0.76743450  0.09182000  1
  O  O49  1  0.78875050  0.73256550  0.09182000  1
  O  O50  1  0.40755500  0.00000000  0.21257000  1
  O  O51  1  0.03656100  0.76412900  0.34363800  1
  O  O52  1  0.52137100  0.00000000  0.09323300  1
  O  O53  1  0.91564900  0.00000000  0.21343400  1
  O  O54  1  0.53656100  0.73587100  0.34363800  1
  O  O55  1  0.64651200  0.26572600  0.21645400  1
  O  O56  1  0.65508100  0.50000000  0.46256500  1
  O  O57  1  0.52791700  0.50000000  0.09970700  1
  O  O58  1  0.66050400  0.00000000  0.46646600  1
  O  O59  1  0.77182700  0.50000000  0.34514600  1
  O  O60  1  0.79170650  0.75492550  0.59393700  1
  O  O61  1  0.64651200  0.73427400  0.21645400  1
  O  O62  1  0.79170650  0.24507450  0.59393700  1
  O  O63  1  0.90029800  0.00000000  0.71257900  1
  O  O64  1  0.77765000  0.00000000  0.35387500  1
  O  O65  1  0.89918700  0.75840100  0.46732800  1
  O  O66  1  0.52491000  0.50000000  0.59731400  1
  O  O67  1  0.39918700  0.74159900  0.46732800  1
  O  O68  1  0.03864800  0.25802900  0.84753000  1
  O  O69  1  0.91233500  0.50000000  0.71507900  1
  O  O70  1  0.64617750  0.75517550  0.71832900  1
  O  O71  1  0.15868500  0.50000000  0.96385800  1
  O  O72  1  0.03864800  0.74197100  0.84753000  1
  O  O73  1  0.03770700  0.50000000  0.60104800  1
  O  O74  1  0.67500800  0.50000000  0.96749800  1
  O  O75  1  0.14617750  0.74482450  0.71832900  1
  O  O76  1  0.27795100  0.50000000  0.84871000  1
  O  O77  1  0.89552450  0.27220150  0.97002500  1
  O  O78  1  0.78067800  0.50000000  0.84861200  1
  O  O79  1  0.89552450  0.72779850  0.97002500  1
  O  O80  1  0.78875050  0.26743450  0.09182000  1
  O  O81  1  0.28875050  0.23256550  0.09182000  1
  O  O82  1  0.90755500  0.50000000  0.21257000  1
  O  O83  1  0.53656100  0.26412900  0.34363800  1
  O  O84  1  0.02137100  0.50000000  0.09323300  1
  O  O85  1  0.41564900  0.50000000  0.21343400  1
  O  O86  1  0.03656100  0.23587100  0.34363800  1
  O  O87  1  0.14651200  0.76572600  0.21645400  1
  O  O88  1  0.15508100  0.00000000  0.46256500  1
  O  O89  1  0.02791700  0.00000000  0.09970700  1
  O  O90  1  0.16050400  0.50000000  0.46646600  1
  O  O91  1  0.27182700  0.00000000  0.34514600  1
  O  O92  1  0.29170650  0.25492550  0.59393700  1
  O  O93  1  0.14651200  0.23427400  0.21645400  1
  O  O94  1  0.29170650  0.74507450  0.59393700  1
  O  O95  1  0.40029800  0.50000000  0.71257900  1
  O  O96  1  0.27765000  0.50000000  0.35387500  1
  O  O97  1  0.39918700  0.25840100  0.46732800  1
  O  O98  1  0.02491000  0.00000000  0.59731400  1
  O  O99  1  0.89918700  0.24159900  0.46732800  1
  O  O100  1  0.53864800  0.75802900  0.84753000  1
  O  O101  1  0.41233500  0.00000000  0.71507900  1
  O  O102  1  0.14617750  0.25517550  0.71832900  1
  O  O103  1  0.65868500  0.00000000  0.96385800  1
  O  O104  1  0.53864800  0.24197100  0.84753000  1
  O  O105  1  0.53770700  0.00000000  0.60104800  1
  O  O106  1  0.17500800  0.00000000  0.96749800  1
  O  O107  1  0.64617750  0.24482450  0.71832900  1
  O  O108  1  0.77795100  0.00000000  0.84871000  1
  O  O109  1  0.39552450  0.77220150  0.97002500  1
  O  O110  1  0.28067800  0.00000000  0.84861200  1
  O  O111  1  0.39552450  0.22779850  0.97002500  1
