# generated using pymatgen
data_V2P2H6PbO14
_symmetry_space_group_name_H-M   'P 1'
_cell_length_a   8.95753400
_cell_length_b   8.92238000
_cell_length_c   14.00075707
_cell_angle_alpha   90.00000000
_cell_angle_beta   102.05657424
_cell_angle_gamma   90.00000000
_symmetry_Int_Tables_number   1
_chemical_formula_structural   V2P2H6PbO14
_chemical_formula_sum   'V8 P8 H24 Pb4 O56'
_cell_volume   1094.29325985
_cell_formula_units_Z   4
loop_
 _symmetry_equiv_pos_site_id
 _symmetry_equiv_pos_as_xyz
  1  'x, y, z'
loop_
 _atom_site_type_symbol
 _atom_site_label
 _atom_site_symmetry_multiplicity
 _atom_site_fract_x
 _atom_site_fract_y
 _atom_site_fract_z
 _atom_site_occupancy
  V  V0  1  0.34639000  0.39564500  0.46800100  1
  V  V1  1  0.34639000  0.60435500  0.96800100  1
  V  V2  1  0.88120950  0.38850950  0.56933300  1
  V  V3  1  0.88120950  0.61149050  0.06933300  1
  V  V4  1  0.84639000  0.89564500  0.46800100  1
  V  V5  1  0.84639000  0.10435500  0.96800100  1
  V  V6  1  0.38120950  0.88850950  0.56933300  1
  V  V7  1  0.38120950  0.11149050  0.06933300  1
  P  P8  1  0.11713200  0.14140700  0.52144400  1
  P  P9  1  0.11713200  0.85859300  0.02144400  1
  P  P10  1  0.11732700  0.64192700  0.52459100  1
  P  P11  1  0.11732700  0.35807300  0.02459100  1
  P  P12  1  0.61713200  0.64140700  0.52144400  1
  P  P13  1  0.61713200  0.35859300  0.02144400  1
  P  P14  1  0.61732700  0.14192700  0.52459100  1
  P  P15  1  0.61732700  0.85807300  0.02459100  1
  H  H16  1  0.31687750  0.40294750  0.25776300  1
  H  H17  1  0.31687750  0.59705250  0.75776300  1
  H  H18  1  0.89089200  0.29897800  0.78284000  1
  H  H19  1  0.89089200  0.70102200  0.28284000  1
  H  H20  1  0.92511650  0.47076150  0.78136400  1
  H  H21  1  0.92511650  0.52923850  0.28136400  1
  H  H22  1  0.55708300  0.54017700  0.71405100  1
  H  H23  1  0.55708300  0.45982300  0.21405100  1
  H  H24  1  0.10829700  0.67379700  0.78671800  1
  H  H25  1  0.10829700  0.32620300  0.28671800  1
  H  H26  1  0.04868450  0.83685850  0.78601700  1
  H  H27  1  0.04868450  0.16314150  0.28601700  1
  H  H28  1  0.81687750  0.90294750  0.25776300  1
  H  H29  1  0.81687750  0.09705250  0.75776300  1
  H  H30  1  0.39089200  0.79897800  0.78284000  1
  H  H31  1  0.39089200  0.20102200  0.28284000  1
  H  H32  1  0.42511650  0.97076150  0.78136400  1
  H  H33  1  0.42511650  0.02923850  0.28136400  1
  H  H34  1  0.05708300  0.04017700  0.71405100  1
  H  H35  1  0.05708300  0.95982300  0.21405100  1
  H  H36  1  0.60829700  0.17379700  0.78671800  1
  H  H37  1  0.60829700  0.82620300  0.28671800  1
  H  H38  1  0.54868450  0.33685850  0.78601700  1
  H  H39  1  0.54868450  0.66314150  0.28601700  1
  Pb  Pb40  1  0.23121650  0.27260050  0.77756500  1
  Pb  Pb41  1  0.23121650  0.72739950  0.27756500  1
  Pb  Pb42  1  0.73121650  0.77260050  0.77756500  1
  Pb  Pb43  1  0.73121650  0.22739950  0.27756500  1
  O  O44  1  0.37962950  0.40980350  0.58675400  1
  O  O45  1  0.37962950  0.59019650  0.08675400  1
  O  O46  1  0.19643500  0.23969500  0.45740200  1
  O  O47  1  0.19643500  0.76030500  0.95740200  1
  O  O48  1  0.99127200  0.05392600  0.45271800  1
  O  O49  1  0.99127200  0.94607400  0.95271800  1
  O  O50  1  0.18472300  0.55098900  0.44916700  1
  O  O51  1  0.18472300  0.44901100  0.94916700  1
  O  O52  1  0.00126650  0.74715950  0.46106300  1
  O  O53  1  0.00126650  0.25284050  0.96106300  1
  O  O54  1  0.84669350  0.37805550  0.45221600  1
  O  O55  1  0.84669350  0.62194450  0.95221600  1
  O  O56  1  0.73691150  0.53738250  0.58659200  1
  O  O57  1  0.73691150  0.46261750  0.08659200  1
  O  O58  1  0.24487050  0.73210850  0.59408000  1
  O  O59  1  0.24487050  0.26789150  0.09408000  1
  O  O60  1  0.04156950  0.53807250  0.58997000  1
  O  O61  1  0.04156950  0.46192750  0.08997000  1
  O  O62  1  0.05021300  0.23919500  0.59559700  1
  O  O63  1  0.05021300  0.76080500  0.09559700  1
  O  O64  1  0.28295600  0.38140100  0.31758100  1
  O  O65  1  0.28295600  0.61859900  0.81758100  1
  O  O66  1  0.94000300  0.37688600  0.74858900  1
  O  O67  1  0.94000300  0.62311400  0.24858900  1
  O  O68  1  0.62472200  0.54865700  0.77827100  1
  O  O69  1  0.62472200  0.45134300  0.27827100  1
  O  O70  1  0.00970150  0.73400650  0.76968400  1
  O  O71  1  0.00970150  0.26599350  0.26968400  1
  O  O72  1  0.87962950  0.90980350  0.58675400  1
  O  O73  1  0.87962950  0.09019650  0.08675400  1
  O  O74  1  0.69643500  0.73969500  0.45740200  1
  O  O75  1  0.69643500  0.26030500  0.95740200  1
  O  O76  1  0.49127200  0.55392600  0.45271800  1
  O  O77  1  0.49127200  0.44607400  0.95271800  1
  O  O78  1  0.68472300  0.05098900  0.44916700  1
  O  O79  1  0.68472300  0.94901100  0.94916700  1
  O  O80  1  0.50126650  0.24715950  0.46106300  1
  O  O81  1  0.50126650  0.75284050  0.96106300  1
  O  O82  1  0.34669350  0.87805550  0.45221600  1
  O  O83  1  0.34669350  0.12194450  0.95221600  1
  O  O84  1  0.23691150  0.03738250  0.58659200  1
  O  O85  1  0.23691150  0.96261750  0.08659200  1
  O  O86  1  0.74487050  0.23210850  0.59408000  1
  O  O87  1  0.74487050  0.76789150  0.09408000  1
  O  O88  1  0.54156950  0.03807250  0.58997000  1
  O  O89  1  0.54156950  0.96192750  0.08997000  1
  O  O90  1  0.55021300  0.73919500  0.59559700  1
  O  O91  1  0.55021300  0.26080500  0.09559700  1
  O  O92  1  0.78295600  0.88140100  0.31758100  1
  O  O93  1  0.78295600  0.11859900  0.81758100  1
  O  O94  1  0.44000300  0.87688600  0.74858900  1
  O  O95  1  0.44000300  0.12311400  0.24858900  1
  O  O96  1  0.12472200  0.04865700  0.77827100  1
  O  O97  1  0.12472200  0.95134300  0.27827100  1
  O  O98  1  0.50970150  0.23400650  0.76968400  1
  O  O99  1  0.50970150  0.76599350  0.26968400  1
