# generated using pymatgen
data_Li3Co4O4F3
_symmetry_space_group_name_H-M   'P 1'
_cell_length_a   2.97121200
_cell_length_b   2.97121200
_cell_length_c   29.86295400
_cell_angle_alpha   90.00000000
_cell_angle_beta   90.00000000
_cell_angle_gamma   90.00000000
_symmetry_Int_Tables_number   1
_chemical_formula_structural   Li3Co4O4F3
_chemical_formula_sum   'Li6 Co8 O8 F6'
_cell_volume   263.63316657
_cell_formula_units_Z   2
loop_
 _symmetry_equiv_pos_site_id
 _symmetry_equiv_pos_as_xyz
  1  'x, y, z'
loop_
 _atom_site_type_symbol
 _atom_site_label
 _atom_site_symmetry_multiplicity
 _atom_site_fract_x
 _atom_site_fract_y
 _atom_site_fract_z
 _atom_site_occupancy
  Li  Li0  1  0.50000000  0.50000000  0.06870600  1
  Li  Li1  1  0.00000000  0.00000000  0.43129400  1
  Li  Li2  1  0.00000000  0.00000000  0.00000000  1
  Li  Li3  1  0.00000000  0.00000000  0.56870600  1
  Li  Li4  1  0.50000000  0.50000000  0.93129400  1
  Li  Li5  1  0.50000000  0.50000000  0.50000000  1
  Co  Co6  1  0.00000000  0.00000000  0.14081000  1
  Co  Co7  1  0.50000000  0.50000000  0.21828600  1
  Co  Co8  1  0.00000000  0.00000000  0.28171400  1
  Co  Co9  1  0.50000000  0.50000000  0.35919000  1
  Co  Co10  1  0.50000000  0.50000000  0.64081000  1
  Co  Co11  1  0.00000000  0.00000000  0.71828600  1
  Co  Co12  1  0.50000000  0.50000000  0.78171400  1
  Co  Co13  1  0.00000000  0.00000000  0.85919000  1
  O  O14  1  0.50000000  0.50000000  0.14125600  1
  O  O15  1  0.00000000  0.00000000  0.21284400  1
  O  O16  1  0.50000000  0.50000000  0.28715600  1
  O  O17  1  0.00000000  0.00000000  0.35874400  1
  O  O18  1  0.00000000  0.00000000  0.64125600  1
  O  O19  1  0.50000000  0.50000000  0.71284400  1
  O  O20  1  0.00000000  0.00000000  0.78715600  1
  O  O21  1  0.50000000  0.50000000  0.85874400  1
  F  F22  1  0.00000000  0.00000000  0.06653200  1
  F  F23  1  0.50000000  0.50000000  0.43346800  1
  F  F24  1  0.50000000  0.50000000  0.00000000  1
  F  F25  1  0.50000000  0.50000000  0.56653200  1
  F  F26  1  0.00000000  0.00000000  0.93346800  1
  F  F27  1  0.00000000  0.00000000  0.50000000  1
