# generated using pymatgen
data_LiTi3V(PO4)6
_symmetry_space_group_name_H-M   'P 1'
_cell_length_a   8.60315824
_cell_length_b   8.60315824
_cell_length_c   21.69207922
_cell_angle_alpha   90.00000000
_cell_angle_beta   90.00000000
_cell_angle_gamma   120.00000000
_symmetry_Int_Tables_number   1
_chemical_formula_structural   LiTi3V(PO4)6
_chemical_formula_sum   'Li3 Ti9 V3 P18 O72'
_cell_volume   1390.42521592
_cell_formula_units_Z   3
loop_
 _symmetry_equiv_pos_site_id
 _symmetry_equiv_pos_as_xyz
  1  'x, y, z'
loop_
 _atom_site_type_symbol
 _atom_site_label
 _atom_site_symmetry_multiplicity
 _atom_site_fract_x
 _atom_site_fract_y
 _atom_site_fract_z
 _atom_site_occupancy
  Li  Li0  1  0.66666667  0.33333333  0.33200933  1
  Li  Li1  1  0.33333333  0.66666667  0.66534267  1
  Li  Li2  1  0.00000000  0.00000000  0.99867600  1
  Ti  Ti3  1  0.66666667  0.33333333  0.18863933  1
  Ti  Ti4  1  0.33333333  0.66666667  0.30581467  1
  Ti  Ti5  1  0.33333333  0.66666667  0.02768867  1
  Ti  Ti6  1  0.33333333  0.66666667  0.52197267  1
  Ti  Ti7  1  0.00000000  0.00000000  0.63914800  1
  Ti  Ti8  1  0.00000000  0.00000000  0.36102200  1
  Ti  Ti9  1  0.00000000  0.00000000  0.85530600  1
  Ti  Ti10  1  0.66666667  0.33333333  0.97248133  1
  Ti  Ti11  1  0.66666667  0.33333333  0.69435533  1
  V  V12  1  0.00000000  0.00000000  0.14479400  1
  V  V13  1  0.66666667  0.33333333  0.47812733  1
  V  V14  1  0.33333333  0.66666667  0.81146067  1
  P  P15  1  0.28566833  0.00193667  0.25118967  1
  P  P16  1  0.99806333  0.28373167  0.25118967  1
  P  P17  1  0.71626833  0.71433167  0.25118967  1
  P  P18  1  0.95053700  0.62141700  0.08265500  1
  P  P19  1  0.67088000  0.04946300  0.08265500  1
  P  P20  1  0.37858300  0.32912000  0.08265500  1
  P  P21  1  0.95233500  0.33527000  0.58452300  1
  P  P22  1  0.66473000  0.61706500  0.58452300  1
  P  P23  1  0.38293500  0.04766500  0.58452300  1
  P  P24  1  0.61720367  0.95475033  0.41598833  1
  P  P25  1  0.33754667  0.38279633  0.41598833  1
  P  P26  1  0.04524967  0.66245333  0.41598833  1
  P  P27  1  0.61900167  0.66860333  0.91785633  1
  P  P28  1  0.33139667  0.95039833  0.91785633  1
  P  P29  1  0.04960167  0.38099833  0.91785633  1
  P  P30  1  0.28387033  0.28808367  0.74932167  1
  P  P31  1  0.00421333  0.71612967  0.74932167  1
  P  P32  1  0.71191633  0.99578667  0.74932167  1
  O  O33  1  0.46435967  0.29928533  0.02555133  1
  O  O34  1  0.83492567  0.53564033  0.02555133  1
  O  O35  1  0.47417167  0.16919533  0.24596933  1
  O  O36  1  0.70071467  0.16507433  0.02555133  1
  O  O37  1  0.29998800  0.83185600  0.25483700  1
  O  O38  1  0.17046833  0.98132567  0.19212967  1
  O  O39  1  0.83080467  0.30497633  0.24596933  1
  O  O40  1  0.16814400  0.46813200  0.25483700  1
  O  O41  1  0.53186800  0.70001200  0.25483700  1
  O  O42  1  0.86229800  0.50992300  0.14101400  1
  O  O43  1  0.97374867  0.81359933  0.08900133  1
  O  O44  1  0.64762500  0.13770200  0.14101400  1
  O  O45  1  0.01867433  0.18914267  0.19212967  1
  O  O46  1  0.69502367  0.52582833  0.24596933  1
  O  O47  1  0.81085733  0.82953167  0.19212967  1
  O  O48  1  0.13796000  0.64329100  0.07707700  1
  O  O49  1  0.50533100  0.86204000  0.07707700  1
  O  O50  1  0.83985067  0.02625133  0.08900133  1
  O  O51  1  0.49007700  0.35237500  0.14101400  1
  O  O52  1  0.35670900  0.49466900  0.07707700  1
  O  O53  1  0.97285933  0.16840667  0.30759367  1
  O  O54  1  0.18640067  0.16014933  0.08900133  1
  O  O55  1  0.83159333  0.80445267  0.30759367  1
  O  O56  1  0.19554733  0.02714067  0.30759367  1
  O  O57  1  0.13102633  0.63261867  0.35888467  1
  O  O58  1  0.50159233  0.86897367  0.35888467  1
  O  O59  1  0.14083833  0.50252867  0.57930267  1
  O  O60  1  0.36738133  0.49840767  0.35888467  1
  O  O61  1  0.96665467  0.16518933  0.58817033  1
  O  O62  1  0.83713500  0.31465900  0.52546300  1
  O  O63  1  0.49747133  0.63830967  0.57930267  1
  O  O64  1  0.83481067  0.80146533  0.58817033  1
  O  O65  1  0.19853467  0.03334533  0.58817033  1
  O  O66  1  0.52896467  0.84325633  0.47434733  1
  O  O67  1  0.64041533  0.14693267  0.42233467  1
  O  O68  1  0.31429167  0.47103533  0.47434733  1
  O  O69  1  0.68534100  0.52247600  0.52546300  1
  O  O70  1  0.36169033  0.85916167  0.57930267  1
  O  O71  1  0.47752400  0.16286500  0.52546300  1
  O  O72  1  0.80462667  0.97662433  0.41041033  1
  O  O73  1  0.17199767  0.19537333  0.41041033  1
  O  O74  1  0.50651733  0.35958467  0.42233467  1
  O  O75  1  0.15674367  0.68570833  0.47434733  1
  O  O76  1  0.02337567  0.82800233  0.41041033  1
  O  O77  1  0.63952600  0.50174000  0.64092700  1
  O  O78  1  0.85306733  0.49348267  0.42233467  1
  O  O79  1  0.49826000  0.13778600  0.64092700  1
  O  O80  1  0.86221400  0.36047400  0.64092700  1
  O  O81  1  0.79769300  0.96595200  0.69221800  1
  O  O82  1  0.16825900  0.20230700  0.69221800  1
  O  O83  1  0.80750500  0.83586200  0.91263600  1
  O  O84  1  0.03404800  0.83174100  0.69221800  1
  O  O85  1  0.63332133  0.49852267  0.92150367  1
  O  O86  1  0.50380167  0.64799233  0.85879633  1
  O  O87  1  0.16413800  0.97164300  0.91263600  1
  O  O88  1  0.50147733  0.13479867  0.92150367  1
  O  O89  1  0.86520133  0.36667867  0.92150367  1
  O  O90  1  0.19563133  0.17658967  0.80768067  1
  O  O91  1  0.30708200  0.48026600  0.75566800  1
  O  O92  1  0.98095833  0.80436867  0.80768067  1
  O  O93  1  0.35200767  0.85580933  0.85879633  1
  O  O94  1  0.02835700  0.19249500  0.91263600  1
  O  O95  1  0.14419067  0.49619833  0.85879633  1
  O  O96  1  0.47129333  0.30995767  0.74374367  1
  O  O97  1  0.83866433  0.52870667  0.74374367  1
  O  O98  1  0.17318400  0.69291800  0.75566800  1
  O  O99  1  0.82341033  0.01904167  0.80768067  1
  O  O100  1  0.69004233  0.16133567  0.74374367  1
  O  O101  1  0.30619267  0.83507333  0.97426033  1
  O  O102  1  0.51973400  0.82681600  0.75566800  1
  O  O103  1  0.16492667  0.47111933  0.97426033  1
  O  O104  1  0.52888067  0.69380733  0.97426033  1
