# generated using pymatgen
data_Mn7Fe3O20
_symmetry_space_group_name_H-M   'P 1'
_cell_length_a   10.22660800
_cell_length_b   5.82532000
_cell_length_c   24.37743183
_cell_angle_alpha   90.00000000
_cell_angle_beta   97.79260056
_cell_angle_gamma   90.00000000
_symmetry_Int_Tables_number   1
_chemical_formula_structural   Mn7Fe3O20
_chemical_formula_sum   'Mn28 Fe12 O80'
_cell_volume   1438.83224047
_cell_formula_units_Z   4
loop_
 _symmetry_equiv_pos_site_id
 _symmetry_equiv_pos_as_xyz
  1  'x, y, z'
loop_
 _atom_site_type_symbol
 _atom_site_label
 _atom_site_symmetry_multiplicity
 _atom_site_fract_x
 _atom_site_fract_y
 _atom_site_fract_z
 _atom_site_occupancy
  Mn  Mn0  1  0.80063600  0.50000000  0.90032200  1
  Mn  Mn1  1  0.55066350  0.25267750  0.90012600  1
  Mn  Mn2  1  0.94933650  0.24732250  0.09987400  1
  Mn  Mn3  1  0.94933650  0.75267750  0.09987400  1
  Mn  Mn4  1  0.55066350  0.74732250  0.90012600  1
  Mn  Mn5  1  0.69936400  0.00000000  0.09967800  1
  Mn  Mn6  1  0.85188500  0.75166000  0.30022600  1
  Mn  Mn7  1  0.64811500  0.25166000  0.69977400  1
  Mn  Mn8  1  0.85188500  0.24834000  0.30022600  1
  Mn  Mn9  1  0.75000000  0.75000000  0.50000000  1
  Mn  Mn10  1  0.64811500  0.74834000  0.69977400  1
  Mn  Mn11  1  0.75000000  0.25000000  0.50000000  1
  Mn  Mn12  1  0.70308500  0.00000000  0.60002100  1
  Mn  Mn13  1  0.79691500  0.50000000  0.39997900  1
  Mn  Mn14  1  0.30063600  0.00000000  0.90032200  1
  Mn  Mn15  1  0.05066350  0.75267750  0.90012600  1
  Mn  Mn16  1  0.44933650  0.74732250  0.09987400  1
  Mn  Mn17  1  0.44933650  0.25267750  0.09987400  1
  Mn  Mn18  1  0.05066350  0.24732250  0.90012600  1
  Mn  Mn19  1  0.19936400  0.50000000  0.09967800  1
  Mn  Mn20  1  0.35188500  0.25166000  0.30022600  1
  Mn  Mn21  1  0.14811500  0.75166000  0.69977400  1
  Mn  Mn22  1  0.35188500  0.74834000  0.30022600  1
  Mn  Mn23  1  0.25000000  0.25000000  0.50000000  1
  Mn  Mn24  1  0.14811500  0.24834000  0.69977400  1
  Mn  Mn25  1  0.25000000  0.75000000  0.50000000  1
  Mn  Mn26  1  0.20308500  0.50000000  0.60002100  1
  Mn  Mn27  1  0.29691500  0.00000000  0.39997900  1
  Fe  Fe28  1  0.90205700  0.00000000  0.19988400  1
  Fe  Fe29  1  0.59794300  0.50000000  0.80011600  1
  Fe  Fe30  1  0.00000000  0.50000000  0.00000000  1
  Fe  Fe31  1  0.60210900  0.50000000  0.29980600  1
  Fe  Fe32  1  0.00000000  0.50000000  0.50000000  1
  Fe  Fe33  1  0.89789100  0.00000000  0.70019400  1
  Fe  Fe34  1  0.40205700  0.50000000  0.19988400  1
  Fe  Fe35  1  0.09794300  0.00000000  0.80011600  1
  Fe  Fe36  1  0.50000000  0.00000000  0.00000000  1
  Fe  Fe37  1  0.10210900  0.00000000  0.29980600  1
  Fe  Fe38  1  0.50000000  0.00000000  0.50000000  1
  Fe  Fe39  1  0.39789100  0.50000000  0.70019400  1
  O  O40  1  0.69234350  0.28100550  0.85483100  1
  O  O41  1  0.69234350  0.71899450  0.85483100  1
  O  O42  1  0.85499600  0.00000000  0.05932200  1
  O  O43  1  0.95329400  0.50000000  0.85958400  1
  O  O44  1  0.90889600  0.28059600  0.94566700  1
  O  O45  1  0.90889600  0.71940400  0.94566700  1
  O  O46  1  0.80765650  0.21899450  0.14516900  1
  O  O47  1  0.63062300  0.00000000  0.94540300  1
  O  O48  1  0.86937700  0.50000000  0.05459700  1
  O  O49  1  0.97041800  0.00000000  0.85510600  1
  O  O50  1  0.59110400  0.78059600  0.05433300  1
  O  O51  1  0.59110400  0.21940400  0.05433300  1
  O  O52  1  0.99169550  0.22805350  0.25363400  1
  O  O53  1  0.94538800  0.00000000  0.34088800  1
  O  O54  1  0.64500400  0.50000000  0.94067800  1
  O  O55  1  0.54670600  0.00000000  0.14041600  1
  O  O56  1  0.80765650  0.78100550  0.14516900  1
  O  O57  1  0.52958200  0.50000000  0.14489400  1
  O  O58  1  0.92976700  0.50000000  0.34698100  1
  O  O59  1  0.71394300  0.72347500  0.34745100  1
  O  O60  1  0.99169550  0.77194650  0.25363400  1
  O  O61  1  0.67395050  0.50000000  0.45311000  1
  O  O62  1  0.77227000  0.00000000  0.25440100  1
  O  O63  1  0.88937100  0.72408100  0.45217000  1
  O  O64  1  0.61062900  0.77591900  0.54783000  1
  O  O65  1  0.75899900  0.50000000  0.25881500  1
  O  O66  1  0.71394300  0.27652500  0.34745100  1
  O  O67  1  0.65863300  0.00000000  0.45911800  1
  O  O68  1  0.55461200  0.50000000  0.65911200  1
  O  O69  1  0.72773000  0.50000000  0.74559900  1
  O  O70  1  0.82604950  0.00000000  0.54689000  1
  O  O71  1  0.61062900  0.22408100  0.54783000  1
  O  O72  1  0.88937100  0.27591900  0.45217000  1
  O  O73  1  0.57023300  0.00000000  0.65301900  1
  O  O74  1  0.78605700  0.77652500  0.65254900  1
  O  O75  1  0.78605700  0.22347500  0.65254900  1
  O  O76  1  0.84136700  0.50000000  0.54088200  1
  O  O77  1  0.74100100  0.00000000  0.74118500  1
  O  O78  1  0.50830450  0.27194650  0.74636600  1
  O  O79  1  0.50830450  0.72805350  0.74636600  1
  O  O80  1  0.19234350  0.78100550  0.85483100  1
  O  O81  1  0.19234350  0.21899450  0.85483100  1
  O  O82  1  0.35499600  0.50000000  0.05932200  1
  O  O83  1  0.45329400  0.00000000  0.85958400  1
  O  O84  1  0.40889600  0.78059600  0.94566700  1
  O  O85  1  0.40889600  0.21940400  0.94566700  1
  O  O86  1  0.30765650  0.71899450  0.14516900  1
  O  O87  1  0.13062300  0.50000000  0.94540300  1
  O  O88  1  0.36937700  0.00000000  0.05459700  1
  O  O89  1  0.47041800  0.50000000  0.85510600  1
  O  O90  1  0.09110400  0.28059600  0.05433300  1
  O  O91  1  0.09110400  0.71940400  0.05433300  1
  O  O92  1  0.49169550  0.72805350  0.25363400  1
  O  O93  1  0.44538800  0.50000000  0.34088800  1
  O  O94  1  0.14500400  0.00000000  0.94067800  1
  O  O95  1  0.04670600  0.50000000  0.14041600  1
  O  O96  1  0.30765650  0.28100550  0.14516900  1
  O  O97  1  0.02958200  0.00000000  0.14489400  1
  O  O98  1  0.42976700  0.00000000  0.34698100  1
  O  O99  1  0.21394300  0.22347500  0.34745100  1
  O  O100  1  0.49169550  0.27194650  0.25363400  1
  O  O101  1  0.17395050  0.00000000  0.45311000  1
  O  O102  1  0.27227000  0.50000000  0.25440100  1
  O  O103  1  0.38937100  0.22408100  0.45217000  1
  O  O104  1  0.11062900  0.27591900  0.54783000  1
  O  O105  1  0.25899900  0.00000000  0.25881500  1
  O  O106  1  0.21394300  0.77652500  0.34745100  1
  O  O107  1  0.15863300  0.50000000  0.45911800  1
  O  O108  1  0.05461200  0.00000000  0.65911200  1
  O  O109  1  0.22773000  0.00000000  0.74559900  1
  O  O110  1  0.32604950  0.50000000  0.54689000  1
  O  O111  1  0.11062900  0.72408100  0.54783000  1
  O  O112  1  0.38937100  0.77591900  0.45217000  1
  O  O113  1  0.07023300  0.50000000  0.65301900  1
  O  O114  1  0.28605700  0.27652500  0.65254900  1
  O  O115  1  0.28605700  0.72347500  0.65254900  1
  O  O116  1  0.34136700  0.00000000  0.54088200  1
  O  O117  1  0.24100100  0.50000000  0.74118500  1
  O  O118  1  0.00830450  0.77194650  0.74636600  1
  O  O119  1  0.00830450  0.22805350  0.74636600  1
