# generated using pymatgen
data_Li2AlVO4
_symmetry_space_group_name_H-M   'P 1'
_cell_length_a   7.53255500
_cell_length_b   7.70661400
_cell_length_c   6.42432500
_cell_angle_alpha   90.00000000
_cell_angle_beta   90.00000000
_cell_angle_gamma   90.00000000
_symmetry_Int_Tables_number   1
_chemical_formula_structural   Li2AlVO4
_chemical_formula_sum   'Li8 Al4 V4 O16'
_cell_volume   372.93523873
_cell_formula_units_Z   4
loop_
 _symmetry_equiv_pos_site_id
 _symmetry_equiv_pos_as_xyz
  1  'x, y, z'
loop_
 _atom_site_type_symbol
 _atom_site_label
 _atom_site_symmetry_multiplicity
 _atom_site_fract_x
 _atom_site_fract_y
 _atom_site_fract_z
 _atom_site_occupancy
  Li  Li0  1  0.31784500  0.00000000  0.50000000  1
  Li  Li1  1  0.68215500  0.00000000  0.00000000  1
  Li  Li2  1  0.50000000  0.68822375  0.75000000  1
  Li  Li3  1  0.50000000  0.31177625  0.25000000  1
  Li  Li4  1  0.81784500  0.50000000  0.50000000  1
  Li  Li5  1  0.18215500  0.50000000  0.00000000  1
  Li  Li6  1  0.00000000  0.18822375  0.75000000  1
  Li  Li7  1  0.00000000  0.81177625  0.25000000  1
  Al  Al8  1  0.32519450  0.00000000  0.00000000  1
  Al  Al9  1  0.67480550  0.00000000  0.50000000  1
  Al  Al10  1  0.82519450  0.50000000  0.00000000  1
  Al  Al11  1  0.17480550  0.50000000  0.50000000  1
  V  V12  1  0.50000000  0.67613675  0.25000000  1
  V  V13  1  0.50000000  0.32386325  0.75000000  1
  V  V14  1  0.00000000  0.17613675  0.25000000  1
  V  V15  1  0.00000000  0.82386325  0.75000000  1
  O  O16  1  0.19052950  0.00538400  0.22720400  1
  O  O17  1  0.19052950  0.99461600  0.77279600  1
  O  O18  1  0.80947050  0.99461600  0.72720400  1
  O  O19  1  0.80947050  0.00538400  0.27279600  1
  O  O20  1  0.47621500  0.82100550  0.00853350  1
  O  O21  1  0.47621500  0.17899450  0.99146650  1
  O  O22  1  0.52378500  0.82100550  0.49146650  1
  O  O23  1  0.52378500  0.17899450  0.50853350  1
  O  O24  1  0.69052950  0.50538400  0.22720400  1
  O  O25  1  0.69052950  0.49461600  0.77279600  1
  O  O26  1  0.30947050  0.49461600  0.72720400  1
  O  O27  1  0.30947050  0.50538400  0.27279600  1
  O  O28  1  0.97621500  0.32100550  0.00853350  1
  O  O29  1  0.97621500  0.67899450  0.99146650  1
  O  O30  1  0.02378500  0.32100550  0.49146650  1
  O  O31  1  0.02378500  0.67899450  0.50853350  1
