# generated using pymatgen
data_Li3Nb4FeO12
_symmetry_space_group_name_H-M   'P 1'
_cell_length_a   5.25072038
_cell_length_b   5.64047160
_cell_length_c   7.68399597
_cell_angle_alpha   84.76663748
_cell_angle_beta   89.97469402
_cell_angle_gamma   89.99426714
_symmetry_Int_Tables_number   1
_chemical_formula_structural   Li3Nb4FeO12
_chemical_formula_sum   'Li3 Nb4 Fe1 O12'
_cell_volume   226.62469536
_cell_formula_units_Z   1
loop_
 _symmetry_equiv_pos_site_id
 _symmetry_equiv_pos_as_xyz
  1  'x, y, z'
loop_
 _atom_site_type_symbol
 _atom_site_label
 _atom_site_symmetry_multiplicity
 _atom_site_fract_x
 _atom_site_fract_y
 _atom_site_fract_z
 _atom_site_occupancy
  Li  Li0  1  0.50056500  0.93383800  0.21477300  1
  Li  Li1  1  0.99993400  0.43033100  0.21338200  1
  Li  Li2  1  0.50078200  0.93226000  0.71744500  1
  Nb  Nb3  1  0.99621200  0.99258600  0.00742900  1
  Nb  Nb4  1  0.50246000  0.51241500  0.49646700  1
  Nb  Nb5  1  0.00260100  0.00598200  0.50010000  1
  Nb  Nb6  1  0.49681300  0.49899900  0.00554700  1
  Fe  Fe7  1  0.99936600  0.41605400  0.71280600  1
  O  O8  1  0.69316300  0.22326300  0.58191900  1
  O  O9  1  0.87604900  0.03705700  0.26133200  1
  O  O10  1  0.68079100  0.84569000  0.95640800  1
  O  O11  1  0.80658700  0.71882900  0.58400400  1
  O  O12  1  0.19736600  0.71838400  0.08213100  1
  O  O13  1  0.62746100  0.53744400  0.25988500  1
  O  O14  1  0.37000900  0.53732700  0.76292800  1
  O  O15  1  0.82214500  0.34879300  0.95218100  1
  O  O16  1  0.17731400  0.34737900  0.45878200  1
  O  O17  1  0.30740300  0.22186300  0.08241000  1
  O  O18  1  0.12434500  0.04009800  0.76529500  1
  O  O19  1  0.31863300  0.84220600  0.45517400  1
