# generated using pymatgen
data_Li2MgNi3O8
_symmetry_space_group_name_H-M   'P 1'
_cell_length_a   9.84485400
_cell_length_b   5.67828000
_cell_length_c   5.85715916
_cell_angle_alpha   90.00000000
_cell_angle_beta   124.00972525
_cell_angle_gamma   90.00000000
_symmetry_Int_Tables_number   1
_chemical_formula_structural   Li2MgNi3O8
_chemical_formula_sum   'Li4 Mg2 Ni6 O16'
_cell_volume   271.41734097
_cell_formula_units_Z   2
loop_
 _symmetry_equiv_pos_site_id
 _symmetry_equiv_pos_as_xyz
  1  'x, y, z'
loop_
 _atom_site_type_symbol
 _atom_site_label
 _atom_site_symmetry_multiplicity
 _atom_site_fract_x
 _atom_site_fract_y
 _atom_site_fract_z
 _atom_site_occupancy
  Li  Li0  1  0.00000000  0.50000000  0.50000000  1
  Li  Li1  1  0.00000000  0.00000000  0.50000000  1
  Li  Li2  1  0.50000000  0.00000000  0.50000000  1
  Li  Li3  1  0.50000000  0.50000000  0.50000000  1
  Mg  Mg4  1  0.00000000  0.00000000  0.00000000  1
  Mg  Mg5  1  0.50000000  0.50000000  0.00000000  1
  Ni  Ni6  1  0.25000000  0.25000000  0.00000000  1
  Ni  Ni7  1  0.25000000  0.75000000  0.00000000  1
  Ni  Ni8  1  0.00000000  0.50000000  0.00000000  1
  Ni  Ni9  1  0.75000000  0.75000000  0.00000000  1
  Ni  Ni10  1  0.75000000  0.25000000  0.00000000  1
  Ni  Ni11  1  0.50000000  0.00000000  0.00000000  1
  O  O12  1  0.02084500  0.73587000  0.78967300  1
  O  O13  1  0.47915500  0.76413000  0.21032700  1
  O  O14  1  0.47915500  0.23587000  0.21032700  1
  O  O15  1  0.02084500  0.26413000  0.78967300  1
  O  O16  1  0.23342000  0.50000000  0.19540700  1
  O  O17  1  0.26658000  0.00000000  0.80459300  1
  O  O18  1  0.25282800  0.50000000  0.79410900  1
  O  O19  1  0.24717200  0.00000000  0.20589100  1
  O  O20  1  0.52084500  0.23587000  0.78967300  1
  O  O21  1  0.97915500  0.26413000  0.21032700  1
  O  O22  1  0.97915500  0.73587000  0.21032700  1
  O  O23  1  0.52084500  0.76413000  0.78967300  1
  O  O24  1  0.73342000  0.00000000  0.19540700  1
  O  O25  1  0.76658000  0.50000000  0.80459300  1
  O  O26  1  0.75282800  0.00000000  0.79410900  1
  O  O27  1  0.74717200  0.50000000  0.20589100  1
