# generated using pymatgen
data_LiTiO2
_symmetry_space_group_name_H-M   'P 1'
_cell_length_a   5.84759200
_cell_length_b   5.88208400
_cell_length_c   8.39379600
_cell_angle_alpha   90.00000000
_cell_angle_beta   90.00000000
_cell_angle_gamma   90.00000000
_symmetry_Int_Tables_number   1
_chemical_formula_structural   LiTiO2
_chemical_formula_sum   'Li8 Ti8 O16'
_cell_volume   288.71323672
_cell_formula_units_Z   8
loop_
 _symmetry_equiv_pos_site_id
 _symmetry_equiv_pos_as_xyz
  1  'x, y, z'
loop_
 _atom_site_type_symbol
 _atom_site_label
 _atom_site_symmetry_multiplicity
 _atom_site_fract_x
 _atom_site_fract_y
 _atom_site_fract_z
 _atom_site_occupancy
  Li  Li0  1  0.50000000  0.00000000  0.00000000  1
  Li  Li1  1  0.25000000  0.75000000  0.25000000  1
  Li  Li2  1  0.75000000  0.75000000  0.25000000  1
  Li  Li3  1  0.00000000  0.50000000  0.00000000  1
  Li  Li4  1  0.00000000  0.50000000  0.50000000  1
  Li  Li5  1  0.75000000  0.25000000  0.75000000  1
  Li  Li6  1  0.25000000  0.25000000  0.75000000  1
  Li  Li7  1  0.50000000  0.00000000  0.50000000  1
  Ti  Ti8  1  0.00000000  0.00000000  0.00000000  1
  Ti  Ti9  1  0.75000000  0.25000000  0.25000000  1
  Ti  Ti10  1  0.25000000  0.25000000  0.25000000  1
  Ti  Ti11  1  0.50000000  0.50000000  0.00000000  1
  Ti  Ti12  1  0.50000000  0.50000000  0.50000000  1
  Ti  Ti13  1  0.25000000  0.75000000  0.75000000  1
  Ti  Ti14  1  0.75000000  0.75000000  0.75000000  1
  Ti  Ti15  1  0.00000000  0.00000000  0.50000000  1
  O  O16  1  0.50000000  0.02255700  0.25000000  1
  O  O17  1  0.25000000  0.25000000  0.49961200  1
  O  O18  1  0.75000000  0.25000000  0.49961200  1
  O  O19  1  0.00000000  0.47744300  0.25000000  1
  O  O20  1  0.00000000  0.99207300  0.25000000  1
  O  O21  1  0.25000000  0.25000000  0.00038800  1
  O  O22  1  0.75000000  0.25000000  0.00038800  1
  O  O23  1  0.50000000  0.50792700  0.25000000  1
  O  O24  1  0.00000000  0.52255700  0.75000000  1
  O  O25  1  0.75000000  0.75000000  0.99961200  1
  O  O26  1  0.25000000  0.75000000  0.99961200  1
  O  O27  1  0.50000000  0.97744300  0.75000000  1
  O  O28  1  0.50000000  0.49207300  0.75000000  1
  O  O29  1  0.75000000  0.75000000  0.50038800  1
  O  O30  1  0.25000000  0.75000000  0.50038800  1
  O  O31  1  0.00000000  0.00792700  0.75000000  1
