# generated using pymatgen
data_FeOF
_symmetry_space_group_name_H-M   'P 1'
_cell_length_a   6.93641400
_cell_length_b   7.73340200
_cell_length_c   9.69355200
_cell_angle_alpha   90.00000000
_cell_angle_beta   90.00000000
_cell_angle_gamma   90.00000000
_symmetry_Int_Tables_number   1
_chemical_formula_structural   FeOF
_chemical_formula_sum   'Fe16 O16 F16'
_cell_volume   519.98227152
_cell_formula_units_Z   16
loop_
 _symmetry_equiv_pos_site_id
 _symmetry_equiv_pos_as_xyz
  1  'x, y, z'
loop_
 _atom_site_type_symbol
 _atom_site_label
 _atom_site_symmetry_multiplicity
 _atom_site_fract_x
 _atom_site_fract_y
 _atom_site_fract_z
 _atom_site_occupancy
  Fe  Fe0  1  0.50000000  0.70235500  0.00000000  1
  Fe  Fe1  1  0.75000000  0.95235500  0.25000000  1
  Fe  Fe2  1  0.50000000  0.29764500  0.00000000  1
  Fe  Fe3  1  0.75000000  0.54764500  0.25000000  1
  Fe  Fe4  1  0.50000000  0.20235500  0.50000000  1
  Fe  Fe5  1  0.75000000  0.45235500  0.75000000  1
  Fe  Fe6  1  0.50000000  0.79764500  0.50000000  1
  Fe  Fe7  1  0.75000000  0.04764500  0.75000000  1
  Fe  Fe8  1  0.00000000  0.70235500  0.50000000  1
  Fe  Fe9  1  0.25000000  0.95235500  0.75000000  1
  Fe  Fe10  1  0.00000000  0.29764500  0.50000000  1
  Fe  Fe11  1  0.25000000  0.54764500  0.75000000  1
  Fe  Fe12  1  0.00000000  0.20235500  0.00000000  1
  Fe  Fe13  1  0.25000000  0.45235500  0.25000000  1
  Fe  Fe14  1  0.00000000  0.79764500  0.00000000  1
  Fe  Fe15  1  0.25000000  0.04764500  0.25000000  1
  O  O16  1  0.50000000  0.00000000  0.36435800  1
  O  O17  1  0.00000000  0.00000000  0.13564200  1
  O  O18  1  0.75000000  0.75000000  0.11435800  1
  O  O19  1  0.75000000  0.75000000  0.38564200  1
  O  O20  1  0.50000000  0.50000000  0.86435800  1
  O  O21  1  0.00000000  0.50000000  0.63564200  1
  O  O22  1  0.75000000  0.25000000  0.61435800  1
  O  O23  1  0.75000000  0.25000000  0.88564200  1
  O  O24  1  0.00000000  0.00000000  0.86435800  1
  O  O25  1  0.50000000  0.00000000  0.63564200  1
  O  O26  1  0.25000000  0.75000000  0.61435800  1
  O  O27  1  0.25000000  0.75000000  0.88564200  1
  O  O28  1  0.00000000  0.50000000  0.36435800  1
  O  O29  1  0.50000000  0.50000000  0.13564200  1
  O  O30  1  0.25000000  0.25000000  0.11435800  1
  O  O31  1  0.25000000  0.25000000  0.38564200  1
  F  F32  1  0.12500000  0.87500000  0.37500000  1
  F  F33  1  0.62500000  0.12500000  0.12500000  1
  F  F34  1  0.87500000  0.12500000  0.37500000  1
  F  F35  1  0.37500000  0.87500000  0.12500000  1
  F  F36  1  0.12500000  0.37500000  0.87500000  1
  F  F37  1  0.62500000  0.62500000  0.62500000  1
  F  F38  1  0.87500000  0.62500000  0.87500000  1
  F  F39  1  0.37500000  0.37500000  0.62500000  1
  F  F40  1  0.62500000  0.87500000  0.87500000  1
  F  F41  1  0.12500000  0.12500000  0.62500000  1
  F  F42  1  0.37500000  0.12500000  0.87500000  1
  F  F43  1  0.87500000  0.87500000  0.62500000  1
  F  F44  1  0.62500000  0.37500000  0.37500000  1
  F  F45  1  0.12500000  0.62500000  0.12500000  1
  F  F46  1  0.37500000  0.62500000  0.37500000  1
  F  F47  1  0.87500000  0.37500000  0.12500000  1
