# generated using pymatgen
data_Cr(PO4)2
_symmetry_space_group_name_H-M   'P 1'
_cell_length_a   9.10263600
_cell_length_b   4.94564200
_cell_length_c   13.34617724
_cell_angle_alpha   90.00000000
_cell_angle_beta   105.19418900
_cell_angle_gamma   90.00000000
_symmetry_Int_Tables_number   1
_chemical_formula_structural   Cr(PO4)2
_chemical_formula_sum   'Cr4 P8 O32'
_cell_volume   579.82033370
_cell_formula_units_Z   4
loop_
 _symmetry_equiv_pos_site_id
 _symmetry_equiv_pos_as_xyz
  1  'x, y, z'
loop_
 _atom_site_type_symbol
 _atom_site_label
 _atom_site_symmetry_multiplicity
 _atom_site_fract_x
 _atom_site_fract_y
 _atom_site_fract_z
 _atom_site_occupancy
  Cr  Cr0  1  0.00000000  0.00000000  0.00000000  1
  Cr  Cr1  1  0.50000000  0.50000000  0.50000000  1
  Cr  Cr2  1  0.50000000  0.50000000  0.00000000  1
  Cr  Cr3  1  0.00000000  0.00000000  0.50000000  1
  P  P4  1  0.63279450  0.96838450  0.38749500  1
  P  P5  1  0.63279450  0.03161550  0.88749500  1
  P  P6  1  0.36720550  0.96838450  0.11250500  1
  P  P7  1  0.36720550  0.03161550  0.61250500  1
  P  P8  1  0.13279450  0.46838450  0.38749500  1
  P  P9  1  0.13279450  0.53161550  0.88749500  1
  P  P10  1  0.86720550  0.46838450  0.11250500  1
  P  P11  1  0.86720550  0.53161550  0.61250500  1
  O  O12  1  0.54576850  0.70210250  0.38968500  1
  O  O13  1  0.59128900  0.81974700  0.95761100  1
  O  O14  1  0.58540050  0.92520350  0.76706000  1
  O  O15  1  0.30142750  0.41552350  0.40352300  1
  O  O16  1  0.80142750  0.08447650  0.90352300  1
  O  O17  1  0.58540050  0.07479650  0.26706000  1
  O  O18  1  0.59128900  0.18025300  0.45761100  1
  O  O19  1  0.45423150  0.70210250  0.11031500  1
  O  O20  1  0.54576850  0.29789750  0.88968500  1
  O  O21  1  0.40871100  0.81974700  0.54238900  1
  O  O22  1  0.41459950  0.92520350  0.73294000  1
  O  O23  1  0.19857250  0.91552350  0.09647700  1
  O  O24  1  0.69857250  0.58447650  0.59647700  1
  O  O25  1  0.41459950  0.07479650  0.23294000  1
  O  O26  1  0.40871100  0.18025300  0.04238900  1
  O  O27  1  0.45423150  0.29789750  0.61031500  1
  O  O28  1  0.04576850  0.20210250  0.38968500  1
  O  O29  1  0.09128900  0.31974700  0.95761100  1
  O  O30  1  0.08540050  0.42520350  0.76706000  1
  O  O31  1  0.80142750  0.91552350  0.40352300  1
  O  O32  1  0.30142750  0.58447650  0.90352300  1
  O  O33  1  0.08540050  0.57479650  0.26706000  1
  O  O34  1  0.09128900  0.68025300  0.45761100  1
  O  O35  1  0.95423150  0.20210250  0.11031500  1
  O  O36  1  0.04576850  0.79789750  0.88968500  1
  O  O37  1  0.90871100  0.31974700  0.54238900  1
  O  O38  1  0.91459950  0.42520350  0.73294000  1
  O  O39  1  0.69857250  0.41552350  0.09647700  1
  O  O40  1  0.19857250  0.08447650  0.59647700  1
  O  O41  1  0.91459950  0.57479650  0.23294000  1
  O  O42  1  0.90871100  0.68025300  0.04238900  1
  O  O43  1  0.95423150  0.79789750  0.61031500  1
