# generated using pymatgen
data_LiMn2(PO4)2
_symmetry_space_group_name_H-M   'P 1'
_cell_length_a   8.78362100
_cell_length_b   5.11706200
_cell_length_c   10.09603763
_cell_angle_alpha   90.00000000
_cell_angle_beta   124.52255746
_cell_angle_gamma   90.00000000
_symmetry_Int_Tables_number   1
_chemical_formula_structural   LiMn2(PO4)2
_chemical_formula_sum   'Li2 Mn4 P4 O16'
_cell_volume   373.87065648
_cell_formula_units_Z   2
loop_
 _symmetry_equiv_pos_site_id
 _symmetry_equiv_pos_as_xyz
  1  'x, y, z'
loop_
 _atom_site_type_symbol
 _atom_site_label
 _atom_site_symmetry_multiplicity
 _atom_site_fract_x
 _atom_site_fract_y
 _atom_site_fract_z
 _atom_site_occupancy
  Li  Li0  1  0.49708800  0.43896700  0.99502900  1
  Li  Li1  1  0.49708800  0.56103300  0.49502900  1
  Mn  Mn2  1  0.49886600  0.94200100  0.75779600  1
  Mn  Mn3  1  0.00157900  0.54675100  0.24177500  1
  Mn  Mn4  1  0.00157900  0.45324900  0.74177500  1
  Mn  Mn5  1  0.49886600  0.05799900  0.25779600  1
  P  P6  1  0.74599800  0.45690300  0.87047800  1
  P  P7  1  0.24979200  0.04413900  0.37840200  1
  P  P8  1  0.24979200  0.95586100  0.87840200  1
  P  P9  1  0.74599800  0.54309700  0.37047800  1
  O  O10  1  0.70905100  0.16278500  0.82449500  1
  O  O11  1  0.25956800  0.34297400  0.35633100  1
  O  O12  1  0.57917500  0.61089700  0.72198900  1
  O  O13  1  0.42028400  0.08676700  0.88692700  1
  O  O14  1  0.06755200  0.93010700  0.24023400  1
  O  O15  1  0.73999400  0.51678000  0.01804700  1
  O  O16  1  0.06755200  0.06989300  0.74023400  1
  O  O17  1  0.27880500  0.97622700  0.54086100  1
  O  O18  1  0.92976500  0.46483200  0.39949300  1
  O  O19  1  0.25956800  0.65702600  0.85633100  1
  O  O20  1  0.57917500  0.38910300  0.22198900  1
  O  O21  1  0.27880500  0.02377300  0.04086100  1
  O  O22  1  0.70905100  0.83721500  0.32449500  1
  O  O23  1  0.73999400  0.48322000  0.51804700  1
  O  O24  1  0.92976500  0.53516800  0.89949300  1
  O  O25  1  0.42028400  0.91323300  0.38692700  1
