# generated using pymatgen
data_LiCo3Sb(PO4)6
_symmetry_space_group_name_H-M   'P 1'
_cell_length_a   8.56308576
_cell_length_b   8.56308576
_cell_length_c   21.68477973
_cell_angle_alpha   90.00000000
_cell_angle_beta   90.00000000
_cell_angle_gamma   120.00000000
_symmetry_Int_Tables_number   1
_chemical_formula_structural   LiCo3Sb(PO4)6
_chemical_formula_sum   'Li3 Co9 Sb3 P18 O72'
_cell_volume   1377.03897866
_cell_formula_units_Z   3
loop_
 _symmetry_equiv_pos_site_id
 _symmetry_equiv_pos_as_xyz
  1  'x, y, z'
loop_
 _atom_site_type_symbol
 _atom_site_label
 _atom_site_symmetry_multiplicity
 _atom_site_fract_x
 _atom_site_fract_y
 _atom_site_fract_z
 _atom_site_occupancy
  Li  Li0  1  0.66666667  0.33333333  0.32321733  1
  Li  Li1  1  0.33333333  0.66666667  0.65655067  1
  Li  Li2  1  0.00000000  0.00000000  0.98988400  1
  Co  Co3  1  0.66666667  0.33333333  0.18552933  1
  Co  Co4  1  0.33333333  0.66666667  0.31039667  1
  Co  Co5  1  0.33333333  0.66666667  0.02265467  1
  Co  Co6  1  0.33333333  0.66666667  0.51886267  1
  Co  Co7  1  0.00000000  0.00000000  0.64373000  1
  Co  Co8  1  0.00000000  0.00000000  0.35598800  1
  Co  Co9  1  0.00000000  0.00000000  0.85219600  1
  Co  Co10  1  0.66666667  0.33333333  0.97706333  1
  Co  Co11  1  0.66666667  0.33333333  0.68932133  1
  Sb  Sb12  1  0.00000000  0.00000000  0.14374800  1
  Sb  Sb13  1  0.66666667  0.33333333  0.47708133  1
  Sb  Sb14  1  0.33333333  0.66666667  0.81041467  1
  P  P15  1  0.71465500  0.71219600  0.25317800  1
  P  P16  1  0.28780400  0.00245900  0.25317800  1
  P  P17  1  0.99754100  0.28534500  0.25317800  1
  P  P18  1  0.66183167  0.04139333  0.08189833  1
  P  P19  1  0.37956167  0.33816833  0.08189833  1
  P  P20  1  0.95860667  0.62043833  0.08189833  1
  P  P21  1  0.38132167  0.04552933  0.58651133  1
  P  P22  1  0.95447067  0.33579233  0.58651133  1
  P  P23  1  0.66420767  0.61867833  0.58651133  1
  P  P24  1  0.32849833  0.37472667  0.41523167  1
  P  P25  1  0.04622833  0.67150167  0.41523167  1
  P  P26  1  0.62527333  0.95377167  0.41523167  1
  P  P27  1  0.04798833  0.37886267  0.91984467  1
  P  P28  1  0.62113733  0.66912567  0.91984467  1
  P  P29  1  0.33087433  0.95201167  0.91984467  1
  P  P30  1  0.99516500  0.70806000  0.74856500  1
  P  P31  1  0.71289500  0.00483500  0.74856500  1
  P  P32  1  0.29194000  0.28710500  0.74856500  1
  O  O33  1  0.83860867  0.53468733  0.02515433  1
  O  O34  1  0.69607867  0.16139133  0.02515433  1
  O  O35  1  0.69221633  0.52226167  0.25036067  1
  O  O36  1  0.46531267  0.30392133  0.02515433  1
  O  O37  1  0.52783167  0.69507833  0.25752133  1
  O  O38  1  0.79199567  0.81948833  0.19154533  1
  O  O39  1  0.47773833  0.16995467  0.25036067  1
  O  O40  1  0.30492167  0.83275333  0.25752133  1
  O  O41  1  0.16724667  0.47216833  0.25752133  1
  O  O42  1  0.64790533  0.12898167  0.14157267  1
  O  O43  1  0.83740633  0.02320667  0.08307767  1
  O  O44  1  0.48107633  0.35209467  0.14157267  1
  O  O45  1  0.18051167  0.97250733  0.19154533  1
  O  O46  1  0.83004533  0.30778367  0.25036067  1
  O  O47  1  0.02749267  0.20800433  0.19154533  1
  O  O48  1  0.49394067  0.85403833  0.07759233  1
  O  O49  1  0.36009767  0.50605933  0.07759233  1
  O  O50  1  0.18580033  0.16259367  0.08307767  1
  O  O51  1  0.87101833  0.51892367  0.14157267  1
  O  O52  1  0.14596167  0.63990233  0.07759233  1
  O  O53  1  0.19940000  0.03375100  0.30958400  1
  O  O54  1  0.97679333  0.81419967  0.08307767  1
  O  O55  1  0.96624900  0.16564900  0.30958400  1
  O  O56  1  0.83435100  0.80060000  0.30958400  1
  O  O57  1  0.50527533  0.86802067  0.35848767  1
  O  O58  1  0.36274533  0.49472467  0.35848767  1
  O  O59  1  0.35888300  0.85559500  0.58369400  1
  O  O60  1  0.13197933  0.63725467  0.35848767  1
  O  O61  1  0.19449833  0.02841167  0.59085467  1
  O  O62  1  0.45866233  0.15282167  0.52487867  1
  O  O63  1  0.14440500  0.50328800  0.58369400  1
  O  O64  1  0.97158833  0.16608667  0.59085467  1
  O  O65  1  0.83391333  0.80550167  0.59085467  1
  O  O66  1  0.31457200  0.46231500  0.47490600  1
  O  O67  1  0.50407300  0.35654000  0.41641100  1
  O  O68  1  0.14774300  0.68542800  0.47490600  1
  O  O69  1  0.84717833  0.30584067  0.52487867  1
  O  O70  1  0.49671200  0.64111700  0.58369400  1
  O  O71  1  0.69415933  0.54133767  0.52487867  1
  O  O72  1  0.16060733  0.18737167  0.41092567  1
  O  O73  1  0.02676433  0.83939267  0.41092567  1
  O  O74  1  0.85246700  0.49592700  0.41641100  1
  O  O75  1  0.53768500  0.85225700  0.47490600  1
  O  O76  1  0.81262833  0.97323567  0.41092567  1
  O  O77  1  0.86606667  0.36708433  0.64291733  1
  O  O78  1  0.64346000  0.14753300  0.41641100  1
  O  O79  1  0.63291567  0.49898233  0.64291733  1
  O  O80  1  0.50101767  0.13393333  0.64291733  1
  O  O81  1  0.17194200  0.20135400  0.69182100  1
  O  O82  1  0.02941200  0.82805800  0.69182100  1
  O  O83  1  0.02554967  0.18892833  0.91702733  1
  O  O84  1  0.79864600  0.97058800  0.69182100  1
  O  O85  1  0.86116500  0.36174500  0.92418800  1
  O  O86  1  0.12532900  0.48615500  0.85821200  1
  O  O87  1  0.81107167  0.83662133  0.91702733  1
  O  O88  1  0.63825500  0.49942000  0.92418800  1
  O  O89  1  0.50058000  0.13883500  0.92418800  1
  O  O90  1  0.98123867  0.79564833  0.80823933  1
  O  O91  1  0.17073967  0.68987333  0.74974433  1
  O  O92  1  0.81440967  0.01876133  0.80823933  1
  O  O93  1  0.51384500  0.63917400  0.85821200  1
  O  O94  1  0.16337867  0.97445033  0.91702733  1
  O  O95  1  0.36082600  0.87467100  0.85821200  1
  O  O96  1  0.82727400  0.52070500  0.74425900  1
  O  O97  1  0.69343100  0.17272600  0.74425900  1
  O  O98  1  0.51913367  0.82926033  0.74974433  1
  O  O99  1  0.20435167  0.18559033  0.80823933  1
  O  O100  1  0.47929500  0.30656900  0.74425900  1
  O  O101  1  0.53273333  0.70041767  0.97625067  1
  O  O102  1  0.31012667  0.48086633  0.74974433  1
  O  O103  1  0.29958233  0.83231567  0.97625067  1
  O  O104  1  0.16768433  0.46726667  0.97625067  1
