# generated using pymatgen
data_Fe4OF7
_symmetry_space_group_name_H-M   'P 1'
_cell_length_a   6.36389200
_cell_length_b   13.61124400
_cell_length_c   6.89738200
_cell_angle_alpha   90.00000000
_cell_angle_beta   90.00000000
_cell_angle_gamma   90.00000000
_symmetry_Int_Tables_number   1
_chemical_formula_structural   Fe4OF7
_chemical_formula_sum   'Fe16 O4 F28'
_cell_volume   597.45458650
_cell_formula_units_Z   4
loop_
 _symmetry_equiv_pos_site_id
 _symmetry_equiv_pos_as_xyz
  1  'x, y, z'
loop_
 _atom_site_type_symbol
 _atom_site_label
 _atom_site_symmetry_multiplicity
 _atom_site_fract_x
 _atom_site_fract_y
 _atom_site_fract_z
 _atom_site_occupancy
  Fe  Fe0  1  0.22968100  0.87085700  0.75000000  1
  Fe  Fe1  1  0.77031900  0.87085700  0.75000000  1
  Fe  Fe2  1  0.50000000  0.87112600  0.25000000  1
  Fe  Fe3  1  0.00000000  0.87037300  0.25000000  1
  Fe  Fe4  1  0.00000000  0.62887400  0.75000000  1
  Fe  Fe5  1  0.50000000  0.62962700  0.75000000  1
  Fe  Fe6  1  0.27031900  0.62914300  0.25000000  1
  Fe  Fe7  1  0.72968100  0.62914300  0.25000000  1
  Fe  Fe8  1  0.72968100  0.37085700  0.75000000  1
  Fe  Fe9  1  0.27031900  0.37085700  0.75000000  1
  Fe  Fe10  1  0.00000000  0.37112600  0.25000000  1
  Fe  Fe11  1  0.50000000  0.37037300  0.25000000  1
  Fe  Fe12  1  0.50000000  0.12887400  0.75000000  1
  Fe  Fe13  1  0.00000000  0.12962700  0.75000000  1
  Fe  Fe14  1  0.77031900  0.12914300  0.25000000  1
  Fe  Fe15  1  0.22968100  0.12914300  0.25000000  1
  O  O16  1  0.00000000  0.77606300  0.75000000  1
  O  O17  1  0.50000000  0.72393700  0.25000000  1
  O  O18  1  0.50000000  0.27606300  0.75000000  1
  O  O19  1  0.00000000  0.22393700  0.25000000  1
  F  F20  1  0.50000000  0.77864300  0.75000000  1
  F  F21  1  0.24727900  0.87991700  0.04322800  1
  F  F22  1  0.75272100  0.87991700  0.04322800  1
  F  F23  1  0.24727900  0.87991700  0.45677200  1
  F  F24  1  0.25272100  0.62008300  0.95677200  1
  F  F25  1  0.74727900  0.62008300  0.95677200  1
  F  F26  1  0.75272100  0.87991700  0.45677200  1
  F  F27  1  0.50000000  0.96900700  0.75000000  1
  F  F28  1  0.00000000  0.98021700  0.75000000  1
  F  F29  1  0.00000000  0.72135700  0.25000000  1
  F  F30  1  0.50000000  0.51978300  0.25000000  1
  F  F31  1  0.00000000  0.53099300  0.25000000  1
  F  F32  1  0.25272100  0.62008300  0.54322800  1
  F  F33  1  0.74727900  0.62008300  0.54322800  1
  F  F34  1  0.00000000  0.27864300  0.75000000  1
  F  F35  1  0.74727900  0.37991700  0.04322800  1
  F  F36  1  0.25272100  0.37991700  0.04322800  1
  F  F37  1  0.74727900  0.37991700  0.45677200  1
  F  F38  1  0.75272100  0.12008300  0.95677200  1
  F  F39  1  0.24727900  0.12008300  0.95677200  1
  F  F40  1  0.25272100  0.37991700  0.45677200  1
  F  F41  1  0.00000000  0.46900700  0.75000000  1
  F  F42  1  0.50000000  0.48021700  0.75000000  1
  F  F43  1  0.50000000  0.22135700  0.25000000  1
  F  F44  1  0.00000000  0.01978300  0.25000000  1
  F  F45  1  0.50000000  0.03099300  0.25000000  1
  F  F46  1  0.75272100  0.12008300  0.54322800  1
  F  F47  1  0.24727900  0.12008300  0.54322800  1
