# generated using pymatgen
data_Mg3Mn4O7
_symmetry_space_group_name_H-M   'P 1'
_cell_length_a   3.12000800
_cell_length_b   4.41198800
_cell_length_c   21.89075600
_cell_angle_alpha   90.00000000
_cell_angle_beta   90.00000000
_cell_angle_gamma   90.00000000
_symmetry_Int_Tables_number   1
_chemical_formula_structural   Mg3Mn4O7
_chemical_formula_sum   'Mg6 Mn8 O14'
_cell_volume   301.33584134
_cell_formula_units_Z   2
loop_
 _symmetry_equiv_pos_site_id
 _symmetry_equiv_pos_as_xyz
  1  'x, y, z'
loop_
 _atom_site_type_symbol
 _atom_site_label
 _atom_site_symmetry_multiplicity
 _atom_site_fract_x
 _atom_site_fract_y
 _atom_site_fract_z
 _atom_site_occupancy
  Mg  Mg0  1  0.00000000  0.00000000  0.00000000  1
  Mg  Mg1  1  0.50000000  0.50000000  0.64112000  1
  Mg  Mg2  1  0.00000000  0.00000000  0.85888000  1
  Mg  Mg3  1  0.50000000  0.50000000  0.50000000  1
  Mg  Mg4  1  0.00000000  0.00000000  0.14112000  1
  Mg  Mg5  1  0.50000000  0.50000000  0.35888000  1
  Mn  Mn6  1  0.00000000  0.00000000  0.71419100  1
  Mn  Mn7  1  0.00000000  0.00000000  0.57112300  1
  Mn  Mn8  1  0.50000000  0.50000000  0.92887700  1
  Mn  Mn9  1  0.50000000  0.50000000  0.78580900  1
  Mn  Mn10  1  0.50000000  0.50000000  0.21419100  1
  Mn  Mn11  1  0.50000000  0.50000000  0.07112300  1
  Mn  Mn12  1  0.00000000  0.00000000  0.42887700  1
  Mn  Mn13  1  0.00000000  0.00000000  0.28580900  1
  O  O14  1  0.00000000  0.50000000  0.57015500  1
  O  O15  1  0.50000000  0.00000000  0.92984500  1
  O  O16  1  0.50000000  0.00000000  0.79095300  1
  O  O17  1  0.00000000  0.50000000  0.70904700  1
  O  O18  1  0.00000000  0.50000000  0.00000000  1
  O  O19  1  0.50000000  0.00000000  0.64282300  1
  O  O20  1  0.00000000  0.50000000  0.85717700  1
  O  O21  1  0.50000000  0.00000000  0.07015500  1
  O  O22  1  0.00000000  0.50000000  0.42984500  1
  O  O23  1  0.00000000  0.50000000  0.29095300  1
  O  O24  1  0.50000000  0.00000000  0.20904700  1
  O  O25  1  0.50000000  0.00000000  0.50000000  1
  O  O26  1  0.00000000  0.50000000  0.14282300  1
  O  O27  1  0.50000000  0.00000000  0.35717700  1
