# generated using pymatgen
data_Li2FeWO6
_symmetry_space_group_name_H-M   'P 1'
_cell_length_a   5.10268924
_cell_length_b   5.10268924
_cell_length_c   13.71391302
_cell_angle_alpha   90.00000000
_cell_angle_beta   90.00000000
_cell_angle_gamma   120.00000000
_symmetry_Int_Tables_number   1
_chemical_formula_structural   Li2FeWO6
_chemical_formula_sum   'Li6 Fe3 W3 O18'
_cell_volume   309.23615305
_cell_formula_units_Z   3
loop_
 _symmetry_equiv_pos_site_id
 _symmetry_equiv_pos_as_xyz
  1  'x, y, z'
loop_
 _atom_site_type_symbol
 _atom_site_label
 _atom_site_symmetry_multiplicity
 _atom_site_fract_x
 _atom_site_fract_y
 _atom_site_fract_z
 _atom_site_occupancy
  Li  Li0  1  0.33333333  0.66666667  0.95547300  1
  Li  Li1  1  0.00000000  0.00000000  0.78658033  1
  Li  Li2  1  0.00000000  0.00000000  0.28880633  1
  Li  Li3  1  0.66666667  0.33333333  0.11991367  1
  Li  Li4  1  0.66666667  0.33333333  0.62213967  1
  Li  Li5  1  0.33333333  0.66666667  0.45324700  1
  Fe  Fe6  1  0.33333333  0.66666667  0.66750567  1
  Fe  Fe7  1  0.00000000  0.00000000  0.00083900  1
  Fe  Fe8  1  0.66666667  0.33333333  0.33417233  1
  W  W9  1  0.66666667  0.33333333  0.83395800  1
  W  W10  1  0.33333333  0.66666667  0.16729133  1
  W  W11  1  0.00000000  0.00000000  0.50062467  1
  O  O12  1  0.38289300  0.36677700  0.73813700  1
  O  O13  1  0.98388400  0.61710700  0.73813700  1
  O  O14  1  0.63322300  0.01611600  0.73813700  1
  O  O15  1  0.70512900  0.66502400  0.90272500  1
  O  O16  1  0.33497600  0.04010500  0.90272500  1
  O  O17  1  0.95989500  0.29487100  0.90272500  1
  O  O18  1  0.04955967  0.70011033  0.07147033  1
  O  O19  1  0.65055067  0.95044033  0.07147033  1
  O  O20  1  0.29988967  0.34944933  0.07147033  1
  O  O21  1  0.37179567  0.99835733  0.23605833  1
  O  O22  1  0.00164267  0.37343833  0.23605833  1
  O  O23  1  0.62656167  0.62820433  0.23605833  1
  O  O24  1  0.71622633  0.03344367  0.40480367  1
  O  O25  1  0.31721733  0.28377367  0.40480367  1
  O  O26  1  0.96655633  0.68278267  0.40480367  1
  O  O27  1  0.03846233  0.33169067  0.56939167  1
  O  O28  1  0.66830933  0.70677167  0.56939167  1
  O  O29  1  0.29322833  0.96153767  0.56939167  1
