# generated using pymatgen
data_Li2CrSiO4
_symmetry_space_group_name_H-M   'P 1'
_cell_length_a   5.11513700
_cell_length_b   10.58641900
_cell_length_c   13.09494800
_cell_angle_alpha   90.00000000
_cell_angle_beta   90.00000000
_cell_angle_gamma   90.00000000
_symmetry_Int_Tables_number   1
_chemical_formula_structural   Li2CrSiO4
_chemical_formula_sum   'Li16 Cr8 Si8 O32'
_cell_volume   709.10431340
_cell_formula_units_Z   8
loop_
 _symmetry_equiv_pos_site_id
 _symmetry_equiv_pos_as_xyz
  1  'x, y, z'
loop_
 _atom_site_type_symbol
 _atom_site_label
 _atom_site_symmetry_multiplicity
 _atom_site_fract_x
 _atom_site_fract_y
 _atom_site_fract_z
 _atom_site_occupancy
  Li  Li0  1  0.48207800  0.01725900  0.04721500  1
  Li  Li1  1  0.04766500  0.96624700  0.43433500  1
  Li  Li2  1  0.60409500  0.16370700  0.68816200  1
  Li  Li3  1  0.01787100  0.21464300  0.78632500  1
  Li  Li4  1  0.01787100  0.28535700  0.28632500  1
  Li  Li5  1  0.60409500  0.33629300  0.18816200  1
  Li  Li6  1  0.04766500  0.53375300  0.93433500  1
  Li  Li7  1  0.48207800  0.48274100  0.54721500  1
  Li  Li8  1  0.51792200  0.51725900  0.04721500  1
  Li  Li9  1  0.95233500  0.46624700  0.43433500  1
  Li  Li10  1  0.39590500  0.66370700  0.68816200  1
  Li  Li11  1  0.98212900  0.71464300  0.78632500  1
  Li  Li12  1  0.98212900  0.78535700  0.28632500  1
  Li  Li13  1  0.39590500  0.83629300  0.18816200  1
  Li  Li14  1  0.95233500  0.03375300  0.93433500  1
  Li  Li15  1  0.51792200  0.98274100  0.54721500  1
  Cr  Cr16  1  0.47181100  0.05666100  0.30118000  1
  Cr  Cr17  1  0.04213500  0.28053900  0.01832500  1
  Cr  Cr18  1  0.04213500  0.21946100  0.51832500  1
  Cr  Cr19  1  0.47181100  0.44333900  0.80118000  1
  Cr  Cr20  1  0.52818900  0.55666100  0.30118000  1
  Cr  Cr21  1  0.95786500  0.78053900  0.01832500  1
  Cr  Cr22  1  0.95786500  0.71946100  0.51832500  1
  Cr  Cr23  1  0.52818900  0.94333900  0.80118000  1
  Si  Si24  1  0.98979700  0.02260000  0.17302300  1
  Si  Si25  1  0.50121800  0.23847500  0.92087700  1
  Si  Si26  1  0.50121800  0.26152500  0.42087700  1
  Si  Si27  1  0.98979700  0.47740000  0.67302300  1
  Si  Si28  1  0.01020300  0.52260000  0.17302300  1
  Si  Si29  1  0.49878200  0.73847500  0.92087700  1
  Si  Si30  1  0.49878200  0.76152500  0.42087700  1
  Si  Si31  1  0.01020300  0.97740000  0.67302300  1
  O  O32  1  0.86437700  0.04176300  0.77503300  1
  O  O33  1  0.32670900  0.01476500  0.68028100  1
  O  O34  1  0.88287900  0.05515500  0.57354600  1
  O  O35  1  0.23179200  0.15433300  0.91381200  1
  O  O36  1  0.64817200  0.22799800  0.31243600  1
  O  O37  1  0.07459300  0.17167100  0.16831300  1
  O  O38  1  0.37258400  0.11930600  0.45359500  1
  O  O39  1  0.69945000  0.17168400  0.00134100  1
  O  O40  1  0.69945000  0.32831600  0.50134100  1
  O  O41  1  0.37258400  0.38069400  0.95359500  1
  O  O42  1  0.07459300  0.32832900  0.66831300  1
  O  O43  1  0.64817200  0.27200200  0.81243600  1
  O  O44  1  0.23179200  0.34566700  0.41381200  1
  O  O45  1  0.88287900  0.44484500  0.07354600  1
  O  O46  1  0.32670900  0.48523500  0.18028100  1
  O  O47  1  0.86437700  0.45823700  0.27503300  1
  O  O48  1  0.13562300  0.54176300  0.77503300  1
  O  O49  1  0.67329100  0.51476500  0.68028100  1
  O  O50  1  0.11712100  0.55515500  0.57354600  1
  O  O51  1  0.76820800  0.65433300  0.91381200  1
  O  O52  1  0.35182800  0.72799800  0.31243600  1
  O  O53  1  0.92540700  0.67167100  0.16831300  1
  O  O54  1  0.62741600  0.61930600  0.45359500  1
  O  O55  1  0.30055000  0.67168400  0.00134100  1
  O  O56  1  0.30055000  0.82831600  0.50134100  1
  O  O57  1  0.62741600  0.88069400  0.95359500  1
  O  O58  1  0.92540700  0.82832900  0.66831300  1
  O  O59  1  0.35182800  0.77200200  0.81243600  1
  O  O60  1  0.76820800  0.84566700  0.41381200  1
  O  O61  1  0.11712100  0.94484500  0.07354600  1
  O  O62  1  0.67329100  0.98523500  0.18028100  1
  O  O63  1  0.13562300  0.95823700  0.27503300  1
