# generated using pymatgen
data_Li3Ni4SbO8
_symmetry_space_group_name_H-M   'P 1'
_cell_length_a   10.27239800
_cell_length_b   6.05356600
_cell_length_c   6.05592912
_cell_angle_alpha   90.00000000
_cell_angle_beta   125.62173351
_cell_angle_gamma   90.00000000
_symmetry_Int_Tables_number   1
_chemical_formula_structural   Li3Ni4SbO8
_chemical_formula_sum   'Li6 Ni8 Sb2 O16'
_cell_volume   306.11899768
_cell_formula_units_Z   2
loop_
 _symmetry_equiv_pos_site_id
 _symmetry_equiv_pos_as_xyz
  1  'x, y, z'
loop_
 _atom_site_type_symbol
 _atom_site_label
 _atom_site_symmetry_multiplicity
 _atom_site_fract_x
 _atom_site_fract_y
 _atom_site_fract_z
 _atom_site_occupancy
  Li  Li0  1  0.75000000  0.75000000  0.00000000  1
  Li  Li1  1  0.25000000  0.75000000  0.00000000  1
  Li  Li2  1  0.00000000  0.00000000  0.50000000  1
  Li  Li3  1  0.25000000  0.25000000  0.00000000  1
  Li  Li4  1  0.75000000  0.25000000  0.00000000  1
  Li  Li5  1  0.50000000  0.50000000  0.50000000  1
  Ni  Ni6  1  0.00000000  0.00000000  0.00000000  1
  Ni  Ni7  1  0.25000000  0.75000000  0.50000000  1
  Ni  Ni8  1  0.25000000  0.25000000  0.50000000  1
  Ni  Ni9  1  0.50000000  0.00000000  0.50000000  1
  Ni  Ni10  1  0.50000000  0.50000000  0.00000000  1
  Ni  Ni11  1  0.75000000  0.25000000  0.50000000  1
  Ni  Ni12  1  0.75000000  0.75000000  0.50000000  1
  Ni  Ni13  1  0.00000000  0.50000000  0.50000000  1
  Sb  Sb14  1  0.00000000  0.50000000  0.00000000  1
  Sb  Sb15  1  0.50000000  0.00000000  0.00000000  1
  O  O16  1  0.23910700  0.50000000  0.24349900  1
  O  O17  1  0.50089150  0.23673050  0.76441300  1
  O  O18  1  0.50089150  0.76326950  0.76441300  1
  O  O19  1  0.26089300  0.00000000  0.75650100  1
  O  O20  1  0.25011900  0.00000000  0.26633800  1
  O  O21  1  0.99910850  0.26326950  0.23558700  1
  O  O22  1  0.99910850  0.73673050  0.23558700  1
  O  O23  1  0.24988100  0.50000000  0.73366200  1
  O  O24  1  0.73910700  0.00000000  0.24349900  1
  O  O25  1  0.00089150  0.73673050  0.76441300  1
  O  O26  1  0.00089150  0.26326950  0.76441300  1
  O  O27  1  0.76089300  0.50000000  0.75650100  1
  O  O28  1  0.75011900  0.50000000  0.26633800  1
  O  O29  1  0.49910850  0.76326950  0.23558700  1
  O  O30  1  0.49910850  0.23673050  0.23558700  1
  O  O31  1  0.74988100  0.00000000  0.73366200  1
