# generated using pymatgen
data_Mn5Sb3O16
_symmetry_space_group_name_H-M   'P 1'
_cell_length_a   10.65672383
_cell_length_b   6.04854028
_cell_length_c   9.10700584
_cell_angle_alpha   90.00000000
_cell_angle_beta   91.23528368
_cell_angle_gamma   90.00000000
_symmetry_Int_Tables_number   1
_chemical_formula_structural   Mn5Sb3O16
_chemical_formula_sum   'Mn10 Sb6 O32'
_cell_volume   586.87952844
_cell_formula_units_Z   2
loop_
 _symmetry_equiv_pos_site_id
 _symmetry_equiv_pos_as_xyz
  1  'x, y, z'
loop_
 _atom_site_type_symbol
 _atom_site_label
 _atom_site_symmetry_multiplicity
 _atom_site_fract_x
 _atom_site_fract_y
 _atom_site_fract_z
 _atom_site_occupancy
  Mn  Mn0  1  0.17176350  0.50000000  0.50523700  1
  Mn  Mn1  1  0.33020750  0.50000000  0.78808500  1
  Mn  Mn2  1  0.34155750  0.00000000  0.01504800  1
  Mn  Mn3  1  0.41607450  0.25069950  0.29122400  1
  Mn  Mn4  1  0.41607450  0.74930050  0.29122400  1
  Mn  Mn5  1  0.67176350  0.00000000  0.50523700  1
  Mn  Mn6  1  0.83020750  0.00000000  0.78808500  1
  Mn  Mn7  1  0.84155750  0.50000000  0.01504800  1
  Mn  Mn8  1  0.91607450  0.75069950  0.29122400  1
  Mn  Mn9  1  0.91607450  0.24930050  0.29122400  1
  Sb  Sb10  1  0.07977250  0.74655150  0.79025300  1
  Sb  Sb11  1  0.07977250  0.25344850  0.79025300  1
  Sb  Sb12  1  0.16826550  0.00000000  0.28945100  1
  Sb  Sb13  1  0.57977250  0.24655150  0.79025300  1
  Sb  Sb14  1  0.57977250  0.75344850  0.79025300  1
  Sb  Sb15  1  0.66826550  0.50000000  0.28945100  1
  O  O16  1  0.08668500  0.74736400  0.39467600  1
  O  O17  1  0.01406000  0.50000000  0.66012400  1
  O  O18  1  0.15469600  0.50000000  0.91336900  1
  O  O19  1  0.00746450  0.00000000  0.67552700  1
  O  O20  1  0.49723200  0.50000000  0.18688800  1
  O  O21  1  0.08668500  0.25263600  0.39467600  1
  O  O22  1  0.23350100  0.71337200  0.66256900  1
  O  O23  1  0.23350100  0.28662800  0.66256900  1
  O  O24  1  0.16864650  0.00000000  0.90165600  1
  O  O25  1  0.33946350  0.50000000  0.39217800  1
  O  O26  1  0.26476700  0.21597400  0.16034700  1
  O  O27  1  0.26476700  0.78402600  0.16034700  1
  O  O28  1  0.33632900  0.00000000  0.40062700  1
  O  O29  1  0.41785600  0.25427700  0.89651000  1
  O  O30  1  0.47315750  0.00000000  0.16488900  1
  O  O31  1  0.41785600  0.74572300  0.89651000  1
  O  O32  1  0.58668500  0.24736400  0.39467600  1
  O  O33  1  0.51406000  0.00000000  0.66012400  1
  O  O34  1  0.65469600  0.00000000  0.91336900  1
  O  O35  1  0.50746450  0.50000000  0.67552700  1
  O  O36  1  0.99723200  0.00000000  0.18688800  1
  O  O37  1  0.58668500  0.75263600  0.39467600  1
  O  O38  1  0.73350100  0.21337200  0.66256900  1
  O  O39  1  0.73350100  0.78662800  0.66256900  1
  O  O40  1  0.66864650  0.50000000  0.90165600  1
  O  O41  1  0.83946350  0.00000000  0.39217800  1
  O  O42  1  0.76476700  0.71597400  0.16034700  1
  O  O43  1  0.76476700  0.28402600  0.16034700  1
  O  O44  1  0.83632900  0.50000000  0.40062700  1
  O  O45  1  0.91785600  0.75427700  0.89651000  1
  O  O46  1  0.97315750  0.50000000  0.16488900  1
  O  O47  1  0.91785600  0.24572300  0.89651000  1
