# generated using pymatgen
data_Li2NiO2
_symmetry_space_group_name_H-M   'P 1'
_cell_length_a   3.07110332
_cell_length_b   3.07110332
_cell_length_c   19.22680700
_cell_angle_alpha   90.00000000
_cell_angle_beta   90.00000000
_cell_angle_gamma   120.00000000
_symmetry_Int_Tables_number   1
_chemical_formula_structural   Li2NiO2
_chemical_formula_sum   'Li6 Ni3 O6'
_cell_volume   157.04591862
_cell_formula_units_Z   3
loop_
 _symmetry_equiv_pos_site_id
 _symmetry_equiv_pos_as_xyz
  1  'x, y, z'
loop_
 _atom_site_type_symbol
 _atom_site_label
 _atom_site_symmetry_multiplicity
 _atom_site_fract_x
 _atom_site_fract_y
 _atom_site_fract_z
 _atom_site_occupancy
  Li  Li0  1  0.33333333  0.66666667  0.90384733  1
  Li  Li1  1  0.00000000  0.00000000  0.76281933  1
  Li  Li2  1  0.00000000  0.00000000  0.23718067  1
  Li  Li3  1  0.66666667  0.33333333  0.09615267  1
  Li  Li4  1  0.66666667  0.33333333  0.57051400  1
  Li  Li5  1  0.33333333  0.66666667  0.42948600  1
  Ni  Ni6  1  0.00000000  0.00000000  0.00000000  1
  Ni  Ni7  1  0.66666667  0.33333333  0.33333333  1
  Ni  Ni8  1  0.33333333  0.66666667  0.66666667  1
  O  O9  1  0.66666667  0.33333333  0.72985433  1
  O  O10  1  0.66666667  0.33333333  0.93681233  1
  O  O11  1  0.33333333  0.66666667  0.06318767  1
  O  O12  1  0.33333333  0.66666667  0.27014567  1
  O  O13  1  0.00000000  0.00000000  0.39652100  1
  O  O14  1  0.00000000  0.00000000  0.60347900  1
