# generated using pymatgen
data_LiCr2(PO4)3
_symmetry_space_group_name_H-M   'P 1'
_cell_length_a   18.14531800
_cell_length_b   6.07359200
_cell_length_c   8.10237432
_cell_angle_alpha   90.00000000
_cell_angle_beta   107.11465872
_cell_angle_gamma   90.00000000
_symmetry_Int_Tables_number   1
_chemical_formula_structural   LiCr2(PO4)3
_chemical_formula_sum   'Li4 Cr8 P12 O48'
_cell_volume   853.39905140
_cell_formula_units_Z   4
loop_
 _symmetry_equiv_pos_site_id
 _symmetry_equiv_pos_as_xyz
  1  'x, y, z'
loop_
 _atom_site_type_symbol
 _atom_site_label
 _atom_site_symmetry_multiplicity
 _atom_site_fract_x
 _atom_site_fract_y
 _atom_site_fract_z
 _atom_site_occupancy
  Li  Li0  1  0.00000000  0.58380600  0.75000000  1
  Li  Li1  1  0.00000000  0.41619400  0.25000000  1
  Li  Li2  1  0.50000000  0.08380600  0.75000000  1
  Li  Li3  1  0.50000000  0.91619400  0.25000000  1
  Cr  Cr4  1  0.36675850  0.32652350  0.90775500  1
  Cr  Cr5  1  0.36675850  0.67347650  0.40775500  1
  Cr  Cr6  1  0.13324150  0.82652350  0.59224500  1
  Cr  Cr7  1  0.13324150  0.17347650  0.09224500  1
  Cr  Cr8  1  0.86675850  0.82652350  0.90775500  1
  Cr  Cr9  1  0.86675850  0.17347650  0.40775500  1
  Cr  Cr10  1  0.63324150  0.32652350  0.59224500  1
  Cr  Cr11  1  0.63324150  0.67347650  0.09224500  1
  P  P12  1  0.32043050  0.81480750  0.77479200  1
  P  P13  1  0.32043050  0.18519250  0.27479200  1
  P  P14  1  0.17956950  0.31480750  0.72520800  1
  P  P15  1  0.17956950  0.68519250  0.22520800  1
  P  P16  1  0.00000000  0.04632600  0.75000000  1
  P  P17  1  0.00000000  0.95367400  0.25000000  1
  P  P18  1  0.82043050  0.31480750  0.77479200  1
  P  P19  1  0.82043050  0.68519250  0.27479200  1
  P  P20  1  0.67956950  0.81480750  0.72520800  1
  P  P21  1  0.67956950  0.18519250  0.22520800  1
  P  P22  1  0.50000000  0.54632600  0.75000000  1
  P  P23  1  0.50000000  0.45367400  0.25000000  1
  O  O24  1  0.46692400  0.70436200  0.59604000  1
  O  O25  1  0.46692400  0.29563800  0.09604000  1
  O  O26  1  0.43732300  0.38013600  0.76788500  1
  O  O27  1  0.43732300  0.61986400  0.26788500  1
  O  O28  1  0.37229150  0.02123350  0.83321500  1
  O  O29  1  0.35771350  0.64557450  0.91835600  1
  O  O30  1  0.32245900  0.74171600  0.59313900  1
  O  O31  1  0.37229150  0.97876650  0.33321500  1
  O  O32  1  0.35771350  0.35442550  0.41835600  1
  O  O33  1  0.26433400  0.35084500  0.73548000  1
  O  O34  1  0.32245900  0.25828400  0.09313900  1
  O  O35  1  0.26433400  0.64915500  0.23548000  1
  O  O36  1  0.23566600  0.85084500  0.76452000  1
  O  O37  1  0.17754100  0.24171600  0.90686100  1
  O  O38  1  0.23566600  0.14915500  0.26452000  1
  O  O39  1  0.14228650  0.14557450  0.58164400  1
  O  O40  1  0.12770850  0.52123350  0.66678500  1
  O  O41  1  0.17754100  0.75828400  0.40686100  1
  O  O42  1  0.14228650  0.85442550  0.08164400  1
  O  O43  1  0.12770850  0.47876650  0.16678500  1
  O  O44  1  0.06267700  0.88013600  0.73211500  1
  O  O45  1  0.06267700  0.11986400  0.23211500  1
  O  O46  1  0.03307600  0.20436200  0.90396000  1
  O  O47  1  0.03307600  0.79563800  0.40396000  1
  O  O48  1  0.96692400  0.20436200  0.59604000  1
  O  O49  1  0.96692400  0.79563800  0.09604000  1
  O  O50  1  0.93732300  0.88013600  0.76788500  1
  O  O51  1  0.93732300  0.11986400  0.26788500  1
  O  O52  1  0.87229150  0.52123350  0.83321500  1
  O  O53  1  0.85771350  0.14557450  0.91835600  1
  O  O54  1  0.82245900  0.24171600  0.59313900  1
  O  O55  1  0.87229150  0.47876650  0.33321500  1
  O  O56  1  0.85771350  0.85442550  0.41835600  1
  O  O57  1  0.76433400  0.85084500  0.73548000  1
  O  O58  1  0.82245900  0.75828400  0.09313900  1
  O  O59  1  0.76433400  0.14915500  0.23548000  1
  O  O60  1  0.73566600  0.35084500  0.76452000  1
  O  O61  1  0.67754100  0.74171600  0.90686100  1
  O  O62  1  0.73566600  0.64915500  0.26452000  1
  O  O63  1  0.64228650  0.64557450  0.58164400  1
  O  O64  1  0.62770850  0.02123350  0.66678500  1
  O  O65  1  0.67754100  0.25828400  0.40686100  1
  O  O66  1  0.64228650  0.35442550  0.08164400  1
  O  O67  1  0.62770850  0.97876650  0.16678500  1
  O  O68  1  0.56267700  0.38013600  0.73211500  1
  O  O69  1  0.56267700  0.61986400  0.23211500  1
  O  O70  1  0.53307600  0.70436200  0.90396000  1
  O  O71  1  0.53307600  0.29563800  0.40396000  1
