# generated using pymatgen
data_Fe4OF7
_symmetry_space_group_name_H-M   'P 1'
_cell_length_a   9.42372200
_cell_length_b   6.90420200
_cell_length_c   9.30339359
_cell_angle_alpha   90.00000000
_cell_angle_beta   92.59774528
_cell_angle_gamma   90.00000000
_symmetry_Int_Tables_number   1
_chemical_formula_structural   Fe4OF7
_chemical_formula_sum   'Fe16 O4 F28'
_cell_volume   604.68726135
_cell_formula_units_Z   4
loop_
 _symmetry_equiv_pos_site_id
 _symmetry_equiv_pos_as_xyz
  1  'x, y, z'
loop_
 _atom_site_type_symbol
 _atom_site_label
 _atom_site_symmetry_multiplicity
 _atom_site_fract_x
 _atom_site_fract_y
 _atom_site_fract_z
 _atom_site_occupancy
  Fe  Fe0  1  0.88177500  0.00000000  0.37087500  1
  Fe  Fe1  1  0.11822500  0.00000000  0.62912500  1
  Fe  Fe2  1  0.26892400  0.00000000  0.24624000  1
  Fe  Fe3  1  0.00000000  0.00000000  0.00000000  1
  Fe  Fe4  1  0.50000000  0.00000000  0.50000000  1
  Fe  Fe5  1  0.38553300  0.00000000  0.85902500  1
  Fe  Fe6  1  0.61446700  0.00000000  0.14097500  1
  Fe  Fe7  1  0.73107600  0.00000000  0.75376000  1
  Fe  Fe8  1  0.38177500  0.50000000  0.37087500  1
  Fe  Fe9  1  0.61822500  0.50000000  0.62912500  1
  Fe  Fe10  1  0.76892400  0.50000000  0.24624000  1
  Fe  Fe11  1  0.50000000  0.50000000  0.00000000  1
  Fe  Fe12  1  0.00000000  0.50000000  0.50000000  1
  Fe  Fe13  1  0.88553300  0.50000000  0.85902500  1
  Fe  Fe14  1  0.11446700  0.50000000  0.14097500  1
  Fe  Fe15  1  0.23107600  0.50000000  0.75376000  1
  O  O16  1  0.52379900  0.00000000  0.71203900  1
  O  O17  1  0.47620100  0.00000000  0.28796100  1
  O  O18  1  0.02379900  0.50000000  0.71203900  1
  O  O19  1  0.97620100  0.50000000  0.28796100  1
  F  F20  1  0.50000000  0.30232500  0.50000000  1
  F  F21  1  0.75296700  0.19364600  0.24454000  1
  F  F22  1  0.50000000  0.69767500  0.50000000  1
  F  F23  1  0.76880300  0.00000000  0.97445400  1
  F  F24  1  0.03904400  0.00000000  0.22544700  1
  F  F25  1  0.27347100  0.00000000  0.47576200  1
  F  F26  1  0.23119700  0.00000000  0.02554600  1
  F  F27  1  0.96095600  0.00000000  0.77455300  1
  F  F28  1  0.72652900  0.00000000  0.52423800  1
  F  F29  1  0.50000000  0.80462200  0.00000000  1
  F  F30  1  0.75296700  0.80635400  0.24454000  1
  F  F31  1  0.24703300  0.80635400  0.75546000  1
  F  F32  1  0.50000000  0.19537800  0.00000000  1
  F  F33  1  0.24703300  0.19364600  0.75546000  1
  F  F34  1  0.00000000  0.80232500  0.50000000  1
  F  F35  1  0.25296700  0.69364600  0.24454000  1
  F  F36  1  0.00000000  0.19767500  0.50000000  1
  F  F37  1  0.26880300  0.50000000  0.97445400  1
  F  F38  1  0.53904400  0.50000000  0.22544700  1
  F  F39  1  0.77347100  0.50000000  0.47576200  1
  F  F40  1  0.73119700  0.50000000  0.02554600  1
  F  F41  1  0.46095600  0.50000000  0.77455300  1
  F  F42  1  0.22652900  0.50000000  0.52423800  1
  F  F43  1  0.00000000  0.30462200  0.00000000  1
  F  F44  1  0.25296700  0.30635400  0.24454000  1
  F  F45  1  0.74703300  0.30635400  0.75546000  1
  F  F46  1  0.00000000  0.69537800  0.00000000  1
  F  F47  1  0.74703300  0.69364600  0.75546000  1
