# generated using pymatgen
data_Na5LiFe6(SiO3)12
_symmetry_space_group_name_H-M   'P 1'
_cell_length_a   16.63393200
_cell_length_b   8.87381400
_cell_length_c   9.62658433
_cell_angle_alpha   90.00000000
_cell_angle_beta   110.18760696
_cell_angle_gamma   90.00000000
_symmetry_Int_Tables_number   1
_chemical_formula_structural   Na5LiFe6(SiO3)12
_chemical_formula_sum   'Na10 Li2 Fe12 Si24 O72'
_cell_volume   1333.65366145
_cell_formula_units_Z   2
loop_
 _symmetry_equiv_pos_site_id
 _symmetry_equiv_pos_as_xyz
  1  'x, y, z'
loop_
 _atom_site_type_symbol
 _atom_site_label
 _atom_site_symmetry_multiplicity
 _atom_site_fract_x
 _atom_site_fract_y
 _atom_site_fract_z
 _atom_site_occupancy
  Na  Na0  1  0.33344950  0.95433050  0.33322000  1
  Na  Na1  1  0.00000000  0.04557200  0.50000000  1
  Na  Na2  1  0.16655050  0.45433050  0.66678000  1
  Na  Na3  1  0.33327950  0.04563450  0.83337600  1
  Na  Na4  1  0.16672050  0.54563450  0.16662400  1
  Na  Na5  1  0.83344950  0.45433050  0.33322000  1
  Na  Na6  1  0.50000000  0.54557200  0.50000000  1
  Na  Na7  1  0.66655050  0.95433050  0.66678000  1
  Na  Na8  1  0.83327950  0.54563450  0.83337600  1
  Na  Na9  1  0.66672050  0.04563450  0.16662400  1
  Li  Li10  1  0.00000000  0.96601600  0.00000000  1
  Li  Li11  1  0.50000000  0.46601600  0.00000000  1
  Fe  Fe12  1  0.33327200  0.35183600  0.33358200  1
  Fe  Fe13  1  0.00000000  0.64817500  0.50000000  1
  Fe  Fe14  1  0.16672800  0.85183600  0.66641800  1
  Fe  Fe15  1  0.33372850  0.64719750  0.83410100  1
  Fe  Fe16  1  0.00000000  0.35186400  0.00000000  1
  Fe  Fe17  1  0.16627150  0.14719750  0.16589900  1
  Fe  Fe18  1  0.83327200  0.85183600  0.33358200  1
  Fe  Fe19  1  0.50000000  0.14817500  0.50000000  1
  Fe  Fe20  1  0.66672800  0.35183600  0.66641800  1
  Fe  Fe21  1  0.83372850  0.14719750  0.83410100  1
  Fe  Fe22  1  0.50000000  0.85186400  0.00000000  1
  Fe  Fe23  1  0.66627150  0.64719750  0.16589900  1
  Si  Si24  1  0.40037800  0.33940300  0.69317100  1
  Si  Si25  1  0.26685850  0.66133950  0.47543300  1
  Si  Si26  1  0.43377600  0.83904100  0.64267900  1
  Si  Si27  1  0.40000700  0.65966100  0.19060100  1
  Si  Si28  1  0.26689450  0.33896650  0.97580800  1
  Si  Si29  1  0.06622400  0.33904100  0.35732100  1
  Si  Si30  1  0.43365300  0.16158100  0.14157500  1
  Si  Si31  1  0.23314150  0.16133950  0.52456700  1
  Si  Si32  1  0.09962200  0.83940300  0.30682900  1
  Si  Si33  1  0.06634700  0.66158100  0.85842500  1
  Si  Si34  1  0.23310550  0.83896650  0.02419200  1
  Si  Si35  1  0.09999300  0.15966100  0.80939900  1
  Si  Si36  1  0.90037800  0.83940300  0.69317100  1
  Si  Si37  1  0.76685850  0.16133950  0.47543300  1
  Si  Si38  1  0.93377600  0.33904100  0.64267900  1
  Si  Si39  1  0.90000700  0.15966100  0.19060100  1
  Si  Si40  1  0.76689450  0.83896650  0.97580800  1
  Si  Si41  1  0.56622400  0.83904100  0.35732100  1
  Si  Si42  1  0.93365300  0.66158100  0.14157500  1
  Si  Si43  1  0.73314150  0.66133950  0.52456700  1
  Si  Si44  1  0.59962200  0.33940300  0.30682900  1
  Si  Si45  1  0.56634700  0.16158100  0.85842500  1
  Si  Si46  1  0.73310550  0.33896650  0.02419200  1
  Si  Si47  1  0.59999300  0.65966100  0.80939900  1
  O  O48  1  0.30611250  0.25641250  0.65884700  1
  O  O49  1  0.26868250  0.49480650  0.40911200  1
  O  O50  1  0.25797850  0.17017550  0.37295500  1
  O  O51  1  0.36085150  0.74420550  0.50839300  1
  O  O52  1  0.43545950  0.00542750  0.57591200  1
  O  O53  1  0.42496450  0.32975450  0.54108000  1
  O  O54  1  0.02749350  0.25548750  0.67539900  1
  O  O55  1  0.10224250  0.99413150  0.74165000  1
  O  O56  1  0.09133400  0.67077100  0.70670700  1
  O  O57  1  0.30650000  0.74412100  0.15771900  1
  O  O58  1  0.40866600  0.17077100  0.29329300  1
  O  O59  1  0.39775750  0.49413150  0.25835000  1
  O  O60  1  0.47250650  0.75548750  0.32460100  1
  O  O61  1  0.07503550  0.82975450  0.45892000  1
  O  O62  1  0.06454050  0.50542750  0.42408800  1
  O  O63  1  0.26846000  0.50533200  0.90887200  1
  O  O64  1  0.13914850  0.24420550  0.49160700  1
  O  O65  1  0.25849850  0.82931550  0.87313700  1
  O  O66  1  0.24202150  0.67017550  0.62704500  1
  O  O67  1  0.36028550  0.25526550  0.00762100  1
  O  O68  1  0.23131750  0.99480650  0.59088800  1
  O  O69  1  0.43555250  0.99437950  0.07582900  1
  O  O70  1  0.42664600  0.66513300  0.04025400  1
  O  O71  1  0.02669000  0.74624800  0.17177000  1
  O  O72  1  0.09965150  0.00481550  0.23651700  1
  O  O73  1  0.09160650  0.32941450  0.20618600  1
  O  O74  1  0.19388750  0.75641250  0.34115300  1
  O  O75  1  0.40839350  0.82941450  0.79381400  1
  O  O76  1  0.40034850  0.50481550  0.76348300  1
  O  O77  1  0.47331000  0.24624800  0.82823000  1
  O  O78  1  0.07335400  0.16513300  0.95974600  1
  O  O79  1  0.06444750  0.49437950  0.92417100  1
  O  O80  1  0.13971450  0.75526550  0.99237900  1
  O  O81  1  0.24150150  0.32931550  0.12686300  1
  O  O82  1  0.23154000  0.00533200  0.09112800  1
  O  O83  1  0.19350000  0.24412100  0.84228100  1
  O  O84  1  0.80611250  0.75641250  0.65884700  1
  O  O85  1  0.76868250  0.99480650  0.40911200  1
  O  O86  1  0.75797850  0.67017550  0.37295500  1
  O  O87  1  0.86085150  0.24420550  0.50839300  1
  O  O88  1  0.93545950  0.50542750  0.57591200  1
  O  O89  1  0.92496450  0.82975450  0.54108000  1
  O  O90  1  0.52749350  0.75548750  0.67539900  1
  O  O91  1  0.60224250  0.49413150  0.74165000  1
  O  O92  1  0.59133400  0.17077100  0.70670700  1
  O  O93  1  0.80650000  0.24412100  0.15771900  1
  O  O94  1  0.90866600  0.67077100  0.29329300  1
  O  O95  1  0.89775750  0.99413150  0.25835000  1
  O  O96  1  0.97250650  0.25548750  0.32460100  1
  O  O97  1  0.57503550  0.32975450  0.45892000  1
  O  O98  1  0.56454050  0.00542750  0.42408800  1
  O  O99  1  0.76846000  0.00533200  0.90887200  1
  O  O100  1  0.63914850  0.74420550  0.49160700  1
  O  O101  1  0.75849850  0.32931550  0.87313700  1
  O  O102  1  0.74202150  0.17017550  0.62704500  1
  O  O103  1  0.86028550  0.75526550  0.00762100  1
  O  O104  1  0.73131750  0.49480650  0.59088800  1
  O  O105  1  0.93555250  0.49437950  0.07582900  1
  O  O106  1  0.92664600  0.16513300  0.04025400  1
  O  O107  1  0.52669000  0.24624800  0.17177000  1
  O  O108  1  0.59965150  0.50481550  0.23651700  1
  O  O109  1  0.59160650  0.82941450  0.20618600  1
  O  O110  1  0.69388750  0.25641250  0.34115300  1
  O  O111  1  0.90839350  0.32941450  0.79381400  1
  O  O112  1  0.90034850  0.00481550  0.76348300  1
  O  O113  1  0.97331000  0.74624800  0.82823000  1
  O  O114  1  0.57335400  0.66513300  0.95974600  1
  O  O115  1  0.56444750  0.99437950  0.92417100  1
  O  O116  1  0.63971450  0.25526550  0.99237900  1
  O  O117  1  0.74150150  0.82931550  0.12686300  1
  O  O118  1  0.73154000  0.50533200  0.09112800  1
  O  O119  1  0.69350000  0.74412100  0.84228100  1
