# generated using pymatgen
data_Mn3BiO8
_symmetry_space_group_name_H-M   'P 1'
_cell_length_a   5.81202577
_cell_length_b   5.81202577
_cell_length_c   16.51914176
_cell_angle_alpha   90.00000000
_cell_angle_beta   90.00000000
_cell_angle_gamma   120.00000000
_symmetry_Int_Tables_number   1
_chemical_formula_structural   Mn3BiO8
_chemical_formula_sum   'Mn9 Bi3 O24'
_cell_volume   483.25145969
_cell_formula_units_Z   3
loop_
 _symmetry_equiv_pos_site_id
 _symmetry_equiv_pos_as_xyz
  1  'x, y, z'
loop_
 _atom_site_type_symbol
 _atom_site_label
 _atom_site_symmetry_multiplicity
 _atom_site_fract_x
 _atom_site_fract_y
 _atom_site_fract_z
 _atom_site_occupancy
  Mn  Mn0  1  0.50000000  0.50000000  0.00000000  1
  Mn  Mn1  1  0.00000000  0.50000000  0.00000000  1
  Mn  Mn2  1  0.50000000  0.00000000  0.00000000  1
  Mn  Mn3  1  0.16666667  0.83333333  0.33333333  1
  Mn  Mn4  1  0.66666667  0.83333333  0.33333333  1
  Mn  Mn5  1  0.16666667  0.33333333  0.33333333  1
  Mn  Mn6  1  0.83333333  0.16666667  0.66666667  1
  Mn  Mn7  1  0.33333333  0.16666667  0.66666667  1
  Mn  Mn8  1  0.83333333  0.66666667  0.66666667  1
  Bi  Bi9  1  0.33333333  0.66666667  0.16666667  1
  Bi  Bi10  1  1.00000000  1.00000000  0.50000000  1
  Bi  Bi11  1  0.66666667  0.33333333  0.83333333  1
  O  O12  1  0.02352667  0.51176333  0.26864033  1
  O  O13  1  0.48823667  0.51176333  0.26864033  1
  O  O14  1  0.00000000  0.00000000  0.27344300  1
  O  O15  1  0.48823667  0.97647333  0.26864033  1
  O  O16  1  0.17843000  0.35686000  0.06469300  1
  O  O17  1  0.66666667  0.33333333  0.05989033  1
  O  O18  1  0.17843000  0.82157000  0.06469300  1
  O  O19  1  0.64314000  0.82157000  0.06469300  1
  O  O20  1  0.69019333  0.84509667  0.60197367  1
  O  O21  1  0.15490333  0.84509667  0.60197367  1
  O  O22  1  0.66666667  0.33333333  0.60677633  1
  O  O23  1  0.15490333  0.30980667  0.60197367  1
  O  O24  1  0.84509667  0.69019333  0.39802633  1
  O  O25  1  0.33333333  0.66666667  0.39322367  1
  O  O26  1  0.84509667  0.15490333  0.39802633  1
  O  O27  1  0.30980667  0.15490333  0.39802633  1
  O  O28  1  0.35686000  0.17843000  0.93530700  1
  O  O29  1  0.82157000  0.17843000  0.93530700  1
  O  O30  1  0.33333333  0.66666667  0.94010967  1
  O  O31  1  0.82157000  0.64314000  0.93530700  1
  O  O32  1  0.51176333  0.02352667  0.73135967  1
  O  O33  1  0.00000000  0.00000000  0.72655700  1
  O  O34  1  0.51176333  0.48823667  0.73135967  1
  O  O35  1  0.97647333  0.48823667  0.73135967  1
