# generated using pymatgen
data_Li5Nb2Cu5O12
_symmetry_space_group_name_H-M   'P 1'
_cell_length_a   5.63664061
_cell_length_b   8.72177886
_cell_length_c   9.87790936
_cell_angle_alpha   90.00000000
_cell_angle_beta   92.12933522
_cell_angle_gamma   90.00000000
_symmetry_Int_Tables_number   1
_chemical_formula_structural   Li5Nb2Cu5O12
_chemical_formula_sum   'Li10 Nb4 Cu10 O24'
_cell_volume   485.27785093
_cell_formula_units_Z   2
loop_
 _symmetry_equiv_pos_site_id
 _symmetry_equiv_pos_as_xyz
  1  'x, y, z'
loop_
 _atom_site_type_symbol
 _atom_site_label
 _atom_site_symmetry_multiplicity
 _atom_site_fract_x
 _atom_site_fract_y
 _atom_site_fract_z
 _atom_site_occupancy
  Li  Li0  1  0.76222850  0.07860050  0.24723400  1
  Li  Li1  1  0.76616000  0.91791500  0.75921200  1
  Li  Li2  1  0.23777150  0.07860050  0.75276600  1
  Li  Li3  1  0.23384000  0.91791500  0.24078800  1
  Li  Li4  1  0.50000000  0.58877600  0.00000000  1
  Li  Li5  1  0.26222850  0.57860050  0.24723400  1
  Li  Li6  1  0.26616000  0.41791500  0.75921200  1
  Li  Li7  1  0.73777150  0.57860050  0.75276600  1
  Li  Li8  1  0.73384000  0.41791500  0.24078800  1
  Li  Li9  1  0.00000000  0.08877600  0.00000000  1
  Nb  Nb10  1  0.50000000  0.25322200  0.00000000  1
  Nb  Nb11  1  0.50000000  0.75926500  0.50000000  1
  Nb  Nb12  1  0.00000000  0.75322200  0.00000000  1
  Nb  Nb13  1  0.00000000  0.25926500  0.50000000  1
  Cu  Cu14  1  0.50000000  0.42241600  0.50000000  1
  Cu  Cu15  1  0.25569200  0.74535900  0.75308900  1
  Cu  Cu16  1  0.74430800  0.74535900  0.24691100  1
  Cu  Cu17  1  0.50000000  0.08901600  0.50000000  1
  Cu  Cu18  1  0.50000000  0.91028400  0.00000000  1
  Cu  Cu19  1  0.00000000  0.92241600  0.50000000  1
  Cu  Cu20  1  0.75569200  0.24535900  0.75308900  1
  Cu  Cu21  1  0.24430800  0.24535900  0.24691100  1
  Cu  Cu22  1  0.00000000  0.58901600  0.50000000  1
  Cu  Cu23  1  0.00000000  0.41028400  0.00000000  1
  O  O24  1  0.10521000  0.90330800  0.86599400  1
  O  O25  1  0.89479000  0.90330800  0.13400600  1
  O  O26  1  0.67175250  0.25390550  0.39972500  1
  O  O27  1  0.32824750  0.25390550  0.60027500  1
  O  O28  1  0.61580400  0.07642200  0.88007000  1
  O  O29  1  0.38419600  0.07642200  0.11993000  1
  O  O30  1  0.60762550  0.91943150  0.37154400  1
  O  O31  1  0.39237450  0.91943150  0.62845600  1
  O  O32  1  0.67346000  0.75137500  0.89867300  1
  O  O33  1  0.32654000  0.75137500  0.10132700  1
  O  O34  1  0.09877850  0.09219550  0.36763100  1
  O  O35  1  0.90122150  0.09219550  0.63236900  1
  O  O36  1  0.60521000  0.40330800  0.86599400  1
  O  O37  1  0.39479000  0.40330800  0.13400600  1
  O  O38  1  0.17175250  0.75390550  0.39972500  1
  O  O39  1  0.82824750  0.75390550  0.60027500  1
  O  O40  1  0.11580400  0.57642200  0.88007000  1
  O  O41  1  0.88419600  0.57642200  0.11993000  1
  O  O42  1  0.10762550  0.41943150  0.37154400  1
  O  O43  1  0.89237450  0.41943150  0.62845600  1
  O  O44  1  0.17346000  0.25137500  0.89867300  1
  O  O45  1  0.82654000  0.25137500  0.10132700  1
  O  O46  1  0.59877850  0.59219550  0.36763100  1
  O  O47  1  0.40122150  0.59219550  0.63236900  1
