# generated using pymatgen
data_Rb4FeO4
_symmetry_space_group_name_H-M   'P 1'
_cell_length_a   6.73072096
_cell_length_b   6.78041610
_cell_length_c   9.78880891
_cell_angle_alpha   71.42665024
_cell_angle_beta   79.88361652
_cell_angle_gamma   69.12504206
_symmetry_Int_Tables_number   1
_chemical_formula_structural   Rb4FeO4
_chemical_formula_sum   'Rb8 Fe2 O8'
_cell_volume   394.69391938
_cell_formula_units_Z   2
loop_
 _symmetry_equiv_pos_site_id
 _symmetry_equiv_pos_as_xyz
  1  'x, y, z'
loop_
 _atom_site_type_symbol
 _atom_site_label
 _atom_site_symmetry_multiplicity
 _atom_site_fract_x
 _atom_site_fract_y
 _atom_site_fract_z
 _atom_site_occupancy
  Rb  Rb0  1  0.27700500  0.79051050  0.02589350  1
  Rb  Rb1  1  0.72299500  0.20948950  0.97410650  1
  Rb  Rb2  1  0.26761600  0.53453650  0.42609450  1
  Rb  Rb3  1  0.73238400  0.46546350  0.57390550  1
  Rb  Rb4  1  0.22000700  0.41504250  0.85017100  1
  Rb  Rb5  1  0.77999300  0.58495750  0.14982900  1
  Rb  Rb6  1  0.23173800  0.95844400  0.62917850  1
  Rb  Rb7  1  0.76826200  0.04155600  0.37082150  1
  Fe  Fe8  1  0.25282200  0.16497600  0.24730250  1
  Fe  Fe9  1  0.74717800  0.83502400  0.75269750  1
  O  O10  1  0.07996100  0.15903300  0.12257750  1
  O  O11  1  0.92003900  0.84096700  0.87742250  1
  O  O12  1  0.04853500  0.29399300  0.37331650  1
  O  O13  1  0.95146500  0.70600700  0.62668350  1
  O  O14  1  0.42168900  0.34322900  0.19466900  1
  O  O15  1  0.57831100  0.65677100  0.80533100  1
  O  O16  1  0.55530900  0.11584700  0.69789450  1
  O  O17  1  0.44469100  0.88415300  0.30210550  1
