# generated using pymatgen
data_Li2Co2SnO6
_symmetry_space_group_name_H-M   'P 1'
_cell_length_a   5.30062000
_cell_length_b   9.13856000
_cell_length_c   10.22101600
_cell_angle_alpha   90.00000000
_cell_angle_beta   90.00000000
_cell_angle_gamma   90.00000000
_symmetry_Int_Tables_number   1
_chemical_formula_structural   Li2Co2SnO6
_chemical_formula_sum   'Li8 Co8 Sn4 O24'
_cell_volume   495.10636161
_cell_formula_units_Z   4
loop_
 _symmetry_equiv_pos_site_id
 _symmetry_equiv_pos_as_xyz
  1  'x, y, z'
loop_
 _atom_site_type_symbol
 _atom_site_label
 _atom_site_symmetry_multiplicity
 _atom_site_fract_x
 _atom_site_fract_y
 _atom_site_fract_z
 _atom_site_occupancy
  Li  Li0  1  0.40775600  0.75000000  0.75000000  1
  Li  Li1  1  0.59224400  0.75000000  0.25000000  1
  Li  Li2  1  0.40775600  0.25000000  0.75000000  1
  Li  Li3  1  0.59224400  0.25000000  0.25000000  1
  Li  Li4  1  0.90775600  0.25000000  0.75000000  1
  Li  Li5  1  0.09224400  0.25000000  0.25000000  1
  Li  Li6  1  0.90775600  0.75000000  0.75000000  1
  Li  Li7  1  0.09224400  0.75000000  0.25000000  1
  Co  Co8  1  0.50000000  0.83654900  0.00000000  1
  Co  Co9  1  0.50000000  0.33654900  0.50000000  1
  Co  Co10  1  0.50000000  0.66345100  0.50000000  1
  Co  Co11  1  0.50000000  0.16345100  0.00000000  1
  Co  Co12  1  0.00000000  0.33654900  0.00000000  1
  Co  Co13  1  0.00000000  0.83654900  0.50000000  1
  Co  Co14  1  0.00000000  0.16345100  0.50000000  1
  Co  Co15  1  0.00000000  0.66345100  0.00000000  1
  Sn  Sn16  1  0.00000000  0.00000000  0.00000000  1
  Sn  Sn17  1  0.50000000  0.00000000  0.50000000  1
  Sn  Sn18  1  0.50000000  0.50000000  0.00000000  1
  Sn  Sn19  1  0.00000000  0.50000000  0.50000000  1
  O  O20  1  0.16018700  0.00000000  0.59710100  1
  O  O21  1  0.33981300  0.00000000  0.09710100  1
  O  O22  1  0.66018700  0.00000000  0.90289900  1
  O  O23  1  0.65746850  0.32352050  0.89125100  1
  O  O24  1  0.83981300  0.00000000  0.40289900  1
  O  O25  1  0.34253150  0.82352050  0.39125100  1
  O  O26  1  0.65746850  0.82352050  0.60874900  1
  O  O27  1  0.34253150  0.32352050  0.10874900  1
  O  O28  1  0.34253150  0.67647950  0.10874900  1
  O  O29  1  0.65746850  0.67647950  0.89125100  1
  O  O30  1  0.34253150  0.17647950  0.39125100  1
  O  O31  1  0.65746850  0.17647950  0.60874900  1
  O  O32  1  0.66018700  0.50000000  0.59710100  1
  O  O33  1  0.83981300  0.50000000  0.09710100  1
  O  O34  1  0.16018700  0.50000000  0.90289900  1
  O  O35  1  0.15746850  0.82352050  0.89125100  1
  O  O36  1  0.33981300  0.50000000  0.40289900  1
  O  O37  1  0.84253150  0.32352050  0.39125100  1
  O  O38  1  0.15746850  0.32352050  0.60874900  1
  O  O39  1  0.84253150  0.82352050  0.10874900  1
  O  O40  1  0.84253150  0.17647950  0.10874900  1
  O  O41  1  0.15746850  0.17647950  0.89125100  1
  O  O42  1  0.84253150  0.67647950  0.39125100  1
  O  O43  1  0.15746850  0.67647950  0.60874900  1
