# generated using pymatgen
data_Ti2Nb(PO4)3
_symmetry_space_group_name_H-M   'P 1'
_cell_length_a   8.72022609
_cell_length_b   8.72022609
_cell_length_c   21.20994439
_cell_angle_alpha   90.00000000
_cell_angle_beta   90.00000000
_cell_angle_gamma   120.00000000
_symmetry_Int_Tables_number   1
_chemical_formula_structural   Ti2Nb(PO4)3
_chemical_formula_sum   'Ti12 Nb6 P18 O72'
_cell_volume   1396.77242056
_cell_formula_units_Z   6
loop_
 _symmetry_equiv_pos_site_id
 _symmetry_equiv_pos_as_xyz
  1  'x, y, z'
loop_
 _atom_site_type_symbol
 _atom_site_label
 _atom_site_symmetry_multiplicity
 _atom_site_fract_x
 _atom_site_fract_y
 _atom_site_fract_z
 _atom_site_occupancy
  Ti  Ti0  1  0.33333333  0.66666667  0.81029567  1
  Ti  Ti1  1  0.33333333  0.66666667  0.02303767  1
  Ti  Ti2  1  0.33333333  0.66666667  0.31029567  1
  Ti  Ti3  1  0.33333333  0.66666667  0.52303767  1
  Ti  Ti4  1  0.00000000  0.00000000  0.14362900  1
  Ti  Ti5  1  1.00000000  0.00000000  0.35637100  1
  Ti  Ti6  1  0.00000000  0.00000000  0.64362900  1
  Ti  Ti7  1  0.00000000  0.00000000  0.85637100  1
  Ti  Ti8  1  0.66666667  0.33333333  0.47696233  1
  Ti  Ti9  1  0.66666667  0.33333333  0.68970433  1
  Ti  Ti10  1  0.66666667  0.33333333  0.97696233  1
  Ti  Ti11  1  0.66666667  0.33333333  0.18970433  1
  Nb  Nb12  1  0.00000000  0.00000000  0.00000000  1
  Nb  Nb13  1  0.33333333  0.66666667  0.16666667  1
  Nb  Nb14  1  0.66666667  0.33333333  0.33333333  1
  Nb  Nb15  1  0.00000000  0.00000000  0.50000000  1
  Nb  Nb16  1  0.33333333  0.66666667  0.66666667  1
  Nb  Nb17  1  0.66666667  0.33333333  0.83333333  1
  P  P18  1  0.29044700  0.29044700  0.25000000  1
  P  P19  1  0.70955300  0.00000000  0.25000000  1
  P  P20  1  0.00000000  0.70955300  0.25000000  1
  P  P21  1  0.66666667  0.62378033  0.08333333  1
  P  P22  1  0.95711367  0.33333333  0.08333333  1
  P  P23  1  0.37621967  0.04288633  0.08333333  1
  P  P24  1  0.95711367  0.62378033  0.58333333  1
  P  P25  1  0.37621967  0.33333333  0.58333333  1
  P  P26  1  0.66666667  0.04288633  0.58333333  1
  P  P27  1  0.33333333  0.95711367  0.41666667  1
  P  P28  1  0.62378033  0.66666667  0.41666667  1
  P  P29  1  0.04288633  0.37621967  0.41666667  1
  P  P30  1  0.62378033  0.95711367  0.91666667  1
  P  P31  1  0.04288633  0.66666667  0.91666667  1
  P  P32  1  0.33333333  0.37621967  0.91666667  1
  P  P33  1  0.00000000  0.29044700  0.75000000  1
  P  P34  1  0.29044700  0.00000000  0.75000000  1
  P  P35  1  0.70955300  0.70955300  0.75000000  1
  O  O36  1  0.33381067  0.47385333  0.97658133  1
  O  O37  1  0.52614667  0.85995733  0.97658133  1
  O  O38  1  0.83388900  0.81389500  0.07884900  1
  O  O39  1  0.14004267  0.66618933  0.97658133  1
  O  O40  1  0.66714400  0.52662400  0.14324800  1
  O  O41  1  0.49944433  0.64667267  0.08781767  1
  O  O42  1  0.98000600  0.16611100  0.07884900  1
  O  O43  1  0.14722833  0.50055567  0.08781767  1
  O  O44  1  0.19329067  0.19281333  0.19008533  1
  O  O45  1  0.35332733  0.85277167  0.08781767  1
  O  O46  1  0.48056167  0.31333933  0.25448433  1
  O  O47  1  0.80718667  0.00047733  0.19008533  1
  O  O48  1  0.85948000  0.33285600  0.14324800  1
  O  O49  1  0.18610500  0.01999400  0.07884900  1
  O  O50  1  0.31333933  0.48056167  0.24551567  1
  O  O51  1  0.47337600  0.14052000  0.14324800  1
  O  O52  1  0.51943833  0.83277767  0.24551567  1
  O  O53  1  0.68666067  0.16722233  0.25448433  1
  O  O54  1  0.16722233  0.68666067  0.24551567  1
  O  O55  1  0.99952267  0.80670933  0.19008533  1
  O  O56  1  0.52662400  0.66714400  0.35675200  1
  O  O57  1  0.83277767  0.51943833  0.25448433  1
  O  O58  1  0.14052000  0.47337600  0.35675200  1
  O  O59  1  0.33285600  0.85948000  0.35675200  1
  O  O60  1  0.00047733  0.80718667  0.30991467  1
  O  O61  1  0.19281333  0.19329067  0.30991467  1
  O  O62  1  0.50055567  0.14722833  0.41218233  1
  O  O63  1  0.80670933  0.99952267  0.30991467  1
  O  O64  1  0.33381067  0.85995733  0.47658133  1
  O  O65  1  0.16611100  0.98000600  0.42115100  1
  O  O66  1  0.64667267  0.49944433  0.41218233  1
  O  O67  1  0.81389500  0.83388900  0.42115100  1
  O  O68  1  0.85995733  0.52614667  0.52341867  1
  O  O69  1  0.01999400  0.18610500  0.42115100  1
  O  O70  1  0.14722833  0.64667267  0.58781767  1
  O  O71  1  0.47385333  0.33381067  0.52341867  1
  O  O72  1  0.52614667  0.66618933  0.47658133  1
  O  O73  1  0.85277167  0.35332733  0.41218233  1
  O  O74  1  0.98000600  0.81389500  0.57884900  1
  O  O75  1  0.14004267  0.47385333  0.47658133  1
  O  O76  1  0.18610500  0.16611100  0.57884900  1
  O  O77  1  0.35332733  0.50055567  0.58781767  1
  O  O78  1  0.83388900  0.01999400  0.57884900  1
  O  O79  1  0.66618933  0.14004267  0.52341867  1
  O  O80  1  0.19329067  0.00047733  0.69008533  1
  O  O81  1  0.49944433  0.85277167  0.58781767  1
  O  O82  1  0.80718667  0.80670933  0.69008533  1
  O  O83  1  0.99952267  0.19281333  0.69008533  1
  O  O84  1  0.66714400  0.14052000  0.64324800  1
  O  O85  1  0.85948000  0.52662400  0.64324800  1
  O  O86  1  0.16722233  0.48056167  0.74551567  1
  O  O87  1  0.47337600  0.33285600  0.64324800  1
  O  O88  1  0.00047733  0.19329067  0.80991467  1
  O  O89  1  0.83277767  0.31333933  0.75448433  1
  O  O90  1  0.31333933  0.83277767  0.74551567  1
  O  O91  1  0.48056167  0.16722233  0.75448433  1
  O  O92  1  0.52662400  0.85948000  0.85675200  1
  O  O93  1  0.68666067  0.51943833  0.75448433  1
  O  O94  1  0.81389500  0.98000600  0.92115100  1
  O  O95  1  0.14052000  0.66714400  0.85675200  1
  O  O96  1  0.19281333  0.99952267  0.80991467  1
  O  O97  1  0.51943833  0.68666067  0.74551567  1
  O  O98  1  0.64667267  0.14722833  0.91218233  1
  O  O99  1  0.80670933  0.80718667  0.80991467  1
  O  O100  1  0.85277167  0.49944433  0.91218233  1
  O  O101  1  0.01999400  0.83388900  0.92115100  1
  O  O102  1  0.50055567  0.35332733  0.91218233  1
  O  O103  1  0.33285600  0.47337600  0.85675200  1
  O  O104  1  0.85995733  0.33381067  0.02341867  1
  O  O105  1  0.16611100  0.18610500  0.92115100  1
  O  O106  1  0.47385333  0.14004267  0.02341867  1
  O  O107  1  0.66618933  0.52614667  0.02341867  1
