# generated using pymatgen
data_Mn5OF11
_symmetry_space_group_name_H-M   'P 1'
_cell_length_a   5.26325424
_cell_length_b   5.70992589
_cell_length_c   9.23451623
_cell_angle_alpha   106.75884602
_cell_angle_beta   88.62812817
_cell_angle_gamma   116.04404864
_symmetry_Int_Tables_number   1
_chemical_formula_structural   Mn5OF11
_chemical_formula_sum   'Mn5 O1 F11'
_cell_volume   237.04607292
_cell_formula_units_Z   1
loop_
 _symmetry_equiv_pos_site_id
 _symmetry_equiv_pos_as_xyz
  1  'x, y, z'
loop_
 _atom_site_type_symbol
 _atom_site_label
 _atom_site_symmetry_multiplicity
 _atom_site_fract_x
 _atom_site_fract_y
 _atom_site_fract_z
 _atom_site_occupancy
  Mn  Mn0  1  0.23933300  0.02501600  0.41570200  1
  Mn  Mn1  1  0.46421600  0.73813500  0.17215800  1
  Mn  Mn2  1  0.67100500  0.51256600  0.89143300  1
  Mn  Mn3  1  0.97007100  0.30163100  0.63570900  1
  Mn  Mn4  1  0.98083800  0.98694500  0.00151700  1
  O  O5  1  0.59712300  0.75019800  0.99000000  1
  F  F6  1  0.97271300  0.93229600  0.79689300  1
  F  F7  1  0.04740600  0.19995200  0.46807300  1
  F  F8  1  0.56739100  0.11334800  0.59083000  1
  F  F9  1  0.46054400  0.37061700  0.28858900  1
  F  F10  1  0.37175900  0.46499900  0.71140900  1
  F  F11  1  0.39329800  0.15018800  0.02961800  1
  F  F12  1  0.38529300  0.83221700  0.33801700  1
  F  F13  1  0.04611100  0.61928400  0.07751600  1
  F  F14  1  0.91112400  0.98838300  0.20136100  1
  F  F15  1  0.98704500  0.67770100  0.52449600  1
  F  F16  1  0.89841100  0.32543300  0.85368800  1
