# generated using pymatgen
data_LiVPO4
_symmetry_space_group_name_H-M   'P 1'
_cell_length_a   4.98458500
_cell_length_b   6.32029300
_cell_length_c   9.41862900
_cell_angle_alpha   90.00000000
_cell_angle_beta   90.00000000
_cell_angle_gamma   90.00000000
_symmetry_Int_Tables_number   1
_chemical_formula_structural   LiVPO4
_chemical_formula_sum   'Li4 V4 P4 O16'
_cell_volume   296.72484328
_cell_formula_units_Z   4
loop_
 _symmetry_equiv_pos_site_id
 _symmetry_equiv_pos_as_xyz
  1  'x, y, z'
loop_
 _atom_site_type_symbol
 _atom_site_label
 _atom_site_symmetry_multiplicity
 _atom_site_fract_x
 _atom_site_fract_y
 _atom_site_fract_z
 _atom_site_occupancy
  Li  Li0  1  0.98417000  0.75000000  0.17054850  1
  Li  Li1  1  0.48417000  0.25000000  0.32945150  1
  Li  Li2  1  0.51583000  0.75000000  0.67054850  1
  Li  Li3  1  0.01583000  0.25000000  0.82945150  1
  V  V4  1  0.50000000  0.50000000  0.00000000  1
  V  V5  1  0.00000000  0.50000000  0.50000000  1
  V  V6  1  0.50000000  0.00000000  0.00000000  1
  V  V7  1  0.00000000  0.00000000  0.50000000  1
  P  P8  1  0.98551600  0.25000000  0.17812250  1
  P  P9  1  0.48551600  0.75000000  0.32187750  1
  P  P10  1  0.51448400  0.25000000  0.67812250  1
  P  P11  1  0.01448400  0.75000000  0.82187750  1
  O  O12  1  0.29251300  0.25000000  0.13749150  1
  O  O13  1  0.79251300  0.75000000  0.36250850  1
  O  O14  1  0.20748700  0.25000000  0.63749150  1
  O  O15  1  0.70748700  0.75000000  0.86250850  1
  O  O16  1  0.43554500  0.75000000  0.15589950  1
  O  O17  1  0.93554500  0.25000000  0.34410050  1
  O  O18  1  0.06445500  0.75000000  0.65589950  1
  O  O19  1  0.56445500  0.25000000  0.84410050  1
  O  O20  1  0.85460600  0.04709450  0.12079650  1
  O  O21  1  0.85460600  0.45290550  0.12079650  1
  O  O22  1  0.35460600  0.95290550  0.37920350  1
  O  O23  1  0.35460600  0.54709450  0.37920350  1
  O  O24  1  0.64539400  0.04709450  0.62079650  1
  O  O25  1  0.64539400  0.45290550  0.62079650  1
  O  O26  1  0.14539400  0.54709450  0.87920350  1
  O  O27  1  0.14539400  0.95290550  0.87920350  1
