# generated using pymatgen
data_Co(SO4)2
_symmetry_space_group_name_H-M   'P 1'
_cell_length_a   8.37734779
_cell_length_b   8.37734779
_cell_length_c   22.43445147
_cell_angle_alpha   90.00000000
_cell_angle_beta   90.00000000
_cell_angle_gamma   120.00000000
_symmetry_Int_Tables_number   1
_chemical_formula_structural   Co(SO4)2
_chemical_formula_sum   'Co9 S18 O72'
_cell_volume   1363.51267092
_cell_formula_units_Z   9
loop_
 _symmetry_equiv_pos_site_id
 _symmetry_equiv_pos_as_xyz
  1  'x, y, z'
loop_
 _atom_site_type_symbol
 _atom_site_label
 _atom_site_symmetry_multiplicity
 _atom_site_fract_x
 _atom_site_fract_y
 _atom_site_fract_z
 _atom_site_occupancy
  Co  Co0  1  0.66666667  0.33333333  0.18547133  1
  Co  Co1  1  0.33333333  0.66666667  0.02163167  1
  Co  Co2  1  0.00000000  0.00000000  0.14846800  1
  Co  Co3  1  0.33333333  0.66666667  0.51880467  1
  Co  Co4  1  0.00000000  0.00000000  0.35496500  1
  Co  Co5  1  0.66666667  0.33333333  0.48180133  1
  Co  Co6  1  0.00000000  0.00000000  0.85213800  1
  Co  Co7  1  0.66666667  0.33333333  0.68829833  1
  Co  Co8  1  0.33333333  0.66666667  0.81513467  1
  S  S9  1  0.00333167  0.29161533  0.24892733  1
  S  S10  1  0.70838467  0.71171633  0.24892733  1
  S  S11  1  0.28828367  0.99666833  0.24892733  1
  S  S12  1  0.37788267  0.33690633  0.08353933  1
  S  S13  1  0.95902367  0.62211733  0.08353933  1
  S  S14  1  0.66309367  0.04097633  0.08353933  1
  S  S15  1  0.66999833  0.62494867  0.58226067  1
  S  S16  1  0.37505133  0.04504967  0.58226067  1
  S  S17  1  0.95495033  0.33000167  0.58226067  1
  S  S18  1  0.04454933  0.67023967  0.41687267  1
  S  S19  1  0.62569033  0.95545067  0.41687267  1
  S  S20  1  0.32976033  0.37430967  0.41687267  1
  S  S21  1  0.33666500  0.95828200  0.91559400  1
  S  S22  1  0.04171800  0.37838300  0.91559400  1
  S  S23  1  0.62161700  0.66333500  0.91559400  1
  S  S24  1  0.71121600  0.00357300  0.75020600  1
  S  S25  1  0.29235700  0.28878400  0.75020600  1
  S  S26  1  0.99642700  0.70764300  0.75020600  1
  O  O27  1  0.67784900  0.13971600  0.02815500  1
  O  O28  1  0.46186700  0.32215100  0.02815500  1
  O  O29  1  0.81063933  0.24892667  0.23451367  1
  O  O30  1  0.86028400  0.53813300  0.02815500  1
  O  O31  1  0.07636000  0.22273100  0.20085900  1
  O  O32  1  0.11982000  0.49148600  0.25391100  1
  O  O33  1  0.50851400  0.62833400  0.25391100  1
  O  O34  1  0.75107333  0.56171267  0.23451367  1
  O  O35  1  0.37166600  0.88018000  0.25391100  1
  O  O36  1  0.22585100  0.14860000  0.10037700  1
  O  O37  1  0.51973000  0.41345400  0.13197500  1
  O  O38  1  0.89372400  0.48027000  0.13197500  1
  O  O39  1  0.77726900  0.85362900  0.20085900  1
  O  O40  1  0.14637100  0.92364000  0.20085900  1
  O  O41  1  0.43828733  0.18936067  0.23451367  1
  O  O42  1  0.30026533  0.46187567  0.07779767  1
  O  O43  1  0.92274900  0.77414900  0.10037700  1
  O  O44  1  0.16161033  0.69973467  0.07779767  1
  O  O45  1  0.53812433  0.83838967  0.07779767  1
  O  O46  1  0.58654600  0.10627600  0.13197500  1
  O  O47  1  0.80313033  0.79495367  0.30643467  1
  O  O48  1  0.85140000  0.07725100  0.10037700  1
  O  O49  1  0.20504633  0.00817667  0.30643467  1
  O  O50  1  0.99182333  0.19686967  0.30643467  1
  O  O51  1  0.34451567  0.47304933  0.36148833  1
  O  O52  1  0.12853367  0.65548433  0.36148833  1
  O  O53  1  0.47730600  0.58226000  0.56784700  1
  O  O54  1  0.52695067  0.87146633  0.36148833  1
  O  O55  1  0.74302667  0.55606433  0.53419233  1
  O  O56  1  0.78648667  0.82481933  0.58724433  1
  O  O57  1  0.17518067  0.96166733  0.58724433  1
  O  O58  1  0.41774000  0.89504600  0.56784700  1
  O  O59  1  0.03833267  0.21351333  0.58724433  1
  O  O60  1  0.89251767  0.48193333  0.43371033  1
  O  O61  1  0.18639667  0.74678733  0.46530833  1
  O  O62  1  0.56039067  0.81360333  0.46530833  1
  O  O63  1  0.44393567  0.18696233  0.53419233  1
  O  O64  1  0.81303767  0.25697333  0.53419233  1
  O  O65  1  0.10495400  0.52269400  0.56784700  1
  O  O66  1  0.96693200  0.79520900  0.41113100  1
  O  O67  1  0.58941567  0.10748233  0.43371033  1
  O  O68  1  0.82827700  0.03306800  0.41113100  1
  O  O69  1  0.20479100  0.17172300  0.41113100  1
  O  O70  1  0.25321267  0.43960933  0.46530833  1
  O  O71  1  0.46979700  0.12828700  0.63976800  1
  O  O72  1  0.51806667  0.41058433  0.43371033  1
  O  O73  1  0.87171300  0.34151000  0.63976800  1
  O  O74  1  0.65849000  0.53020300  0.63976800  1
  O  O75  1  0.01118233  0.80638267  0.69482167  1
  O  O76  1  0.79520033  0.98881767  0.69482167  1
  O  O77  1  0.14397267  0.91559333  0.90118033  1
  O  O78  1  0.19361733  0.20479967  0.69482167  1
  O  O79  1  0.40969333  0.88939767  0.86752567  1
  O  O80  1  0.45315333  0.15815267  0.92057767  1
  O  O81  1  0.84184733  0.29500067  0.92057767  1
  O  O82  1  0.08440667  0.22837933  0.90118033  1
  O  O83  1  0.70499933  0.54684667  0.92057767  1
  O  O84  1  0.55918433  0.81526667  0.76704367  1
  O  O85  1  0.85306333  0.08012067  0.79864167  1
  O  O86  1  0.22705733  0.14693667  0.79864167  1
  O  O87  1  0.11060233  0.52029567  0.86752567  1
  O  O88  1  0.47970433  0.59030667  0.86752567  1
  O  O89  1  0.77162067  0.85602733  0.90118033  1
  O  O90  1  0.63359867  0.12854233  0.74446433  1
  O  O91  1  0.25608233  0.44081567  0.76704367  1
  O  O92  1  0.49494367  0.36640133  0.74446433  1
  O  O93  1  0.87145767  0.50505633  0.74446433  1
  O  O94  1  0.91987933  0.77294267  0.79864167  1
  O  O95  1  0.13646367  0.46162033  0.97310133  1
  O  O96  1  0.18473333  0.74391767  0.76704367  1
  O  O97  1  0.53837967  0.67484333  0.97310133  1
  O  O98  1  0.32515667  0.86353633  0.97310133  1
