# generated using pymatgen
data_LiCoOF2
_symmetry_space_group_name_H-M   'P 1'
_cell_length_a   10.92845600
_cell_length_b   7.49383600
_cell_length_c   6.10695160
_cell_angle_alpha   90.00000000
_cell_angle_beta   111.65744923
_cell_angle_gamma   90.00000000
_symmetry_Int_Tables_number   1
_chemical_formula_structural   LiCoOF2
_chemical_formula_sum   'Li8 Co8 O8 F16'
_cell_volume   464.82916184
_cell_formula_units_Z   8
loop_
 _symmetry_equiv_pos_site_id
 _symmetry_equiv_pos_as_xyz
  1  'x, y, z'
loop_
 _atom_site_type_symbol
 _atom_site_label
 _atom_site_symmetry_multiplicity
 _atom_site_fract_x
 _atom_site_fract_y
 _atom_site_fract_z
 _atom_site_occupancy
  Li  Li0  1  0.50000000  0.59200800  0.75000000  1
  Li  Li1  1  0.50000000  0.19222600  0.75000000  1
  Li  Li2  1  0.50000000  0.40799200  0.25000000  1
  Li  Li3  1  0.50000000  0.80777400  0.25000000  1
  Li  Li4  1  0.00000000  0.09200800  0.75000000  1
  Li  Li5  1  0.00000000  0.69222600  0.75000000  1
  Li  Li6  1  0.00000000  0.90799200  0.25000000  1
  Li  Li7  1  0.00000000  0.30777400  0.25000000  1
  Co  Co8  1  0.73114200  0.94320400  0.76692800  1
  Co  Co9  1  0.73114200  0.05679600  0.26692800  1
  Co  Co10  1  0.26885800  0.94320400  0.73307200  1
  Co  Co11  1  0.26885800  0.05679600  0.23307200  1
  Co  Co12  1  0.23114200  0.44320400  0.76692800  1
  Co  Co13  1  0.23114200  0.55679600  0.26692800  1
  Co  Co14  1  0.76885800  0.44320400  0.73307200  1
  Co  Co15  1  0.76885800  0.55679600  0.23307200  1
  O  O16  1  0.64601550  0.03777050  0.93429500  1
  O  O17  1  0.64601550  0.96222950  0.43429500  1
  O  O18  1  0.35398450  0.03777050  0.56570500  1
  O  O19  1  0.35398450  0.96222950  0.06570500  1
  O  O20  1  0.14601550  0.53777050  0.93429500  1
  O  O21  1  0.14601550  0.46222950  0.43429500  1
  O  O22  1  0.85398450  0.53777050  0.56570500  1
  O  O23  1  0.85398450  0.46222950  0.06570500  1
  F  F24  1  0.41226300  0.37003300  0.86474700  1
  F  F25  1  0.41226300  0.62996700  0.36474700  1
  F  F26  1  0.67026850  0.68724550  0.75438000  1
  F  F27  1  0.67026850  0.31275450  0.25438000  1
  F  F28  1  0.32973150  0.68724550  0.74562000  1
  F  F29  1  0.32973150  0.31275450  0.24562000  1
  F  F30  1  0.58773700  0.37003300  0.63525300  1
  F  F31  1  0.58773700  0.62996700  0.13525300  1
  F  F32  1  0.91226300  0.87003300  0.86474700  1
  F  F33  1  0.91226300  0.12996700  0.36474700  1
  F  F34  1  0.17026850  0.18724550  0.75438000  1
  F  F35  1  0.17026850  0.81275450  0.25438000  1
  F  F36  1  0.82973150  0.18724550  0.74562000  1
  F  F37  1  0.82973150  0.81275450  0.24562000  1
  F  F38  1  0.08773700  0.87003300  0.63525300  1
  F  F39  1  0.08773700  0.12996700  0.13525300  1
