# generated using pymatgen
data_Li2ZnFe(PO4)2
_symmetry_space_group_name_H-M   'P 1'
_cell_length_a   4.76077696
_cell_length_b   6.05371601
_cell_length_c   10.35713849
_cell_angle_alpha   90.00000000
_cell_angle_beta   90.30812052
_cell_angle_gamma   90.00000000
_symmetry_Int_Tables_number   1
_chemical_formula_structural   Li2ZnFe(PO4)2
_chemical_formula_sum   'Li4 Zn2 Fe2 P4 O16'
_cell_volume   298.49247198
_cell_formula_units_Z   2
loop_
 _symmetry_equiv_pos_site_id
 _symmetry_equiv_pos_as_xyz
  1  'x, y, z'
loop_
 _atom_site_type_symbol
 _atom_site_label
 _atom_site_symmetry_multiplicity
 _atom_site_fract_x
 _atom_site_fract_y
 _atom_site_fract_z
 _atom_site_occupancy
  Li  Li0  1  0.50000000  0.00000000  0.50000000  1
  Li  Li1  1  0.50000000  0.50000000  0.50000000  1
  Li  Li2  1  0.00000000  0.00000000  0.00000000  1
  Li  Li3  1  0.00000000  0.50000000  0.00000000  1
  Zn  Zn4  1  0.47680600  0.25000000  0.78264625  1
  Zn  Zn5  1  0.52319400  0.75000000  0.21735375  1
  Fe  Fe6  1  0.97477350  0.75000000  0.72000225  1
  Fe  Fe7  1  0.02522650  0.25000000  0.27999775  1
  P  P8  1  0.91719850  0.25000000  0.59558725  1
  P  P9  1  0.08280150  0.75000000  0.40441275  1
  P  P10  1  0.41829300  0.75000000  0.90692175  1
  P  P11  1  0.58170700  0.25000000  0.09307825  1
  O  O12  1  0.20546050  0.75000000  0.54369825  1
  O  O13  1  0.79453950  0.25000000  0.45630175  1
  O  O14  1  0.24067950  0.25000000  0.59982525  1
  O  O15  1  0.75932050  0.75000000  0.40017475  1
  O  O16  1  0.74060800  0.75000000  0.90516075  1
  O  O17  1  0.25939200  0.25000000  0.09483925  1
  O  O18  1  0.70529450  0.25000000  0.95378025  1
  O  O19  1  0.29470550  0.75000000  0.04621975  1
  O  O20  1  0.78265050  0.04642700  0.66634175  1
  O  O21  1  0.78265050  0.45357300  0.66634175  1
  O  O22  1  0.21734950  0.54642700  0.33365825  1
  O  O23  1  0.21734950  0.95357300  0.33365825  1
  O  O24  1  0.28280250  0.95416700  0.83601375  1
  O  O25  1  0.28280250  0.54583300  0.83601375  1
  O  O26  1  0.71719750  0.04583300  0.16398625  1
  O  O27  1  0.71719750  0.45416700  0.16398625  1
