# generated using pymatgen
data_Ga2NiO4
_symmetry_space_group_name_H-M   'P 1'
_cell_length_a   5.92213529
_cell_length_b   5.92213529
_cell_length_c   14.55392970
_cell_angle_alpha   90.00000000
_cell_angle_beta   90.00000000
_cell_angle_gamma   120.00000000
_symmetry_Int_Tables_number   1
_chemical_formula_structural   Ga2NiO4
_chemical_formula_sum   'Ga12 Ni6 O24'
_cell_volume   442.04609071
_cell_formula_units_Z   6
loop_
 _symmetry_equiv_pos_site_id
 _symmetry_equiv_pos_as_xyz
  1  'x, y, z'
loop_
 _atom_site_type_symbol
 _atom_site_label
 _atom_site_symmetry_multiplicity
 _atom_site_fract_x
 _atom_site_fract_y
 _atom_site_fract_z
 _atom_site_occupancy
  Ga  Ga0  1  0.50335033  0.49664967  0.12400267  1
  Ga  Ga1  1  0.99329933  0.49664967  0.12400267  1
  Ga  Ga2  1  0.00000000  0.00000000  0.24583600  1
  Ga  Ga3  1  0.50335033  0.00670067  0.12400267  1
  Ga  Ga4  1  0.17001700  0.82998300  0.45733600  1
  Ga  Ga5  1  0.65996600  0.82998300  0.45733600  1
  Ga  Ga6  1  0.66666667  0.33333333  0.57916933  1
  Ga  Ga7  1  0.17001700  0.34003400  0.45733600  1
  Ga  Ga8  1  0.83668367  0.16331633  0.79066933  1
  Ga  Ga9  1  0.32663267  0.16331633  0.79066933  1
  Ga  Ga10  1  0.33333333  0.66666667  0.91250267  1
  Ga  Ga11  1  0.83668367  0.67336733  0.79066933  1
  Ni  Ni12  1  0.00000000  0.00000000  0.00209600  1
  Ni  Ni13  1  0.33333333  0.66666667  0.29346067  1
  Ni  Ni14  1  0.66666667  0.33333333  0.33542933  1
  Ni  Ni15  1  0.00000000  0.00000000  0.62679400  1
  Ni  Ni16  1  0.33333333  0.66666667  0.66876267  1
  Ni  Ni17  1  0.66666667  0.33333333  0.96012733  1
  O  O18  1  0.17552267  0.35104533  0.20320433  1
  O  O19  1  0.33333333  0.66666667  0.04687167  1
  O  O20  1  0.82146633  0.17853367  0.04950667  1
  O  O21  1  0.66666667  0.33333333  0.19825733  1
  O  O22  1  0.35706733  0.17853367  0.04950667  1
  O  O23  1  0.82146633  0.64293267  0.04950667  1
  O  O24  1  0.64895467  0.82447733  0.20320433  1
  O  O25  1  0.17552267  0.82447733  0.20320433  1
  O  O26  1  0.84218933  0.68437867  0.53653767  1
  O  O27  1  0.00000000  0.00000000  0.38020500  1
  O  O28  1  0.48813300  0.51186700  0.38284000  1
  O  O29  1  0.33333333  0.66666667  0.53159067  1
  O  O30  1  0.02373400  0.51186700  0.38284000  1
  O  O31  1  0.48813300  0.97626600  0.38284000  1
  O  O32  1  0.31562133  0.15781067  0.53653767  1
  O  O33  1  0.84218933  0.15781067  0.53653767  1
  O  O34  1  0.50885600  0.01771200  0.86987100  1
  O  O35  1  0.66666667  0.33333333  0.71353833  1
  O  O36  1  0.15479967  0.84520033  0.71617333  1
  O  O37  1  0.00000000  0.00000000  0.86492400  1
  O  O38  1  0.69040067  0.84520033  0.71617333  1
  O  O39  1  0.15479967  0.30959933  0.71617333  1
  O  O40  1  0.98228800  0.49114400  0.86987100  1
  O  O41  1  0.50885600  0.49114400  0.86987100  1
