# generated using pymatgen
data_MnV2O6
_symmetry_space_group_name_H-M   'P 1'
_cell_length_a   10.36116197
_cell_length_b   9.34786794
_cell_length_c   5.96922543
_cell_angle_alpha   90.00000000
_cell_angle_beta   111.04527862
_cell_angle_gamma   90.00000000
_symmetry_Int_Tables_number   1
_chemical_formula_structural   MnV2O6
_chemical_formula_sum   'Mn4 V8 O24'
_cell_volume   539.58373405
_cell_formula_units_Z   4
loop_
 _symmetry_equiv_pos_site_id
 _symmetry_equiv_pos_as_xyz
  1  'x, y, z'
loop_
 _atom_site_type_symbol
 _atom_site_label
 _atom_site_symmetry_multiplicity
 _atom_site_fract_x
 _atom_site_fract_y
 _atom_site_fract_z
 _atom_site_occupancy
  Mn  Mn0  1  0.00000000  0.90930500  0.25000000  1
  Mn  Mn1  1  0.00000000  0.09069500  0.75000000  1
  Mn  Mn2  1  0.50000000  0.40930500  0.25000000  1
  Mn  Mn3  1  0.50000000  0.59069500  0.75000000  1
  V  V4  1  0.20103050  0.58624550  0.24540000  1
  V  V5  1  0.20103050  0.41375450  0.74540000  1
  V  V6  1  0.79896950  0.58624550  0.25460000  1
  V  V7  1  0.79896950  0.41375450  0.75460000  1
  V  V8  1  0.70103050  0.08624550  0.24540000  1
  V  V9  1  0.70103050  0.91375450  0.74540000  1
  V  V10  1  0.29896950  0.08624550  0.25460000  1
  V  V11  1  0.29896950  0.91375450  0.75460000  1
  O  O12  1  0.37868350  0.57304450  0.36191900  1
  O  O13  1  0.37868350  0.42695550  0.86191900  1
  O  O14  1  0.62131650  0.57304450  0.13808100  1
  O  O15  1  0.62131650  0.42695550  0.63808100  1
  O  O16  1  0.14751100  0.75673600  0.22553600  1
  O  O17  1  0.85248900  0.75673600  0.27446400  1
  O  O18  1  0.14751100  0.24326400  0.72553600  1
  O  O19  1  0.85248900  0.24326400  0.77446400  1
  O  O20  1  0.13937200  0.49273800  0.45106700  1
  O  O21  1  0.13937200  0.50726200  0.95106700  1
  O  O22  1  0.86062800  0.49273800  0.04893300  1
  O  O23  1  0.86062800  0.50726200  0.54893300  1
  O  O24  1  0.87868350  0.07304450  0.36191900  1
  O  O25  1  0.87868350  0.92695550  0.86191900  1
  O  O26  1  0.12131650  0.07304450  0.13808100  1
  O  O27  1  0.12131650  0.92695550  0.63808100  1
  O  O28  1  0.64751100  0.25673600  0.22553600  1
  O  O29  1  0.35248900  0.25673600  0.27446400  1
  O  O30  1  0.64751100  0.74326400  0.72553600  1
  O  O31  1  0.35248900  0.74326400  0.77446400  1
  O  O32  1  0.63937200  0.99273800  0.45106700  1
  O  O33  1  0.63937200  0.00726200  0.95106700  1
  O  O34  1  0.36062800  0.99273800  0.04893300  1
  O  O35  1  0.36062800  0.00726200  0.54893300  1
