# generated using pymatgen
data_V2O2F3
_symmetry_space_group_name_H-M   'P 1'
_cell_length_a   3.72925800
_cell_length_b   10.07195737
_cell_length_c   9.92075136
_cell_angle_alpha   90.00000000
_cell_angle_beta   90.00000000
_cell_angle_gamma   90.00000000
_symmetry_Int_Tables_number   1
_chemical_formula_structural   V2O2F3
_chemical_formula_sum   'V8 O8 F12'
_cell_volume   372.63262414
_cell_formula_units_Z   4
loop_
 _symmetry_equiv_pos_site_id
 _symmetry_equiv_pos_as_xyz
  1  'x, y, z'
loop_
 _atom_site_type_symbol
 _atom_site_label
 _atom_site_symmetry_multiplicity
 _atom_site_fract_x
 _atom_site_fract_y
 _atom_site_fract_z
 _atom_site_occupancy
  V  V0  1  0.00000000  0.35556650  0.94132300  1
  V  V1  1  0.50000000  0.14443350  0.05867700  1
  V  V2  1  0.00000000  0.35556650  0.55867700  1
  V  V3  1  0.50000000  0.14443350  0.44132300  1
  V  V4  1  0.50000000  0.85556650  0.94132300  1
  V  V5  1  0.00000000  0.64443350  0.05867700  1
  V  V6  1  0.50000000  0.85556650  0.55867700  1
  V  V7  1  0.00000000  0.64443350  0.44132300  1
  O  O8  1  0.00000000  0.17217150  0.03610100  1
  O  O9  1  0.00000000  0.17217150  0.46389900  1
  O  O10  1  0.50000000  0.32782850  0.53610100  1
  O  O11  1  0.50000000  0.32782850  0.96389900  1
  O  O12  1  0.50000000  0.67217150  0.03610100  1
  O  O13  1  0.50000000  0.67217150  0.46389900  1
  O  O14  1  0.00000000  0.82782850  0.53610100  1
  O  O15  1  0.00000000  0.82782850  0.96389900  1
  F  F16  1  0.00000000  0.29304100  0.75000000  1
  F  F17  1  0.50000000  0.20695900  0.25000000  1
  F  F18  1  0.00000000  0.46121450  0.38205900  1
  F  F19  1  0.00000000  0.46121450  0.11794100  1
  F  F20  1  0.50000000  0.03878550  0.61794100  1
  F  F21  1  0.50000000  0.03878550  0.88205900  1
  F  F22  1  0.50000000  0.79304100  0.75000000  1
  F  F23  1  0.00000000  0.70695900  0.25000000  1
  F  F24  1  0.50000000  0.96121450  0.38205900  1
  F  F25  1  0.50000000  0.96121450  0.11794100  1
  F  F26  1  0.00000000  0.53878550  0.61794100  1
  F  F27  1  0.00000000  0.53878550  0.88205900  1
