# generated using pymatgen
data_Li9Mn14O32
_symmetry_space_group_name_H-M   'P 1'
_cell_length_a   10.17357000
_cell_length_b   5.86524400
_cell_length_c   19.43612154
_cell_angle_alpha   90.00000000
_cell_angle_beta   100.26373450
_cell_angle_gamma   90.00000000
_symmetry_Int_Tables_number   1
_chemical_formula_structural   Li9Mn14O32
_chemical_formula_sum   'Li18 Mn28 O64'
_cell_volume   1141.20401182
_cell_formula_units_Z   2
loop_
 _symmetry_equiv_pos_site_id
 _symmetry_equiv_pos_as_xyz
  1  'x, y, z'
loop_
 _atom_site_type_symbol
 _atom_site_label
 _atom_site_symmetry_multiplicity
 _atom_site_fract_x
 _atom_site_fract_y
 _atom_site_fract_z
 _atom_site_occupancy
  Li  Li0  1  0.59473700  0.50000000  0.77736800  1
  Li  Li1  1  0.39906600  0.00000000  0.71728900  1
  Li  Li2  1  0.35162800  0.00000000  0.53367100  1
  Li  Li3  1  0.37506200  0.50000000  0.62463800  1
  Li  Li4  1  0.65398900  0.00000000  0.47180900  1
  Li  Li5  1  0.24994700  0.00000000  0.25041400  1
  Li  Li6  1  0.59516700  0.00000000  0.28559500  1
  Li  Li7  1  0.40519800  0.50000000  0.21489000  1
  Li  Li8  1  0.34379600  0.50000000  0.03235000  1
  Li  Li9  1  0.09473700  0.00000000  0.77736800  1
  Li  Li10  1  0.89906600  0.50000000  0.71728900  1
  Li  Li11  1  0.85162800  0.50000000  0.53367100  1
  Li  Li12  1  0.87506200  0.00000000  0.62463800  1
  Li  Li13  1  0.15398900  0.50000000  0.47180900  1
  Li  Li14  1  0.74994700  0.50000000  0.25041400  1
  Li  Li15  1  0.09516700  0.50000000  0.28559500  1
  Li  Li16  1  0.90519800  0.00000000  0.21489000  1
  Li  Li17  1  0.84379600  0.00000000  0.03235000  1
  Mn  Mn18  1  0.99959400  0.50000000  0.99936200  1
  Mn  Mn19  1  0.87486200  0.74984300  0.87505200  1
  Mn  Mn20  1  0.87486200  0.25015700  0.87505200  1
  Mn  Mn21  1  0.62571500  0.00000000  0.87547100  1
  Mn  Mn22  1  0.62477750  0.25005950  0.62461100  1
  Mn  Mn23  1  0.75018800  0.00000000  0.74662500  1
  Mn  Mn24  1  0.62477750  0.74994050  0.62461100  1
  Mn  Mn25  1  0.37385200  0.24692100  0.37455200  1
  Mn  Mn26  1  0.62634400  0.50000000  0.37425700  1
  Mn  Mn27  1  0.37385200  0.75307900  0.37455200  1
  Mn  Mn28  1  0.49977200  0.50000000  0.50243900  1
  Mn  Mn29  1  0.37238500  0.00000000  0.12559600  1
  Mn  Mn30  1  0.12679000  0.75438500  0.12568100  1
  Mn  Mn31  1  0.12679000  0.24561500  0.12568100  1
  Mn  Mn32  1  0.49959400  0.00000000  0.99936200  1
  Mn  Mn33  1  0.37486200  0.24984300  0.87505200  1
  Mn  Mn34  1  0.37486200  0.75015700  0.87505200  1
  Mn  Mn35  1  0.12571500  0.50000000  0.87547100  1
  Mn  Mn36  1  0.12477750  0.75005950  0.62461100  1
  Mn  Mn37  1  0.25018800  0.50000000  0.74662500  1
  Mn  Mn38  1  0.12477750  0.24994050  0.62461100  1
  Mn  Mn39  1  0.87385200  0.74692100  0.37455200  1
  Mn  Mn40  1  0.12634400  0.00000000  0.37425700  1
  Mn  Mn41  1  0.87385200  0.25307900  0.37455200  1
  Mn  Mn42  1  0.99977200  0.00000000  0.50243900  1
  Mn  Mn43  1  0.87238500  0.50000000  0.12559600  1
  Mn  Mn44  1  0.62679000  0.25438500  0.12568100  1
  Mn  Mn45  1  0.62679000  0.74561500  0.12568100  1
  O  O46  1  0.83210700  0.50000000  0.93467200  1
  O  O47  1  0.55032450  0.21944850  0.93406500  1
  O  O48  1  0.55032450  0.78055150  0.93406500  1
  O  O49  1  0.44058300  0.00000000  0.82118400  1
  O  O50  1  0.79339050  0.77186150  0.68909600  1
  O  O51  1  0.69786900  0.22303300  0.81750800  1
  O  O52  1  0.81118100  0.00000000  0.92959900  1
  O  O53  1  0.56927500  0.50000000  0.67644300  1
  O  O54  1  0.41997900  0.50000000  0.81483600  1
  O  O55  1  0.67306600  0.50000000  0.56560100  1
  O  O56  1  0.45646400  0.27132200  0.56078100  1
  O  O57  1  0.69786900  0.77696700  0.81750800  1
  O  O58  1  0.57722000  0.00000000  0.68414100  1
  O  O59  1  0.79339050  0.22813850  0.68909600  1
  O  O60  1  0.55206950  0.27934950  0.43319900  1
  O  O61  1  0.68085900  0.00000000  0.57307000  1
  O  O62  1  0.45646400  0.72867800  0.56078100  1
  O  O63  1  0.30917400  0.00000000  0.42782800  1
  O  O64  1  0.42691800  0.00000000  0.32280500  1
  O  O65  1  0.19778050  0.76967150  0.32275400  1
  O  O66  1  0.55206950  0.72065050  0.43319900  1
  O  O67  1  0.57218000  0.50000000  0.17716200  1
  O  O68  1  0.33108600  0.50000000  0.43488900  1
  O  O69  1  0.30287750  0.23052550  0.17717600  1
  O  O70  1  0.30287750  0.76947450  0.17717600  1
  O  O71  1  0.43988000  0.50000000  0.32219200  1
  O  O72  1  0.19066300  0.00000000  0.07303400  1
  O  O73  1  0.55957400  0.00000000  0.17759900  1
  O  O74  1  0.19778050  0.23032850  0.32275400  1
  O  O75  1  0.44825200  0.22050700  0.06512100  1
  O  O76  1  0.16879900  0.50000000  0.06523100  1
  O  O77  1  0.44825200  0.77949300  0.06512100  1
  O  O78  1  0.33210700  0.00000000  0.93467200  1
  O  O79  1  0.05032450  0.71944850  0.93406500  1
  O  O80  1  0.05032450  0.28055150  0.93406500  1
  O  O81  1  0.94058300  0.50000000  0.82118400  1
  O  O82  1  0.29339050  0.27186150  0.68909600  1
  O  O83  1  0.19786900  0.72303300  0.81750800  1
  O  O84  1  0.31118100  0.50000000  0.92959900  1
  O  O85  1  0.06927500  0.00000000  0.67644300  1
  O  O86  1  0.91997900  0.00000000  0.81483600  1
  O  O87  1  0.17306600  0.00000000  0.56560100  1
  O  O88  1  0.95646400  0.77132200  0.56078100  1
  O  O89  1  0.19786900  0.27696700  0.81750800  1
  O  O90  1  0.07722000  0.50000000  0.68414100  1
  O  O91  1  0.29339050  0.72813850  0.68909600  1
  O  O92  1  0.05206950  0.77934950  0.43319900  1
  O  O93  1  0.18085900  0.50000000  0.57307000  1
  O  O94  1  0.95646400  0.22867800  0.56078100  1
  O  O95  1  0.80917400  0.50000000  0.42782800  1
  O  O96  1  0.92691800  0.50000000  0.32280500  1
  O  O97  1  0.69778050  0.26967150  0.32275400  1
  O  O98  1  0.05206950  0.22065050  0.43319900  1
  O  O99  1  0.07218000  0.00000000  0.17716200  1
  O  O100  1  0.83108600  0.00000000  0.43488900  1
  O  O101  1  0.80287750  0.73052550  0.17717600  1
  O  O102  1  0.80287750  0.26947450  0.17717600  1
  O  O103  1  0.93988000  0.00000000  0.32219200  1
  O  O104  1  0.69066300  0.50000000  0.07303400  1
  O  O105  1  0.05957400  0.50000000  0.17759900  1
  O  O106  1  0.69778050  0.73032850  0.32275400  1
  O  O107  1  0.94825200  0.72050700  0.06512100  1
  O  O108  1  0.66879900  0.00000000  0.06523100  1
  O  O109  1  0.94825200  0.27949300  0.06512100  1
