# generated using pymatgen
data_Fe2OF3
_symmetry_space_group_name_H-M   'P 1'
_cell_length_a   6.25315800
_cell_length_b   13.44948200
_cell_length_c   6.95695500
_cell_angle_alpha   90.00000000
_cell_angle_beta   90.00000000
_cell_angle_gamma   90.00000000
_symmetry_Int_Tables_number   1
_chemical_formula_structural   Fe2OF3
_chemical_formula_sum   'Fe16 O8 F24'
_cell_volume   585.09199252
_cell_formula_units_Z   8
loop_
 _symmetry_equiv_pos_site_id
 _symmetry_equiv_pos_as_xyz
  1  'x, y, z'
loop_
 _atom_site_type_symbol
 _atom_site_label
 _atom_site_symmetry_multiplicity
 _atom_site_fract_x
 _atom_site_fract_y
 _atom_site_fract_z
 _atom_site_occupancy
  Fe  Fe0  1  0.22654300  0.00000000  0.00000000  1
  Fe  Fe1  1  0.77345700  0.00000000  0.00000000  1
  Fe  Fe2  1  0.50000000  0.00000000  0.50000000  1
  Fe  Fe3  1  0.00000000  0.00000000  0.50000000  1
  Fe  Fe4  1  0.00000000  0.75355100  0.00000000  1
  Fe  Fe5  1  0.50000000  0.74644900  0.00000000  1
  Fe  Fe6  1  0.25000000  0.75000000  0.50000000  1
  Fe  Fe7  1  0.75000000  0.75000000  0.50000000  1
  Fe  Fe8  1  0.72654300  0.50000000  0.00000000  1
  Fe  Fe9  1  0.27345700  0.50000000  0.00000000  1
  Fe  Fe10  1  0.00000000  0.50000000  0.50000000  1
  Fe  Fe11  1  0.50000000  0.50000000  0.50000000  1
  Fe  Fe12  1  0.50000000  0.25355100  0.00000000  1
  Fe  Fe13  1  0.00000000  0.24644900  0.00000000  1
  Fe  Fe14  1  0.75000000  0.25000000  0.50000000  1
  Fe  Fe15  1  0.25000000  0.25000000  0.50000000  1
  O  O16  1  0.00000000  0.90357300  0.00000000  1
  O  O17  1  0.50000000  0.59642700  0.00000000  1
  O  O18  1  0.50000000  0.83953300  0.50000000  1
  O  O19  1  0.00000000  0.66046700  0.50000000  1
  O  O20  1  0.50000000  0.40357300  0.00000000  1
  O  O21  1  0.00000000  0.09642700  0.00000000  1
  O  O22  1  0.00000000  0.33953300  0.50000000  1
  O  O23  1  0.50000000  0.16046700  0.50000000  1
  F  F24  1  0.50000000  0.90565700  0.00000000  1
  F  F25  1  0.24854000  0.00000000  0.29094300  1
  F  F26  1  0.75146000  0.00000000  0.29094300  1
  F  F27  1  0.24854000  0.00000000  0.70905700  1
  F  F28  1  0.25000000  0.75000000  0.20824100  1
  F  F29  1  0.75000000  0.75000000  0.20824100  1
  F  F30  1  0.75146000  0.00000000  0.70905700  1
  F  F31  1  0.00000000  0.59434300  0.00000000  1
  F  F32  1  0.00000000  0.85117400  0.50000000  1
  F  F33  1  0.50000000  0.64882600  0.50000000  1
  F  F34  1  0.25000000  0.75000000  0.79175900  1
  F  F35  1  0.75000000  0.75000000  0.79175900  1
  F  F36  1  0.00000000  0.40565700  0.00000000  1
  F  F37  1  0.74854000  0.50000000  0.29094300  1
  F  F38  1  0.25146000  0.50000000  0.29094300  1
  F  F39  1  0.74854000  0.50000000  0.70905700  1
  F  F40  1  0.75000000  0.25000000  0.20824100  1
  F  F41  1  0.25000000  0.25000000  0.20824100  1
  F  F42  1  0.25146000  0.50000000  0.70905700  1
  F  F43  1  0.50000000  0.09434300  0.00000000  1
  F  F44  1  0.50000000  0.35117400  0.50000000  1
  F  F45  1  0.00000000  0.14882600  0.50000000  1
  F  F46  1  0.75000000  0.25000000  0.79175900  1
  F  F47  1  0.25000000  0.25000000  0.79175900  1
