# generated using pymatgen
data_MnFeBO4
_symmetry_space_group_name_H-M   'P 1'
_cell_length_a   9.50826200
_cell_length_b   3.22477500
_cell_length_c   9.53667812
_cell_angle_alpha   90.00000000
_cell_angle_beta   90.58207115
_cell_angle_gamma   90.00000000
_symmetry_Int_Tables_number   1
_chemical_formula_structural   MnFeBO4
_chemical_formula_sum   'Mn4 Fe4 B4 O16'
_cell_volume   292.39858845
_cell_formula_units_Z   4
loop_
 _symmetry_equiv_pos_site_id
 _symmetry_equiv_pos_as_xyz
  1  'x, y, z'
loop_
 _atom_site_type_symbol
 _atom_site_label
 _atom_site_symmetry_multiplicity
 _atom_site_fract_x
 _atom_site_fract_y
 _atom_site_fract_z
 _atom_site_occupancy
  Mn  Mn0  1  0.10194100  0.00000000  0.18611200  1
  Mn  Mn1  1  0.40213500  0.50000000  0.69411100  1
  Mn  Mn2  1  0.60227500  0.00000000  0.30915500  1
  Mn  Mn3  1  0.89452900  0.50000000  0.81231900  1
  Fe  Fe4  1  0.11755000  0.00000000  0.56809300  1
  Fe  Fe5  1  0.38711400  0.50000000  0.06403700  1
  Fe  Fe6  1  0.62152400  0.00000000  0.93602200  1
  Fe  Fe7  1  0.88348100  0.50000000  0.43006200  1
  B  B8  1  0.16740000  0.00000000  0.87423000  1
  B  B9  1  0.33598400  0.50000000  0.37258600  1
  B  B10  1  0.66574300  0.00000000  0.62379900  1
  B  B11  1  0.82885100  0.50000000  0.12532800  1
  O  O12  1  0.00465000  0.00000000  0.38845800  1
  O  O13  1  0.02524300  0.00000000  0.87527500  1
  O  O14  1  0.24510500  0.00000000  0.00058100  1
  O  O15  1  0.23981400  0.00000000  0.74580500  1
  O  O16  1  0.26202600  0.50000000  0.24613600  1
  O  O17  1  0.26149800  0.50000000  0.50152100  1
  O  O18  1  0.47867000  0.50000000  0.37403900  1
  O  O19  1  0.48925000  0.50000000  0.88827700  1
  O  O20  1  0.50512900  0.00000000  0.12161600  1
  O  O21  1  0.52307100  0.00000000  0.62489000  1
  O  O22  1  0.73559600  0.00000000  0.49187100  1
  O  O23  1  0.74422100  0.00000000  0.74695200  1
  O  O24  1  0.75261200  0.50000000  0.25249500  1
  O  O25  1  0.75896500  0.50000000  0.99735900  1
  O  O26  1  0.97057300  0.50000000  0.13574700  1
  O  O27  1  0.99505000  0.50000000  0.61312500  1
