# generated using pymatgen
data_InFe11O16
_symmetry_space_group_name_H-M   'P 1'
_cell_length_a   12.27324200
_cell_length_b   17.07315400
_cell_length_c   6.10917000
_cell_angle_alpha   90.00000000
_cell_angle_beta   90.00000000
_cell_angle_gamma   90.00000000
_symmetry_Int_Tables_number   1
_chemical_formula_structural   InFe11O16
_chemical_formula_sum   'In4 Fe44 O64'
_cell_volume   1280.13350840
_cell_formula_units_Z   4
loop_
 _symmetry_equiv_pos_site_id
 _symmetry_equiv_pos_as_xyz
  1  'x, y, z'
loop_
 _atom_site_type_symbol
 _atom_site_label
 _atom_site_symmetry_multiplicity
 _atom_site_fract_x
 _atom_site_fract_y
 _atom_site_fract_z
 _atom_site_occupancy
  In  In0  1  0.50000000  0.68689400  0.75000000  1
  In  In1  1  0.50000000  0.31310600  0.25000000  1
  In  In2  1  0.00000000  0.18689400  0.75000000  1
  In  In3  1  0.00000000  0.81310600  0.25000000  1
  Fe  Fe4  1  0.00000000  0.00000000  0.50000000  1
  Fe  Fe5  1  0.00000000  0.00000000  0.00000000  1
  Fe  Fe6  1  0.24995650  0.93741550  0.25000000  1
  Fe  Fe7  1  0.75004350  0.93741550  0.25000000  1
  Fe  Fe8  1  0.12667900  0.87477500  0.75000000  1
  Fe  Fe9  1  0.87332100  0.87477500  0.75000000  1
  Fe  Fe10  1  0.25000000  0.75000000  0.50000000  1
  Fe  Fe11  1  0.25000000  0.25000000  0.00000000  1
  Fe  Fe12  1  0.25000000  0.75000000  0.00000000  1
  Fe  Fe13  1  0.25000000  0.25000000  0.50000000  1
  Fe  Fe14  1  0.50000000  0.18587100  0.75000000  1
  Fe  Fe15  1  0.62651500  0.12106200  0.25000000  1
  Fe  Fe16  1  0.37348500  0.12106200  0.25000000  1
  Fe  Fe17  1  0.87332100  0.12522500  0.25000000  1
  Fe  Fe18  1  0.12667900  0.12522500  0.25000000  1
  Fe  Fe19  1  0.24995650  0.06258450  0.75000000  1
  Fe  Fe20  1  0.75004350  0.06258450  0.75000000  1
  Fe  Fe21  1  0.50000000  0.00000000  0.00000000  1
  Fe  Fe22  1  0.50000000  0.00000000  0.50000000  1
  Fe  Fe23  1  0.62651500  0.87893800  0.75000000  1
  Fe  Fe24  1  0.37348500  0.87893800  0.75000000  1
  Fe  Fe25  1  0.50000000  0.81412900  0.25000000  1
  Fe  Fe26  1  0.50000000  0.50000000  0.50000000  1
  Fe  Fe27  1  0.50000000  0.50000000  0.00000000  1
  Fe  Fe28  1  0.74995650  0.43741550  0.25000000  1
  Fe  Fe29  1  0.25004350  0.43741550  0.25000000  1
  Fe  Fe30  1  0.62667900  0.37477500  0.75000000  1
  Fe  Fe31  1  0.37332100  0.37477500  0.75000000  1
  Fe  Fe32  1  0.75000000  0.25000000  0.50000000  1
  Fe  Fe33  1  0.75000000  0.75000000  0.00000000  1
  Fe  Fe34  1  0.75000000  0.25000000  0.00000000  1
  Fe  Fe35  1  0.75000000  0.75000000  0.50000000  1
  Fe  Fe36  1  0.00000000  0.68587100  0.75000000  1
  Fe  Fe37  1  0.12651500  0.62106200  0.25000000  1
  Fe  Fe38  1  0.87348500  0.62106200  0.25000000  1
  Fe  Fe39  1  0.37332100  0.62522500  0.25000000  1
  Fe  Fe40  1  0.62667900  0.62522500  0.25000000  1
  Fe  Fe41  1  0.74995650  0.56258450  0.75000000  1
  Fe  Fe42  1  0.25004350  0.56258450  0.75000000  1
  Fe  Fe43  1  0.00000000  0.50000000  0.00000000  1
  Fe  Fe44  1  0.00000000  0.50000000  0.50000000  1
  Fe  Fe45  1  0.12651500  0.37893800  0.75000000  1
  Fe  Fe46  1  0.87348500  0.37893800  0.75000000  1
  Fe  Fe47  1  0.00000000  0.31412900  0.25000000  1
  O  O48  1  0.50000000  0.61513000  0.48268500  1
  O  O49  1  0.50000000  0.61513000  0.01731500  1
  O  O50  1  0.11665550  0.99820250  0.25000000  1
  O  O51  1  0.88334450  0.99820250  0.25000000  1
  O  O52  1  0.11665550  0.00179750  0.75000000  1
  O  O53  1  0.88334450  0.00179750  0.75000000  1
  O  O54  1  0.50000000  0.38487000  0.51731500  1
  O  O55  1  0.50000000  0.38487000  0.98268500  1
  O  O56  1  0.25353650  0.87240850  0.50895200  1
  O  O57  1  0.74646350  0.87240850  0.99104800  1
  O  O58  1  0.74646350  0.87240850  0.50895200  1
  O  O59  1  0.25353650  0.87240850  0.99104800  1
  O  O60  1  0.36342600  0.75955600  0.75000000  1
  O  O61  1  0.62755400  0.25156500  0.75000000  1
  O  O62  1  0.37244600  0.25156500  0.75000000  1
  O  O63  1  0.63657400  0.75955600  0.75000000  1
  O  O64  1  0.63657400  0.24044400  0.25000000  1
  O  O65  1  0.37244600  0.74843500  0.25000000  1
  O  O66  1  0.36342600  0.24044400  0.25000000  1
  O  O67  1  0.62755400  0.74843500  0.25000000  1
  O  O68  1  0.74646350  0.12759150  0.00895200  1
  O  O69  1  0.25353650  0.12759150  0.00895200  1
  O  O70  1  0.74646350  0.12759150  0.49104800  1
  O  O71  1  0.25353650  0.12759150  0.49104800  1
  O  O72  1  0.50000000  0.12141800  0.47987500  1
  O  O73  1  0.50000000  0.12141800  0.02012500  1
  O  O74  1  0.37614100  0.00420600  0.25000000  1
  O  O75  1  0.62385900  0.00420600  0.25000000  1
  O  O76  1  0.62385900  0.99579400  0.75000000  1
  O  O77  1  0.37614100  0.99579400  0.75000000  1
  O  O78  1  0.50000000  0.87858200  0.52012500  1
  O  O79  1  0.50000000  0.87858200  0.97987500  1
  O  O80  1  0.00000000  0.11513000  0.48268500  1
  O  O81  1  0.00000000  0.11513000  0.01731500  1
  O  O82  1  0.61665550  0.49820250  0.25000000  1
  O  O83  1  0.38334450  0.49820250  0.25000000  1
  O  O84  1  0.61665550  0.50179750  0.75000000  1
  O  O85  1  0.38334450  0.50179750  0.75000000  1
  O  O86  1  0.00000000  0.88487000  0.51731500  1
  O  O87  1  0.00000000  0.88487000  0.98268500  1
  O  O88  1  0.75353650  0.37240850  0.50895200  1
  O  O89  1  0.24646350  0.37240850  0.99104800  1
  O  O90  1  0.24646350  0.37240850  0.50895200  1
  O  O91  1  0.75353650  0.37240850  0.99104800  1
  O  O92  1  0.86342600  0.25955600  0.75000000  1
  O  O93  1  0.12755400  0.75156500  0.75000000  1
  O  O94  1  0.87244600  0.75156500  0.75000000  1
  O  O95  1  0.13657400  0.25955600  0.75000000  1
  O  O96  1  0.13657400  0.74044400  0.25000000  1
  O  O97  1  0.87244600  0.24843500  0.25000000  1
  O  O98  1  0.86342600  0.74044400  0.25000000  1
  O  O99  1  0.12755400  0.24843500  0.25000000  1
  O  O100  1  0.24646350  0.62759150  0.00895200  1
  O  O101  1  0.75353650  0.62759150  0.00895200  1
  O  O102  1  0.24646350  0.62759150  0.49104800  1
  O  O103  1  0.75353650  0.62759150  0.49104800  1
  O  O104  1  0.00000000  0.62141800  0.47987500  1
  O  O105  1  0.00000000  0.62141800  0.02012500  1
  O  O106  1  0.87614100  0.50420600  0.25000000  1
  O  O107  1  0.12385900  0.50420600  0.25000000  1
  O  O108  1  0.12385900  0.49579400  0.75000000  1
  O  O109  1  0.87614100  0.49579400  0.75000000  1
  O  O110  1  0.00000000  0.37858200  0.52012500  1
  O  O111  1  0.00000000  0.37858200  0.97987500  1
