# generated using pymatgen
data_Li6MnNiP2(CO7)2
_symmetry_space_group_name_H-M   'P 1'
_cell_length_a   4.99936219
_cell_length_b   6.49977400
_cell_length_c   8.51582535
_cell_angle_alpha   90.00000000
_cell_angle_beta   95.89794847
_cell_angle_gamma   90.00000000
_symmetry_Int_Tables_number   1
_chemical_formula_structural   Li6MnNiP2(CO7)2
_chemical_formula_sum   'Li6 Mn1 Ni1 P2 C2 O14'
_cell_volume   275.25458296
_cell_formula_units_Z   1
loop_
 _symmetry_equiv_pos_site_id
 _symmetry_equiv_pos_as_xyz
  1  'x, y, z'
loop_
 _atom_site_type_symbol
 _atom_site_label
 _atom_site_symmetry_multiplicity
 _atom_site_fract_x
 _atom_site_fract_y
 _atom_site_fract_z
 _atom_site_occupancy
  Li  Li0  1  0.79105100  0.50000000  0.89763200  1
  Li  Li1  1  0.26378300  0.26812200  0.72882900  1
  Li  Li2  1  0.26378300  0.73187800  0.72882900  1
  Li  Li3  1  0.73394700  0.76763400  0.27124700  1
  Li  Li4  1  0.73394700  0.23236600  0.27124700  1
  Li  Li5  1  0.20830600  0.00000000  0.10453200  1
  Mn  Mn6  1  0.22060600  0.50000000  0.34128300  1
  Ni  Ni7  1  0.79211900  0.00000000  0.66696400  1
  P  P8  1  0.72941600  0.50000000  0.59212400  1
  P  P9  1  0.26476900  0.00000000  0.41370200  1
  C  C10  1  0.68342500  0.00000000  0.95626000  1
  C  C11  1  0.32258700  0.50000000  0.03601300  1
  O  O12  1  0.93319700  0.00000000  0.92860700  1
  O  O13  1  0.38993700  0.50000000  0.89277500  1
  O  O14  1  0.50263200  0.00000000  0.83346200  1
  O  O15  1  0.83975600  0.31245900  0.69273700  1
  O  O16  1  0.83975600  0.68754100  0.69273700  1
  O  O17  1  0.16007200  0.00000000  0.57753800  1
  O  O18  1  0.41508900  0.50000000  0.57799700  1
  O  O19  1  0.57953600  0.00000000  0.43669000  1
  O  O20  1  0.81714400  0.50000000  0.42363500  1
  O  O21  1  0.15967900  0.18467500  0.30808700  1
  O  O22  1  0.15967900  0.81532500  0.30808700  1
  O  O23  1  0.50998300  0.50000000  0.15542900  1
  O  O24  1  0.61156800  0.00000000  0.09864000  1
  O  O25  1  0.07421100  0.50000000  0.06487700  1
