# generated using pymatgen
data_K2CrPCO7
_symmetry_space_group_name_H-M   'P 1'
_cell_length_a   5.58592246
_cell_length_b   6.69843600
_cell_length_c   9.72505197
_cell_angle_alpha   90.00000000
_cell_angle_beta   90.44746121
_cell_angle_gamma   90.00000000
_symmetry_Int_Tables_number   1
_chemical_formula_structural   K2CrPCO7
_chemical_formula_sum   'K4 Cr2 P2 C2 O14'
_cell_volume   363.87062967
_cell_formula_units_Z   2
loop_
 _symmetry_equiv_pos_site_id
 _symmetry_equiv_pos_as_xyz
  1  'x, y, z'
loop_
 _atom_site_type_symbol
 _atom_site_label
 _atom_site_symmetry_multiplicity
 _atom_site_fract_x
 _atom_site_fract_y
 _atom_site_fract_z
 _atom_site_occupancy
  K  K0  1  0.75609350  0.52430100  0.74158500  1
  K  K1  1  0.75609350  0.97569900  0.74158500  1
  K  K2  1  0.24390650  0.47569900  0.25841500  1
  K  K3  1  0.24390650  0.02430100  0.25841500  1
  Cr  Cr4  1  0.22839350  0.25000000  0.85768400  1
  Cr  Cr5  1  0.77160650  0.75000000  0.14231600  1
  P  P6  1  0.27565350  0.75000000  0.93313400  1
  P  P7  1  0.72434650  0.25000000  0.06686600  1
  C  C8  1  0.27121950  0.25000000  0.60510800  1
  C  C9  1  0.72878050  0.75000000  0.39489200  1
  O  O10  1  0.70433350  0.75000000  0.52185400  1
  O  O11  1  0.06376750  0.25000000  0.66929000  1
  O  O12  1  0.45228450  0.25000000  0.69465100  1
  O  O13  1  0.22890950  0.93900700  0.84353300  1
  O  O14  1  0.22890950  0.56099300  0.84353300  1
  O  O15  1  0.89253250  0.25000000  0.94009700  1
  O  O16  1  0.54454950  0.75000000  0.97993500  1
  O  O17  1  0.45545050  0.25000000  0.02006500  1
  O  O18  1  0.10746750  0.75000000  0.05990300  1
  O  O19  1  0.77109050  0.43900700  0.15646700  1
  O  O20  1  0.77109050  0.06099300  0.15646700  1
  O  O21  1  0.54771550  0.75000000  0.30534900  1
  O  O22  1  0.93623250  0.75000000  0.33071000  1
  O  O23  1  0.29566650  0.25000000  0.47814600  1
