# generated using pymatgen
data_LiP4WO12
_symmetry_space_group_name_H-M   'P 1'
_cell_length_a   7.33451600
_cell_length_b   13.90604200
_cell_length_c   9.70307765
_cell_angle_alpha   90.00000000
_cell_angle_beta   99.68334947
_cell_angle_gamma   90.00000000
_symmetry_Int_Tables_number   1
_chemical_formula_structural   LiP4WO12
_chemical_formula_sum   'Li4 P16 W4 O48'
_cell_volume   975.55631237
_cell_formula_units_Z   4
loop_
 _symmetry_equiv_pos_site_id
 _symmetry_equiv_pos_as_xyz
  1  'x, y, z'
loop_
 _atom_site_type_symbol
 _atom_site_label
 _atom_site_symmetry_multiplicity
 _atom_site_fract_x
 _atom_site_fract_y
 _atom_site_fract_z
 _atom_site_occupancy
  Li  Li0  1  0.50000000  0.53941900  0.75000000  1
  Li  Li1  1  0.00000000  0.96058100  0.25000000  1
  Li  Li2  1  0.00000000  0.03941900  0.75000000  1
  Li  Li3  1  0.50000000  0.46058100  0.25000000  1
  P  P4  1  0.74544800  0.95844500  0.95838700  1
  P  P5  1  0.91591650  0.64999050  0.48832000  1
  P  P6  1  0.08408350  0.64999050  0.01168000  1
  P  P7  1  0.24544800  0.54155500  0.45838700  1
  P  P8  1  0.25455200  0.95844500  0.54161300  1
  P  P9  1  0.41591650  0.85000950  0.98832000  1
  P  P10  1  0.58408350  0.85000950  0.51168000  1
  P  P11  1  0.75455200  0.54155500  0.04161300  1
  P  P12  1  0.24544800  0.45844500  0.95838700  1
  P  P13  1  0.41591650  0.14999050  0.48832000  1
  P  P14  1  0.58408350  0.14999050  0.01168000  1
  P  P15  1  0.74544800  0.04155500  0.45838700  1
  P  P16  1  0.75455200  0.45844500  0.54161300  1
  P  P17  1  0.91591650  0.35000950  0.98832000  1
  P  P18  1  0.08408350  0.35000950  0.51168000  1
  P  P19  1  0.25455200  0.04155500  0.04161300  1
  W  W20  1  0.00000000  0.81752400  0.75000000  1
  W  W21  1  0.50000000  0.68247600  0.25000000  1
  W  W22  1  0.50000000  0.31752400  0.75000000  1
  W  W23  1  0.00000000  0.18247600  0.25000000  1
  O  O24  1  0.30516250  0.56230150  0.60819900  1
  O  O25  1  0.72553550  0.80634150  0.62396700  1
  O  O26  1  0.87708300  0.93636700  0.85742400  1
  O  O27  1  0.80516250  0.93769850  0.10819900  1
  O  O28  1  0.03550100  0.71272400  0.59306000  1
  O  O29  1  0.22553550  0.69365850  0.12396700  1
  O  O30  1  0.81780700  0.56982500  0.57336600  1
  O  O31  1  0.55184400  0.90565900  0.90200600  1
  O  O32  1  0.37708300  0.56363300  0.35742400  1
  O  O33  1  0.44815600  0.90565900  0.59799400  1
  O  O34  1  0.18219300  0.56982500  0.92663400  1
  O  O35  1  0.53550100  0.78727600  0.09306000  1
  O  O36  1  0.96449900  0.71272400  0.90694000  1
  O  O37  1  0.31780700  0.93017500  0.07336600  1
  O  O38  1  0.05184400  0.59434100  0.40200600  1
  O  O39  1  0.12291700  0.93636700  0.64257600  1
  O  O40  1  0.94815600  0.59434100  0.09799400  1
  O  O41  1  0.68219300  0.93017500  0.42663400  1
  O  O42  1  0.27446450  0.80634150  0.87603300  1
  O  O43  1  0.46449900  0.78727600  0.40694000  1
  O  O44  1  0.69483750  0.56230150  0.89180100  1
  O  O45  1  0.62291700  0.56363300  0.14257600  1
  O  O46  1  0.77446450  0.69365850  0.37603300  1
  O  O47  1  0.19483750  0.93769850  0.39180100  1
  O  O48  1  0.80516250  0.06230150  0.60819900  1
  O  O49  1  0.22553550  0.30634150  0.62396700  1
  O  O50  1  0.37708300  0.43636700  0.85742400  1
  O  O51  1  0.30516250  0.43769850  0.10819900  1
  O  O52  1  0.53550100  0.21272400  0.59306000  1
  O  O53  1  0.72553550  0.19365850  0.12396700  1
  O  O54  1  0.31780700  0.06982500  0.57336600  1
  O  O55  1  0.05184400  0.40565900  0.90200600  1
  O  O56  1  0.87708300  0.06363300  0.35742400  1
  O  O57  1  0.94815600  0.40565900  0.59799400  1
  O  O58  1  0.68219300  0.06982500  0.92663400  1
  O  O59  1  0.03550100  0.28727600  0.09306000  1
  O  O60  1  0.46449900  0.21272400  0.90694000  1
  O  O61  1  0.81780700  0.43017500  0.07336600  1
  O  O62  1  0.55184400  0.09434100  0.40200600  1
  O  O63  1  0.62291700  0.43636700  0.64257600  1
  O  O64  1  0.44815600  0.09434100  0.09799400  1
  O  O65  1  0.18219300  0.43017500  0.42663400  1
  O  O66  1  0.77446450  0.30634150  0.87603300  1
  O  O67  1  0.96449900  0.28727600  0.40694000  1
  O  O68  1  0.19483750  0.06230150  0.89180100  1
  O  O69  1  0.12291700  0.06363300  0.14257600  1
  O  O70  1  0.27446450  0.19365850  0.37603300  1
  O  O71  1  0.69483750  0.43769850  0.39180100  1
