# generated using pymatgen
data_Ti3MnCo2(PO4)6
_symmetry_space_group_name_H-M   'P 1'
_cell_length_a   8.67564689
_cell_length_b   8.67564689
_cell_length_c   20.85162281
_cell_angle_alpha   90.00000000
_cell_angle_beta   90.00000000
_cell_angle_gamma   120.00000000
_symmetry_Int_Tables_number   1
_chemical_formula_structural   Ti3MnCo2(PO4)6
_chemical_formula_sum   'Ti9 Mn3 Co6 P18 O72'
_cell_volume   1359.17139892
_cell_formula_units_Z   3
loop_
 _symmetry_equiv_pos_site_id
 _symmetry_equiv_pos_as_xyz
  1  'x, y, z'
loop_
 _atom_site_type_symbol
 _atom_site_label
 _atom_site_symmetry_multiplicity
 _atom_site_fract_x
 _atom_site_fract_y
 _atom_site_fract_z
 _atom_site_occupancy
  Ti  Ti0  1  0.33333333  0.66666667  0.81033967  1
  Ti  Ti1  1  0.33333333  0.66666667  0.02073467  1
  Ti  Ti2  1  0.33333333  0.66666667  0.31380967  1
  Ti  Ti3  1  0.00000000  0.00000000  0.14367300  1
  Ti  Ti4  1  0.00000000  0.00000000  0.35406800  1
  Ti  Ti5  1  0.00000000  0.00000000  0.64714300  1
  Ti  Ti6  1  0.66666667  0.33333333  0.47700633  1
  Ti  Ti7  1  0.66666667  0.33333333  0.68740133  1
  Ti  Ti8  1  0.66666667  0.33333333  0.98047633  1
  Mn  Mn9  1  0.33333333  0.66666667  0.52205667  1
  Mn  Mn10  1  0.00000000  0.00000000  0.85539000  1
  Mn  Mn11  1  0.66666667  0.33333333  0.18872333  1
  Co  Co12  1  0.33333333  0.66666667  0.66291667  1
  Co  Co13  1  0.33333333  0.66666667  0.16580367  1
  Co  Co14  1  0.00000000  0.00000000  0.99625000  1
  Co  Co15  1  0.00000000  0.00000000  0.49913700  1
  Co  Co16  1  0.66666667  0.33333333  0.32958333  1
  Co  Co17  1  0.66666667  0.33333333  0.83247033  1
  P  P18  1  0.96551000  0.63411500  0.08402800  1
  P  P19  1  0.36588500  0.33139500  0.08402800  1
  P  P20  1  0.00485733  0.29602167  0.25057467  1
  P  P21  1  0.29116433  0.99514267  0.25057467  1
  P  P22  1  0.70397833  0.70883567  0.25057467  1
  P  P23  1  0.66860500  0.03449000  0.08402800  1
  P  P24  1  0.63217667  0.96744833  0.41736133  1
  P  P25  1  0.03255167  0.66472833  0.41736133  1
  P  P26  1  0.67152400  0.62935500  0.58390800  1
  P  P27  1  0.95783100  0.32847600  0.58390800  1
  P  P28  1  0.37064500  0.04216900  0.58390800  1
  P  P29  1  0.33527167  0.36782333  0.41736133  1
  P  P30  1  0.29884333  0.30078167  0.75069467  1
  P  P31  1  0.69921833  0.99806167  0.75069467  1
  P  P32  1  0.33819067  0.96268833  0.91724133  1
  P  P33  1  0.62449767  0.66180933  0.91724133  1
  P  P34  1  0.03731167  0.37550233  0.91724133  1
  P  P35  1  0.00193833  0.70115667  0.75069467  1
  O  O36  1  0.13548233  0.49598567  0.97527667  1
  O  O37  1  0.36050333  0.86451767  0.97527667  1
  O  O38  1  0.98527233  0.82208167  0.07423067  1
  O  O39  1  0.50401433  0.63949667  0.97527667  1
  O  O40  1  0.87700700  0.54749600  0.14550000  1
  O  O41  1  0.15719367  0.65905133  0.08598833  1
  O  O42  1  0.17791833  0.16319067  0.07423067  1
  O  O43  1  0.34094867  0.49814233  0.08598833  1
  O  O44  1  0.33031833  0.85418567  0.85648567  1
  O  O45  1  0.50185767  0.84280633  0.08598833  1
  O  O46  1  0.83977300  0.31093300  0.26284300  1
  O  O47  1  0.52386733  0.66968167  0.85648567  1
  O  O48  1  0.45250400  0.32951100  0.14550000  1
  O  O49  1  0.83680933  0.01472767  0.07423067  1
  O  O50  1  0.17442267  0.48295333  0.24219533  1
  O  O51  1  0.67048900  0.12299300  0.14550000  1
  O  O52  1  0.30853067  0.82557733  0.24219533  1
  O  O53  1  0.47116000  0.16022700  0.26284300  1
  O  O54  1  0.51704667  0.69146933  0.24219533  1
  O  O55  1  0.14581433  0.47613267  0.85648567  1
  O  O56  1  0.14550200  0.66886900  0.35765800  1
  O  O57  1  0.68906700  0.52884000  0.26284300  1
  O  O58  1  0.33113100  0.47663300  0.35765800  1
  O  O59  1  0.52336700  0.85449800  0.35765800  1
  O  O60  1  0.80214900  0.82931900  0.30861000  1
  O  O61  1  0.02717000  0.19785100  0.30861000  1
  O  O62  1  0.65193900  0.15541500  0.40756400  1
  O  O63  1  0.17068100  0.97283000  0.30861000  1
  O  O64  1  0.54367367  0.88082933  0.47883333  1
  O  O65  1  0.82386033  0.99238467  0.41932167  1
  O  O66  1  0.84458500  0.49652400  0.40756400  1
  O  O67  1  0.00761533  0.83147567  0.41932167  1
  O  O68  1  0.99698500  0.18751900  0.18981900  1
  O  O69  1  0.16852433  0.17613967  0.41932167  1
  O  O70  1  0.50643967  0.64426633  0.59617633  1
  O  O71  1  0.19053400  0.00301500  0.18981900  1
  O  O72  1  0.11917067  0.66284433  0.47883333  1
  O  O73  1  0.50347600  0.34806100  0.40756400  1
  O  O74  1  0.84108933  0.81628667  0.57552867  1
  O  O75  1  0.33715567  0.45632633  0.47883333  1
  O  O76  1  0.97519733  0.15891067  0.57552867  1
  O  O77  1  0.13782667  0.49356033  0.59617633  1
  O  O78  1  0.18371333  0.02480267  0.57552867  1
  O  O79  1  0.81248100  0.80946600  0.18981900  1
  O  O80  1  0.81216867  0.00220233  0.69099133  1
  O  O81  1  0.35573367  0.86217333  0.59617633  1
  O  O82  1  0.99779767  0.80996633  0.69099133  1
  O  O83  1  0.19003367  0.18783133  0.69099133  1
  O  O84  1  0.46881567  0.16265233  0.64194333  1
  O  O85  1  0.69383667  0.53118433  0.64194333  1
  O  O86  1  0.31860567  0.48874833  0.74089733  1
  O  O87  1  0.83734767  0.30616333  0.64194333  1
  O  O88  1  0.21034033  0.21416267  0.81216667  1
  O  O89  1  0.49052700  0.32571800  0.75265500  1
  O  O90  1  0.51125167  0.82985733  0.74089733  1
  O  O91  1  0.67428200  0.16480900  0.75265500  1
  O  O92  1  0.66365167  0.52085233  0.52315233  1
  O  O93  1  0.83519100  0.50947300  0.75265500  1
  O  O94  1  0.17310633  0.97759967  0.92950967  1
  O  O95  1  0.85720067  0.33634833  0.52315233  1
  O  O96  1  0.78583733  0.99617767  0.81216667  1
  O  O97  1  0.17014267  0.68139433  0.74089733  1
  O  O98  1  0.50775600  0.14962000  0.90886200  1
  O  O99  1  0.00382233  0.78965967  0.81216667  1
  O  O100  1  0.64186400  0.49224400  0.90886200  1
  O  O101  1  0.80449333  0.82689367  0.92950967  1
  O  O102  1  0.85038000  0.35813600  0.90886200  1
  O  O103  1  0.47914767  0.14279933  0.52315233  1
  O  O104  1  0.47883533  0.33553567  0.02432467  1
  O  O105  1  0.02240033  0.19550667  0.92950967  1
  O  O106  1  0.66446433  0.14329967  0.02432467  1
  O  O107  1  0.85670033  0.52116467  0.02432467  1
