# generated using pymatgen
data_Li9Mn12Cu3O32
_symmetry_space_group_name_H-M   'P 1'
_cell_length_a   11.74734261
_cell_length_b   11.74734261
_cell_length_c   14.30293419
_cell_angle_alpha   90.00000000
_cell_angle_beta   90.00000000
_cell_angle_gamma   120.00000000
_symmetry_Int_Tables_number   1
_chemical_formula_structural   Li9Mn12Cu3O32
_chemical_formula_sum   'Li27 Mn36 Cu9 O96'
_cell_volume   1709.36592614
_cell_formula_units_Z   3
loop_
 _symmetry_equiv_pos_site_id
 _symmetry_equiv_pos_as_xyz
  1  'x, y, z'
loop_
 _atom_site_type_symbol
 _atom_site_label
 _atom_site_symmetry_multiplicity
 _atom_site_fract_x
 _atom_site_fract_y
 _atom_site_fract_z
 _atom_site_occupancy
  Li  Li0  1  0.00000000  0.00000000  0.99596300  1
  Li  Li1  1  0.33662033  0.91777167  0.54066667  1
  Li  Li2  1  0.00000000  0.00000000  0.75378300  1
  Li  Li3  1  0.33325167  0.16525933  0.41432033  1
  Li  Li4  1  0.08222833  0.41884867  0.54066667  1
  Li  Li5  1  0.00000000  0.00000000  0.37516700  1
  Li  Li6  1  0.83474067  0.16799233  0.41432033  1
  Li  Li7  1  0.83200767  0.66674833  0.41432033  1
  Li  Li8  1  0.58115133  0.66337967  0.54066667  1
  Li  Li9  1  0.66666667  0.33333333  0.32929633  1
  Li  Li10  1  0.00328700  0.25110500  0.87400000  1
  Li  Li11  1  0.66666667  0.33333333  0.08711633  1
  Li  Li12  1  0.99991833  0.49859267  0.74765367  1
  Li  Li13  1  0.74889500  0.75218200  0.87400000  1
  Li  Li14  1  0.66666667  0.33333333  0.70850033  1
  Li  Li15  1  0.50140733  0.50132567  0.74765367  1
  Li  Li16  1  0.49867433  0.00008167  0.74765367  1
  Li  Li17  1  0.24781800  0.99671300  0.87400000  1
  Li  Li18  1  0.33333333  0.66666667  0.66262967  1
  Li  Li19  1  0.66995367  0.58443833  0.20733333  1
  Li  Li20  1  0.33333333  0.66666667  0.42044967  1
  Li  Li21  1  0.66658500  0.83192600  0.08098700  1
  Li  Li22  1  0.41556167  0.08551533  0.20733333  1
  Li  Li23  1  0.33333333  0.66666667  0.04183367  1
  Li  Li24  1  0.16807400  0.83465900  0.08098700  1
  Li  Li25  1  0.16534100  0.33341500  0.08098700  1
  Li  Li26  1  0.91448467  0.33004633  0.20733333  1
  Mn  Mn27  1  0.17079433  0.33704767  0.70789867  1
  Mn  Mn28  1  0.33599367  0.41841433  0.54058533  1
  Mn  Mn29  1  0.16625333  0.82920567  0.70789867  1
  Mn  Mn30  1  0.08353200  0.16496700  0.54036000  1
  Mn  Mn31  1  0.08143500  0.91646800  0.54036000  1
  Mn  Mn32  1  0.08242067  0.66400633  0.54058533  1
  Mn  Mn33  1  0.83503300  0.91856500  0.54036000  1
  Mn  Mn34  1  0.66295233  0.83374667  0.70789867  1
  Mn  Mn35  1  0.16990133  0.08734367  0.20531067  1
  Mn  Mn36  1  0.58158567  0.91757933  0.54058533  1
  Mn  Mn37  1  0.91744233  0.83009867  0.20531067  1
  Mn  Mn38  1  0.91265633  0.08255767  0.20531067  1
  Mn  Mn39  1  0.83746100  0.67038100  0.04123200  1
  Mn  Mn40  1  0.00266033  0.75174767  0.87391867  1
  Mn  Mn41  1  0.83292000  0.16253900  0.04123200  1
  Mn  Mn42  1  0.75019867  0.49830033  0.87369333  1
  Mn  Mn43  1  0.74810167  0.24980133  0.87369333  1
  Mn  Mn44  1  0.74908733  0.99733967  0.87391867  1
  Mn  Mn45  1  0.50169967  0.25189833  0.87369333  1
  Mn  Mn46  1  0.32961900  0.16708000  0.04123200  1
  Mn  Mn47  1  0.83656800  0.42067700  0.53864400  1
  Mn  Mn48  1  0.24825233  0.25091267  0.87391867  1
  Mn  Mn49  1  0.58410900  0.16343200  0.53864400  1
  Mn  Mn50  1  0.57932300  0.41589100  0.53864400  1
  Mn  Mn51  1  0.50412767  0.00371433  0.37456533  1
  Mn  Mn52  1  0.66932700  0.08508100  0.20725200  1
  Mn  Mn53  1  0.49958667  0.49587233  0.37456533  1
  Mn  Mn54  1  0.41686533  0.83163367  0.20702667  1
  Mn  Mn55  1  0.41476833  0.58313467  0.20702667  1
  Mn  Mn56  1  0.41575400  0.33067300  0.20725200  1
  Mn  Mn57  1  0.16836633  0.58523167  0.20702667  1
  Mn  Mn58  1  0.99628567  0.50041333  0.37456533  1
  Mn  Mn59  1  0.50323467  0.75401033  0.87197733  1
  Mn  Mn60  1  0.91491900  0.58424600  0.20725200  1
  Mn  Mn61  1  0.25077567  0.49676533  0.87197733  1
  Mn  Mn62  1  0.24598967  0.74922433  0.87197733  1
  Cu  Cu63  1  0.17455267  0.84689133  0.33420433  1
  Cu  Cu64  1  0.15310867  0.32766133  0.33420433  1
  Cu  Cu65  1  0.67233867  0.82544733  0.33420433  1
  Cu  Cu66  1  0.84121933  0.18022467  0.66753767  1
  Cu  Cu67  1  0.81977533  0.66099467  0.66753767  1
  Cu  Cu68  1  0.33900533  0.15878067  0.66753767  1
  Cu  Cu69  1  0.50788600  0.51355800  0.00087100  1
  Cu  Cu70  1  0.48644200  0.99432800  0.00087100  1
  Cu  Cu71  1  0.00567200  0.49211400  0.00087100  1
  O  O72  1  0.10794667  0.18883933  0.79079933  1
  O  O73  1  0.43942367  0.08618233  0.45496133  1
  O  O74  1  0.42604500  0.34956100  0.46066100  1
  O  O75  1  0.08089267  0.89205333  0.79079933  1
  O  O76  1  0.25432067  0.48142633  0.62222233  1
  O  O77  1  0.24360167  0.25782033  0.61944633  1
  O  O78  1  0.22883200  0.98297100  0.62911600  1
  O  O79  1  0.22710567  0.74567933  0.62222233  1
  O  O80  1  0.01702900  0.24586100  0.62911600  1
  O  O81  1  0.17016700  0.32091900  0.46728000  1
  O  O82  1  0.01421867  0.75639833  0.61944633  1
  O  O83  1  0.15075200  0.82983300  0.46728000  1
  O  O84  1  0.15544867  0.07576333  0.47280633  1
  O  O85  1  0.00000000  0.00000000  0.61344200  1
  O  O86  1  0.81116067  0.91910733  0.79079933  1
  O  O87  1  0.32421100  0.17508300  0.27733700  1
  O  O88  1  0.92423667  0.07968533  0.47280633  1
  O  O89  1  0.92031467  0.84455133  0.47280633  1
  O  O90  1  0.92351600  0.57395500  0.46066100  1
  O  O91  1  0.91381767  0.35324133  0.45496133  1
  O  O92  1  0.75413900  0.77116800  0.62911600  1
  O  O93  1  0.74217967  0.98578133  0.61944633  1
  O  O94  1  0.08325800  0.92843500  0.27817100  1
  O  O95  1  0.07156500  0.15482300  0.27817100  1
  O  O96  1  0.67908100  0.84924800  0.46728000  1
  O  O97  1  0.51857367  0.77289433  0.62222233  1
  O  O98  1  0.00000000  0.00000000  0.13708200  1
  O  O99  1  0.84517700  0.91674200  0.27817100  1
  O  O100  1  0.85087200  0.67578900  0.27733700  1
  O  O101  1  0.65043900  0.07648400  0.46066100  1
  O  O102  1  0.82491700  0.14912800  0.27733700  1
  O  O103  1  0.64675867  0.56057633  0.45496133  1
  O  O104  1  0.77461333  0.52217267  0.12413267  1
  O  O105  1  0.10609033  0.41951567  0.78829467  1
  O  O106  1  0.09271167  0.68289433  0.79399433  1
  O  O107  1  0.74755933  0.22538667  0.12413267  1
  O  O108  1  0.92098733  0.81475967  0.95555567  1
  O  O109  1  0.91026833  0.59115367  0.95277967  1
  O  O110  1  0.89549867  0.31630433  0.96244933  1
  O  O111  1  0.89377233  0.07901267  0.95555567  1
  O  O112  1  0.68369567  0.57919433  0.96244933  1
  O  O113  1  0.83683367  0.65425233  0.80061333  1
  O  O114  1  0.68088533  0.08973167  0.95277967  1
  O  O115  1  0.81741867  0.16316633  0.80061333  1
  O  O116  1  0.82211533  0.40909667  0.80613967  1
  O  O117  1  0.66666667  0.33333333  0.94677533  1
  O  O118  1  0.47782733  0.25244067  0.12413267  1
  O  O119  1  0.99087767  0.50841633  0.61067033  1
  O  O120  1  0.59090333  0.41301867  0.80613967  1
  O  O121  1  0.58698133  0.17788467  0.80613967  1
  O  O122  1  0.59018267  0.90728833  0.79399433  1
  O  O123  1  0.58048433  0.68657467  0.78829467  1
  O  O124  1  0.42080567  0.10450133  0.96244933  1
  O  O125  1  0.40884633  0.31911467  0.95277967  1
  O  O126  1  0.74992467  0.26176833  0.61150433  1
  O  O127  1  0.73823167  0.48815633  0.61150433  1
  O  O128  1  0.34574767  0.18258133  0.80061333  1
  O  O129  1  0.18524033  0.10622767  0.95555567  1
  O  O130  1  0.66666667  0.33333333  0.47041533  1
  O  O131  1  0.51184367  0.25007533  0.61150433  1
  O  O132  1  0.51753867  0.00912233  0.61067033  1
  O  O133  1  0.31710567  0.40981733  0.79399433  1
  O  O134  1  0.49158367  0.48246133  0.61067033  1
  O  O135  1  0.31342533  0.89390967  0.78829467  1
  O  O136  1  0.44128000  0.85550600  0.45746600  1
  O  O137  1  0.77275700  0.75284900  0.12162800  1
  O  O138  1  0.75937833  0.01622767  0.12732767  1
  O  O139  1  0.41422600  0.55872000  0.45746600  1
  O  O140  1  0.58765400  0.14809300  0.28888900  1
  O  O141  1  0.57693500  0.92448700  0.28611300  1
  O  O142  1  0.56216533  0.64963767  0.29578267  1
  O  O143  1  0.56043900  0.41234600  0.28888900  1
  O  O144  1  0.35036233  0.91252767  0.29578267  1
  O  O145  1  0.50350033  0.98758567  0.13394667  1
  O  O146  1  0.34755200  0.42306500  0.28611300  1
  O  O147  1  0.48408533  0.49649967  0.13394667  1
  O  O148  1  0.48878200  0.74243000  0.13947300  1
  O  O149  1  0.33333333  0.66666667  0.28010867  1
  O  O150  1  0.14449400  0.58577400  0.45746600  1
  O  O151  1  0.65754433  0.84174967  0.94400367  1
  O  O152  1  0.25757000  0.74635200  0.13947300  1
  O  O153  1  0.25364800  0.51121800  0.13947300  1
  O  O154  1  0.25684933  0.24062167  0.12732767  1
  O  O155  1  0.24715100  0.01990800  0.12162800  1
  O  O156  1  0.08747233  0.43783467  0.29578267  1
  O  O157  1  0.07551300  0.65244800  0.28611300  1
  O  O158  1  0.41659133  0.59510167  0.94483767  1
  O  O159  1  0.40489833  0.82148967  0.94483767  1
  O  O160  1  0.01241433  0.51591467  0.13394667  1
  O  O161  1  0.85190700  0.43956100  0.28888900  1
  O  O162  1  0.33333333  0.66666667  0.80374867  1
  O  O163  1  0.17851033  0.58340867  0.94483767  1
  O  O164  1  0.18420533  0.34245567  0.94400367  1
  O  O165  1  0.98377233  0.74315067  0.12732767  1
  O  O166  1  0.15825033  0.81579467  0.94400367  1
  O  O167  1  0.98009200  0.22724300  0.12162800  1
