# generated using pymatgen
data_Li2MnV(PO4)3
_symmetry_space_group_name_H-M   'P 1'
_cell_length_a   8.25838584
_cell_length_b   8.32925930
_cell_length_c   8.98137147
_cell_angle_alpha   117.61709929
_cell_angle_beta   88.78437837
_cell_angle_gamma   119.43472862
_symmetry_Int_Tables_number   1
_chemical_formula_structural   Li2MnV(PO4)3
_chemical_formula_sum   'Li4 Mn2 V2 P6 O24'
_cell_volume   459.34290303
_cell_formula_units_Z   2
loop_
 _symmetry_equiv_pos_site_id
 _symmetry_equiv_pos_as_xyz
  1  'x, y, z'
loop_
 _atom_site_type_symbol
 _atom_site_label
 _atom_site_symmetry_multiplicity
 _atom_site_fract_x
 _atom_site_fract_y
 _atom_site_fract_z
 _atom_site_occupancy
  Li  Li0  1  0.44072700  0.25724100  0.37520000  1
  Li  Li1  1  0.25929300  0.07259900  0.86590200  1
  Li  Li2  1  0.69641900  0.74012000  0.88468700  1
  Li  Li3  1  0.93981100  0.30997100  0.87863400  1
  Mn  Mn4  1  0.85410600  0.15108800  0.56388700  1
  Mn  Mn5  1  0.13935500  0.84523200  0.43000800  1
  V  V6  1  0.34510900  0.65303300  0.04818000  1
  V  V7  1  0.65766500  0.34570100  0.96367400  1
  P  P8  1  0.74194300  0.54300400  0.24865400  1
  P  P9  1  0.03881600  0.25247000  0.25108000  1
  P  P10  1  0.45653300  0.95383300  0.25381200  1
  P  P11  1  0.54362200  0.03858400  0.75432400  1
  P  P12  1  0.96476800  0.74726000  0.74819600  1
  P  P13  1  0.26499700  0.46972600  0.75289600  1
  O  O14  1  0.77574400  0.52011800  0.10133800  1
  O  O15  1  0.87212100  0.74277300  0.26253100  1
  O  O16  1  0.52168400  0.51341100  0.19374800  1
  O  O17  1  0.16462200  0.47063300  0.18558000  1
  O  O18  1  0.84735600  0.21338700  0.10015100  1
  O  O19  1  0.48220400  0.15792200  0.09901200  1
  O  O20  1  0.75525600  0.37032700  0.41866700  1
  O  O21  1  0.14888600  0.13082200  0.28148100  1
  O  O22  1  0.00400400  0.20978200  0.42193800  1
  O  O23  1  0.46343500  0.81898100  0.18239100  1
  O  O24  1  0.24918400  0.88055800  0.26222400  1
  O  O25  1  0.61063800  0.97868100  0.41812200  1
  O  O26  1  0.40020300  0.03121100  0.57871900  1
  O  O27  1  0.75662200  0.12817100  0.74287700  1
  O  O28  1  0.52074000  0.16901400  0.81860000  1
  O  O29  1  0.98764100  0.78466800  0.57498200  1
  O  O30  1  0.86886700  0.87427500  0.73388400  1
  O  O31  1  0.22787400  0.62278600  0.57800700  1
  O  O32  1  0.52173200  0.83188400  0.89307900  1
  O  O33  1  0.16465100  0.79542500  0.88571200  1
  O  O34  1  0.83596300  0.52617000  0.81733500  1
  O  O35  1  0.48271000  0.49435500  0.81983700  1
  O  O36  1  0.13651100  0.26169900  0.74578400  1
  O  O37  1  0.21447200  0.48955400  0.89379100  1
