# generated using pymatgen
data_Ni2(SO4)3
_symmetry_space_group_name_H-M   'P 1'
_cell_length_a   12.90498200
_cell_length_b   8.49187600
_cell_length_c   8.70512547
_cell_angle_alpha   90.00000000
_cell_angle_beta   114.92454652
_cell_angle_gamma   90.00000000
_symmetry_Int_Tables_number   1
_chemical_formula_structural   Ni2(SO4)3
_chemical_formula_sum   'Ni8 S12 O48'
_cell_volume   865.12334077
_cell_formula_units_Z   4
loop_
 _symmetry_equiv_pos_site_id
 _symmetry_equiv_pos_as_xyz
  1  'x, y, z'
loop_
 _atom_site_type_symbol
 _atom_site_label
 _atom_site_symmetry_multiplicity
 _atom_site_fract_x
 _atom_site_fract_y
 _atom_site_fract_z
 _atom_site_occupancy
  Ni  Ni0  1  0.62598150  0.24966750  0.51831900  1
  Ni  Ni1  1  0.62598150  0.75033250  0.01831900  1
  Ni  Ni2  1  0.37401850  0.24966750  0.98168100  1
  Ni  Ni3  1  0.37401850  0.75033250  0.48168100  1
  Ni  Ni4  1  0.12598150  0.74966750  0.51831900  1
  Ni  Ni5  1  0.12598150  0.25033250  0.01831900  1
  Ni  Ni6  1  0.87401850  0.74966750  0.98168100  1
  Ni  Ni7  1  0.87401850  0.25033250  0.48168100  1
  S  S8  1  0.64603100  0.89559100  0.67973400  1
  S  S9  1  0.64603100  0.10440900  0.17973400  1
  S  S10  1  0.50000000  0.44918700  0.75000000  1
  S  S11  1  0.50000000  0.55081300  0.25000000  1
  S  S12  1  0.35396900  0.89559100  0.82026600  1
  S  S13  1  0.35396900  0.10440900  0.32026600  1
  S  S14  1  0.14603100  0.39559100  0.67973400  1
  S  S15  1  0.14603100  0.60440900  0.17973400  1
  S  S16  1  0.00000000  0.94918700  0.75000000  1
  S  S17  1  0.00000000  0.05081300  0.25000000  1
  S  S18  1  0.85396900  0.39559100  0.82026600  1
  S  S19  1  0.85396900  0.60440900  0.32026600  1
  O  O20  1  0.91356500  0.04614500  0.61566500  1
  O  O21  1  0.91356500  0.95385500  0.11566500  1
  O  O22  1  0.68801750  0.81552050  0.56809100  1
  O  O23  1  0.67425200  0.06605600  0.68786300  1
  O  O24  1  0.70383350  0.83309150  0.85941100  1
  O  O25  1  0.68801750  0.18447950  0.06809100  1
  O  O26  1  0.56034050  0.34725150  0.67727700  1
  O  O27  1  0.52229150  0.87116850  0.61971700  1
  O  O28  1  0.67425200  0.93394400  0.18786300  1
  O  O29  1  0.70383350  0.16690850  0.35941100  1
  O  O30  1  0.56034050  0.65274850  0.17727700  1
  O  O31  1  0.47770850  0.87116850  0.88028300  1
  O  O32  1  0.52229150  0.12883150  0.11971700  1
  O  O33  1  0.43965950  0.34725150  0.82272300  1
  O  O34  1  0.29616650  0.83309150  0.64058900  1
  O  O35  1  0.32574800  0.06605600  0.81213700  1
  O  O36  1  0.47770850  0.12883150  0.38028300  1
  O  O37  1  0.43965950  0.65274850  0.32272300  1
  O  O38  1  0.31198250  0.81552050  0.93190900  1
  O  O39  1  0.29616650  0.16690850  0.14058900  1
  O  O40  1  0.32574800  0.93394400  0.31213700  1
  O  O41  1  0.31198250  0.18447950  0.43190900  1
  O  O42  1  0.08643500  0.04614500  0.88433500  1
  O  O43  1  0.08643500  0.95385500  0.38433500  1
  O  O44  1  0.41356500  0.54614500  0.61566500  1
  O  O45  1  0.41356500  0.45385500  0.11566500  1
  O  O46  1  0.18801750  0.31552050  0.56809100  1
  O  O47  1  0.17425200  0.56605600  0.68786300  1
  O  O48  1  0.20383350  0.33309150  0.85941100  1
  O  O49  1  0.18801750  0.68447950  0.06809100  1
  O  O50  1  0.06034050  0.84725150  0.67727700  1
  O  O51  1  0.02229150  0.37116850  0.61971700  1
  O  O52  1  0.17425200  0.43394400  0.18786300  1
  O  O53  1  0.20383350  0.66690850  0.35941100  1
  O  O54  1  0.06034050  0.15274850  0.17727700  1
  O  O55  1  0.97770850  0.37116850  0.88028300  1
  O  O56  1  0.02229150  0.62883150  0.11971700  1
  O  O57  1  0.93965950  0.84725150  0.82272300  1
  O  O58  1  0.79616650  0.33309150  0.64058900  1
  O  O59  1  0.82574800  0.56605600  0.81213700  1
  O  O60  1  0.97770850  0.62883150  0.38028300  1
  O  O61  1  0.93965950  0.15274850  0.32272300  1
  O  O62  1  0.81198250  0.31552050  0.93190900  1
  O  O63  1  0.79616650  0.66690850  0.14058900  1
  O  O64  1  0.82574800  0.43394400  0.31213700  1
  O  O65  1  0.81198250  0.68447950  0.43190900  1
  O  O66  1  0.58643500  0.54614500  0.88433500  1
  O  O67  1  0.58643500  0.45385500  0.38433500  1
