# generated using pymatgen
data_Li2Mn2OF6
_symmetry_space_group_name_H-M   'P 1'
_cell_length_a   6.57471636
_cell_length_b   8.15717801
_cell_length_c   11.17984135
_cell_angle_alpha   90.00000000
_cell_angle_beta   106.96183049
_cell_angle_gamma   90.00000000
_symmetry_Int_Tables_number   1
_chemical_formula_structural   Li2Mn2OF6
_chemical_formula_sum   'Li8 Mn8 O4 F24'
_cell_volume   573.50507572
_cell_formula_units_Z   4
loop_
 _symmetry_equiv_pos_site_id
 _symmetry_equiv_pos_as_xyz
  1  'x, y, z'
loop_
 _atom_site_type_symbol
 _atom_site_label
 _atom_site_symmetry_multiplicity
 _atom_site_fract_x
 _atom_site_fract_y
 _atom_site_fract_z
 _atom_site_occupancy
  Li  Li0  1  0.73776100  0.81624200  0.29395900  1
  Li  Li1  1  0.73776100  0.18375800  0.79395900  1
  Li  Li2  1  0.70424650  0.20210650  0.20986200  1
  Li  Li3  1  0.70424650  0.79789350  0.70986200  1
  Li  Li4  1  0.23776100  0.31624200  0.29395900  1
  Li  Li5  1  0.23776100  0.68375800  0.79395900  1
  Li  Li6  1  0.20424650  0.70210650  0.20986200  1
  Li  Li7  1  0.20424650  0.29789350  0.70986200  1
  Mn  Mn8  1  0.74930650  0.14228750  0.50082100  1
  Mn  Mn9  1  0.36554000  0.97656000  0.05929600  1
  Mn  Mn10  1  0.74930650  0.85771250  0.00082100  1
  Mn  Mn11  1  0.36554000  0.02344000  0.55929600  1
  Mn  Mn12  1  0.24930650  0.64228750  0.50082100  1
  Mn  Mn13  1  0.86554000  0.47656000  0.05929600  1
  Mn  Mn14  1  0.24930650  0.35771250  0.00082100  1
  Mn  Mn15  1  0.86554000  0.52344000  0.55929600  1
  O  O16  1  0.65011650  0.02516250  0.07968400  1
  O  O17  1  0.65011650  0.97483750  0.57968400  1
  O  O18  1  0.15011650  0.52516250  0.07968400  1
  O  O19  1  0.15011650  0.47483750  0.57968400  1
  F  F20  1  0.73275250  0.04193150  0.34281900  1
  F  F21  1  0.28087850  0.85054650  0.42280300  1
  F  F22  1  0.44257550  0.82095850  0.19829300  1
  F  F23  1  0.73275250  0.95806850  0.84281900  1
  F  F24  1  0.28087850  0.14945350  0.92280300  1
  F  F25  1  0.35158600  0.22328700  0.15642000  1
  F  F26  1  0.40625450  0.19554550  0.43273500  1
  F  F27  1  0.07875350  0.92949350  0.05349500  1
  F  F28  1  0.44257550  0.17904150  0.69829300  1
  F  F29  1  0.35158600  0.77671300  0.65642000  1
  F  F30  1  0.40625450  0.80445450  0.93273500  1
  F  F31  1  0.07875350  0.07050650  0.55349500  1
  F  F32  1  0.23275250  0.54193150  0.34281900  1
  F  F33  1  0.78087850  0.35054650  0.42280300  1
  F  F34  1  0.94257550  0.32095850  0.19829300  1
  F  F35  1  0.23275250  0.45806850  0.84281900  1
  F  F36  1  0.78087850  0.64945350  0.92280300  1
  F  F37  1  0.85158600  0.72328700  0.15642000  1
  F  F38  1  0.90625450  0.69554550  0.43273500  1
  F  F39  1  0.57875350  0.42949350  0.05349500  1
  F  F40  1  0.94257550  0.67904150  0.69829300  1
  F  F41  1  0.85158600  0.27671300  0.65642000  1
  F  F42  1  0.90625450  0.30445450  0.93273500  1
  F  F43  1  0.57875350  0.57050650  0.55349500  1
