# generated using pymatgen
data_LiV2F5
_symmetry_space_group_name_H-M   'P 1'
_cell_length_a   4.18978400
_cell_length_b   10.22378400
_cell_length_c   10.40709500
_cell_angle_alpha   90.00000000
_cell_angle_beta   90.00000000
_cell_angle_gamma   90.00000000
_symmetry_Int_Tables_number   1
_chemical_formula_structural   LiV2F5
_chemical_formula_sum   'Li4 V8 F20'
_cell_volume   445.79256237
_cell_formula_units_Z   4
loop_
 _symmetry_equiv_pos_site_id
 _symmetry_equiv_pos_as_xyz
  1  'x, y, z'
loop_
 _atom_site_type_symbol
 _atom_site_label
 _atom_site_symmetry_multiplicity
 _atom_site_fract_x
 _atom_site_fract_y
 _atom_site_fract_z
 _atom_site_occupancy
  Li  Li0  1  0.00000000  0.18061600  0.75000000  1
  Li  Li1  1  0.50000000  0.31938400  0.25000000  1
  Li  Li2  1  0.50000000  0.68061600  0.75000000  1
  Li  Li3  1  0.00000000  0.81938400  0.25000000  1
  V  V4  1  0.00000000  0.14330900  0.06399300  1
  V  V5  1  0.00000000  0.14330900  0.43600700  1
  V  V6  1  0.50000000  0.35669100  0.56399300  1
  V  V7  1  0.50000000  0.35669100  0.93600700  1
  V  V8  1  0.50000000  0.64330900  0.06399300  1
  V  V9  1  0.50000000  0.64330900  0.43600700  1
  V  V10  1  0.00000000  0.85669100  0.56399300  1
  V  V11  1  0.00000000  0.85669100  0.93600700  1
  F  F12  1  0.00000000  0.32154600  0.55595000  1
  F  F13  1  0.00000000  0.32154600  0.94405000  1
  F  F14  1  0.00000000  0.05429300  0.61781800  1
  F  F15  1  0.00000000  0.05429300  0.88218200  1
  F  F16  1  0.00000000  0.23389100  0.25000000  1
  F  F17  1  0.50000000  0.26610900  0.75000000  1
  F  F18  1  0.50000000  0.44570700  0.38218200  1
  F  F19  1  0.50000000  0.44570700  0.11781800  1
  F  F20  1  0.50000000  0.17845400  0.44405000  1
  F  F21  1  0.50000000  0.17845400  0.05595000  1
  F  F22  1  0.50000000  0.82154600  0.55595000  1
  F  F23  1  0.50000000  0.82154600  0.94405000  1
  F  F24  1  0.50000000  0.55429300  0.61781800  1
  F  F25  1  0.50000000  0.55429300  0.88218200  1
  F  F26  1  0.50000000  0.73389100  0.25000000  1
  F  F27  1  0.00000000  0.76610900  0.75000000  1
  F  F28  1  0.00000000  0.94570700  0.38218200  1
  F  F29  1  0.00000000  0.94570700  0.11781800  1
  F  F30  1  0.00000000  0.67845400  0.44405000  1
  F  F31  1  0.00000000  0.67845400  0.05595000  1
