# generated using pymatgen
data_Li8Co(O2F)2
_symmetry_space_group_name_H-M   'P 1'
_cell_length_a   5.67257400
_cell_length_b   9.69300200
_cell_length_c   10.84689200
_cell_angle_alpha   90.00000000
_cell_angle_beta   90.00000000
_cell_angle_gamma   90.00000000
_symmetry_Int_Tables_number   1
_chemical_formula_structural   Li8Co(O2F)2
_chemical_formula_sum   'Li32 Co4 O16 F8'
_cell_volume   596.40845061
_cell_formula_units_Z   4
loop_
 _symmetry_equiv_pos_site_id
 _symmetry_equiv_pos_as_xyz
  1  'x, y, z'
loop_
 _atom_site_type_symbol
 _atom_site_label
 _atom_site_symmetry_multiplicity
 _atom_site_fract_x
 _atom_site_fract_y
 _atom_site_fract_z
 _atom_site_occupancy
  Li  Li0  1  0.18842400  0.00000000  0.27323900  1
  Li  Li1  1  0.09769100  0.00000000  0.62809300  1
  Li  Li2  1  0.90230900  0.00000000  0.12809300  1
  Li  Li3  1  0.81157600  0.00000000  0.77323900  1
  Li  Li4  1  0.49228550  0.33758050  0.90348300  1
  Li  Li5  1  0.50771450  0.33758050  0.40348300  1
  Li  Li6  1  0.65468750  0.84782650  0.26389300  1
  Li  Li7  1  0.69199350  0.81364650  0.63750600  1
  Li  Li8  1  0.30800650  0.18635350  0.13750600  1
  Li  Li9  1  0.34531250  0.84782650  0.76389300  1
  Li  Li10  1  0.34531250  0.15217350  0.76389300  1
  Li  Li11  1  0.30800650  0.81364650  0.13750600  1
  Li  Li12  1  0.50771450  0.66241950  0.40348300  1
  Li  Li13  1  0.49228550  0.66241950  0.90348300  1
  Li  Li14  1  0.69199350  0.18635350  0.63750600  1
  Li  Li15  1  0.65468750  0.15217350  0.26389300  1
  Li  Li16  1  0.68842400  0.50000000  0.27323900  1
  Li  Li17  1  0.59769100  0.50000000  0.62809300  1
  Li  Li18  1  0.40230900  0.50000000  0.12809300  1
  Li  Li19  1  0.31157600  0.50000000  0.77323900  1
  Li  Li20  1  0.99228550  0.83758050  0.90348300  1
  Li  Li21  1  0.00771450  0.83758050  0.40348300  1
  Li  Li22  1  0.15468750  0.34782650  0.26389300  1
  Li  Li23  1  0.19199350  0.31364650  0.63750600  1
  Li  Li24  1  0.80800650  0.68635350  0.13750600  1
  Li  Li25  1  0.84531250  0.34782650  0.76389300  1
  Li  Li26  1  0.84531250  0.65217350  0.76389300  1
  Li  Li27  1  0.80800650  0.31364650  0.13750600  1
  Li  Li28  1  0.00771450  0.16241950  0.40348300  1
  Li  Li29  1  0.99228550  0.16241950  0.90348300  1
  Li  Li30  1  0.19199350  0.68635350  0.63750600  1
  Li  Li31  1  0.15468750  0.65217350  0.26389300  1
  Co  Co32  1  0.52831700  0.00000000  0.00386300  1
  Co  Co33  1  0.47168300  0.00000000  0.50386300  1
  Co  Co34  1  0.02831700  0.50000000  0.00386300  1
  Co  Co35  1  0.97168300  0.50000000  0.50386300  1
  O  O36  1  0.16283800  0.00000000  0.45148600  1
  O  O37  1  0.83716200  0.00000000  0.95148600  1
  O  O38  1  0.50262150  0.33095050  0.71913000  1
  O  O39  1  0.51360900  0.00000000  0.68127600  1
  O  O40  1  0.48639100  0.00000000  0.18127600  1
  O  O41  1  0.49737850  0.33095050  0.21913000  1
  O  O42  1  0.49737850  0.66904950  0.21913000  1
  O  O43  1  0.50262150  0.66904950  0.71913000  1
  O  O44  1  0.66283800  0.50000000  0.45148600  1
  O  O45  1  0.33716200  0.50000000  0.95148600  1
  O  O46  1  0.00262150  0.83095050  0.71913000  1
  O  O47  1  0.01360900  0.50000000  0.68127600  1
  O  O48  1  0.98639100  0.50000000  0.18127600  1
  O  O49  1  0.99737850  0.83095050  0.21913000  1
  O  O50  1  0.99737850  0.16904950  0.21913000  1
  O  O51  1  0.00262150  0.16904950  0.71913000  1
  F  F52  1  0.67576000  0.83213400  0.44986700  1
  F  F53  1  0.32424000  0.83213400  0.94986700  1
  F  F54  1  0.32424000  0.16786600  0.94986700  1
  F  F55  1  0.67576000  0.16786600  0.44986700  1
  F  F56  1  0.17576000  0.33213400  0.44986700  1
  F  F57  1  0.82424000  0.33213400  0.94986700  1
  F  F58  1  0.82424000  0.66786600  0.94986700  1
  F  F59  1  0.17576000  0.66786600  0.44986700  1
