# generated using pymatgen
data_LiMn2O3F
_symmetry_space_group_name_H-M   'P 1'
_cell_length_a   10.55429382
_cell_length_b   5.87328367
_cell_length_c   6.01382762
_cell_angle_alpha   90.00000000
_cell_angle_beta   122.94413084
_cell_angle_gamma   90.00000000
_symmetry_Int_Tables_number   1
_chemical_formula_structural   LiMn2O3F
_chemical_formula_sum   'Li4 Mn8 O12 F4'
_cell_volume   312.84358456
_cell_formula_units_Z   4
loop_
 _symmetry_equiv_pos_site_id
 _symmetry_equiv_pos_as_xyz
  1  'x, y, z'
loop_
 _atom_site_type_symbol
 _atom_site_label
 _atom_site_symmetry_multiplicity
 _atom_site_fract_x
 _atom_site_fract_y
 _atom_site_fract_z
 _atom_site_occupancy
  Li  Li0  1  0.50632500  0.50000000  0.51308400  1
  Li  Li1  1  0.35603600  0.00000000  0.08642400  1
  Li  Li2  1  0.00632500  0.00000000  0.51308400  1
  Li  Li3  1  0.85603600  0.50000000  0.08642400  1
  Mn  Mn4  1  0.63798200  0.00000000  0.90470600  1
  Mn  Mn5  1  0.50154200  0.50000000  0.98661500  1
  Mn  Mn6  1  0.25853400  0.24492400  0.50698600  1
  Mn  Mn7  1  0.25853400  0.75507600  0.50698600  1
  Mn  Mn8  1  0.13798200  0.50000000  0.90470600  1
  Mn  Mn9  1  0.00154200  0.00000000  0.98661500  1
  Mn  Mn10  1  0.75853400  0.74492400  0.50698600  1
  Mn  Mn11  1  0.75853400  0.25507600  0.50698600  1
  O  O12  1  0.49937550  0.72805250  0.76776500  1
  O  O13  1  0.73988050  0.50000000  0.69422300  1
  O  O14  1  0.27610250  0.50000000  0.75730300  1
  O  O15  1  0.49937550  0.27194750  0.76776500  1
  O  O16  1  0.26085000  0.50000000  0.30495000  1
  O  O17  1  0.72023300  0.50000000  0.24070000  1
  O  O18  1  0.99937550  0.22805250  0.76776500  1
  O  O19  1  0.23988050  0.00000000  0.69422300  1
  O  O20  1  0.77610250  0.00000000  0.75730300  1
  O  O21  1  0.99937550  0.77194750  0.76776500  1
  O  O22  1  0.76085000  0.00000000  0.30495000  1
  O  O23  1  0.22023300  0.00000000  0.24070000  1
  F  F24  1  0.49260250  0.73263550  0.23127100  1
  F  F25  1  0.49260250  0.26736450  0.23127100  1
  F  F26  1  0.99260250  0.23263550  0.23127100  1
  F  F27  1  0.99260250  0.76736450  0.23127100  1
