# generated using pymatgen
data_Li3Cr(CuO2)4
_symmetry_space_group_name_H-M   'P 1'
_cell_length_a   10.93226800
_cell_length_b   5.65848200
_cell_length_c   5.60309493
_cell_angle_alpha   90.00000000
_cell_angle_beta   118.59301302
_cell_angle_gamma   90.00000000
_symmetry_Int_Tables_number   1
_chemical_formula_structural   Li3Cr(CuO2)4
_chemical_formula_sum   'Li6 Cr2 Cu8 O16'
_cell_volume   304.33587828
_cell_formula_units_Z   2
loop_
 _symmetry_equiv_pos_site_id
 _symmetry_equiv_pos_as_xyz
  1  'x, y, z'
loop_
 _atom_site_type_symbol
 _atom_site_label
 _atom_site_symmetry_multiplicity
 _atom_site_fract_x
 _atom_site_fract_y
 _atom_site_fract_z
 _atom_site_occupancy
  Li  Li0  1  0.25000000  0.75000000  0.00000000  1
  Li  Li1  1  0.00000000  0.00000000  0.50000000  1
  Li  Li2  1  0.25000000  0.25000000  0.00000000  1
  Li  Li3  1  0.75000000  0.25000000  0.00000000  1
  Li  Li4  1  0.50000000  0.50000000  0.50000000  1
  Li  Li5  1  0.75000000  0.75000000  0.00000000  1
  Cr  Cr6  1  0.00000000  0.50000000  0.00000000  1
  Cr  Cr7  1  0.50000000  0.00000000  0.00000000  1
  Cu  Cu8  1  0.00000000  0.50000000  0.50000000  1
  Cu  Cu9  1  0.00000000  0.00000000  0.00000000  1
  Cu  Cu10  1  0.25000000  0.75000000  0.50000000  1
  Cu  Cu11  1  0.25000000  0.25000000  0.50000000  1
  Cu  Cu12  1  0.50000000  0.00000000  0.50000000  1
  Cu  Cu13  1  0.50000000  0.50000000  0.00000000  1
  Cu  Cu14  1  0.75000000  0.25000000  0.50000000  1
  Cu  Cu15  1  0.75000000  0.75000000  0.50000000  1
  O  O16  1  0.21162700  0.50000000  0.24655700  1
  O  O17  1  0.03209650  0.73601250  0.76935800  1
  O  O18  1  0.03209650  0.26398750  0.76935800  1
  O  O19  1  0.20057700  0.00000000  0.23938400  1
  O  O20  1  0.29942300  0.50000000  0.76061600  1
  O  O21  1  0.46790350  0.23601250  0.23064200  1
  O  O22  1  0.46790350  0.76398750  0.23064200  1
  O  O23  1  0.28837300  0.00000000  0.75344300  1
  O  O24  1  0.71162700  0.00000000  0.24655700  1
  O  O25  1  0.53209650  0.23601250  0.76935800  1
  O  O26  1  0.53209650  0.76398750  0.76935800  1
  O  O27  1  0.70057700  0.50000000  0.23938400  1
  O  O28  1  0.79942300  0.00000000  0.76061600  1
  O  O29  1  0.96790350  0.73601250  0.23064200  1
  O  O30  1  0.96790350  0.26398750  0.23064200  1
  O  O31  1  0.78837300  0.50000000  0.75344300  1
