# generated using pymatgen
data_LiFeNiO4
_symmetry_space_group_name_H-M   'P 1'
_cell_length_a   5.84983000
_cell_length_b   5.86058600
_cell_length_c   8.46906400
_cell_angle_alpha   90.00000000
_cell_angle_beta   90.00000000
_cell_angle_gamma   90.00000000
_symmetry_Int_Tables_number   1
_chemical_formula_structural   LiFeNiO4
_chemical_formula_sum   'Li4 Fe4 Ni4 O16'
_cell_volume   290.34857806
_cell_formula_units_Z   4
loop_
 _symmetry_equiv_pos_site_id
 _symmetry_equiv_pos_as_xyz
  1  'x, y, z'
loop_
 _atom_site_type_symbol
 _atom_site_label
 _atom_site_symmetry_multiplicity
 _atom_site_fract_x
 _atom_site_fract_y
 _atom_site_fract_z
 _atom_site_occupancy
  Li  Li0  1  0.75000000  0.25000000  0.75000000  1
  Li  Li1  1  0.25000000  0.25000000  0.75000000  1
  Li  Li2  1  0.25000000  0.75000000  0.25000000  1
  Li  Li3  1  0.75000000  0.75000000  0.25000000  1
  Fe  Fe4  1  0.00000000  0.00000000  0.00000000  1
  Fe  Fe5  1  0.00000000  0.50000000  0.00000000  1
  Fe  Fe6  1  0.50000000  0.50000000  0.50000000  1
  Fe  Fe7  1  0.50000000  0.00000000  0.50000000  1
  Ni  Ni8  1  0.75000000  0.75000000  0.75000000  1
  Ni  Ni9  1  0.25000000  0.75000000  0.75000000  1
  Ni  Ni10  1  0.25000000  0.25000000  0.25000000  1
  Ni  Ni11  1  0.75000000  0.25000000  0.25000000  1
  O  O12  1  0.50000000  0.51042650  0.72316450  1
  O  O13  1  0.78137100  0.25000000  0.99958000  1
  O  O14  1  0.50000000  0.98957350  0.72316450  1
  O  O15  1  0.28137100  0.25000000  0.50042000  1
  O  O16  1  0.21862900  0.25000000  0.99958000  1
  O  O17  1  0.00000000  0.51042650  0.77683550  1
  O  O18  1  0.71862900  0.25000000  0.50042000  1
  O  O19  1  0.00000000  0.98957350  0.77683550  1
  O  O20  1  0.00000000  0.01042650  0.22316450  1
  O  O21  1  0.28137100  0.75000000  0.49958000  1
  O  O22  1  0.00000000  0.48957350  0.22316450  1
  O  O23  1  0.78137100  0.75000000  0.00042000  1
  O  O24  1  0.71862900  0.75000000  0.49958000  1
  O  O25  1  0.50000000  0.01042650  0.27683550  1
  O  O26  1  0.21862900  0.75000000  0.00042000  1
  O  O27  1  0.50000000  0.48957350  0.27683550  1
