# generated using pymatgen
data_Li20Co21O40
_symmetry_space_group_name_H-M   'P 1'
_cell_length_a   12.85040479
_cell_length_b   12.85040479
_cell_length_c   8.12646300
_cell_angle_alpha   90.00000000
_cell_angle_beta   90.00000000
_cell_angle_gamma   90.00000000
_symmetry_Int_Tables_number   1
_chemical_formula_structural   Li20Co21O40
_chemical_formula_sum   'Li40 Co42 O80'
_cell_volume   1341.94642904
_cell_formula_units_Z   2
loop_
 _symmetry_equiv_pos_site_id
 _symmetry_equiv_pos_as_xyz
  1  'x, y, z'
loop_
 _atom_site_type_symbol
 _atom_site_label
 _atom_site_symmetry_multiplicity
 _atom_site_fract_x
 _atom_site_fract_y
 _atom_site_fract_z
 _atom_site_occupancy
  Li  Li0  1  0.04991050  0.59864050  0.37292500  1
  Li  Li1  1  0.09864050  0.45008950  0.12707500  1
  Li  Li2  1  0.15301000  0.30705300  0.87675450  1
  Li  Li3  1  0.29483950  0.34963050  0.11636500  1
  Li  Li4  1  0.34699000  0.19294700  0.37675450  1
  Li  Li5  1  0.19294700  0.65301000  0.62324550  1
  Li  Li6  1  0.24602200  0.49764500  0.88439350  1
  Li  Li7  1  0.90135950  0.54991050  0.12707500  1
  Li  Li8  1  0.43221600  0.36419700  0.33261850  1
  Li  Li9  1  0.34963050  0.70516050  0.88363500  1
  Li  Li10  1  0.50235500  0.24602200  0.11560650  1
  Li  Li11  1  0.30705300  0.84699000  0.12324550  1
  Li  Li12  1  0.36419700  0.56778400  0.66738150  1
  Li  Li13  1  0.56778400  0.63580300  0.33261850  1
  Li  Li14  1  0.15036950  0.79483950  0.38363500  1
  Li  Li15  1  0.63580300  0.43221600  0.66738150  1
  Li  Li16  1  0.45008950  0.90135950  0.87292500  1
  Li  Li17  1  0.49764500  0.75397800  0.11560650  1
  Li  Li18  1  0.75397800  0.50235500  0.88439350  1
  Li  Li19  1  0.70516050  0.65036950  0.11636500  1
  Li  Li20  1  0.54991050  0.09864050  0.87292500  1
  Li  Li21  1  0.59864050  0.95008950  0.62707500  1
  Li  Li22  1  0.65301000  0.80705300  0.37675450  1
  Li  Li23  1  0.79483950  0.84963050  0.61636500  1
  Li  Li24  1  0.84699000  0.69294700  0.87675450  1
  Li  Li25  1  0.69294700  0.15301000  0.12324550  1
  Li  Li26  1  0.74602200  0.99764500  0.38439350  1
  Li  Li27  1  0.40135950  0.04991050  0.62707500  1
  Li  Li28  1  0.93221600  0.86419700  0.83261850  1
  Li  Li29  1  0.84963050  0.20516050  0.38363500  1
  Li  Li30  1  0.00235500  0.74602200  0.61560650  1
  Li  Li31  1  0.80705300  0.34699000  0.62324550  1
  Li  Li32  1  0.86419700  0.06778400  0.16738150  1
  Li  Li33  1  0.06778400  0.13580300  0.83261850  1
  Li  Li34  1  0.65036950  0.29483950  0.88363500  1
  Li  Li35  1  0.13580300  0.93221600  0.16738150  1
  Li  Li36  1  0.95008950  0.40135950  0.37292500  1
  Li  Li37  1  0.99764500  0.25397800  0.61560650  1
  Li  Li38  1  0.25397800  0.00235500  0.38439350  1
  Li  Li39  1  0.20516050  0.15036950  0.61636500  1
  Co  Co40  1  0.05089350  0.59881950  0.87499200  1
  Co  Co41  1  0.64859950  0.79949350  0.87475400  1
  Co  Co42  1  0.09881950  0.44910650  0.62500800  1
  Co  Co43  1  0.35140050  0.20050650  0.87475400  1
  Co  Co44  1  0.29863850  0.34898350  0.62483000  1
  Co  Co45  1  0.24839800  0.49924200  0.37572750  1
  Co  Co46  1  0.20050650  0.64859950  0.12524600  1
  Co  Co47  1  0.90118050  0.55089350  0.62500800  1
  Co  Co48  1  0.34898350  0.70136150  0.37517000  1
  Co  Co49  1  0.45024200  0.39995900  0.87486450  1
  Co  Co50  1  0.50075800  0.24839800  0.62427250  1
  Co  Co51  1  0.29949350  0.85140050  0.62524600  1
  Co  Co52  1  0.39995900  0.54975800  0.12513550  1
  Co  Co53  1  0.50000000  0.50000000  0.50000000  1
  Co  Co54  1  0.49924200  0.75160200  0.62427250  1
  Co  Co55  1  0.44910650  0.90118050  0.37499200  1
  Co  Co56  1  0.54975800  0.60004100  0.87486450  1
  Co  Co57  1  0.60004100  0.45024200  0.12513550  1
  Co  Co58  1  0.15101650  0.79863850  0.87517000  1
  Co  Co59  1  0.75160200  0.50075800  0.37572750  1
  Co  Co60  1  0.70136150  0.65101650  0.62483000  1
  Co  Co61  1  0.55089350  0.09881950  0.37499200  1
  Co  Co62  1  0.14859950  0.29949350  0.37475400  1
  Co  Co63  1  0.59881950  0.94910650  0.12500800  1
  Co  Co64  1  0.85140050  0.70050650  0.37475400  1
  Co  Co65  1  0.79863850  0.84898350  0.12483000  1
  Co  Co66  1  0.74839800  0.99924200  0.87572750  1
  Co  Co67  1  0.70050650  0.14859950  0.62524600  1
  Co  Co68  1  0.40118050  0.05089350  0.12500800  1
  Co  Co69  1  0.84898350  0.20136150  0.87517000  1
  Co  Co70  1  0.95024200  0.89995900  0.37486450  1
  Co  Co71  1  0.00075800  0.74839800  0.12427250  1
  Co  Co72  1  0.79949350  0.35140050  0.12524600  1
  Co  Co73  1  0.89995900  0.04975800  0.62513550  1
  Co  Co74  1  0.00000000  0.00000000  0.00000000  1
  Co  Co75  1  0.99924200  0.25160200  0.12427250  1
  Co  Co76  1  0.94910650  0.40118050  0.87499200  1
  Co  Co77  1  0.04975800  0.10004100  0.37486450  1
  Co  Co78  1  0.10004100  0.95024200  0.62513550  1
  Co  Co79  1  0.65101650  0.29863850  0.37517000  1
  Co  Co80  1  0.25160200  0.00075800  0.87572750  1
  Co  Co81  1  0.20136150  0.15101650  0.12483000  1
  O  O82  1  0.90869550  0.54640250  0.86413900  1
  O  O83  1  0.09130450  0.45359750  0.86413900  1
  O  O84  1  0.04640250  0.59130450  0.63586100  1
  O  O85  1  0.10665550  0.44478150  0.38625200  1
  O  O86  1  0.05521850  0.60665550  0.11374800  1
  O  O87  1  0.14991150  0.30675450  0.61378600  1
  O  O88  1  0.14720550  0.78900150  0.11540200  1
  O  O89  1  0.19324550  0.64991150  0.88621400  1
  O  O90  1  0.35008850  0.19324550  0.11378600  1
  O  O91  1  0.24292950  0.49117250  0.61475200  1
  O  O92  1  0.28900150  0.35279450  0.38459800  1
  O  O93  1  0.30917550  0.34624150  0.86455300  1
  O  O94  1  0.25476300  0.50750800  0.13677150  1
  O  O95  1  0.20739700  0.64510100  0.36477050  1
  O  O96  1  0.35489900  0.20739700  0.63522950  1
  O  O97  1  0.44704800  0.39055200  0.63583450  1
  O  O98  1  0.34624150  0.69082450  0.13544700  1
  O  O99  1  0.29260300  0.85489900  0.86477050  1
  O  O100  1  0.49249200  0.25476300  0.86322850  1
  O  O101  1  0.39055200  0.55295200  0.36416550  1
  O  O102  1  0.50882750  0.24292950  0.38524800  1
  O  O103  1  0.45410600  0.40804300  0.11237850  1
  O  O104  1  0.40804300  0.54589400  0.88762150  1
  O  O105  1  0.30675450  0.85008850  0.38621400  1
  O  O106  1  0.35279450  0.71099850  0.61540200  1
  O  O107  1  0.54589400  0.59195700  0.11237850  1
  O  O108  1  0.59195700  0.45410600  0.88762150  1
  O  O109  1  0.44478150  0.89334450  0.61374800  1
  O  O110  1  0.49117250  0.75707050  0.38524800  1
  O  O111  1  0.45359750  0.90869550  0.13586100  1
  O  O112  1  0.55295200  0.60944800  0.63583450  1
  O  O113  1  0.50750800  0.74523700  0.86322850  1
  O  O114  1  0.60944800  0.44704800  0.36416550  1
  O  O115  1  0.65375850  0.30917550  0.13544700  1
  O  O116  1  0.64510100  0.79260300  0.63522950  1
  O  O117  1  0.74523700  0.49249200  0.13677150  1
  O  O118  1  0.69082450  0.65375850  0.86455300  1
  O  O119  1  0.71099850  0.64720550  0.38459800  1
  O  O120  1  0.75707050  0.50882750  0.61475200  1
  O  O121  1  0.89334450  0.55521850  0.38625200  1
  O  O122  1  0.40869550  0.04640250  0.36413900  1
  O  O123  1  0.59130450  0.95359750  0.36413900  1
  O  O124  1  0.54640250  0.09130450  0.13586100  1
  O  O125  1  0.60665550  0.94478150  0.88625200  1
  O  O126  1  0.55521850  0.10665550  0.61374800  1
  O  O127  1  0.64991150  0.80675450  0.11378600  1
  O  O128  1  0.64720550  0.28900150  0.61540200  1
  O  O129  1  0.69324550  0.14991150  0.38621400  1
  O  O130  1  0.85008850  0.69324550  0.61378600  1
  O  O131  1  0.74292950  0.99117250  0.11475200  1
  O  O132  1  0.78900150  0.85279450  0.88459800  1
  O  O133  1  0.80917550  0.84624150  0.36455300  1
  O  O134  1  0.75476300  0.00750800  0.63677150  1
  O  O135  1  0.70739700  0.14510100  0.86477050  1
  O  O136  1  0.85489900  0.70739700  0.13522950  1
  O  O137  1  0.94704800  0.89055200  0.13583450  1
  O  O138  1  0.84624150  0.19082450  0.63544700  1
  O  O139  1  0.79260300  0.35489900  0.36477050  1
  O  O140  1  0.99249200  0.75476300  0.36322850  1
  O  O141  1  0.89055200  0.05295200  0.86416550  1
  O  O142  1  0.00882750  0.74292950  0.88524800  1
  O  O143  1  0.95410600  0.90804300  0.61237850  1
  O  O144  1  0.90804300  0.04589400  0.38762150  1
  O  O145  1  0.80675450  0.35008850  0.88621400  1
  O  O146  1  0.85279450  0.21099850  0.11540200  1
  O  O147  1  0.04589400  0.09195700  0.61237850  1
  O  O148  1  0.09195700  0.95410600  0.38762150  1
  O  O149  1  0.94478150  0.39334450  0.11374800  1
  O  O150  1  0.99117250  0.25707050  0.88524800  1
  O  O151  1  0.95359750  0.40869550  0.63586100  1
  O  O152  1  0.05295200  0.10944800  0.13583450  1
  O  O153  1  0.00750800  0.24523700  0.36322850  1
  O  O154  1  0.10944800  0.94704800  0.86416550  1
  O  O155  1  0.15375850  0.80917550  0.63544700  1
  O  O156  1  0.14510100  0.29260300  0.13522950  1
  O  O157  1  0.24523700  0.99249200  0.63677150  1
  O  O158  1  0.19082450  0.15375850  0.36455300  1
  O  O159  1  0.21099850  0.14720550  0.88459800  1
  O  O160  1  0.25707050  0.00882750  0.11475200  1
  O  O161  1  0.39334450  0.05521850  0.88625200  1
