# generated using pymatgen
data_LiCoSbO4
_symmetry_space_group_name_H-M   'P 1'
_cell_length_a   6.13718600
_cell_length_b   6.13718600
_cell_length_c   8.58776000
_cell_angle_alpha   90.00000000
_cell_angle_beta   90.00000000
_cell_angle_gamma   90.00000000
_symmetry_Int_Tables_number   1
_chemical_formula_structural   LiCoSbO4
_chemical_formula_sum   'Li4 Co4 Sb4 O16'
_cell_volume   323.45842696
_cell_formula_units_Z   4
loop_
 _symmetry_equiv_pos_site_id
 _symmetry_equiv_pos_as_xyz
  1  'x, y, z'
loop_
 _atom_site_type_symbol
 _atom_site_label
 _atom_site_symmetry_multiplicity
 _atom_site_fract_x
 _atom_site_fract_y
 _atom_site_fract_z
 _atom_site_occupancy
  Li  Li0  1  0.50000000  0.70872150  0.00000000  1
  Li  Li1  1  0.50000000  0.29127850  0.50000000  1
  Li  Li2  1  0.70872150  0.50000000  0.25000000  1
  Li  Li3  1  0.29127850  0.50000000  0.75000000  1
  Co  Co4  1  0.24814250  0.75185750  0.37500000  1
  Co  Co5  1  0.24814250  0.24814250  0.12500000  1
  Co  Co6  1  0.75185750  0.75185750  0.62500000  1
  Co  Co7  1  0.75185750  0.24814250  0.87500000  1
  Sb  Sb8  1  0.72718350  0.00000000  0.25000000  1
  Sb  Sb9  1  0.00000000  0.72718350  0.00000000  1
  Sb  Sb10  1  0.00000000  0.27281650  0.50000000  1
  Sb  Sb11  1  0.27281650  0.00000000  0.75000000  1
  O  O12  1  0.51700250  0.76152350  0.25156400  1
  O  O13  1  0.51700250  0.23847650  0.24843600  1
  O  O14  1  0.76152350  0.51700250  0.99843600  1
  O  O15  1  0.76152350  0.48299750  0.50156400  1
  O  O16  1  0.23847650  0.51700250  0.00156400  1
  O  O17  1  0.23847650  0.48299750  0.49843600  1
  O  O18  1  0.48299750  0.76152350  0.74843600  1
  O  O19  1  0.48299750  0.23847650  0.75156400  1
  O  O20  1  0.76799150  0.97719850  0.01415400  1
  O  O21  1  0.76799150  0.02280150  0.48584600  1
  O  O22  1  0.97719850  0.76799150  0.23584600  1
  O  O23  1  0.97719850  0.23200850  0.26415400  1
  O  O24  1  0.02280150  0.76799150  0.76415400  1
  O  O25  1  0.02280150  0.23200850  0.73584600  1
  O  O26  1  0.23200850  0.02280150  0.51415400  1
  O  O27  1  0.23200850  0.97719850  0.98584600  1
