# generated using pymatgen
data_LiTiVO4
_symmetry_space_group_name_H-M   'P 1'
_cell_length_a   5.93565914
_cell_length_b   5.99546900
_cell_length_c   8.59318192
_cell_angle_alpha   90.00000000
_cell_angle_beta   90.00000000
_cell_angle_gamma   90.00000000
_symmetry_Int_Tables_number   1
_chemical_formula_structural   LiTiVO4
_chemical_formula_sum   'Li4 Ti4 V4 O16'
_cell_volume   305.80608385
_cell_formula_units_Z   4
loop_
 _symmetry_equiv_pos_site_id
 _symmetry_equiv_pos_as_xyz
  1  'x, y, z'
loop_
 _atom_site_type_symbol
 _atom_site_label
 _atom_site_symmetry_multiplicity
 _atom_site_fract_x
 _atom_site_fract_y
 _atom_site_fract_z
 _atom_site_occupancy
  Li  Li0  1  0.00000000  0.75000000  0.62160300  1
  Li  Li1  1  0.50000000  0.75000000  0.87839700  1
  Li  Li2  1  0.50000000  0.25000000  0.12160300  1
  Li  Li3  1  0.00000000  0.25000000  0.37839700  1
  Ti  Ti4  1  0.75000000  0.25000000  0.75000000  1
  Ti  Ti5  1  0.25000000  0.25000000  0.75000000  1
  Ti  Ti6  1  0.25000000  0.75000000  0.25000000  1
  Ti  Ti7  1  0.75000000  0.75000000  0.25000000  1
  V  V8  1  0.00000000  0.50000000  0.00000000  1
  V  V9  1  0.00000000  0.00000000  0.00000000  1
  V  V10  1  0.50000000  0.00000000  0.50000000  1
  V  V11  1  0.50000000  0.50000000  0.50000000  1
  O  O12  1  0.00000000  0.47039225  0.75562425  1
  O  O13  1  0.00000000  0.02960775  0.75562425  1
  O  O14  1  0.50000000  0.47039225  0.74437575  1
  O  O15  1  0.50000000  0.02960775  0.74437575  1
  O  O16  1  0.77087275  0.25000000  0.98123075  1
  O  O17  1  0.22912725  0.25000000  0.98123075  1
  O  O18  1  0.72912725  0.25000000  0.51876925  1
  O  O19  1  0.27087275  0.25000000  0.51876925  1
  O  O20  1  0.50000000  0.97039225  0.25562425  1
  O  O21  1  0.50000000  0.52960775  0.25562425  1
  O  O22  1  0.00000000  0.97039225  0.24437575  1
  O  O23  1  0.00000000  0.52960775  0.24437575  1
  O  O24  1  0.27087275  0.75000000  0.48123075  1
  O  O25  1  0.72912725  0.75000000  0.48123075  1
  O  O26  1  0.22912725  0.75000000  0.01876925  1
  O  O27  1  0.77087275  0.75000000  0.01876925  1
