# generated using pymatgen
data_Li8Fe(O2F)2
_symmetry_space_group_name_H-M   'P 1'
_cell_length_a   5.79924000
_cell_length_b   9.69742000
_cell_length_c   10.89588900
_cell_angle_alpha   90.00000000
_cell_angle_beta   90.00000000
_cell_angle_gamma   90.00000000
_symmetry_Int_Tables_number   1
_chemical_formula_structural   Li8Fe(O2F)2
_chemical_formula_sum   'Li32 Fe4 O16 F8'
_cell_volume   612.75936593
_cell_formula_units_Z   4
loop_
 _symmetry_equiv_pos_site_id
 _symmetry_equiv_pos_as_xyz
  1  'x, y, z'
loop_
 _atom_site_type_symbol
 _atom_site_label
 _atom_site_symmetry_multiplicity
 _atom_site_fract_x
 _atom_site_fract_y
 _atom_site_fract_z
 _atom_site_occupancy
  Li  Li0  1  0.68485100  0.00000000  0.27632700  1
  Li  Li1  1  0.56890900  0.00000000  0.62340500  1
  Li  Li2  1  0.43109100  0.00000000  0.12340500  1
  Li  Li3  1  0.31514900  0.00000000  0.77632700  1
  Li  Li4  1  0.49617800  0.83516700  0.90295000  1
  Li  Li5  1  0.50382200  0.83516700  0.40295000  1
  Li  Li6  1  0.15573750  0.85046650  0.26346300  1
  Li  Li7  1  0.19424900  0.81183300  0.63778100  1
  Li  Li8  1  0.80575100  0.18816700  0.13778100  1
  Li  Li9  1  0.84426250  0.85046650  0.76346300  1
  Li  Li10  1  0.84426250  0.14953350  0.76346300  1
  Li  Li11  1  0.80575100  0.81183300  0.13778100  1
  Li  Li12  1  0.50382200  0.16483300  0.40295000  1
  Li  Li13  1  0.49617800  0.16483300  0.90295000  1
  Li  Li14  1  0.19424900  0.18816700  0.63778100  1
  Li  Li15  1  0.15573750  0.14953350  0.26346300  1
  Li  Li16  1  0.18485100  0.50000000  0.27632700  1
  Li  Li17  1  0.06890900  0.50000000  0.62340500  1
  Li  Li18  1  0.93109100  0.50000000  0.12340500  1
  Li  Li19  1  0.81514900  0.50000000  0.77632700  1
  Li  Li20  1  0.99617800  0.33516700  0.90295000  1
  Li  Li21  1  0.00382200  0.33516700  0.40295000  1
  Li  Li22  1  0.65573750  0.35046650  0.26346300  1
  Li  Li23  1  0.69424900  0.31183300  0.63778100  1
  Li  Li24  1  0.30575100  0.68816700  0.13778100  1
  Li  Li25  1  0.34426250  0.35046650  0.76346300  1
  Li  Li26  1  0.34426250  0.64953350  0.76346300  1
  Li  Li27  1  0.30575100  0.31183300  0.13778100  1
  Li  Li28  1  0.00382200  0.66483300  0.40295000  1
  Li  Li29  1  0.99617800  0.66483300  0.90295000  1
  Li  Li30  1  0.69424900  0.68816700  0.63778100  1
  Li  Li31  1  0.65573750  0.64953350  0.26346300  1
  Fe  Fe32  1  0.95657500  0.00000000  0.51051600  1
  Fe  Fe33  1  0.04342500  0.00000000  0.01051600  1
  Fe  Fe34  1  0.45657500  0.50000000  0.51051600  1
  Fe  Fe35  1  0.54342500  0.50000000  0.01051600  1
  O  O36  1  0.65176400  0.00000000  0.45150300  1
  O  O37  1  0.34823600  0.00000000  0.95150300  1
  O  O38  1  0.50234750  0.82992150  0.71765500  1
  O  O39  1  0.02599500  0.00000000  0.68433400  1
  O  O40  1  0.97400500  0.00000000  0.18433400  1
  O  O41  1  0.49765250  0.82992150  0.21765500  1
  O  O42  1  0.49765250  0.17007850  0.21765500  1
  O  O43  1  0.50234750  0.17007850  0.71765500  1
  O  O44  1  0.15176400  0.50000000  0.45150300  1
  O  O45  1  0.84823600  0.50000000  0.95150300  1
  O  O46  1  0.00234750  0.32992150  0.71765500  1
  O  O47  1  0.52599500  0.50000000  0.68433400  1
  O  O48  1  0.47400500  0.50000000  0.18433400  1
  O  O49  1  0.99765250  0.32992150  0.21765500  1
  O  O50  1  0.99765250  0.67007850  0.21765500  1
  O  O51  1  0.00234750  0.67007850  0.71765500  1
  F  F52  1  0.17666100  0.83428000  0.44796000  1
  F  F53  1  0.82333900  0.83428000  0.94796000  1
  F  F54  1  0.82333900  0.16572000  0.94796000  1
  F  F55  1  0.17666100  0.16572000  0.44796000  1
  F  F56  1  0.67666100  0.33428000  0.44796000  1
  F  F57  1  0.32333900  0.33428000  0.94796000  1
  F  F58  1  0.32333900  0.66572000  0.94796000  1
  F  F59  1  0.67666100  0.66572000  0.44796000  1
