# generated using pymatgen
data_Mg11Mn2O13
_symmetry_space_group_name_H-M   'P 1'
_cell_length_a   3.03854532
_cell_length_b   4.30211400
_cell_length_c   39.59642128
_cell_angle_alpha   90.00000000
_cell_angle_beta   90.00000000
_cell_angle_gamma   90.00000000
_symmetry_Int_Tables_number   1
_chemical_formula_structural   Mg11Mn2O13
_chemical_formula_sum   'Mg22 Mn4 O26'
_cell_volume   517.61108533
_cell_formula_units_Z   2
loop_
 _symmetry_equiv_pos_site_id
 _symmetry_equiv_pos_as_xyz
  1  'x, y, z'
loop_
 _atom_site_type_symbol
 _atom_site_label
 _atom_site_symmetry_multiplicity
 _atom_site_fract_x
 _atom_site_fract_y
 _atom_site_fract_z
 _atom_site_occupancy
  Mg  Mg0  1  0.50000000  0.50000000  0.00000000  1
  Mg  Mg1  1  0.50000000  0.50000000  0.07582650  1
  Mg  Mg2  1  0.50000000  0.50000000  0.92417350  1
  Mg  Mg3  1  0.50000000  0.50000000  0.76852850  1
  Mg  Mg4  1  0.00000000  0.00000000  0.73147150  1
  Mg  Mg5  1  0.50000000  0.50000000  0.69297400  1
  Mg  Mg6  1  0.00000000  0.00000000  0.80702600  1
  Mg  Mg7  1  0.00000000  0.00000000  0.03809200  1
  Mg  Mg8  1  0.00000000  0.00000000  0.96190800  1
  Mg  Mg9  1  0.00000000  0.00000000  0.11426800  1
  Mg  Mg10  1  0.00000000  0.00000000  0.88573200  1
  Mg  Mg11  1  0.00000000  0.00000000  0.50000000  1
  Mg  Mg12  1  0.00000000  0.00000000  0.57582650  1
  Mg  Mg13  1  0.00000000  0.00000000  0.42417350  1
  Mg  Mg14  1  0.00000000  0.00000000  0.26852850  1
  Mg  Mg15  1  0.50000000  0.50000000  0.23147150  1
  Mg  Mg16  1  0.00000000  0.00000000  0.19297400  1
  Mg  Mg17  1  0.50000000  0.50000000  0.30702600  1
  Mg  Mg18  1  0.50000000  0.50000000  0.53809200  1
  Mg  Mg19  1  0.50000000  0.50000000  0.46190800  1
  Mg  Mg20  1  0.50000000  0.50000000  0.61426800  1
  Mg  Mg21  1  0.50000000  0.50000000  0.38573200  1
  Mn  Mn22  1  0.50000000  0.50000000  0.84623700  1
  Mn  Mn23  1  0.50000000  0.50000000  0.15376300  1
  Mn  Mn24  1  0.00000000  0.00000000  0.34623700  1
  Mn  Mn25  1  0.00000000  0.00000000  0.65376300  1
  O  O26  1  0.50000000  0.00000000  0.00000000  1
  O  O27  1  0.00000000  0.50000000  0.11273200  1
  O  O28  1  0.00000000  0.50000000  0.88726800  1
  O  O29  1  0.00000000  0.50000000  0.96210500  1
  O  O30  1  0.00000000  0.50000000  0.03789500  1
  O  O31  1  0.00000000  0.50000000  0.80526150  1
  O  O32  1  0.50000000  0.00000000  0.69473850  1
  O  O33  1  0.00000000  0.50000000  0.73059550  1
  O  O34  1  0.50000000  0.00000000  0.76940450  1
  O  O35  1  0.50000000  0.00000000  0.92364950  1
  O  O36  1  0.50000000  0.00000000  0.07635050  1
  O  O37  1  0.50000000  0.00000000  0.84633350  1
  O  O38  1  0.50000000  0.00000000  0.15366650  1
  O  O39  1  0.00000000  0.50000000  0.50000000  1
  O  O40  1  0.50000000  0.00000000  0.61273200  1
  O  O41  1  0.50000000  0.00000000  0.38726800  1
  O  O42  1  0.50000000  0.00000000  0.46210500  1
  O  O43  1  0.50000000  0.00000000  0.53789500  1
  O  O44  1  0.50000000  0.00000000  0.30526150  1
  O  O45  1  0.00000000  0.50000000  0.19473850  1
  O  O46  1  0.50000000  0.00000000  0.23059550  1
  O  O47  1  0.00000000  0.50000000  0.26940450  1
  O  O48  1  0.00000000  0.50000000  0.42364950  1
  O  O49  1  0.00000000  0.50000000  0.57635050  1
  O  O50  1  0.00000000  0.50000000  0.34633350  1
  O  O51  1  0.00000000  0.50000000  0.65366650  1
