# generated using pymatgen
data_LiCo2(PO4)2
_symmetry_space_group_name_H-M   'P 1'
_cell_length_a   7.78633755
_cell_length_b   5.48537801
_cell_length_c   8.53874691
_cell_angle_alpha   90.00000000
_cell_angle_beta   103.72066340
_cell_angle_gamma   90.00000000
_symmetry_Int_Tables_number   1
_chemical_formula_structural   LiCo2(PO4)2
_chemical_formula_sum   'Li2 Co4 P4 O16'
_cell_volume   354.29129449
_cell_formula_units_Z   2
loop_
 _symmetry_equiv_pos_site_id
 _symmetry_equiv_pos_as_xyz
  1  'x, y, z'
loop_
 _atom_site_type_symbol
 _atom_site_label
 _atom_site_symmetry_multiplicity
 _atom_site_fract_x
 _atom_site_fract_y
 _atom_site_fract_z
 _atom_site_occupancy
  Li  Li0  1  0.62855900  0.33837550  0.60102700  1
  Li  Li1  1  0.62855900  0.66162450  0.10102700  1
  Co  Co2  1  0.50148100  0.84432250  0.72096900  1
  Co  Co3  1  0.50148100  0.15567750  0.22096900  1
  Co  Co4  1  0.03412900  0.34853950  0.93082600  1
  Co  Co5  1  0.03412900  0.65146050  0.43082600  1
  P  P6  1  0.74857100  0.15977650  0.97875200  1
  P  P7  1  0.74857100  0.84022350  0.47875200  1
  P  P8  1  0.26374500  0.33953750  0.68402100  1
  P  P9  1  0.26374500  0.66046250  0.18402100  1
  O  O10  1  0.10830700  0.63965750  0.02802200  1
  O  O11  1  0.10830700  0.36034250  0.52802200  1
  O  O12  1  0.67059000  0.90266750  0.93443400  1
  O  O13  1  0.67059000  0.09733250  0.43443400  1
  O  O14  1  0.18515200  0.21904450  0.81820600  1
  O  O15  1  0.18515200  0.78095550  0.31820600  1
  O  O16  1  0.77727100  0.30650750  0.82727300  1
  O  O17  1  0.77727100  0.69349250  0.32727300  1
  O  O18  1  0.33271900  0.59376350  0.73726400  1
  O  O19  1  0.33271900  0.40623650  0.23726400  1
  O  O20  1  0.40886300  0.17249050  0.64789200  1
  O  O21  1  0.40886300  0.82750950  0.14789200  1
  O  O22  1  0.62726900  0.69577050  0.56530200  1
  O  O23  1  0.62726900  0.30422950  0.06530200  1
  O  O24  1  0.94405000  0.84879150  0.58107100  1
  O  O25  1  0.94405000  0.15120850  0.08107100  1
