# generated using pymatgen
data_Li3Ti4O8
_symmetry_space_group_name_H-M   'P 1'
_cell_length_a   10.21945200
_cell_length_b   5.80700800
_cell_length_c   5.79954561
_cell_angle_alpha   90.00000000
_cell_angle_beta   124.49803636
_cell_angle_gamma   90.00000000
_symmetry_Int_Tables_number   1
_chemical_formula_structural   Li3Ti4O8
_chemical_formula_sum   'Li6 Ti8 O16'
_cell_volume   283.64683724
_cell_formula_units_Z   2
loop_
 _symmetry_equiv_pos_site_id
 _symmetry_equiv_pos_as_xyz
  1  'x, y, z'
loop_
 _atom_site_type_symbol
 _atom_site_label
 _atom_site_symmetry_multiplicity
 _atom_site_fract_x
 _atom_site_fract_y
 _atom_site_fract_z
 _atom_site_occupancy
  Li  Li0  1  0.25000000  0.75000000  0.00000000  1
  Li  Li1  1  0.25000000  0.25000000  0.00000000  1
  Li  Li2  1  0.00000000  0.00000000  0.50000000  1
  Li  Li3  1  0.75000000  0.25000000  0.00000000  1
  Li  Li4  1  0.75000000  0.75000000  0.00000000  1
  Li  Li5  1  0.50000000  0.50000000  0.50000000  1
  Ti  Ti6  1  0.00000000  0.50000000  0.50000000  1
  Ti  Ti7  1  0.25000000  0.75000000  0.50000000  1
  Ti  Ti8  1  0.25000000  0.25000000  0.50000000  1
  Ti  Ti9  1  0.00000000  0.00000000  0.00000000  1
  Ti  Ti10  1  0.50000000  0.00000000  0.50000000  1
  Ti  Ti11  1  0.75000000  0.25000000  0.50000000  1
  Ti  Ti12  1  0.75000000  0.75000000  0.50000000  1
  Ti  Ti13  1  0.50000000  0.50000000  0.00000000  1
  O  O14  1  0.49602700  0.25427700  0.74194200  1
  O  O15  1  0.49602700  0.74572300  0.74194200  1
  O  O16  1  0.24985900  0.00000000  0.24421400  1
  O  O17  1  0.25585000  0.50000000  0.28396800  1
  O  O18  1  0.24415000  0.00000000  0.71603200  1
  O  O19  1  0.25014100  0.50000000  0.75578600  1
  O  O20  1  0.00397300  0.75427700  0.25805800  1
  O  O21  1  0.00397300  0.24572300  0.25805800  1
  O  O22  1  0.99602700  0.75427700  0.74194200  1
  O  O23  1  0.99602700  0.24572300  0.74194200  1
  O  O24  1  0.74985900  0.50000000  0.24421400  1
  O  O25  1  0.75585000  0.00000000  0.28396800  1
  O  O26  1  0.74415000  0.50000000  0.71603200  1
  O  O27  1  0.75014100  0.00000000  0.75578600  1
  O  O28  1  0.50397300  0.25427700  0.25805800  1
  O  O29  1  0.50397300  0.74572300  0.25805800  1
