# generated using pymatgen
data_K3MnCrO8
_symmetry_space_group_name_H-M   'P 1'
_cell_length_a   5.88347177
_cell_length_b   5.88347177
_cell_length_c   21.55883009
_cell_angle_alpha   90.00000000
_cell_angle_beta   90.00000000
_cell_angle_gamma   120.00000000
_symmetry_Int_Tables_number   1
_chemical_formula_structural   K3MnCrO8
_chemical_formula_sum   'K9 Mn3 Cr3 O24'
_cell_volume   646.28365105
_cell_formula_units_Z   3
loop_
 _symmetry_equiv_pos_site_id
 _symmetry_equiv_pos_as_xyz
  1  'x, y, z'
loop_
 _atom_site_type_symbol
 _atom_site_label
 _atom_site_symmetry_multiplicity
 _atom_site_fract_x
 _atom_site_fract_y
 _atom_site_fract_z
 _atom_site_occupancy
  K  K0  1  0.00000000  0.00000000  0.29534500  1
  K  K1  1  0.66666667  0.33333333  0.03314633  1
  K  K2  1  0.33333333  0.66666667  0.17122767  1
  K  K3  1  0.66666667  0.33333333  0.62867833  1
  K  K4  1  0.33333333  0.66666667  0.36647967  1
  K  K5  1  0.00000000  0.00000000  0.50456100  1
  K  K6  1  0.33333333  0.66666667  0.96201167  1
  K  K7  1  0.00000000  0.00000000  0.69981300  1
  K  K8  1  0.66666667  0.33333333  0.83789433  1
  Mn  Mn9  1  0.00000000  0.00000000  0.09491500  1
  Mn  Mn10  1  0.66666667  0.33333333  0.42824833  1
  Mn  Mn11  1  0.33333333  0.66666667  0.76158167  1
  Cr  Cr12  1  0.66666667  0.33333333  0.24228433  1
  Cr  Cr13  1  0.33333333  0.66666667  0.57561767  1
  Cr  Cr14  1  0.00000000  0.00000000  0.90895100  1
  O  O15  1  0.69945333  0.84972667  0.06981767  1
  O  O16  1  0.97505267  0.48752633  0.26861233  1
  O  O17  1  0.15027333  0.30054667  0.06981767  1
  O  O18  1  0.51247367  0.48752633  0.26861233  1
  O  O19  1  0.00000000  0.00000000  0.16943200  1
  O  O20  1  0.15027333  0.84972667  0.06981767  1
  O  O21  1  0.66666667  0.33333333  0.16504233  1
  O  O22  1  0.51247367  0.02494733  0.26861233  1
  O  O23  1  0.36612000  0.18306000  0.40315100  1
  O  O24  1  0.64171933  0.82085967  0.60194567  1
  O  O25  1  0.81694000  0.63388000  0.40315100  1
  O  O26  1  0.17914033  0.82085967  0.60194567  1
  O  O27  1  0.66666667  0.33333333  0.50276533  1
  O  O28  1  0.81694000  0.18306000  0.40315100  1
  O  O29  1  0.33333333  0.66666667  0.49837567  1
  O  O30  1  0.17914033  0.35828067  0.60194567  1
  O  O31  1  0.03278667  0.51639333  0.73648433  1
  O  O32  1  0.30838600  0.15419300  0.93527900  1
  O  O33  1  0.48360667  0.96721333  0.73648433  1
  O  O34  1  0.84580700  0.15419300  0.93527900  1
  O  O35  1  0.33333333  0.66666667  0.83609867  1
  O  O36  1  0.48360667  0.51639333  0.73648433  1
  O  O37  1  0.00000000  0.00000000  0.83170900  1
  O  O38  1  0.84580700  0.69161400  0.93527900  1
