# generated using pymatgen
data_Li7Cr3(SiO6)2
_symmetry_space_group_name_H-M   'P 1'
_cell_length_a   4.94515197
_cell_length_b   8.56482990
_cell_length_c   9.82388831
_cell_angle_alpha   90.00000000
_cell_angle_beta   99.65845284
_cell_angle_gamma   90.00000000
_symmetry_Int_Tables_number   1
_chemical_formula_structural   Li7Cr3(SiO6)2
_chemical_formula_sum   'Li14 Cr6 Si4 O24'
_cell_volume   410.18691207
_cell_formula_units_Z   2
loop_
 _symmetry_equiv_pos_site_id
 _symmetry_equiv_pos_as_xyz
  1  'x, y, z'
loop_
 _atom_site_type_symbol
 _atom_site_label
 _atom_site_symmetry_multiplicity
 _atom_site_fract_x
 _atom_site_fract_y
 _atom_site_fract_z
 _atom_site_occupancy
  Li  Li0  1  0.00000000  0.00000000  0.00000000  1
  Li  Li1  1  0.25390750  0.50000000  0.24429400  1
  Li  Li2  1  0.24609250  0.00000000  0.75570600  1
  Li  Li3  1  0.25473925  0.66383225  0.75566050  1
  Li  Li4  1  0.24526075  0.83616775  0.24433950  1
  Li  Li5  1  0.24526075  0.16383225  0.24433950  1
  Li  Li6  1  0.75473925  0.83616775  0.75566050  1
  Li  Li7  1  0.50000000  0.50000000  0.00000000  1
  Li  Li8  1  0.75390750  0.00000000  0.24429400  1
  Li  Li9  1  0.74609250  0.50000000  0.75570600  1
  Li  Li10  1  0.75473925  0.16383225  0.75566050  1
  Li  Li11  1  0.74526075  0.33616775  0.24433950  1
  Li  Li12  1  0.74526075  0.66383225  0.24433950  1
  Li  Li13  1  0.25473925  0.33616775  0.75566050  1
  Cr  Cr14  1  0.50000000  0.00000000  0.50000000  1
  Cr  Cr15  1  0.00000000  0.83320925  0.50000000  1
  Cr  Cr16  1  0.50000000  0.66679075  0.50000000  1
  Cr  Cr17  1  0.00000000  0.50000000  0.50000000  1
  Cr  Cr18  1  0.50000000  0.33320925  0.50000000  1
  Cr  Cr19  1  0.00000000  0.16679075  0.50000000  1
  Si  Si20  1  0.50000000  0.83333150  0.00000000  1
  Si  Si21  1  0.00000000  0.66666850  0.00000000  1
  Si  Si22  1  0.00000000  0.33333150  0.00000000  1
  Si  Si23  1  0.50000000  0.16666850  0.00000000  1
  O  O24  1  0.37330875  0.50000000  0.61956850  1
  O  O25  1  0.12669125  0.00000000  0.38043150  1
  O  O26  1  0.09180475  0.50000000  0.89691050  1
  O  O27  1  0.40819525  0.00000000  0.10308950  1
  O  O28  1  0.34745475  0.68692975  0.10310750  1
  O  O29  1  0.15254525  0.81307025  0.89689250  1
  O  O30  1  0.15254525  0.18692975  0.89689250  1
  O  O31  1  0.84745475  0.81307025  0.10310750  1
  O  O32  1  0.62797350  0.83332300  0.38255500  1
  O  O33  1  0.37202650  0.83332300  0.61744500  1
  O  O34  1  0.12797350  0.66667700  0.38255500  1
  O  O35  1  0.37202650  0.16667700  0.61744500  1
  O  O36  1  0.87330875  0.00000000  0.61956850  1
  O  O37  1  0.62669125  0.50000000  0.38043150  1
  O  O38  1  0.59180475  0.00000000  0.89691050  1
  O  O39  1  0.90819525  0.50000000  0.10308950  1
  O  O40  1  0.84745475  0.18692975  0.10310750  1
  O  O41  1  0.65254525  0.31307025  0.89689250  1
  O  O42  1  0.65254525  0.68692975  0.89689250  1
  O  O43  1  0.34745475  0.31307025  0.10310750  1
  O  O44  1  0.12797350  0.33332300  0.38255500  1
  O  O45  1  0.87202650  0.33332300  0.61744500  1
  O  O46  1  0.62797350  0.16667700  0.38255500  1
  O  O47  1  0.87202650  0.66667700  0.61744500  1
