# generated using pymatgen
data_KCoO2
_symmetry_space_group_name_H-M   'P 1'
_cell_length_a   12.59610486
_cell_length_b   3.25835633
_cell_length_c   7.41547011
_cell_angle_alpha   90.00000000
_cell_angle_beta   121.85495734
_cell_angle_gamma   90.00000000
_symmetry_Int_Tables_number   1
_chemical_formula_structural   KCoO2
_chemical_formula_sum   'K4 Co4 O8'
_cell_volume   258.51102386
_cell_formula_units_Z   4
loop_
 _symmetry_equiv_pos_site_id
 _symmetry_equiv_pos_as_xyz
  1  'x, y, z'
loop_
 _atom_site_type_symbol
 _atom_site_label
 _atom_site_symmetry_multiplicity
 _atom_site_fract_x
 _atom_site_fract_y
 _atom_site_fract_z
 _atom_site_occupancy
  K  K0  1  0.30651850  0.50000000  0.76956825  1
  K  K1  1  0.69348150  0.50000000  0.23043175  1
  K  K2  1  0.80651850  0.00000000  0.76956825  1
  K  K3  1  0.19348150  0.00000000  0.23043175  1
  Co  Co4  1  0.44913800  0.50000000  0.29523775  1
  Co  Co5  1  0.55086200  0.50000000  0.70476225  1
  Co  Co6  1  0.94913800  0.00000000  0.29523775  1
  Co  Co7  1  0.05086200  0.00000000  0.70476225  1
  O  O8  1  0.87901150  0.00000000  0.46821375  1
  O  O9  1  0.12098850  0.00000000  0.53178625  1
  O  O10  1  0.57914675  0.00000000  0.84605325  1
  O  O11  1  0.42085325  0.00000000  0.15394675  1
  O  O12  1  0.37901150  0.50000000  0.46821375  1
  O  O13  1  0.62098850  0.50000000  0.53178625  1
  O  O14  1  0.07914675  0.50000000  0.84605325  1
  O  O15  1  0.92085325  0.50000000  0.15394675  1
