# generated using pymatgen
data_Na4Cr2As(CO4)4
_symmetry_space_group_name_H-M   'P 1'
_cell_length_a   13.82755153
_cell_length_b   13.95572680
_cell_length_c   14.34473425
_cell_angle_alpha   90.00000000
_cell_angle_beta   90.00000000
_cell_angle_gamma   90.00000000
_symmetry_Int_Tables_number   1
_chemical_formula_structural   Na4Cr2As(CO4)4
_chemical_formula_sum   'Na32 Cr16 As8 C32 O128'
_cell_volume   2768.15402593
_cell_formula_units_Z   8
loop_
 _symmetry_equiv_pos_site_id
 _symmetry_equiv_pos_as_xyz
  1  'x, y, z'
loop_
 _atom_site_type_symbol
 _atom_site_label
 _atom_site_symmetry_multiplicity
 _atom_site_fract_x
 _atom_site_fract_y
 _atom_site_fract_z
 _atom_site_occupancy
  Na  Na0  1  0.75000000  0.53644850  0.75000000  1
  Na  Na1  1  0.03655400  0.25000000  0.75000000  1
  Na  Na2  1  0.78655400  0.50000000  0.00000000  1
  Na  Na3  1  0.50000000  0.78644850  0.00000000  1
  Na  Na4  1  0.25000000  0.46355150  0.75000000  1
  Na  Na5  1  0.96344600  0.75000000  0.75000000  1
  Na  Na6  1  0.71344600  0.00000000  0.00000000  1
  Na  Na7  1  0.00000000  0.71355150  0.00000000  1
  Na  Na8  1  0.75000000  0.03644850  0.25000000  1
  Na  Na9  1  0.03655400  0.75000000  0.25000000  1
  Na  Na10  1  0.78655400  0.00000000  0.50000000  1
  Na  Na11  1  0.50000000  0.28644850  0.50000000  1
  Na  Na12  1  0.25000000  0.96355150  0.25000000  1
  Na  Na13  1  0.96344600  0.25000000  0.25000000  1
  Na  Na14  1  0.71344600  0.50000000  0.50000000  1
  Na  Na15  1  0.00000000  0.21355150  0.50000000  1
  Na  Na16  1  0.25000000  0.53644850  0.25000000  1
  Na  Na17  1  0.53655400  0.25000000  0.25000000  1
  Na  Na18  1  0.28655400  0.50000000  0.50000000  1
  Na  Na19  1  0.00000000  0.78644850  0.50000000  1
  Na  Na20  1  0.75000000  0.46355150  0.25000000  1
  Na  Na21  1  0.46344600  0.75000000  0.25000000  1
  Na  Na22  1  0.21344600  0.00000000  0.50000000  1
  Na  Na23  1  0.50000000  0.71355150  0.50000000  1
  Na  Na24  1  0.25000000  0.03644850  0.75000000  1
  Na  Na25  1  0.53655400  0.75000000  0.75000000  1
  Na  Na26  1  0.28655400  0.00000000  0.00000000  1
  Na  Na27  1  0.00000000  0.28644850  0.00000000  1
  Na  Na28  1  0.75000000  0.96355150  0.75000000  1
  Na  Na29  1  0.46344600  0.25000000  0.75000000  1
  Na  Na30  1  0.21344600  0.50000000  0.00000000  1
  Na  Na31  1  0.50000000  0.21355150  0.00000000  1
  Cr  Cr32  1  0.87500000  0.37500000  0.62500000  1
  Cr  Cr33  1  0.12500000  0.62500000  0.62500000  1
  Cr  Cr34  1  0.62500000  0.37500000  0.87500000  1
  Cr  Cr35  1  0.37500000  0.62500000  0.87500000  1
  Cr  Cr36  1  0.87500000  0.87500000  0.12500000  1
  Cr  Cr37  1  0.12500000  0.12500000  0.12500000  1
  Cr  Cr38  1  0.62500000  0.87500000  0.37500000  1
  Cr  Cr39  1  0.37500000  0.12500000  0.37500000  1
  Cr  Cr40  1  0.37500000  0.37500000  0.12500000  1
  Cr  Cr41  1  0.62500000  0.62500000  0.12500000  1
  Cr  Cr42  1  0.12500000  0.37500000  0.37500000  1
  Cr  Cr43  1  0.87500000  0.62500000  0.37500000  1
  Cr  Cr44  1  0.37500000  0.87500000  0.62500000  1
  Cr  Cr45  1  0.62500000  0.12500000  0.62500000  1
  Cr  Cr46  1  0.12500000  0.87500000  0.87500000  1
  Cr  Cr47  1  0.87500000  0.12500000  0.87500000  1
  As  As48  1  0.00000000  0.50000000  0.00000000  1
  As  As49  1  0.75000000  0.75000000  0.75000000  1
  As  As50  1  0.00000000  0.00000000  0.50000000  1
  As  As51  1  0.75000000  0.25000000  0.25000000  1
  As  As52  1  0.50000000  0.50000000  0.50000000  1
  As  As53  1  0.25000000  0.75000000  0.25000000  1
  As  As54  1  0.50000000  0.00000000  0.00000000  1
  As  As55  1  0.25000000  0.25000000  0.75000000  1
  C  C56  1  0.58888200  0.58710250  0.91602650  1
  C  C57  1  0.83888200  0.33710250  0.83397350  1
  C  C58  1  0.41111800  0.58710250  0.08397350  1
  C  C59  1  0.58888200  0.41289750  0.08397350  1
  C  C60  1  0.16111800  0.83710250  0.66602650  1
  C  C61  1  0.33888200  0.66289750  0.66602650  1
  C  C62  1  0.91111800  0.91289750  0.91602650  1
  C  C63  1  0.16111800  0.66289750  0.83397350  1
  C  C64  1  0.58888200  0.08710250  0.41602650  1
  C  C65  1  0.83888200  0.83710250  0.33397350  1
  C  C66  1  0.41111800  0.08710250  0.58397350  1
  C  C67  1  0.58888200  0.91289750  0.58397350  1
  C  C68  1  0.16111800  0.33710250  0.16602650  1
  C  C69  1  0.33888200  0.16289750  0.16602650  1
  C  C70  1  0.91111800  0.41289750  0.41602650  1
  C  C71  1  0.16111800  0.16289750  0.33397350  1
  C  C72  1  0.08888200  0.58710250  0.41602650  1
  C  C73  1  0.33888200  0.33710250  0.33397350  1
  C  C74  1  0.91111800  0.58710250  0.58397350  1
  C  C75  1  0.08888200  0.41289750  0.58397350  1
  C  C76  1  0.66111800  0.83710250  0.16602650  1
  C  C77  1  0.83888200  0.66289750  0.16602650  1
  C  C78  1  0.41111800  0.91289750  0.41602650  1
  C  C79  1  0.66111800  0.66289750  0.33397350  1
  C  C80  1  0.08888200  0.08710250  0.91602650  1
  C  C81  1  0.33888200  0.83710250  0.83397350  1
  C  C82  1  0.91111800  0.08710250  0.08397350  1
  C  C83  1  0.08888200  0.91289750  0.08397350  1
  C  C84  1  0.66111800  0.33710250  0.66602650  1
  C  C85  1  0.83888200  0.16289750  0.66602650  1
  C  C86  1  0.41111800  0.41289750  0.91602650  1
  C  C87  1  0.66111800  0.16289750  0.83397350  1
  O  O88  1  0.60573650  0.51814600  0.85796050  1
  O  O89  1  0.92621900  0.57395600  0.93525300  1
  O  O90  1  0.64462200  0.60000200  0.98715300  1
  O  O91  1  0.89462200  0.35000200  0.76284700  1
  O  O92  1  0.35537800  0.60000200  0.01284700  1
  O  O93  1  0.76844500  0.39714150  0.85024250  1
  O  O94  1  0.07378100  0.57395600  0.06474700  1
  O  O95  1  0.07378100  0.42604400  0.93525300  1
  O  O96  1  0.26844500  0.60285850  0.64975750  1
  O  O97  1  0.64462200  0.39999800  0.01284700  1
  O  O98  1  0.85573650  0.26814600  0.89203950  1
  O  O99  1  0.92621900  0.42604400  0.06474700  1
  O  O100  1  0.89426350  0.51814600  0.64203950  1
  O  O101  1  0.10573650  0.48185400  0.64203950  1
  O  O102  1  0.51844500  0.64714150  0.89975750  1
  O  O103  1  0.23155500  0.89714150  0.64975750  1
  O  O104  1  0.51844500  0.35285850  0.10024250  1
  O  O105  1  0.23155500  0.60285850  0.85024250  1
  O  O106  1  0.64426350  0.76814600  0.10796050  1
  O  O107  1  0.85573650  0.73185400  0.10796050  1
  O  O108  1  0.82378100  0.82395600  0.68525300  1
  O  O109  1  0.89426350  0.98185400  0.85796050  1
  O  O110  1  0.10537800  0.85000200  0.73715300  1
  O  O111  1  0.48155500  0.64714150  0.10024250  1
  O  O112  1  0.67621900  0.82395600  0.81474700  1
  O  O113  1  0.67621900  0.67604400  0.68525300  1
  O  O114  1  0.98155500  0.85285850  0.89975750  1
  O  O115  1  0.39462200  0.64999800  0.73715300  1
  O  O116  1  0.85537800  0.89999800  0.98715300  1
  O  O117  1  0.10537800  0.64999800  0.76284700  1
  O  O118  1  0.82378100  0.67604400  0.81474700  1
  O  O119  1  0.14426350  0.73185400  0.89203950  1
  O  O120  1  0.60573650  0.01814600  0.35796050  1
  O  O121  1  0.92621900  0.07395600  0.43525300  1
  O  O122  1  0.64462200  0.10000200  0.48715300  1
  O  O123  1  0.89462200  0.85000200  0.26284700  1
  O  O124  1  0.35537800  0.10000200  0.51284700  1
  O  O125  1  0.76844500  0.89714150  0.35024250  1
  O  O126  1  0.07378100  0.07395600  0.56474700  1
  O  O127  1  0.07378100  0.92604400  0.43525300  1
  O  O128  1  0.26844500  0.10285850  0.14975750  1
  O  O129  1  0.64462200  0.89999800  0.51284700  1
  O  O130  1  0.85573650  0.76814600  0.39203950  1
  O  O131  1  0.92621900  0.92604400  0.56474700  1
  O  O132  1  0.89426350  0.01814600  0.14203950  1
  O  O133  1  0.10573650  0.98185400  0.14203950  1
  O  O134  1  0.51844500  0.14714150  0.39975750  1
  O  O135  1  0.23155500  0.39714150  0.14975750  1
  O  O136  1  0.51844500  0.85285850  0.60024250  1
  O  O137  1  0.23155500  0.10285850  0.35024250  1
  O  O138  1  0.64426350  0.26814600  0.60796050  1
  O  O139  1  0.85573650  0.23185400  0.60796050  1
  O  O140  1  0.82378100  0.32395600  0.18525300  1
  O  O141  1  0.89426350  0.48185400  0.35796050  1
  O  O142  1  0.10537800  0.35000200  0.23715300  1
  O  O143  1  0.48155500  0.14714150  0.60024250  1
  O  O144  1  0.67621900  0.32395600  0.31474700  1
  O  O145  1  0.67621900  0.17604400  0.18525300  1
  O  O146  1  0.98155500  0.35285850  0.39975750  1
  O  O147  1  0.39462200  0.14999800  0.23715300  1
  O  O148  1  0.85537800  0.39999800  0.48715300  1
  O  O149  1  0.10537800  0.14999800  0.26284700  1
  O  O150  1  0.82378100  0.17604400  0.31474700  1
  O  O151  1  0.14426350  0.23185400  0.39203950  1
  O  O152  1  0.10573650  0.51814600  0.35796050  1
  O  O153  1  0.42621900  0.57395600  0.43525300  1
  O  O154  1  0.14462200  0.60000200  0.48715300  1
  O  O155  1  0.39462200  0.35000200  0.26284700  1
  O  O156  1  0.85537800  0.60000200  0.51284700  1
  O  O157  1  0.26844500  0.39714150  0.35024250  1
  O  O158  1  0.57378100  0.57395600  0.56474700  1
  O  O159  1  0.57378100  0.42604400  0.43525300  1
  O  O160  1  0.76844500  0.60285850  0.14975750  1
  O  O161  1  0.14462200  0.39999800  0.51284700  1
  O  O162  1  0.35573650  0.26814600  0.39203950  1
  O  O163  1  0.42621900  0.42604400  0.56474700  1
  O  O164  1  0.39426350  0.51814600  0.14203950  1
  O  O165  1  0.60573650  0.48185400  0.14203950  1
  O  O166  1  0.01844500  0.64714150  0.39975750  1
  O  O167  1  0.73155500  0.89714150  0.14975750  1
  O  O168  1  0.01844500  0.35285850  0.60024250  1
  O  O169  1  0.73155500  0.60285850  0.35024250  1
  O  O170  1  0.14426350  0.76814600  0.60796050  1
  O  O171  1  0.35573650  0.73185400  0.60796050  1
  O  O172  1  0.32378100  0.82395600  0.18525300  1
  O  O173  1  0.39426350  0.98185400  0.35796050  1
  O  O174  1  0.60537800  0.85000200  0.23715300  1
  O  O175  1  0.98155500  0.64714150  0.60024250  1
  O  O176  1  0.17621900  0.82395600  0.31474700  1
  O  O177  1  0.17621900  0.67604400  0.18525300  1
  O  O178  1  0.48155500  0.85285850  0.39975750  1
  O  O179  1  0.89462200  0.64999800  0.23715300  1
  O  O180  1  0.35537800  0.89999800  0.48715300  1
  O  O181  1  0.60537800  0.64999800  0.26284700  1
  O  O182  1  0.32378100  0.67604400  0.31474700  1
  O  O183  1  0.64426350  0.73185400  0.39203950  1
  O  O184  1  0.10573650  0.01814600  0.85796050  1
  O  O185  1  0.42621900  0.07395600  0.93525300  1
  O  O186  1  0.14462200  0.10000200  0.98715300  1
  O  O187  1  0.39462200  0.85000200  0.76284700  1
  O  O188  1  0.85537800  0.10000200  0.01284700  1
  O  O189  1  0.26844500  0.89714150  0.85024250  1
  O  O190  1  0.57378100  0.07395600  0.06474700  1
  O  O191  1  0.57378100  0.92604400  0.93525300  1
  O  O192  1  0.76844500  0.10285850  0.64975750  1
  O  O193  1  0.14462200  0.89999800  0.01284700  1
  O  O194  1  0.35573650  0.76814600  0.89203950  1
  O  O195  1  0.42621900  0.92604400  0.06474700  1
  O  O196  1  0.39426350  0.01814600  0.64203950  1
  O  O197  1  0.60573650  0.98185400  0.64203950  1
  O  O198  1  0.01844500  0.14714150  0.89975750  1
  O  O199  1  0.73155500  0.39714150  0.64975750  1
  O  O200  1  0.01844500  0.85285850  0.10024250  1
  O  O201  1  0.73155500  0.10285850  0.85024250  1
  O  O202  1  0.14426350  0.26814600  0.10796050  1
  O  O203  1  0.35573650  0.23185400  0.10796050  1
  O  O204  1  0.32378100  0.32395600  0.68525300  1
  O  O205  1  0.39426350  0.48185400  0.85796050  1
  O  O206  1  0.60537800  0.35000200  0.73715300  1
  O  O207  1  0.98155500  0.14714150  0.10024250  1
  O  O208  1  0.17621900  0.32395600  0.81474700  1
  O  O209  1  0.17621900  0.17604400  0.68525300  1
  O  O210  1  0.48155500  0.35285850  0.89975750  1
  O  O211  1  0.89462200  0.14999800  0.73715300  1
  O  O212  1  0.35537800  0.39999800  0.98715300  1
  O  O213  1  0.60537800  0.14999800  0.76284700  1
  O  O214  1  0.32378100  0.17604400  0.81474700  1
  O  O215  1  0.64426350  0.23185400  0.89203950  1
