# generated using pymatgen
data_Li3Fe5(CoO6)2
_symmetry_space_group_name_H-M   'P 1'
_cell_length_a   5.05225200
_cell_length_b   8.96664600
_cell_length_c   9.83422496
_cell_angle_alpha   90.00000000
_cell_angle_beta   100.71151920
_cell_angle_gamma   90.00000000
_symmetry_Int_Tables_number   1
_chemical_formula_structural   Li3Fe5(CoO6)2
_chemical_formula_sum   'Li6 Fe10 Co4 O24'
_cell_volume   437.74488054
_cell_formula_units_Z   2
loop_
 _symmetry_equiv_pos_site_id
 _symmetry_equiv_pos_as_xyz
  1  'x, y, z'
loop_
 _atom_site_type_symbol
 _atom_site_label
 _atom_site_symmetry_multiplicity
 _atom_site_fract_x
 _atom_site_fract_y
 _atom_site_fract_z
 _atom_site_occupancy
  Li  Li0  1  0.26151400  0.58868400  0.25858900  1
  Li  Li1  1  0.73848600  0.58868400  0.74141100  1
  Li  Li2  1  0.00000000  0.92058300  0.50000000  1
  Li  Li3  1  0.76151400  0.08868400  0.25858900  1
  Li  Li4  1  0.23848600  0.08868400  0.74141100  1
  Li  Li5  1  0.50000000  0.42058300  0.50000000  1
  Fe  Fe6  1  0.50000000  0.57878600  0.00000000  1
  Fe  Fe7  1  0.76931200  0.75622900  0.26546900  1
  Fe  Fe8  1  0.23068800  0.75622900  0.73453100  1
  Fe  Fe9  1  0.50000000  0.91602700  0.00000000  1
  Fe  Fe10  1  0.00000000  0.56787600  0.50000000  1
  Fe  Fe11  1  0.00000000  0.07878600  0.00000000  1
  Fe  Fe12  1  0.26931200  0.25622900  0.26546900  1
  Fe  Fe13  1  0.73068800  0.25622900  0.73453100  1
  Fe  Fe14  1  0.00000000  0.41602700  0.00000000  1
  Fe  Fe15  1  0.50000000  0.06787600  0.50000000  1
  Co  Co16  1  0.50000000  0.75448400  0.50000000  1
  Co  Co17  1  0.00000000  0.75154400  0.00000000  1
  Co  Co18  1  0.00000000  0.25448400  0.50000000  1
  Co  Co19  1  0.50000000  0.25154400  0.00000000  1
  O  O20  1  0.62436650  0.74530550  0.88804800  1
  O  O21  1  0.37563350  0.74530550  0.11195200  1
  O  O22  1  0.63678500  0.90989800  0.38116800  1
  O  O23  1  0.86768850  0.90642950  0.11290300  1
  O  O24  1  0.36321500  0.90989800  0.61883200  1
  O  O25  1  0.36685100  0.60065000  0.62339100  1
  O  O26  1  0.11960750  0.59924550  0.88865900  1
  O  O27  1  0.13231150  0.90642950  0.88709700  1
  O  O28  1  0.12621150  0.73411050  0.38271900  1
  O  O29  1  0.63314900  0.60065000  0.37660900  1
  O  O30  1  0.88039250  0.59924550  0.11134100  1
  O  O31  1  0.87378850  0.73411050  0.61728100  1
  O  O32  1  0.12436650  0.24530550  0.88804800  1
  O  O33  1  0.87563350  0.24530550  0.11195200  1
  O  O34  1  0.13678500  0.40989800  0.38116800  1
  O  O35  1  0.36768850  0.40642950  0.11290300  1
  O  O36  1  0.86321500  0.40989800  0.61883200  1
  O  O37  1  0.86685100  0.10065000  0.62339100  1
  O  O38  1  0.61960750  0.09924550  0.88865900  1
  O  O39  1  0.63231150  0.40642950  0.88709700  1
  O  O40  1  0.62621150  0.23411050  0.38271900  1
  O  O41  1  0.13314900  0.10065000  0.37660900  1
  O  O42  1  0.38039250  0.09924550  0.11134100  1
  O  O43  1  0.37378850  0.23411050  0.61728100  1
