# generated using pymatgen
data_LiVF4
_symmetry_space_group_name_H-M   'P 1'
_cell_length_a   12.71439400
_cell_length_b   4.07900200
_cell_length_c   6.64613942
_cell_angle_alpha   90.00000000
_cell_angle_beta   107.04598921
_cell_angle_gamma   90.00000000
_symmetry_Int_Tables_number   1
_chemical_formula_structural   LiVF4
_chemical_formula_sum   'Li4 V4 F16'
_cell_volume   329.54036511
_cell_formula_units_Z   4
loop_
 _symmetry_equiv_pos_site_id
 _symmetry_equiv_pos_as_xyz
  1  'x, y, z'
loop_
 _atom_site_type_symbol
 _atom_site_label
 _atom_site_symmetry_multiplicity
 _atom_site_fract_x
 _atom_site_fract_y
 _atom_site_fract_z
 _atom_site_occupancy
  Li  Li0  1  0.41261200  0.50000000  0.29582800  1
  Li  Li1  1  0.08738800  0.00000000  0.70417200  1
  Li  Li2  1  0.91261200  0.00000000  0.29582800  1
  Li  Li3  1  0.58738800  0.50000000  0.70417200  1
  V  V4  1  0.29610000  0.50000000  0.70197400  1
  V  V5  1  0.20390000  0.00000000  0.29802600  1
  V  V6  1  0.79610000  0.00000000  0.70197400  1
  V  V7  1  0.70390000  0.50000000  0.29802600  1
  F  F8  1  0.42818800  0.50000000  0.61666800  1
  F  F9  1  0.36197800  0.50000000  0.99021300  1
  F  F10  1  0.27625300  0.00000000  0.64205700  1
  F  F11  1  0.35290500  0.00000000  0.29580300  1
  F  F12  1  0.14709500  0.50000000  0.70419700  1
  F  F13  1  0.22374700  0.50000000  0.35794300  1
  F  F14  1  0.13802200  0.00000000  0.00978700  1
  F  F15  1  0.07181200  0.00000000  0.38333200  1
  F  F16  1  0.92818800  0.00000000  0.61666800  1
  F  F17  1  0.86197800  0.00000000  0.99021300  1
  F  F18  1  0.77625300  0.50000000  0.64205700  1
  F  F19  1  0.85290500  0.50000000  0.29580300  1
  F  F20  1  0.64709500  0.00000000  0.70419700  1
  F  F21  1  0.72374700  0.00000000  0.35794300  1
  F  F22  1  0.63802200  0.50000000  0.00978700  1
  F  F23  1  0.57181200  0.50000000  0.38333200  1
