# generated using pymatgen
data_Co2Ni3Sb(PO4)6
_symmetry_space_group_name_H-M   'P 1'
_cell_length_a   8.66509875
_cell_length_b   8.66509875
_cell_length_c   20.50722696
_cell_angle_alpha   90.00000000
_cell_angle_beta   90.00000000
_cell_angle_gamma   120.00000000
_symmetry_Int_Tables_number   1
_chemical_formula_structural   Co2Ni3Sb(PO4)6
_chemical_formula_sum   'Co6 Ni9 Sb3 P18 O72'
_cell_volume   1333.47415424
_cell_formula_units_Z   3
loop_
 _symmetry_equiv_pos_site_id
 _symmetry_equiv_pos_as_xyz
  1  'x, y, z'
loop_
 _atom_site_type_symbol
 _atom_site_label
 _atom_site_symmetry_multiplicity
 _atom_site_fract_x
 _atom_site_fract_y
 _atom_site_fract_z
 _atom_site_occupancy
  Co  Co0  1  0.33333333  0.66666667  0.67618900  1
  Co  Co1  1  0.33333333  0.66666667  0.16620333  1
  Co  Co2  1  0.00000000  0.00000000  0.00952233  1
  Co  Co3  1  0.00000000  0.00000000  0.49953667  1
  Co  Co4  1  0.66666667  0.33333333  0.34285567  1
  Co  Co5  1  0.66666667  0.33333333  0.83287000  1
  Ni  Ni6  1  0.33333333  0.66666667  0.02339800  1
  Ni  Ni7  1  0.33333333  0.66666667  0.81167800  1
  Ni  Ni8  1  0.33333333  0.66666667  0.30784467  1
  Ni  Ni9  1  0.00000000  0.00000000  0.35673133  1
  Ni  Ni10  1  0.00000000  0.00000000  0.14501133  1
  Ni  Ni11  1  0.00000000  0.00000000  0.64117800  1
  Ni  Ni12  1  0.66666667  0.33333333  0.69006467  1
  Ni  Ni13  1  0.66666667  0.33333333  0.47834467  1
  Ni  Ni14  1  0.66666667  0.33333333  0.97451133  1
  Sb  Sb15  1  0.33333333  0.66666667  0.52472167  1
  Sb  Sb16  1  0.00000000  0.00000000  0.85805500  1
  Sb  Sb17  1  0.66666667  0.33333333  0.19138833  1
  P  P18  1  0.96532000  0.62870500  0.08145200  1
  P  P19  1  0.37129500  0.33661500  0.08145200  1
  P  P20  1  0.66338500  0.03468000  0.08145200  1
  P  P21  1  0.00626433  0.29727667  0.24911067  1
  P  P22  1  0.29101233  0.99373567  0.24911067  1
  P  P23  1  0.70272333  0.70898767  0.24911067  1
  P  P24  1  0.63198667  0.96203833  0.41478533  1
  P  P25  1  0.03796167  0.66994833  0.41478533  1
  P  P26  1  0.33005167  0.36801333  0.41478533  1
  P  P27  1  0.67293100  0.63061000  0.58244400  1
  P  P28  1  0.95767900  0.32706900  0.58244400  1
  P  P29  1  0.36939000  0.04232100  0.58244400  1
  P  P30  1  0.29865333  0.29537167  0.74811867  1
  P  P31  1  0.70462833  0.00328167  0.74811867  1
  P  P32  1  0.99671833  0.70134667  0.74811867  1
  P  P33  1  0.33959767  0.96394333  0.91577733  1
  P  P34  1  0.62434567  0.66040233  0.91577733  1
  P  P35  1  0.03605667  0.37565433  0.91577733  1
  O  O36  1  0.14012667  0.67638933  0.35554433  1
  O  O37  1  0.32361067  0.46373733  0.35554433  1
  O  O38  1  0.53626267  0.85987333  0.35554433  1
  O  O39  1  0.98719667  0.81892933  0.07396533  1
  O  O40  1  0.86295067  0.53564433  0.14625033  1
  O  O41  1  0.15327667  0.65318033  0.09509833  1
  O  O42  1  0.18107067  0.16826733  0.07396533  1
  O  O43  1  0.34681967  0.50009633  0.09509833  1
  O  O44  1  0.99542900  0.20010700  0.18685700  1
  O  O45  1  0.49990367  0.84672333  0.09509833  1
  O  O46  1  0.83190733  0.32194067  0.25874667  1
  O  O47  1  0.20467800  0.00457100  0.18685700  1
  O  O48  1  0.46435567  0.32730633  0.14625033  1
  O  O49  1  0.83173267  0.01280333  0.07396533  1
  O  O50  1  0.16626867  0.49015833  0.23825733  1
  O  O51  1  0.67269367  0.13704933  0.14625033  1
  O  O52  1  0.32388967  0.83373133  0.23825733  1
  O  O53  1  0.49003333  0.16809267  0.25874667  1
  O  O54  1  0.50984167  0.67611033  0.23825733  1
  O  O55  1  0.79989300  0.79532200  0.18685700  1
  O  O56  1  0.67805933  0.50996667  0.25874667  1
  O  O57  1  0.12703333  0.46558667  0.97803967  1
  O  O58  1  0.33855333  0.87296667  0.97803967  1
  O  O59  1  0.53441333  0.66144667  0.97803967  1
  O  O60  1  0.80679333  0.00972267  0.68887767  1
  O  O61  1  0.99027733  0.79707067  0.68887767  1
  O  O62  1  0.20292933  0.19320667  0.68887767  1
  O  O63  1  0.65386333  0.15226267  0.40729867  1
  O  O64  1  0.52961733  0.86897767  0.47958367  1
  O  O65  1  0.81994333  0.98651367  0.42843167  1
  O  O66  1  0.84773733  0.50160067  0.40729867  1
  O  O67  1  0.01348633  0.83342967  0.42843167  1
  O  O68  1  0.66209567  0.53344033  0.52019033  1
  O  O69  1  0.16657033  0.18005667  0.42843167  1
  O  O70  1  0.49857400  0.65527400  0.59208000  1
  O  O71  1  0.87134467  0.33790433  0.52019033  1
  O  O72  1  0.13102233  0.66063967  0.47958367  1
  O  O73  1  0.49839933  0.34613667  0.40729867  1
  O  O74  1  0.83293533  0.82349167  0.57159067  1
  O  O75  1  0.33936033  0.47038267  0.47958367  1
  O  O76  1  0.99055633  0.16706467  0.57159067  1
  O  O77  1  0.15670000  0.50142600  0.59208000  1
  O  O78  1  0.17650833  0.00944367  0.57159067  1
  O  O79  1  0.46655967  0.12865533  0.52019033  1
  O  O80  1  0.34472600  0.84330000  0.59208000  1
  O  O81  1  0.79370000  0.79892000  0.31137300  1
  O  O82  1  0.00522000  0.20630000  0.31137300  1
  O  O83  1  0.20108000  0.99478000  0.31137300  1
  O  O84  1  0.47346000  0.34305600  0.02221100  1
  O  O85  1  0.65694400  0.13040400  0.02221100  1
  O  O86  1  0.86959600  0.52654000  0.02221100  1
  O  O87  1  0.32053000  0.48559600  0.74063200  1
  O  O88  1  0.19628400  0.20231100  0.81291700  1
  O  O89  1  0.48661000  0.31984700  0.76176500  1
  O  O90  1  0.51440400  0.83493400  0.74063200  1
  O  O91  1  0.68015300  0.16676300  0.76176500  1
  O  O92  1  0.32876233  0.86677367  0.85352367  1
  O  O93  1  0.83323700  0.51339000  0.76176500  1
  O  O94  1  0.16524067  0.98860733  0.92541333  1
  O  O95  1  0.53801133  0.67123767  0.85352367  1
  O  O96  1  0.79768900  0.99397300  0.81291700  1
  O  O97  1  0.16506600  0.67947000  0.74063200  1
  O  O98  1  0.49960200  0.15682500  0.90492400  1
  O  O99  1  0.00602700  0.80371600  0.81291700  1
  O  O100  1  0.65722300  0.50039800  0.90492400  1
  O  O101  1  0.82336667  0.83475933  0.92541333  1
  O  O102  1  0.84317500  0.34277700  0.90492400  1
  O  O103  1  0.13322633  0.46198867  0.85352367  1
  O  O104  1  0.01139267  0.17663333  0.92541333  1
  O  O105  1  0.46036667  0.13225333  0.64470633  1
  O  O106  1  0.67188667  0.53963333  0.64470633  1
  O  O107  1  0.86774667  0.32811333  0.64470633  1
