# generated using pymatgen
data_Li3CrCo3O8
_symmetry_space_group_name_H-M   'P 1'
_cell_length_a   10.13864827
_cell_length_b   5.83164402
_cell_length_c   5.89753322
_cell_angle_alpha   90.00000000
_cell_angle_beta   124.56397778
_cell_angle_gamma   90.00000000
_symmetry_Int_Tables_number   1
_chemical_formula_structural   Li3CrCo3O8
_chemical_formula_sum   'Li6 Cr2 Co6 O16'
_cell_volume   287.14514836
_cell_formula_units_Z   2
loop_
 _symmetry_equiv_pos_site_id
 _symmetry_equiv_pos_as_xyz
  1  'x, y, z'
loop_
 _atom_site_type_symbol
 _atom_site_label
 _atom_site_symmetry_multiplicity
 _atom_site_fract_x
 _atom_site_fract_y
 _atom_site_fract_z
 _atom_site_occupancy
  Li  Li0  1  0.50000000  0.00000000  0.00000000  1
  Li  Li1  1  0.75000000  0.75000000  0.00000000  1
  Li  Li2  1  0.75000000  0.25000000  0.00000000  1
  Li  Li3  1  0.00000000  0.50000000  0.00000000  1
  Li  Li4  1  0.25000000  0.25000000  0.00000000  1
  Li  Li5  1  0.25000000  0.75000000  0.00000000  1
  Cr  Cr6  1  0.00000000  0.00000000  0.50000000  1
  Cr  Cr7  1  0.50000000  0.50000000  0.50000000  1
  Co  Co8  1  0.50000000  0.00000000  0.50000000  1
  Co  Co9  1  0.75000000  0.75000000  0.50000000  1
  Co  Co10  1  0.75000000  0.25000000  0.50000000  1
  Co  Co11  1  0.00000000  0.50000000  0.50000000  1
  Co  Co12  1  0.25000000  0.25000000  0.50000000  1
  Co  Co13  1  0.25000000  0.75000000  0.50000000  1
  O  O14  1  0.77482450  0.50000000  0.28536500  1
  O  O15  1  0.72517550  0.00000000  0.71463500  1
  O  O16  1  0.74361275  0.50000000  0.72332150  1
  O  O17  1  0.75638725  0.00000000  0.27667850  1
  O  O18  1  0.50698250  0.23649250  0.28523200  1
  O  O19  1  0.99301750  0.73649250  0.71476800  1
  O  O20  1  0.50698250  0.76350750  0.28523200  1
  O  O21  1  0.99301750  0.26350750  0.71476800  1
  O  O22  1  0.27482450  0.00000000  0.28536500  1
  O  O23  1  0.22517550  0.50000000  0.71463500  1
  O  O24  1  0.24361275  0.00000000  0.72332150  1
  O  O25  1  0.25638725  0.50000000  0.27667850  1
  O  O26  1  0.00698250  0.73649250  0.28523200  1
  O  O27  1  0.49301750  0.23649250  0.71476800  1
  O  O28  1  0.00698250  0.26350750  0.28523200  1
  O  O29  1  0.49301750  0.76350750  0.71476800  1
