# generated using pymatgen
data_Na2MnO3
_symmetry_space_group_name_H-M   'P 1'
_cell_length_a   6.42283000
_cell_length_b   8.84991200
_cell_length_c   18.26045800
_cell_angle_alpha   90.00000000
_cell_angle_beta   90.00000000
_cell_angle_gamma   90.00000000
_symmetry_Int_Tables_number   1
_chemical_formula_structural   Na2MnO3
_chemical_formula_sum   'Na32 Mn16 O48'
_cell_volume   1037.95146351
_cell_formula_units_Z   16
loop_
 _symmetry_equiv_pos_site_id
 _symmetry_equiv_pos_as_xyz
  1  'x, y, z'
loop_
 _atom_site_type_symbol
 _atom_site_label
 _atom_site_symmetry_multiplicity
 _atom_site_fract_x
 _atom_site_fract_y
 _atom_site_fract_z
 _atom_site_occupancy
  Na  Na0  1  0.75000000  0.25000000  0.49396100  1
  Na  Na1  1  0.00000000  0.00000000  0.42140600  1
  Na  Na2  1  0.75000000  0.25000000  0.32859400  1
  Na  Na3  1  0.00000000  0.00000000  0.25603900  1
  Na  Na4  1  0.50000000  0.00000000  0.24396100  1
  Na  Na5  1  0.75000000  0.25000000  0.17140600  1
  Na  Na6  1  0.50000000  0.00000000  0.07859400  1
  Na  Na7  1  0.75000000  0.25000000  0.00603900  1
  Na  Na8  1  0.75000000  0.75000000  0.99396100  1
  Na  Na9  1  0.00000000  0.50000000  0.92140600  1
  Na  Na10  1  0.75000000  0.75000000  0.82859400  1
  Na  Na11  1  0.00000000  0.50000000  0.75603900  1
  Na  Na12  1  0.50000000  0.50000000  0.74396100  1
  Na  Na13  1  0.75000000  0.75000000  0.67140600  1
  Na  Na14  1  0.50000000  0.50000000  0.57859400  1
  Na  Na15  1  0.75000000  0.75000000  0.50603900  1
  Na  Na16  1  0.25000000  0.25000000  0.99396100  1
  Na  Na17  1  0.50000000  0.00000000  0.92140600  1
  Na  Na18  1  0.25000000  0.25000000  0.82859400  1
  Na  Na19  1  0.50000000  0.00000000  0.75603900  1
  Na  Na20  1  0.00000000  0.00000000  0.74396100  1
  Na  Na21  1  0.25000000  0.25000000  0.67140600  1
  Na  Na22  1  0.00000000  0.00000000  0.57859400  1
  Na  Na23  1  0.25000000  0.25000000  0.50603900  1
  Na  Na24  1  0.25000000  0.75000000  0.49396100  1
  Na  Na25  1  0.50000000  0.50000000  0.42140600  1
  Na  Na26  1  0.25000000  0.75000000  0.32859400  1
  Na  Na27  1  0.50000000  0.50000000  0.25603900  1
  Na  Na28  1  0.00000000  0.50000000  0.24396100  1
  Na  Na29  1  0.25000000  0.75000000  0.17140600  1
  Na  Na30  1  0.00000000  0.50000000  0.07859400  1
  Na  Na31  1  0.25000000  0.75000000  0.00603900  1
  Mn  Mn32  1  0.50000000  0.00000000  0.41531200  1
  Mn  Mn33  1  0.75000000  0.75000000  0.33468800  1
  Mn  Mn34  1  0.75000000  0.75000000  0.16531200  1
  Mn  Mn35  1  0.00000000  0.00000000  0.08468800  1
  Mn  Mn36  1  0.50000000  0.50000000  0.91531200  1
  Mn  Mn37  1  0.75000000  0.25000000  0.83468800  1
  Mn  Mn38  1  0.75000000  0.25000000  0.66531200  1
  Mn  Mn39  1  0.00000000  0.50000000  0.58468800  1
  Mn  Mn40  1  0.00000000  0.00000000  0.91531200  1
  Mn  Mn41  1  0.25000000  0.75000000  0.83468800  1
  Mn  Mn42  1  0.25000000  0.75000000  0.66531200  1
  Mn  Mn43  1  0.50000000  0.00000000  0.58468800  1
  Mn  Mn44  1  0.00000000  0.50000000  0.41531200  1
  Mn  Mn45  1  0.25000000  0.25000000  0.33468800  1
  Mn  Mn46  1  0.25000000  0.25000000  0.16531200  1
  Mn  Mn47  1  0.50000000  0.50000000  0.08468800  1
  O  O48  1  0.97736800  0.72551300  0.40585300  1
  O  O49  1  0.02263200  0.27448700  0.40585300  1
  O  O50  1  0.27263200  0.02448700  0.34414700  1
  O  O51  1  0.72736800  0.97551300  0.34414700  1
  O  O52  1  0.94639200  0.75000000  0.25000000  1
  O  O53  1  0.55360800  0.75000000  0.25000000  1
  O  O54  1  0.77263200  0.97551300  0.15585300  1
  O  O55  1  0.22736800  0.02448700  0.15585300  1
  O  O56  1  0.47736800  0.27448700  0.09414700  1
  O  O57  1  0.52263200  0.72551300  0.09414700  1
  O  O58  1  0.80360800  0.00000000  0.00000000  1
  O  O59  1  0.19639200  0.00000000  0.00000000  1
  O  O60  1  0.97736800  0.22551300  0.90585300  1
  O  O61  1  0.02263200  0.77448700  0.90585300  1
  O  O62  1  0.27263200  0.52448700  0.84414700  1
  O  O63  1  0.72736800  0.47551300  0.84414700  1
  O  O64  1  0.94639200  0.25000000  0.75000000  1
  O  O65  1  0.55360800  0.25000000  0.75000000  1
  O  O66  1  0.77263200  0.47551300  0.65585300  1
  O  O67  1  0.22736800  0.52448700  0.65585300  1
  O  O68  1  0.47736800  0.77448700  0.59414700  1
  O  O69  1  0.52263200  0.22551300  0.59414700  1
  O  O70  1  0.80360800  0.50000000  0.50000000  1
  O  O71  1  0.19639200  0.50000000  0.50000000  1
  O  O72  1  0.47736800  0.72551300  0.90585300  1
  O  O73  1  0.52263200  0.27448700  0.90585300  1
  O  O74  1  0.77263200  0.02448700  0.84414700  1
  O  O75  1  0.22736800  0.97551300  0.84414700  1
  O  O76  1  0.44639200  0.75000000  0.75000000  1
  O  O77  1  0.05360800  0.75000000  0.75000000  1
  O  O78  1  0.27263200  0.97551300  0.65585300  1
  O  O79  1  0.72736800  0.02448700  0.65585300  1
  O  O80  1  0.97736800  0.27448700  0.59414700  1
  O  O81  1  0.02263200  0.72551300  0.59414700  1
  O  O82  1  0.30360800  0.00000000  0.50000000  1
  O  O83  1  0.69639200  0.00000000  0.50000000  1
  O  O84  1  0.47736800  0.22551300  0.40585300  1
  O  O85  1  0.52263200  0.77448700  0.40585300  1
  O  O86  1  0.77263200  0.52448700  0.34414700  1
  O  O87  1  0.22736800  0.47551300  0.34414700  1
  O  O88  1  0.44639200  0.25000000  0.25000000  1
  O  O89  1  0.05360800  0.25000000  0.25000000  1
  O  O90  1  0.27263200  0.47551300  0.15585300  1
  O  O91  1  0.72736800  0.52448700  0.15585300  1
  O  O92  1  0.97736800  0.77448700  0.09414700  1
  O  O93  1  0.02263200  0.22551300  0.09414700  1
  O  O94  1  0.30360800  0.50000000  0.00000000  1
  O  O95  1  0.69639200  0.50000000  0.00000000  1
