# generated using pymatgen
data_LiNbCoO4
_symmetry_space_group_name_H-M   'P 1'
_cell_length_a   6.04666894
_cell_length_b   6.20012900
_cell_length_c   8.76928201
_cell_angle_alpha   90.00000000
_cell_angle_beta   90.00000000
_cell_angle_gamma   90.00000000
_symmetry_Int_Tables_number   1
_chemical_formula_structural   LiNbCoO4
_chemical_formula_sum   'Li4 Nb4 Co4 O16'
_cell_volume   328.76149990
_cell_formula_units_Z   4
loop_
 _symmetry_equiv_pos_site_id
 _symmetry_equiv_pos_as_xyz
  1  'x, y, z'
loop_
 _atom_site_type_symbol
 _atom_site_label
 _atom_site_symmetry_multiplicity
 _atom_site_fract_x
 _atom_site_fract_y
 _atom_site_fract_z
 _atom_site_occupancy
  Li  Li0  1  0.50000000  0.75000000  0.64019800  1
  Li  Li1  1  0.50000000  0.25000000  0.35980200  1
  Li  Li2  1  0.00000000  0.25000000  0.14019800  1
  Li  Li3  1  0.00000000  0.75000000  0.85980200  1
  Nb  Nb4  1  0.50000000  0.00000000  0.00000000  1
  Nb  Nb5  1  0.00000000  0.00000000  0.50000000  1
  Nb  Nb6  1  0.00000000  0.50000000  0.50000000  1
  Nb  Nb7  1  0.50000000  0.50000000  0.00000000  1
  Co  Co8  1  0.75000000  0.25000000  0.75000000  1
  Co  Co9  1  0.25000000  0.25000000  0.75000000  1
  Co  Co10  1  0.25000000  0.75000000  0.25000000  1
  Co  Co11  1  0.75000000  0.75000000  0.25000000  1
  O  O12  1  0.50000000  0.02014000  0.77354550  1
  O  O13  1  0.00000000  0.97986000  0.27354550  1
  O  O14  1  0.00000000  0.02014000  0.72645450  1
  O  O15  1  0.50000000  0.97986000  0.22645450  1
  O  O16  1  0.22225700  0.75000000  0.50386800  1
  O  O17  1  0.77774300  0.75000000  0.50386800  1
  O  O18  1  0.77774300  0.25000000  0.49613200  1
  O  O19  1  0.22225700  0.25000000  0.49613200  1
  O  O20  1  0.00000000  0.52014000  0.27354550  1
  O  O21  1  0.50000000  0.47986000  0.77354550  1
  O  O22  1  0.50000000  0.52014000  0.22645450  1
  O  O23  1  0.00000000  0.47986000  0.72645450  1
  O  O24  1  0.72225700  0.25000000  0.00386800  1
  O  O25  1  0.27774300  0.25000000  0.00386800  1
  O  O26  1  0.27774300  0.75000000  0.99613200  1
  O  O27  1  0.72225700  0.75000000  0.99613200  1
