# generated using pymatgen
data_Li4Fe2Co3Sn3O16
_symmetry_space_group_name_H-M   'P 1'
_cell_length_a   10.34750813
_cell_length_b   6.03055410
_cell_length_c   9.62479821
_cell_angle_alpha   90.00000000
_cell_angle_beta   90.88148757
_cell_angle_gamma   90.00000000
_symmetry_Int_Tables_number   1
_chemical_formula_structural   Li4Fe2Co3Sn3O16
_chemical_formula_sum   'Li8 Fe4 Co6 Sn6 O32'
_cell_volume   600.52795305
_cell_formula_units_Z   2
loop_
 _symmetry_equiv_pos_site_id
 _symmetry_equiv_pos_as_xyz
  1  'x, y, z'
loop_
 _atom_site_type_symbol
 _atom_site_label
 _atom_site_symmetry_multiplicity
 _atom_site_fract_x
 _atom_site_fract_y
 _atom_site_fract_z
 _atom_site_occupancy
  Li  Li0  1  0.82856100  0.50000000  0.88484100  1
  Li  Li1  1  0.52565800  0.50000000  0.99200100  1
  Li  Li2  1  0.51814850  0.50000000  0.50265200  1
  Li  Li3  1  0.16679300  0.50000000  0.39788600  1
  Li  Li4  1  0.32856100  0.00000000  0.88484100  1
  Li  Li5  1  0.02565800  0.00000000  0.99200100  1
  Li  Li6  1  0.01814850  0.00000000  0.50265200  1
  Li  Li7  1  0.66679300  0.00000000  0.39788600  1
  Fe  Fe8  1  0.83532000  0.50000000  0.49670300  1
  Fe  Fe9  1  0.16500600  0.50000000  0.98870400  1
  Fe  Fe10  1  0.33532000  0.00000000  0.49670300  1
  Fe  Fe11  1  0.66500600  0.00000000  0.98870400  1
  Co  Co12  1  0.67468500  0.50000000  0.21578200  1
  Co  Co13  1  0.08888050  0.73902150  0.71420800  1
  Co  Co14  1  0.08888050  0.26097850  0.71420800  1
  Co  Co15  1  0.17468500  0.00000000  0.21578200  1
  Co  Co16  1  0.58888050  0.23902150  0.71420800  1
  Co  Co17  1  0.58888050  0.76097850  0.71420800  1
  Sn  Sn18  1  0.91913650  0.74118650  0.21506400  1
  Sn  Sn19  1  0.91913650  0.25881350  0.21506400  1
  Sn  Sn20  1  0.33494550  0.50000000  0.71491100  1
  Sn  Sn21  1  0.41913650  0.24118650  0.21506400  1
  Sn  Sn22  1  0.41913650  0.75881350  0.21506400  1
  Sn  Sn23  1  0.83494550  0.00000000  0.71491100  1
  O  O24  1  0.92727050  0.74988450  0.59758400  1
  O  O25  1  0.98622000  0.50000000  0.34844300  1
  O  O26  1  0.82735700  0.50000000  0.09983900  1
  O  O27  1  0.51544300  0.50000000  0.31579500  1
  O  O28  1  0.51593900  0.50000000  0.80692400  1
  O  O29  1  0.92727050  0.25011550  0.59758400  1
  O  O30  1  0.75669800  0.71187700  0.33981800  1
  O  O31  1  0.75669800  0.28812300  0.33981800  1
  O  O32  1  0.34402400  0.50000000  0.08652900  1
  O  O33  1  0.66873300  0.50000000  0.61255300  1
  O  O34  1  0.23617100  0.72044000  0.83942700  1
  O  O35  1  0.23617100  0.27956000  0.83942700  1
  O  O36  1  0.15994950  0.50000000  0.60906100  1
  O  O37  1  0.08966700  0.75161000  0.10006900  1
  O  O38  1  0.02342000  0.50000000  0.82541600  1
  O  O39  1  0.08966700  0.24839000  0.10006900  1
  O  O40  1  0.42727050  0.24988450  0.59758400  1
  O  O41  1  0.48622000  0.00000000  0.34844300  1
  O  O42  1  0.32735700  0.00000000  0.09983900  1
  O  O43  1  0.01544300  0.00000000  0.31579500  1
  O  O44  1  0.01593900  0.00000000  0.80692400  1
  O  O45  1  0.42727050  0.75011550  0.59758400  1
  O  O46  1  0.25669800  0.21187700  0.33981800  1
  O  O47  1  0.25669800  0.78812300  0.33981800  1
  O  O48  1  0.84402400  0.00000000  0.08652900  1
  O  O49  1  0.16873300  0.00000000  0.61255300  1
  O  O50  1  0.73617100  0.22044000  0.83942700  1
  O  O51  1  0.73617100  0.77956000  0.83942700  1
  O  O52  1  0.65994950  0.00000000  0.60906100  1
  O  O53  1  0.58966700  0.25161000  0.10006900  1
  O  O54  1  0.52342000  0.00000000  0.82541600  1
  O  O55  1  0.58966700  0.74839000  0.10006900  1
