# generated using pymatgen
data_MnPHO5
_symmetry_space_group_name_H-M   'P 1'
_cell_length_a   5.09742776
_cell_length_b   5.19049261
_cell_length_c   7.19182545
_cell_angle_alpha   109.53371325
_cell_angle_beta   106.23518770
_cell_angle_gamma   97.73309798
_symmetry_Int_Tables_number   1
_chemical_formula_structural   MnPHO5
_chemical_formula_sum   'Mn2 P2 H2 O10'
_cell_volume   166.62201068
_cell_formula_units_Z   2
loop_
 _symmetry_equiv_pos_site_id
 _symmetry_equiv_pos_as_xyz
  1  'x, y, z'
loop_
 _atom_site_type_symbol
 _atom_site_label
 _atom_site_symmetry_multiplicity
 _atom_site_fract_x
 _atom_site_fract_y
 _atom_site_fract_z
 _atom_site_occupancy
  Mn  Mn0  1  1.00000000  0.00000000  0.50000000  1
  Mn  Mn1  1  0.00000000  0.00000000  0.00000000  1
  P  P2  1  0.32353915  0.64899960  0.23135481  1
  P  P3  1  0.67646085  0.35100040  0.76864519  1
  H  H4  1  0.64975983  0.96569194  0.33716737  1
  H  H5  1  0.35024017  0.03430806  0.66283263  1
  O  O6  1  0.13863712  0.95196000  0.72747401  1
  O  O7  1  0.27998051  0.80507009  0.39106638  1
  O  O8  1  0.70232298  0.66168583  0.65704183  1
  O  O9  1  0.63439177  0.77157609  0.06562021  1
  O  O10  1  0.10708958  0.67326322  0.12501803  1
  O  O11  1  0.89291042  0.32673678  0.87498197  1
  O  O12  1  0.36560823  0.22842391  0.93437979  1
  O  O13  1  0.29767702  0.33831417  0.34295817  1
  O  O14  1  0.72001949  0.19492991  0.60893362  1
  O  O15  1  0.86136288  0.04804000  0.27252599  1
