# generated using pymatgen
data_LiCo2C2O7
_symmetry_space_group_name_H-M   'P 1'
_cell_length_a   4.82941400
_cell_length_b   8.28504000
_cell_length_c   15.66035104
_cell_angle_alpha   90.00000000
_cell_angle_beta   91.63682928
_cell_angle_gamma   90.00000000
_symmetry_Int_Tables_number   1
_chemical_formula_structural   LiCo2C2O7
_chemical_formula_sum   'Li4 Co8 C8 O28'
_cell_volume   626.34453690
_cell_formula_units_Z   4
loop_
 _symmetry_equiv_pos_site_id
 _symmetry_equiv_pos_as_xyz
  1  'x, y, z'
loop_
 _atom_site_type_symbol
 _atom_site_label
 _atom_site_symmetry_multiplicity
 _atom_site_fract_x
 _atom_site_fract_y
 _atom_site_fract_z
 _atom_site_occupancy
  Li  Li0  1  0.00367150  0.00146450  0.49886100  1
  Li  Li1  1  0.00367150  0.99853550  0.99886100  1
  Li  Li2  1  0.50367150  0.50146450  0.49886100  1
  Li  Li3  1  0.50367150  0.49853550  0.99886100  1
  Co  Co4  1  0.49055350  0.17445750  0.36547600  1
  Co  Co5  1  0.52090000  0.16404900  0.13834400  1
  Co  Co6  1  0.49055350  0.82554250  0.86547600  1
  Co  Co7  1  0.52090000  0.83595100  0.63834400  1
  Co  Co8  1  0.99055350  0.67445750  0.36547600  1
  Co  Co9  1  0.02090000  0.66404900  0.13834400  1
  Co  Co10  1  0.99055350  0.32554250  0.86547600  1
  Co  Co11  1  0.02090000  0.33595100  0.63834400  1
  C  C12  1  0.49969900  0.83378600  0.41370300  1
  C  C13  1  0.50406700  0.83281000  0.08645500  1
  C  C14  1  0.50406700  0.16719000  0.58645500  1
  C  C15  1  0.49969900  0.16621400  0.91370300  1
  C  C16  1  0.99969900  0.33378600  0.41370300  1
  C  C17  1  0.00406700  0.33281000  0.08645500  1
  C  C18  1  0.00406700  0.66719000  0.58645500  1
  C  C19  1  0.99969900  0.66621400  0.91370300  1
  O  O20  1  0.62162100  0.69411800  0.41566700  1
  O  O21  1  0.64598100  0.03539000  0.91077500  1
  O  O22  1  0.37637650  0.69443950  0.08286600  1
  O  O23  1  0.77134800  0.16083600  0.58937600  1
  O  O24  1  0.77134800  0.83916400  0.08937600  1
  O  O25  1  0.35878150  0.03522450  0.58547900  1
  O  O26  1  0.47608450  0.16090750  0.24664300  1
  O  O27  1  0.47608450  0.83909250  0.74664300  1
  O  O28  1  0.64598100  0.96461000  0.41077500  1
  O  O29  1  0.23172300  0.15807500  0.91632900  1
  O  O30  1  0.23172300  0.84192500  0.41632900  1
  O  O31  1  0.62162100  0.30588200  0.91566700  1
  O  O32  1  0.35878150  0.96477550  0.08547900  1
  O  O33  1  0.37637650  0.30556050  0.58286600  1
  O  O34  1  0.12162100  0.19411800  0.41566700  1
  O  O35  1  0.14598100  0.53539000  0.91077500  1
  O  O36  1  0.87637650  0.19443950  0.08286600  1
  O  O37  1  0.27134800  0.66083600  0.58937600  1
  O  O38  1  0.27134800  0.33916400  0.08937600  1
  O  O39  1  0.85878150  0.53522450  0.58547900  1
  O  O40  1  0.97608450  0.66090750  0.24664300  1
  O  O41  1  0.97608450  0.33909250  0.74664300  1
  O  O42  1  0.14598100  0.46461000  0.41077500  1
  O  O43  1  0.73172300  0.65807500  0.91632900  1
  O  O44  1  0.73172300  0.34192500  0.41632900  1
  O  O45  1  0.12162100  0.80588200  0.91566700  1
  O  O46  1  0.85878150  0.46477550  0.08547900  1
  O  O47  1  0.87637650  0.80556050  0.58286600  1
