# generated using pymatgen
data_Li4V7O12
_symmetry_space_group_name_H-M   'P 1'
_cell_length_a   5.20968360
_cell_length_b   8.92676563
_cell_length_c   9.89365841
_cell_angle_alpha   90.00000000
_cell_angle_beta   100.24705621
_cell_angle_gamma   90.00000000
_symmetry_Int_Tables_number   1
_chemical_formula_structural   Li4V7O12
_chemical_formula_sum   'Li8 V14 O24'
_cell_volume   452.77192201
_cell_formula_units_Z   2
loop_
 _symmetry_equiv_pos_site_id
 _symmetry_equiv_pos_as_xyz
  1  'x, y, z'
loop_
 _atom_site_type_symbol
 _atom_site_label
 _atom_site_symmetry_multiplicity
 _atom_site_fract_x
 _atom_site_fract_y
 _atom_site_fract_z
 _atom_site_occupancy
  Li  Li0  1  0.49152700  0.91941500  0.73939900  1
  Li  Li1  1  0.99567900  0.58830400  0.25649900  1
  Li  Li2  1  0.74494800  0.58286600  0.50280200  1
  Li  Li3  1  0.50799300  0.57823200  0.74228500  1
  Li  Li4  1  0.50847300  0.41941500  0.26060100  1
  Li  Li5  1  0.25505200  0.08286600  0.49719800  1
  Li  Li6  1  0.00432100  0.08830400  0.74350100  1
  Li  Li7  1  0.49200700  0.07823200  0.25771500  1
  V  V8  1  0.23778400  0.91676600  0.00218900  1
  V  V9  1  0.24941400  0.75686100  0.49284400  1
  V  V10  1  0.75882700  0.92301600  0.49717400  1
  V  V11  1  0.99179500  0.73988600  0.74276300  1
  V  V12  1  0.74933300  0.75544700  0.00300000  1
  V  V13  1  0.25128900  0.56749800  0.99655400  1
  V  V14  1  0.51451100  0.74751100  0.25409600  1
  V  V15  1  0.24117300  0.42301600  0.50282600  1
  V  V16  1  0.25066700  0.25544700  0.99700000  1
  V  V17  1  0.76221600  0.41676600  0.99781100  1
  V  V18  1  0.00820500  0.23988600  0.25723700  1
  V  V19  1  0.75058600  0.25686100  0.50715600  1
  V  V20  1  0.48548900  0.24751100  0.74590400  1
  V  V21  1  0.74871100  0.06749800  0.00344600  1
  O  O22  1  0.11663000  0.90752800  0.61796200  1
  O  O23  1  0.87211100  0.91024200  0.87146900  1
  O  O24  1  0.14804800  0.74244300  0.11427200  1
  O  O25  1  0.85847200  0.75466200  0.37675700  1
  O  O26  1  0.60191900  0.91224100  0.12478800  1
  O  O27  1  0.40324900  0.91154000  0.38355100  1
  O  O28  1  0.63937700  0.76044200  0.62256100  1
  O  O29  1  0.13331000  0.60078700  0.61573900  1
  O  O30  1  0.86989900  0.58547300  0.88364200  1
  O  O31  1  0.35044600  0.74980500  0.87949300  1
  O  O32  1  0.63093400  0.57920400  0.11989900  1
  O  O33  1  0.12788900  0.41024200  0.12853100  1
  O  O34  1  0.88337000  0.40752800  0.38203800  1
  O  O35  1  0.36740800  0.59457200  0.37489700  1
  O  O36  1  0.14152800  0.25466200  0.62324300  1
  O  O37  1  0.59675100  0.41154000  0.61644900  1
  O  O38  1  0.85195200  0.24244300  0.88572800  1
  O  O39  1  0.39808100  0.41224100  0.87521200  1
  O  O40  1  0.13010100  0.08547300  0.11635800  1
  O  O41  1  0.64955400  0.24980500  0.12050700  1
  O  O42  1  0.36062300  0.26044200  0.37743900  1
  O  O43  1  0.86669000  0.10078700  0.38426100  1
  O  O44  1  0.63259200  0.09457200  0.62510300  1
  O  O45  1  0.36906600  0.07920400  0.88010100  1
