# generated using pymatgen
data_LiFePO4
_symmetry_space_group_name_H-M   'P 1'
_cell_length_a   8.57255360
_cell_length_b   5.13892071
_cell_length_c   8.75970394
_cell_angle_alpha   90.00000000
_cell_angle_beta   106.89944333
_cell_angle_gamma   90.00000000
_symmetry_Int_Tables_number   1
_chemical_formula_structural   LiFePO4
_chemical_formula_sum   'Li4 Fe4 P4 O16'
_cell_volume   369.23271090
_cell_formula_units_Z   4
loop_
 _symmetry_equiv_pos_site_id
 _symmetry_equiv_pos_as_xyz
  1  'x, y, z'
loop_
 _atom_site_type_symbol
 _atom_site_label
 _atom_site_symmetry_multiplicity
 _atom_site_fract_x
 _atom_site_fract_y
 _atom_site_fract_z
 _atom_site_occupancy
  Li  Li0  1  0.11799700  0.81779800  0.98731900  1
  Li  Li1  1  0.61799700  0.18220200  0.98731900  1
  Li  Li2  1  0.23763500  0.31284400  0.49591800  1
  Li  Li3  1  0.73763500  0.68715600  0.49591800  1
  Fe  Fe4  1  0.48064800  0.32289100  0.24632200  1
  Fe  Fe5  1  0.36078000  0.81160900  0.74164800  1
  Fe  Fe6  1  0.98064800  0.67710900  0.24632200  1
  Fe  Fe7  1  0.86078000  0.18839100  0.74164800  1
  P  P8  1  0.24302300  0.30451400  0.86752900  1
  P  P9  1  0.74302300  0.69548600  0.86752900  1
  P  P10  1  0.34874700  0.80688600  0.36632900  1
  P  P11  1  0.84874700  0.19311400  0.36632900  1
  O  O12  1  0.08799100  0.17365900  0.89115000  1
  O  O13  1  0.58799100  0.82634100  0.89115000  1
  O  O14  1  0.00907000  0.32390600  0.35550800  1
  O  O15  1  0.50907000  0.67609400  0.35550800  1
  O  O16  1  0.21734100  0.60332300  0.84950800  1
  O  O17  1  0.71734100  0.39667700  0.84950800  1
  O  O18  1  0.28043400  0.19385400  0.71629400  1
  O  O19  1  0.78043400  0.80614600  0.71629400  1
  O  O20  1  0.20813000  0.73232700  0.21588200  1
  O  O21  1  0.70813000  0.26767300  0.21588200  1
  O  O22  1  0.30014300  0.69760500  0.51253400  1
  O  O23  1  0.80014300  0.30239500  0.51253400  1
  O  O24  1  0.37168900  0.10632000  0.38210800  1
  O  O25  1  0.87168900  0.89368000  0.38210800  1
  O  O26  1  0.39062500  0.23386300  0.01276800  1
  O  O27  1  0.89062500  0.76613700  0.01276800  1
