# generated using pymatgen
data_Li5FeO3F
_symmetry_space_group_name_H-M   'P 1'
_cell_length_a   9.60072445
_cell_length_b   9.63188100
_cell_length_c   4.74318672
_cell_angle_alpha   90.00000000
_cell_angle_beta   106.17827942
_cell_angle_gamma   90.00000000
_symmetry_Int_Tables_number   1
_chemical_formula_structural   Li5FeO3F
_chemical_formula_sum   'Li20 Fe4 O12 F4'
_cell_volume   421.24737377
_cell_formula_units_Z   4
loop_
 _symmetry_equiv_pos_site_id
 _symmetry_equiv_pos_as_xyz
  1  'x, y, z'
loop_
 _atom_site_type_symbol
 _atom_site_label
 _atom_site_symmetry_multiplicity
 _atom_site_fract_x
 _atom_site_fract_y
 _atom_site_fract_z
 _atom_site_occupancy
  Li  Li0  1  0.35755275  0.00000000  0.12446700  1
  Li  Li1  1  0.64244725  0.00000000  0.87553300  1
  Li  Li2  1  0.13094375  0.78704225  0.87071000  1
  Li  Li3  1  0.86905625  0.78704225  0.12929000  1
  Li  Li4  1  0.13094375  0.21295775  0.87071000  1
  Li  Li5  1  0.86905625  0.21295775  0.12929000  1
  Li  Li6  1  0.87196725  0.71747575  0.61687100  1
  Li  Li7  1  0.87196725  0.28252425  0.61687100  1
  Li  Li8  1  0.62803275  0.78252425  0.38312900  1
  Li  Li9  1  0.62803275  0.21747575  0.38312900  1
  Li  Li10  1  0.85755275  0.50000000  0.12446700  1
  Li  Li11  1  0.14244725  0.50000000  0.87553300  1
  Li  Li12  1  0.63094375  0.28704225  0.87071000  1
  Li  Li13  1  0.36905625  0.28704225  0.12929000  1
  Li  Li14  1  0.63094375  0.71295775  0.87071000  1
  Li  Li15  1  0.36905625  0.71295775  0.12929000  1
  Li  Li16  1  0.37196725  0.21747575  0.61687100  1
  Li  Li17  1  0.37196725  0.78252425  0.61687100  1
  Li  Li18  1  0.12803275  0.28252425  0.38312900  1
  Li  Li19  1  0.12803275  0.71747575  0.38312900  1
  Fe  Fe20  1  0.87288750  0.00000000  0.63438350  1
  Fe  Fe21  1  0.12711250  0.00000000  0.36561650  1
  Fe  Fe22  1  0.37288750  0.50000000  0.63438350  1
  Fe  Fe23  1  0.62711250  0.50000000  0.36561650  1
  O  O24  1  0.00000000  0.85398550  0.50000000  1
  O  O25  1  0.00000000  0.14601450  0.50000000  1
  O  O26  1  0.75225250  0.14834100  0.75147850  1
  O  O27  1  0.75225250  0.85165900  0.75147850  1
  O  O28  1  0.74774750  0.64834100  0.24852150  1
  O  O29  1  0.74774750  0.35165900  0.24852150  1
  O  O30  1  0.50000000  0.35398550  0.50000000  1
  O  O31  1  0.50000000  0.64601450  0.50000000  1
  O  O32  1  0.25225250  0.64834100  0.75147850  1
  O  O33  1  0.25225250  0.35165900  0.75147850  1
  O  O34  1  0.24774750  0.14834100  0.24852150  1
  O  O35  1  0.24774750  0.85165900  0.24852150  1
  F  F36  1  0.00000000  0.64394675  0.00000000  1
  F  F37  1  0.00000000  0.35605325  0.00000000  1
  F  F38  1  0.50000000  0.14394675  0.00000000  1
  F  F39  1  0.50000000  0.85605325  0.00000000  1
