# generated using pymatgen
data_FeOF
_symmetry_space_group_name_H-M   'P 1'
_cell_length_a   9.46097354
_cell_length_b   3.08523300
_cell_length_c   14.24752991
_cell_angle_alpha   90.00000000
_cell_angle_beta   90.29495693
_cell_angle_gamma   90.00000000
_symmetry_Int_Tables_number   1
_chemical_formula_structural   FeOF
_chemical_formula_sum   'Fe12 O12 F12'
_cell_volume   415.87002464
_cell_formula_units_Z   12
loop_
 _symmetry_equiv_pos_site_id
 _symmetry_equiv_pos_as_xyz
  1  'x, y, z'
loop_
 _atom_site_type_symbol
 _atom_site_label
 _atom_site_symmetry_multiplicity
 _atom_site_fract_x
 _atom_site_fract_y
 _atom_site_fract_z
 _atom_site_occupancy
  Fe  Fe0  1  0.99958300  0.00000000  0.99923900  1
  Fe  Fe1  1  0.98060900  0.00000000  0.66827600  1
  Fe  Fe2  1  0.99682300  0.00000000  0.33298800  1
  Fe  Fe3  1  0.74340900  0.50000000  0.81773800  1
  Fe  Fe4  1  0.74824500  0.50000000  0.51652000  1
  Fe  Fe5  1  0.77825000  0.50000000  0.16697700  1
  Fe  Fe6  1  0.51163100  0.00000000  0.66278400  1
  Fe  Fe7  1  0.48465500  0.00000000  0.99874500  1
  Fe  Fe8  1  0.48554000  0.00000000  0.33819700  1
  Fe  Fe9  1  0.24734000  0.50000000  0.84815000  1
  Fe  Fe10  1  0.24200100  0.50000000  0.48432200  1
  Fe  Fe11  1  0.28059000  0.50000000  0.16787600  1
  O  O12  1  0.90403300  0.50000000  0.73289300  1
  O  O13  1  0.90509500  0.50000000  0.06405500  1
  O  O14  1  0.85356100  0.00000000  0.23783200  1
  O  O15  1  0.84829900  0.00000000  0.56499900  1
  O  O16  1  0.64355400  0.00000000  0.76782400  1
  O  O17  1  0.59055500  0.50000000  0.59691600  1
  O  O18  1  0.40823900  0.50000000  0.06348800  1
  O  O19  1  0.40767400  0.50000000  0.40393400  1
  O  O20  1  0.35447000  0.00000000  0.89330600  1
  O  O21  1  0.35125100  0.00000000  0.23472200  1
  O  O22  1  0.14263600  0.00000000  0.43036000  1
  O  O23  1  0.09445900  0.50000000  0.93545300  1
  F  F24  1  0.89686200  0.50000000  0.40006900  1
  F  F25  1  0.83826800  0.00000000  0.89632900  1
  F  F26  1  0.65712700  0.00000000  0.43239300  1
  F  F27  1  0.65541100  0.00000000  0.10512500  1
  F  F28  1  0.60669600  0.50000000  0.93812300  1
  F  F29  1  0.60248500  0.50000000  0.27171400  1
  F  F30  1  0.39529900  0.50000000  0.72318800  1
  F  F31  1  0.33606000  0.00000000  0.56482000  1
  F  F32  1  0.15537700  0.00000000  0.76401300  1
  F  F33  1  0.15758200  0.00000000  0.10800200  1
  F  F34  1  0.09913300  0.50000000  0.60050200  1
  F  F35  1  0.09719800  0.50000000  0.26813000  1
