# generated using pymatgen
data_Li2Ni4OF8
_symmetry_space_group_name_H-M   'P 1'
_cell_length_a   8.95580200
_cell_length_b   5.11588800
_cell_length_c   14.05720032
_cell_angle_alpha   90.00000000
_cell_angle_beta   90.48098661
_cell_angle_gamma   90.00000000
_symmetry_Int_Tables_number   1
_chemical_formula_structural   Li2Ni4OF8
_chemical_formula_sum   'Li8 Ni16 O4 F32'
_cell_volume   644.03436593
_cell_formula_units_Z   4
loop_
 _symmetry_equiv_pos_site_id
 _symmetry_equiv_pos_as_xyz
  1  'x, y, z'
loop_
 _atom_site_type_symbol
 _atom_site_label
 _atom_site_symmetry_multiplicity
 _atom_site_fract_x
 _atom_site_fract_y
 _atom_site_fract_z
 _atom_site_occupancy
  Li  Li0  1  0.50136650  0.49593950  0.15358400  1
  Li  Li1  1  0.50986000  0.51168500  0.35493000  1
  Li  Li2  1  0.50136650  0.50406050  0.65358400  1
  Li  Li3  1  0.50986000  0.48831500  0.85493000  1
  Li  Li4  1  0.00136650  0.99593950  0.15358400  1
  Li  Li5  1  0.00986000  0.01168500  0.35493000  1
  Li  Li6  1  0.00136650  0.00406050  0.65358400  1
  Li  Li7  1  0.00986000  0.98831500  0.85493000  1
  Ni  Ni8  1  0.67046100  0.98306000  0.31944500  1
  Ni  Ni9  1  0.66202600  0.00728300  0.01236600  1
  Ni  Ni10  1  0.67046100  0.01694000  0.81944500  1
  Ni  Ni11  1  0.66202600  0.99271700  0.51236600  1
  Ni  Ni12  1  0.83268200  0.49666500  0.18134300  1
  Ni  Ni13  1  0.82360450  0.48183250  0.97568900  1
  Ni  Ni14  1  0.83268200  0.50333500  0.68134300  1
  Ni  Ni15  1  0.82360450  0.51816750  0.47568900  1
  Ni  Ni16  1  0.17046100  0.48306000  0.31944500  1
  Ni  Ni17  1  0.16202600  0.50728300  0.01236600  1
  Ni  Ni18  1  0.17046100  0.51694000  0.81944500  1
  Ni  Ni19  1  0.16202600  0.49271700  0.51236600  1
  Ni  Ni20  1  0.33268200  0.99666500  0.18134300  1
  Ni  Ni21  1  0.32360450  0.98183250  0.97568900  1
  Ni  Ni22  1  0.33268200  0.00333500  0.68134300  1
  Ni  Ni23  1  0.32360450  0.01816750  0.47568900  1
  O  O24  1  0.66428400  0.28794800  0.91823100  1
  O  O25  1  0.66428400  0.71205200  0.41823100  1
  O  O26  1  0.16428400  0.78794800  0.91823100  1
  O  O27  1  0.16428400  0.21205200  0.41823100  1
  F  F28  1  0.99864200  0.69013300  0.74728700  1
  F  F29  1  0.51270500  0.16454600  0.41693200  1
  F  F30  1  0.99864200  0.30986700  0.24728700  1
  F  F31  1  0.51270500  0.83545400  0.91693200  1
  F  F32  1  0.65870700  0.66546800  0.74733900  1
  F  F33  1  0.67832550  0.65520850  0.08433800  1
  F  F34  1  0.82201700  0.16291200  0.41502100  1
  F  F35  1  0.65870700  0.33453200  0.24733900  1
  F  F36  1  0.67832550  0.34479150  0.58433800  1
  F  F37  1  0.82201700  0.83708800  0.91502100  1
  F  F38  1  0.84800950  0.83892950  0.24792200  1
  F  F39  1  0.83493700  0.81143800  0.58542400  1
  F  F40  1  0.97937300  0.64831900  0.08252800  1
  F  F41  1  0.83493700  0.18856200  0.08542400  1
  F  F42  1  0.84800950  0.16107050  0.74792200  1
  F  F43  1  0.97937300  0.35168100  0.58252800  1
  F  F44  1  0.49864200  0.19013300  0.74728700  1
  F  F45  1  0.01270500  0.66454600  0.41693200  1
  F  F46  1  0.49864200  0.80986700  0.24728700  1
  F  F47  1  0.01270500  0.33545400  0.91693200  1
  F  F48  1  0.15870700  0.16546800  0.74733900  1
  F  F49  1  0.17832550  0.15520850  0.08433800  1
  F  F50  1  0.32201700  0.66291200  0.41502100  1
  F  F51  1  0.15870700  0.83453200  0.24733900  1
  F  F52  1  0.17832550  0.84479150  0.58433800  1
  F  F53  1  0.32201700  0.33708800  0.91502100  1
  F  F54  1  0.34800950  0.33892950  0.24792200  1
  F  F55  1  0.33493700  0.31143800  0.58542400  1
  F  F56  1  0.47937300  0.14831900  0.08252800  1
  F  F57  1  0.33493700  0.68856200  0.08542400  1
  F  F58  1  0.34800950  0.66107050  0.74792200  1
  F  F59  1  0.47937300  0.85168100  0.58252800  1
