# generated using pymatgen
data_Li4Mn3Cr2Co3O16
_symmetry_space_group_name_H-M   'P 1'
_cell_length_a   9.98734200
_cell_length_b   5.80396200
_cell_length_c   9.48454914
_cell_angle_alpha   90.00000000
_cell_angle_beta   90.46632495
_cell_angle_gamma   90.00000000
_symmetry_Int_Tables_number   1
_chemical_formula_structural   Li4Mn3Cr2Co3O16
_chemical_formula_sum   'Li8 Mn6 Cr4 Co6 O32'
_cell_volume   549.76462136
_cell_formula_units_Z   2
loop_
 _symmetry_equiv_pos_site_id
 _symmetry_equiv_pos_as_xyz
  1  'x, y, z'
loop_
 _atom_site_type_symbol
 _atom_site_label
 _atom_site_symmetry_multiplicity
 _atom_site_fract_x
 _atom_site_fract_y
 _atom_site_fract_z
 _atom_site_occupancy
  Li  Li0  1  0.66723400  0.00000000  0.10540900  1
  Li  Li1  1  0.00260700  0.00000000  0.00117600  1
  Li  Li2  1  0.00394600  0.00000000  0.50467300  1
  Li  Li3  1  0.33270900  0.00000000  0.61033500  1
  Li  Li4  1  0.16723400  0.50000000  0.10540900  1
  Li  Li5  1  0.50260700  0.50000000  0.00117600  1
  Li  Li6  1  0.50394600  0.50000000  0.50467300  1
  Li  Li7  1  0.83270900  0.50000000  0.61033500  1
  Mn  Mn8  1  0.82957200  0.00000000  0.78522300  1
  Mn  Mn9  1  0.41410050  0.75351750  0.28512800  1
  Mn  Mn10  1  0.41410050  0.24648250  0.28512800  1
  Mn  Mn11  1  0.32957200  0.50000000  0.78522300  1
  Mn  Mn12  1  0.91410050  0.25351750  0.28512800  1
  Mn  Mn13  1  0.91410050  0.74648250  0.28512800  1
  Cr  Cr14  1  0.66193700  0.00000000  0.51632400  1
  Cr  Cr15  1  0.33120400  0.00000000  0.01396700  1
  Cr  Cr16  1  0.16193700  0.50000000  0.51632400  1
  Cr  Cr17  1  0.83120400  0.50000000  0.01396700  1
  Co  Co18  1  0.58335400  0.75400400  0.78744600  1
  Co  Co19  1  0.58335400  0.24599600  0.78744600  1
  Co  Co20  1  0.16686300  0.00000000  0.28870900  1
  Co  Co21  1  0.08335400  0.25400400  0.78744600  1
  Co  Co22  1  0.08335400  0.74599600  0.78744600  1
  Co  Co23  1  0.66686300  0.50000000  0.28870900  1
  O  O24  1  0.57782650  0.74762850  0.39865800  1
  O  O25  1  0.51772900  0.00000000  0.66370200  1
  O  O26  1  0.66527400  0.00000000  0.88966100  1
  O  O27  1  0.00003000  0.00000000  0.69297600  1
  O  O28  1  0.99979600  0.00000000  0.19015700  1
  O  O29  1  0.57782650  0.25237150  0.39865800  1
  O  O30  1  0.73992350  0.77824450  0.66502100  1
  O  O31  1  0.73992350  0.22175550  0.66502100  1
  O  O32  1  0.16342100  0.00000000  0.89499400  1
  O  O33  1  0.83841400  0.00000000  0.39711100  1
  O  O34  1  0.26196350  0.77479450  0.15849500  1
  O  O35  1  0.26196350  0.22520550  0.15849500  1
  O  O36  1  0.33278100  0.00000000  0.39035600  1
  O  O37  1  0.41943100  0.74292700  0.89629600  1
  O  O38  1  0.48123200  0.00000000  0.16445600  1
  O  O39  1  0.41943100  0.25707300  0.89629600  1
  O  O40  1  0.07782650  0.24762850  0.39865800  1
  O  O41  1  0.01772900  0.50000000  0.66370200  1
  O  O42  1  0.16527400  0.50000000  0.88966100  1
  O  O43  1  0.50003000  0.50000000  0.69297600  1
  O  O44  1  0.49979600  0.50000000  0.19015700  1
  O  O45  1  0.07782650  0.75237150  0.39865800  1
  O  O46  1  0.23992350  0.27824450  0.66502100  1
  O  O47  1  0.23992350  0.72175550  0.66502100  1
  O  O48  1  0.66342100  0.50000000  0.89499400  1
  O  O49  1  0.33841400  0.50000000  0.39711100  1
  O  O50  1  0.76196350  0.27479450  0.15849500  1
  O  O51  1  0.76196350  0.72520550  0.15849500  1
  O  O52  1  0.83278100  0.50000000  0.39035600  1
  O  O53  1  0.91943100  0.24292700  0.89629600  1
  O  O54  1  0.98123200  0.50000000  0.16445600  1
  O  O55  1  0.91943100  0.75707300  0.89629600  1
