# generated using pymatgen
data_Li4Cu3Ni2Sb3O16
_symmetry_space_group_name_H-M   'P 1'
_cell_length_a   10.46662400
_cell_length_b   6.04763200
_cell_length_c   9.72395142
_cell_angle_alpha   90.00000000
_cell_angle_beta   91.26807064
_cell_angle_gamma   90.00000000
_symmetry_Int_Tables_number   1
_chemical_formula_structural   Li4Cu3Ni2Sb3O16
_chemical_formula_sum   'Li8 Cu6 Ni4 Sb6 O32'
_cell_volume   615.35875939
_cell_formula_units_Z   2
loop_
 _symmetry_equiv_pos_site_id
 _symmetry_equiv_pos_as_xyz
  1  'x, y, z'
loop_
 _atom_site_type_symbol
 _atom_site_label
 _atom_site_symmetry_multiplicity
 _atom_site_fract_x
 _atom_site_fract_y
 _atom_site_fract_z
 _atom_site_occupancy
  Li  Li0  1  0.66761900  0.00000000  0.10309100  1
  Li  Li1  1  0.01143400  0.00000000  0.99578600  1
  Li  Li2  1  0.02568300  0.00000000  0.50919400  1
  Li  Li3  1  0.33141200  0.00000000  0.62155000  1
  Li  Li4  1  0.16761900  0.50000000  0.10309100  1
  Li  Li5  1  0.51143400  0.50000000  0.99578600  1
  Li  Li6  1  0.52568300  0.50000000  0.50919400  1
  Li  Li7  1  0.83141200  0.50000000  0.62155000  1
  Cu  Cu8  1  0.58332750  0.75305050  0.78491000  1
  Cu  Cu9  1  0.58332750  0.24694950  0.78491000  1
  Cu  Cu10  1  0.16733800  0.00000000  0.28173500  1
  Cu  Cu11  1  0.08332750  0.25305050  0.78491000  1
  Cu  Cu12  1  0.08332750  0.74694950  0.78491000  1
  Cu  Cu13  1  0.66733800  0.50000000  0.28173500  1
  Ni  Ni14  1  0.65450400  0.00000000  0.52085500  1
  Ni  Ni15  1  0.32942900  0.00000000  0.99727500  1
  Ni  Ni16  1  0.15450400  0.50000000  0.52085500  1
  Ni  Ni17  1  0.82942900  0.50000000  0.99727500  1
  Sb  Sb18  1  0.82907600  0.00000000  0.78467300  1
  Sb  Sb19  1  0.41435250  0.75300150  0.28554200  1
  Sb  Sb20  1  0.41435250  0.24699850  0.28554200  1
  Sb  Sb21  1  0.32907600  0.50000000  0.78467300  1
  Sb  Sb22  1  0.91435250  0.25300150  0.28554200  1
  Sb  Sb23  1  0.91435250  0.74699850  0.28554200  1
  O  O24  1  0.57622800  0.74146500  0.39573600  1
  O  O25  1  0.51841000  0.00000000  0.67010600  1
  O  O26  1  0.66649300  0.00000000  0.89262200  1
  O  O27  1  0.99722300  0.00000000  0.68928000  1
  O  O28  1  0.99030100  0.00000000  0.17951700  1
  O  O29  1  0.57622800  0.25853500  0.39573600  1
  O  O30  1  0.73993450  0.77818250  0.66108300  1
  O  O31  1  0.73993450  0.22181750  0.66108300  1
  O  O32  1  0.16020300  0.00000000  0.89354200  1
  O  O33  1  0.84464100  0.00000000  0.40043300  1
  O  O34  1  0.26068100  0.77385700  0.16494000  1
  O  O35  1  0.26068100  0.22614300  0.16494000  1
  O  O36  1  0.34240100  0.00000000  0.40097800  1
  O  O37  1  0.41667700  0.73419200  0.90087500  1
  O  O38  1  0.48359700  0.00000000  0.16529200  1
  O  O39  1  0.41667700  0.26580800  0.90087500  1
  O  O40  1  0.07622800  0.24146500  0.39573600  1
  O  O41  1  0.01841000  0.50000000  0.67010600  1
  O  O42  1  0.16649300  0.50000000  0.89262200  1
  O  O43  1  0.49722300  0.50000000  0.68928000  1
  O  O44  1  0.49030100  0.50000000  0.17951700  1
  O  O45  1  0.07622800  0.75853500  0.39573600  1
  O  O46  1  0.23993450  0.27818250  0.66108300  1
  O  O47  1  0.23993450  0.72181750  0.66108300  1
  O  O48  1  0.66020300  0.50000000  0.89354200  1
  O  O49  1  0.34464100  0.50000000  0.40043300  1
  O  O50  1  0.76068100  0.27385700  0.16494000  1
  O  O51  1  0.76068100  0.72614300  0.16494000  1
  O  O52  1  0.84240100  0.50000000  0.40097800  1
  O  O53  1  0.91667700  0.23419200  0.90087500  1
  O  O54  1  0.98359700  0.50000000  0.16529200  1
  O  O55  1  0.91667700  0.76580800  0.90087500  1
