# generated using pymatgen
data_Li4MnCr5O12
_symmetry_space_group_name_H-M   'P 1'
_cell_length_a   5.13010400
_cell_length_b   8.86193800
_cell_length_c   10.10318688
_cell_angle_alpha   90.00000000
_cell_angle_beta   90.14393166
_cell_angle_gamma   90.00000000
_symmetry_Int_Tables_number   1
_chemical_formula_structural   Li4MnCr5O12
_chemical_formula_sum   'Li8 Mn2 Cr10 O24'
_cell_volume   459.31633688
_cell_formula_units_Z   2
loop_
 _symmetry_equiv_pos_site_id
 _symmetry_equiv_pos_as_xyz
  1  'x, y, z'
loop_
 _atom_site_type_symbol
 _atom_site_label
 _atom_site_symmetry_multiplicity
 _atom_site_fract_x
 _atom_site_fract_y
 _atom_site_fract_z
 _atom_site_occupancy
  Li  Li0  1  0.40255050  0.74970650  0.25070000  1
  Li  Li1  1  0.59744950  0.74970650  0.74930000  1
  Li  Li2  1  0.40255050  0.25029350  0.25070000  1
  Li  Li3  1  0.59744950  0.25029350  0.74930000  1
  Li  Li4  1  0.90255050  0.24970650  0.25070000  1
  Li  Li5  1  0.09744950  0.24970650  0.74930000  1
  Li  Li6  1  0.90255050  0.75029350  0.25070000  1
  Li  Li7  1  0.09744950  0.75029350  0.74930000  1
  Mn  Mn8  1  0.00000000  0.00000000  0.00000000  1
  Mn  Mn9  1  0.50000000  0.50000000  0.00000000  1
  Cr  Cr10  1  0.50000000  0.66513300  0.50000000  1
  Cr  Cr11  1  0.50000000  0.16343100  0.00000000  1
  Cr  Cr12  1  0.50000000  0.83656900  0.00000000  1
  Cr  Cr13  1  0.50000000  0.33486700  0.50000000  1
  Cr  Cr14  1  0.50000000  0.00000000  0.50000000  1
  Cr  Cr15  1  0.00000000  0.16513300  0.50000000  1
  Cr  Cr16  1  0.00000000  0.66343100  0.00000000  1
  Cr  Cr17  1  0.00000000  0.33656900  0.00000000  1
  Cr  Cr18  1  0.00000000  0.83486700  0.50000000  1
  Cr  Cr19  1  0.00000000  0.50000000  0.50000000  1
  O  O20  1  0.33913900  0.66643000  0.89488000  1
  O  O21  1  0.66086100  0.66643000  0.10512000  1
  O  O22  1  0.33611700  0.82829500  0.60684800  1
  O  O23  1  0.33611700  0.17170500  0.60684800  1
  O  O24  1  0.66388300  0.82829500  0.39315200  1
  O  O25  1  0.16909300  0.00000000  0.40540300  1
  O  O26  1  0.66388300  0.17170500  0.39315200  1
  O  O27  1  0.33913900  0.33357000  0.89488000  1
  O  O28  1  0.32094200  0.00000000  0.90130900  1
  O  O29  1  0.66086100  0.33357000  0.10512000  1
  O  O30  1  0.67905800  0.00000000  0.09869100  1
  O  O31  1  0.83090700  0.00000000  0.59459700  1
  O  O32  1  0.83913900  0.16643000  0.89488000  1
  O  O33  1  0.16086100  0.16643000  0.10512000  1
  O  O34  1  0.83611700  0.32829500  0.60684800  1
  O  O35  1  0.83611700  0.67170500  0.60684800  1
  O  O36  1  0.16388300  0.32829500  0.39315200  1
  O  O37  1  0.66909300  0.50000000  0.40540300  1
  O  O38  1  0.16388300  0.67170500  0.39315200  1
  O  O39  1  0.83913900  0.83357000  0.89488000  1
  O  O40  1  0.82094200  0.50000000  0.90130900  1
  O  O41  1  0.16086100  0.83357000  0.10512000  1
  O  O42  1  0.17905800  0.50000000  0.09869100  1
  O  O43  1  0.33090700  0.50000000  0.59459700  1
