# generated using pymatgen
data_Na2Co2O3
_symmetry_space_group_name_H-M   'P 1'
_cell_length_a   5.87869005
_cell_length_b   5.87296200
_cell_length_c   6.07173882
_cell_angle_alpha   90.00000000
_cell_angle_beta   118.64351869
_cell_angle_gamma   90.00000000
_symmetry_Int_Tables_number   1
_chemical_formula_structural   Na2Co2O3
_chemical_formula_sum   'Na4 Co4 O6'
_cell_volume   183.97419846
_cell_formula_units_Z   2
loop_
 _symmetry_equiv_pos_site_id
 _symmetry_equiv_pos_as_xyz
  1  'x, y, z'
loop_
 _atom_site_type_symbol
 _atom_site_label
 _atom_site_symmetry_multiplicity
 _atom_site_fract_x
 _atom_site_fract_y
 _atom_site_fract_z
 _atom_site_occupancy
  Na  Na0  1  0.85711050  0.84707100  0.09696550  1
  Na  Na1  1  0.85711050  0.65292900  0.59696550  1
  Na  Na2  1  0.14288950  0.34707100  0.40303450  1
  Na  Na3  1  0.14288950  0.15292900  0.90303450  1
  Co  Co4  1  0.33906250  0.62461400  0.08043050  1
  Co  Co5  1  0.33906250  0.87538600  0.58043050  1
  Co  Co6  1  0.66093750  0.12461400  0.41956950  1
  Co  Co7  1  0.66093750  0.37538600  0.91956950  1
  O  O8  1  0.00000000  0.00000000  0.50000000  1
  O  O9  1  0.00000000  0.50000000  0.00000000  1
  O  O10  1  0.64160450  0.41240800  0.24796350  1
  O  O11  1  0.64160450  0.08759200  0.74796350  1
  O  O12  1  0.35839550  0.91240800  0.25203650  1
  O  O13  1  0.35839550  0.58759200  0.75203650  1
