# generated using pymatgen
data_Li3(FeS2)2
_symmetry_space_group_name_H-M   'P 1'
_cell_length_a   11.43016800
_cell_length_b   8.89133400
_cell_length_c   6.23060217
_cell_angle_alpha   90.00000000
_cell_angle_beta   90.16284980
_cell_angle_gamma   90.00000000
_symmetry_Int_Tables_number   1
_chemical_formula_structural   Li3(FeS2)2
_chemical_formula_sum   'Li12 Fe8 S16'
_cell_volume   633.21005989
_cell_formula_units_Z   4
loop_
 _symmetry_equiv_pos_site_id
 _symmetry_equiv_pos_as_xyz
  1  'x, y, z'
loop_
 _atom_site_type_symbol
 _atom_site_label
 _atom_site_symmetry_multiplicity
 _atom_site_fract_x
 _atom_site_fract_y
 _atom_site_fract_z
 _atom_site_occupancy
  Li  Li0  1  0.38150750  0.37301250  0.03571500  1
  Li  Li1  1  0.38150750  0.62698750  0.53571500  1
  Li  Li2  1  0.50000000  0.89441300  0.25000000  1
  Li  Li3  1  0.50000000  0.10558700  0.75000000  1
  Li  Li4  1  0.61849250  0.37301250  0.46428500  1
  Li  Li5  1  0.61849250  0.62698750  0.96428500  1
  Li  Li6  1  0.88150750  0.87301250  0.03571500  1
  Li  Li7  1  0.88150750  0.12698750  0.53571500  1
  Li  Li8  1  0.00000000  0.39441300  0.25000000  1
  Li  Li9  1  0.00000000  0.60558700  0.75000000  1
  Li  Li10  1  0.11849250  0.87301250  0.46428500  1
  Li  Li11  1  0.11849250  0.12698750  0.96428500  1
  Fe  Fe12  1  0.29613200  0.12998000  0.40758100  1
  Fe  Fe13  1  0.29613200  0.87002000  0.90758100  1
  Fe  Fe14  1  0.70386800  0.12998000  0.09241900  1
  Fe  Fe15  1  0.70386800  0.87002000  0.59241900  1
  Fe  Fe16  1  0.79613200  0.62998000  0.40758100  1
  Fe  Fe17  1  0.79613200  0.37002000  0.90758100  1
  Fe  Fe18  1  0.20386800  0.62998000  0.09241900  1
  Fe  Fe19  1  0.20386800  0.37002000  0.59241900  1
  S  S20  1  0.34877900  0.09529100  0.05657500  1
  S  S21  1  0.34877900  0.90470900  0.55657500  1
  S  S22  1  0.39823200  0.66417600  0.02284000  1
  S  S23  1  0.39823200  0.33582400  0.52284000  1
  S  S24  1  0.60176800  0.66417600  0.47716000  1
  S  S25  1  0.60176800  0.33582400  0.97716000  1
  S  S26  1  0.65122100  0.09529100  0.44342500  1
  S  S27  1  0.65122100  0.90470900  0.94342500  1
  S  S28  1  0.84877900  0.59529100  0.05657500  1
  S  S29  1  0.84877900  0.40470900  0.55657500  1
  S  S30  1  0.89823200  0.16417600  0.02284000  1
  S  S31  1  0.89823200  0.83582400  0.52284000  1
  S  S32  1  0.10176800  0.16417600  0.47716000  1
  S  S33  1  0.10176800  0.83582400  0.97716000  1
  S  S34  1  0.15122100  0.59529100  0.44342500  1
  S  S35  1  0.15122100  0.40470900  0.94342500  1
