# generated using pymatgen
data_Li4Mn5Cr3O16
_symmetry_space_group_name_H-M   'P 1'
_cell_length_a   10.19616400
_cell_length_b   5.85201600
_cell_length_c   9.50199010
_cell_angle_alpha   90.00000000
_cell_angle_beta   91.09653877
_cell_angle_gamma   90.00000000
_symmetry_Int_Tables_number   1
_chemical_formula_structural   Li4Mn5Cr3O16
_chemical_formula_sum   'Li8 Mn10 Cr6 O32'
_cell_volume   566.86200826
_cell_formula_units_Z   2
loop_
 _symmetry_equiv_pos_site_id
 _symmetry_equiv_pos_as_xyz
  1  'x, y, z'
loop_
 _atom_site_type_symbol
 _atom_site_label
 _atom_site_symmetry_multiplicity
 _atom_site_fract_x
 _atom_site_fract_y
 _atom_site_fract_z
 _atom_site_occupancy
  Li  Li0  1  0.67034100  0.00000000  0.10144700  1
  Li  Li1  1  0.99933600  0.00000000  0.00349500  1
  Li  Li2  1  0.99910700  0.00000000  0.50565000  1
  Li  Li3  1  0.83505600  0.50000000  0.60573000  1
  Li  Li4  1  0.17034100  0.50000000  0.10144700  1
  Li  Li5  1  0.49933600  0.50000000  0.00349500  1
  Li  Li6  1  0.49910700  0.50000000  0.50565000  1
  Li  Li7  1  0.33505600  0.00000000  0.60573000  1
  Mn  Mn8  1  0.66356200  0.00000000  0.51441700  1
  Mn  Mn9  1  0.82912900  0.00000000  0.78623300  1
  Mn  Mn10  1  0.83138800  0.50000000  0.01030500  1
  Mn  Mn11  1  0.91800050  0.25333850  0.28494600  1
  Mn  Mn12  1  0.91800050  0.74666150  0.28494600  1
  Mn  Mn13  1  0.16356200  0.50000000  0.51441700  1
  Mn  Mn14  1  0.32912900  0.50000000  0.78623300  1
  Mn  Mn15  1  0.33138800  0.00000000  0.01030500  1
  Mn  Mn16  1  0.41800050  0.75333850  0.28494600  1
  Mn  Mn17  1  0.41800050  0.24666150  0.28494600  1
  Cr  Cr18  1  0.58284450  0.75591650  0.78744500  1
  Cr  Cr19  1  0.58284450  0.24408350  0.78744500  1
  Cr  Cr20  1  0.67106000  0.50000000  0.28559000  1
  Cr  Cr21  1  0.08284450  0.25591650  0.78744500  1
  Cr  Cr22  1  0.08284450  0.74408350  0.78744500  1
  Cr  Cr23  1  0.17106000  0.00000000  0.28559000  1
  O  O24  1  0.57996350  0.74492350  0.40018300  1
  O  O25  1  0.51430400  0.00000000  0.66518600  1
  O  O26  1  0.67337200  0.00000000  0.89424500  1
  O  O27  1  0.99206200  0.00000000  0.69159900  1
  O  O28  1  0.99661600  0.00000000  0.19018200  1
  O  O29  1  0.57996350  0.25507650  0.40018300  1
  O  O30  1  0.74038700  0.78203100  0.66030700  1
  O  O31  1  0.74038700  0.21796900  0.66030700  1
  O  O32  1  0.66220300  0.50000000  0.90600800  1
  O  O33  1  0.83894400  0.00000000  0.39170400  1
  O  O34  1  0.76439400  0.27896500  0.15906600  1
  O  O35  1  0.76439400  0.72103500  0.15906600  1
  O  O36  1  0.84091400  0.50000000  0.39059000  1
  O  O37  1  0.91459900  0.24455000  0.90242800  1
  O  O38  1  0.98214100  0.50000000  0.16088700  1
  O  O39  1  0.91459900  0.75545000  0.90242800  1
  O  O40  1  0.07996350  0.24492350  0.40018300  1
  O  O41  1  0.01430400  0.50000000  0.66518600  1
  O  O42  1  0.17337200  0.50000000  0.89424500  1
  O  O43  1  0.49206200  0.50000000  0.69159900  1
  O  O44  1  0.49661600  0.50000000  0.19018200  1
  O  O45  1  0.07996350  0.75507650  0.40018300  1
  O  O46  1  0.24038700  0.28203100  0.66030700  1
  O  O47  1  0.24038700  0.71796900  0.66030700  1
  O  O48  1  0.16220300  0.00000000  0.90600800  1
  O  O49  1  0.33894400  0.50000000  0.39170400  1
  O  O50  1  0.26439400  0.77896500  0.15906600  1
  O  O51  1  0.26439400  0.22103500  0.15906600  1
  O  O52  1  0.34091400  0.00000000  0.39059000  1
  O  O53  1  0.41459900  0.74455000  0.90242800  1
  O  O54  1  0.48214100  0.00000000  0.16088700  1
  O  O55  1  0.41459900  0.25545000  0.90242800  1
