# generated using pymatgen
data_Li4Cr2Ni5O12
_symmetry_space_group_name_H-M   'P 1'
_cell_length_a   4.98599800
_cell_length_b   8.87491600
_cell_length_c   9.74950889
_cell_angle_alpha   90.00000000
_cell_angle_beta   100.80113797
_cell_angle_gamma   90.00000000
_symmetry_Int_Tables_number   1
_chemical_formula_structural   Li4Cr2Ni5O12
_chemical_formula_sum   'Li8 Cr4 Ni10 O24'
_cell_volume   423.77560511
_cell_formula_units_Z   2
loop_
 _symmetry_equiv_pos_site_id
 _symmetry_equiv_pos_as_xyz
  1  'x, y, z'
loop_
 _atom_site_type_symbol
 _atom_site_label
 _atom_site_symmetry_multiplicity
 _atom_site_fract_x
 _atom_site_fract_y
 _atom_site_fract_z
 _atom_site_occupancy
  Li  Li0  1  0.00266500  0.08037700  0.25681800  1
  Li  Li1  1  0.49541200  0.07372600  0.74638600  1
  Li  Li2  1  0.75977100  0.41937500  0.49822800  1
  Li  Li3  1  0.49539000  0.42241300  0.74619400  1
  Li  Li4  1  0.99733500  0.58037700  0.74318200  1
  Li  Li5  1  0.50458800  0.57372600  0.25361400  1
  Li  Li6  1  0.24022900  0.91937500  0.50177200  1
  Li  Li7  1  0.50461000  0.92241300  0.25380600  1
  Cr  Cr8  1  0.25657900  0.25758300  0.49946200  1
  Cr  Cr9  1  0.75099700  0.24918100  0.00359700  1
  Cr  Cr10  1  0.24900300  0.74918100  0.99640300  1
  Cr  Cr11  1  0.74342100  0.75758300  0.50053800  1
  Ni  Ni12  1  0.24894500  0.08154400  0.99690300  1
  Ni  Ni13  1  0.75310500  0.08172400  0.50128600  1
  Ni  Ni14  1  0.99205100  0.24955000  0.74614100  1
  Ni  Ni15  1  0.50710000  0.25499700  0.25390900  1
  Ni  Ni16  1  0.24501800  0.41710000  0.00050600  1
  Ni  Ni17  1  0.24689500  0.58172400  0.49871400  1
  Ni  Ni18  1  0.75105500  0.58154400  0.00309700  1
  Ni  Ni19  1  0.00794900  0.74955000  0.25385900  1
  Ni  Ni20  1  0.49290000  0.75499700  0.74609100  1
  Ni  Ni21  1  0.75498200  0.91710000  0.99949400  1
  O  O22  1  0.11078400  0.10232500  0.61161500  1
  O  O23  1  0.86364800  0.09651500  0.88451300  1
  O  O24  1  0.88253100  0.23349300  0.39047300  1
  O  O25  1  0.13126200  0.24520600  0.11380800  1
  O  O26  1  0.63187300  0.08993700  0.11918600  1
  O  O27  1  0.39562200  0.09760900  0.38324600  1
  O  O28  1  0.12838800  0.40814400  0.61933300  1
  O  O29  1  0.60102700  0.24023400  0.62111800  1
  O  O30  1  0.37227700  0.24919300  0.88296000  1
  O  O31  1  0.88028700  0.41022100  0.88413300  1
  O  O32  1  0.60597400  0.41018100  0.11341600  1
  O  O33  1  0.36616900  0.40924000  0.39070800  1
  O  O34  1  0.13635200  0.59651500  0.11548700  1
  O  O35  1  0.88921600  0.60232500  0.38838500  1
  O  O36  1  0.11746900  0.73349300  0.60952700  1
  O  O37  1  0.60437800  0.59760900  0.61675400  1
  O  O38  1  0.86873800  0.74520600  0.88619200  1
  O  O39  1  0.36812700  0.58993700  0.88081400  1
  O  O40  1  0.39897300  0.74023400  0.37888200  1
  O  O41  1  0.11971300  0.91022100  0.11586700  1
  O  O42  1  0.87161200  0.90814400  0.38066700  1
  O  O43  1  0.62772300  0.74919300  0.11704000  1
  O  O44  1  0.63383100  0.90924000  0.60929200  1
  O  O45  1  0.39402600  0.91018100  0.88658400  1
