# generated using pymatgen
data_Li2MnF4
_symmetry_space_group_name_H-M   'P 1'
_cell_length_a   8.61420200
_cell_length_b   8.61420200
_cell_length_c   8.61420200
_cell_angle_alpha   90.00000000
_cell_angle_beta   90.00000000
_cell_angle_gamma   90.00000000
_symmetry_Int_Tables_number   1
_chemical_formula_structural   Li2MnF4
_chemical_formula_sum   'Li16 Mn8 F32'
_cell_volume   639.21234640
_cell_formula_units_Z   8
loop_
 _symmetry_equiv_pos_site_id
 _symmetry_equiv_pos_as_xyz
  1  'x, y, z'
loop_
 _atom_site_type_symbol
 _atom_site_label
 _atom_site_symmetry_multiplicity
 _atom_site_fract_x
 _atom_site_fract_y
 _atom_site_fract_z
 _atom_site_occupancy
  Li  Li0  1  0.87500000  0.87500000  0.12500000  1
  Li  Li1  1  0.12500000  0.12500000  0.12500000  1
  Li  Li2  1  0.37500000  0.12500000  0.37500000  1
  Li  Li3  1  0.62500000  0.87500000  0.37500000  1
  Li  Li4  1  0.87500000  0.37500000  0.62500000  1
  Li  Li5  1  0.12500000  0.62500000  0.62500000  1
  Li  Li6  1  0.37500000  0.62500000  0.87500000  1
  Li  Li7  1  0.62500000  0.37500000  0.87500000  1
  Li  Li8  1  0.37500000  0.87500000  0.62500000  1
  Li  Li9  1  0.62500000  0.12500000  0.62500000  1
  Li  Li10  1  0.87500000  0.12500000  0.87500000  1
  Li  Li11  1  0.12500000  0.87500000  0.87500000  1
  Li  Li12  1  0.37500000  0.37500000  0.12500000  1
  Li  Li13  1  0.62500000  0.62500000  0.12500000  1
  Li  Li14  1  0.87500000  0.62500000  0.37500000  1
  Li  Li15  1  0.12500000  0.37500000  0.37500000  1
  Mn  Mn16  1  0.25000000  0.75000000  0.25000000  1
  Mn  Mn17  1  0.00000000  0.00000000  0.50000000  1
  Mn  Mn18  1  0.25000000  0.25000000  0.75000000  1
  Mn  Mn19  1  0.00000000  0.50000000  0.00000000  1
  Mn  Mn20  1  0.75000000  0.75000000  0.75000000  1
  Mn  Mn21  1  0.50000000  0.00000000  0.00000000  1
  Mn  Mn22  1  0.75000000  0.25000000  0.25000000  1
  Mn  Mn23  1  0.50000000  0.50000000  0.50000000  1
  F  F24  1  0.13544667  0.13544667  0.36455333  1
  F  F25  1  0.13544667  0.36455333  0.13544667  1
  F  F26  1  0.36455333  0.36455333  0.36455333  1
  F  F27  1  0.36455333  0.13544667  0.13544667  1
  F  F28  1  0.88544667  0.11455333  0.11455333  1
  F  F29  1  0.38544667  0.88544667  0.38544667  1
  F  F30  1  0.11455333  0.88544667  0.11455333  1
  F  F31  1  0.61455333  0.11455333  0.38544667  1
  F  F32  1  0.13544667  0.63544667  0.86455333  1
  F  F33  1  0.13544667  0.86455333  0.63544667  1
  F  F34  1  0.36455333  0.86455333  0.86455333  1
  F  F35  1  0.36455333  0.63544667  0.63544667  1
  F  F36  1  0.88544667  0.61455333  0.61455333  1
  F  F37  1  0.38544667  0.38544667  0.88544667  1
  F  F38  1  0.11455333  0.38544667  0.61455333  1
  F  F39  1  0.61455333  0.61455333  0.88544667  1
  F  F40  1  0.63544667  0.13544667  0.86455333  1
  F  F41  1  0.63544667  0.36455333  0.63544667  1
  F  F42  1  0.86455333  0.36455333  0.86455333  1
  F  F43  1  0.86455333  0.13544667  0.63544667  1
  F  F44  1  0.38544667  0.11455333  0.61455333  1
  F  F45  1  0.88544667  0.88544667  0.88544667  1
  F  F46  1  0.61455333  0.88544667  0.61455333  1
  F  F47  1  0.11455333  0.11455333  0.88544667  1
  F  F48  1  0.63544667  0.63544667  0.36455333  1
  F  F49  1  0.63544667  0.86455333  0.13544667  1
  F  F50  1  0.86455333  0.86455333  0.36455333  1
  F  F51  1  0.86455333  0.63544667  0.13544667  1
  F  F52  1  0.38544667  0.61455333  0.11455333  1
  F  F53  1  0.88544667  0.38544667  0.38544667  1
  F  F54  1  0.61455333  0.38544667  0.11455333  1
  F  F55  1  0.11455333  0.61455333  0.38544667  1
