# generated using pymatgen
data_Mn3FeCo2(PO4)6
_symmetry_space_group_name_H-M   'P 1'
_cell_length_a   8.58595811
_cell_length_b   8.58595811
_cell_length_c   20.61858739
_cell_angle_alpha   90.00000000
_cell_angle_beta   90.00000000
_cell_angle_gamma   120.00000000
_symmetry_Int_Tables_number   1
_chemical_formula_structural   Mn3FeCo2(PO4)6
_chemical_formula_sum   'Mn9 Fe3 Co6 P18 O72'
_cell_volume   1316.33694491
_cell_formula_units_Z   3
loop_
 _symmetry_equiv_pos_site_id
 _symmetry_equiv_pos_as_xyz
  1  'x, y, z'
loop_
 _atom_site_type_symbol
 _atom_site_label
 _atom_site_symmetry_multiplicity
 _atom_site_fract_x
 _atom_site_fract_y
 _atom_site_fract_z
 _atom_site_occupancy
  Mn  Mn0  1  0.33333333  0.66666667  0.30900967  1
  Mn  Mn1  1  0.33333333  0.66666667  0.52360967  1
  Mn  Mn2  1  0.33333333  0.66666667  0.02355967  1
  Mn  Mn3  1  0.00000000  0.00000000  0.64234300  1
  Mn  Mn4  1  0.00000000  0.00000000  0.85694300  1
  Mn  Mn5  1  0.00000000  0.00000000  0.35689300  1
  Mn  Mn6  1  0.66666667  0.33333333  0.97567633  1
  Mn  Mn7  1  0.66666667  0.33333333  0.19027633  1
  Mn  Mn8  1  0.66666667  0.33333333  0.69022633  1
  Fe  Fe9  1  0.33333333  0.66666667  0.81062167  1
  Fe  Fe10  1  0.00000000  0.00000000  0.14395500  1
  Fe  Fe11  1  0.66666667  0.33333333  0.47728833  1
  Co  Co12  1  0.33333333  0.66666667  0.66813067  1
  Co  Co13  1  0.33333333  0.66666667  0.16599767  1
  Co  Co14  1  0.00000000  0.00000000  0.00146400  1
  Co  Co15  1  0.00000000  0.00000000  0.49933100  1
  Co  Co16  1  0.66666667  0.33333333  0.33479733  1
  Co  Co17  1  0.66666667  0.33333333  0.83266433  1
  P  P18  1  0.70590567  0.70529733  0.25064633  1
  P  P19  1  0.29470267  0.00060833  0.25064633  1
  P  P20  1  0.99939167  0.29409433  0.25064633  1
  P  P21  1  0.66710633  0.04261467  0.08219767  1
  P  P22  1  0.37550833  0.33289367  0.08219767  1
  P  P23  1  0.95738533  0.62449167  0.08219767  1
  P  P24  1  0.37257233  0.03863067  0.58397967  1
  P  P25  1  0.96136933  0.33394167  0.58397967  1
  P  P26  1  0.66605833  0.62742767  0.58397967  1
  P  P27  1  0.33377300  0.37594800  0.41553100  1
  P  P28  1  0.04217500  0.66622700  0.41553100  1
  P  P29  1  0.62405200  0.95782500  0.41553100  1
  P  P30  1  0.03923900  0.37196400  0.91731300  1
  P  P31  1  0.62803600  0.66727500  0.91731300  1
  P  P32  1  0.33272500  0.96076100  0.91731300  1
  P  P33  1  0.00043967  0.70928133  0.74886433  1
  P  P34  1  0.70884167  0.99956033  0.74886433  1
  P  P35  1  0.29071867  0.29115833  0.74886433  1
  O  O36  1  0.53199600  0.66795500  0.97972100  1
  O  O37  1  0.33204500  0.86404100  0.97972100  1
  O  O38  1  0.13595900  0.46800400  0.97972100  1
  O  O39  1  0.67995200  0.51264000  0.25790700  1
  O  O40  1  0.80289700  0.80137300  0.18907600  1
  O  O41  1  0.51318333  0.68487867  0.24374867  1
  O  O42  1  0.48736000  0.16731200  0.25790700  1
  O  O43  1  0.31512133  0.82830467  0.24374867  1
  O  O44  1  0.66855567  0.13861733  0.14494733  1
  O  O45  1  0.17169533  0.48681667  0.24374867  1
  O  O46  1  0.83333833  0.01845467  0.07470767  1
  O  O47  1  0.47006167  0.33144433  0.14494733  1
  O  O48  1  0.19862700  0.00152400  0.18907600  1
  O  O49  1  0.83268800  0.32004800  0.25790700  1
  O  O50  1  0.49574433  0.85188067  0.08991967  1
  O  O51  1  0.99847600  0.19710300  0.18907600  1
  O  O52  1  0.35613633  0.50425567  0.08991967  1
  O  O53  1  0.18511633  0.16666167  0.07470767  1
  O  O54  1  0.14811933  0.64386367  0.08991967  1
  O  O55  1  0.86138267  0.52993833  0.14494733  1
  O  O56  1  0.98154533  0.81488367  0.07470767  1
  O  O57  1  0.52632567  0.85590033  0.35348933  1
  O  O58  1  0.32957467  0.47367433  0.35348933  1
  O  O59  1  0.14409967  0.67042533  0.35348933  1
  O  O60  1  0.19866267  0.00128833  0.31305433  1
  O  O61  1  0.99871167  0.19737433  0.31305433  1
  O  O62  1  0.80262567  0.80133733  0.31305433  1
  O  O63  1  0.34661867  0.84597333  0.59124033  1
  O  O64  1  0.46956367  0.13470633  0.52240933  1
  O  O65  1  0.17985000  0.01821200  0.57708200  1
  O  O66  1  0.15402667  0.50064533  0.59124033  1
  O  O67  1  0.98178800  0.16163800  0.57708200  1
  O  O68  1  0.33522233  0.47195067  0.47828067  1
  O  O69  1  0.83836200  0.82015000  0.57708200  1
  O  O70  1  0.50000500  0.35178800  0.40804100  1
  O  O71  1  0.13672833  0.66477767  0.47828067  1
  O  O72  1  0.86529367  0.33485733  0.52240933  1
  O  O73  1  0.49935467  0.65338133  0.59124033  1
  O  O74  1  0.16241100  0.18521400  0.42325300  1
  O  O75  1  0.66514267  0.53043633  0.52240933  1
  O  O76  1  0.02280300  0.83758900  0.42325300  1
  O  O77  1  0.85178300  0.49999500  0.40804100  1
  O  O78  1  0.81478600  0.97719700  0.42325300  1
  O  O79  1  0.52804933  0.86327167  0.47828067  1
  O  O80  1  0.64821200  0.14821700  0.40804100  1
  O  O81  1  0.19299233  0.18923367  0.68682267  1
  O  O82  1  0.99624133  0.80700767  0.68682267  1
  O  O83  1  0.81076633  0.00375867  0.68682267  1
  O  O84  1  0.86532933  0.33462167  0.64638767  1
  O  O85  1  0.66537833  0.53070767  0.64638767  1
  O  O86  1  0.46929233  0.13467067  0.64638767  1
  O  O87  1  0.01328533  0.17930667  0.92457367  1
  O  O88  1  0.13623033  0.46803967  0.85574267  1
  O  O89  1  0.84651667  0.35154533  0.91041533  1
  O  O90  1  0.82069333  0.83397867  0.92457367  1
  O  O91  1  0.64845467  0.49497133  0.91041533  1
  O  O92  1  0.00188900  0.80528400  0.81161400  1
  O  O93  1  0.50502867  0.15348333  0.91041533  1
  O  O94  1  0.16667167  0.68512133  0.74137433  1
  O  O95  1  0.80339500  0.99811100  0.81161400  1
  O  O96  1  0.53196033  0.66819067  0.85574267  1
  O  O97  1  0.16602133  0.98671467  0.92457367  1
  O  O98  1  0.82907767  0.51854733  0.75658633  1
  O  O99  1  0.33180933  0.86376967  0.85574267  1
  O  O100  1  0.68946967  0.17092233  0.75658633  1
  O  O101  1  0.51844967  0.83332833  0.74137433  1
  O  O102  1  0.48145267  0.31053033  0.75658633  1
  O  O103  1  0.19471600  0.19660500  0.81161400  1
  O  O104  1  0.31487867  0.48155033  0.74137433  1
  O  O105  1  0.85965900  0.52256700  0.02015600  1
  O  O106  1  0.66290800  0.14034100  0.02015600  1
  O  O107  1  0.47743300  0.33709200  0.02015600  1
