# generated using pymatgen
data_LiMn2O3F
_symmetry_space_group_name_H-M   'P 1'
_cell_length_a   6.14660404
_cell_length_b   6.14660404
_cell_length_c   14.47637039
_cell_angle_alpha   90.00000000
_cell_angle_beta   90.00000000
_cell_angle_gamma   120.00000000
_symmetry_Int_Tables_number   1
_chemical_formula_structural   LiMn2O3F
_chemical_formula_sum   'Li6 Mn12 O18 F6'
_cell_volume   473.65354564
_cell_formula_units_Z   6
loop_
 _symmetry_equiv_pos_site_id
 _symmetry_equiv_pos_as_xyz
  1  'x, y, z'
loop_
 _atom_site_type_symbol
 _atom_site_label
 _atom_site_symmetry_multiplicity
 _atom_site_fract_x
 _atom_site_fract_y
 _atom_site_fract_z
 _atom_site_occupancy
  Li  Li0  1  0.33333333  0.66666667  0.77294167  1
  Li  Li1  1  0.33333333  0.66666667  0.56039167  1
  Li  Li2  1  0.00000000  0.00000000  0.10627500  1
  Li  Li3  1  0.00000000  0.00000000  0.89372500  1
  Li  Li4  1  0.66666667  0.33333333  0.43960833  1
  Li  Li5  1  0.66666667  0.33333333  0.22705833  1
  Mn  Mn6  1  0.50000000  0.50000000  0.00000000  1
  Mn  Mn7  1  0.33333333  0.66666667  0.16666667  1
  Mn  Mn8  1  0.16666667  0.33333333  0.33333333  1
  Mn  Mn9  1  0.00000000  0.50000000  0.00000000  1
  Mn  Mn10  1  0.16666667  0.83333333  0.33333333  1
  Mn  Mn11  1  1.00000000  1.00000000  0.50000000  1
  Mn  Mn12  1  0.83333333  0.66666667  0.66666667  1
  Mn  Mn13  1  0.66666667  0.83333333  0.33333333  1
  Mn  Mn14  1  0.83333333  0.16666667  0.66666667  1
  Mn  Mn15  1  0.66666667  0.33333333  0.83333333  1
  Mn  Mn16  1  0.50000000  0.00000000  0.00000000  1
  Mn  Mn17  1  0.33333333  0.16666667  0.66666667  1
  O  O18  1  0.47903833  0.95807667  0.26298867  1
  O  O19  1  0.47903833  0.52096167  0.26298867  1
  O  O20  1  0.04192333  0.52096167  0.26298867  1
  O  O21  1  0.62474333  0.81237167  0.07034467  1
  O  O22  1  0.18762833  0.37525667  0.07034467  1
  O  O23  1  0.18762833  0.81237167  0.07034467  1
  O  O24  1  0.14570500  0.29141000  0.59632200  1
  O  O25  1  0.14570500  0.85429500  0.59632200  1
  O  O26  1  0.70859000  0.85429500  0.59632200  1
  O  O27  1  0.29141000  0.14570500  0.40367800  1
  O  O28  1  0.85429500  0.70859000  0.40367800  1
  O  O29  1  0.85429500  0.14570500  0.40367800  1
  O  O30  1  0.81237167  0.62474333  0.92965533  1
  O  O31  1  0.81237167  0.18762833  0.92965533  1
  O  O32  1  0.37525667  0.18762833  0.92965533  1
  O  O33  1  0.95807667  0.47903833  0.73701133  1
  O  O34  1  0.52096167  0.04192333  0.73701133  1
  O  O35  1  0.52096167  0.47903833  0.73701133  1
  F  F36  1  0.33333333  0.66666667  0.42926267  1
  F  F37  1  0.33333333  0.66666667  0.90407067  1
  F  F38  1  0.00000000  0.00000000  0.76259600  1
  F  F39  1  0.00000000  0.00000000  0.23740400  1
  F  F40  1  0.66666667  0.33333333  0.09592933  1
  F  F41  1  0.66666667  0.33333333  0.57073733  1
