# generated using pymatgen
data_Fe(CoO3)2
_symmetry_space_group_name_H-M   'P 1'
_cell_length_a   12.76139600
_cell_length_b   2.88719600
_cell_length_c   5.83264717
_cell_angle_alpha   90.00000000
_cell_angle_beta   103.93388894
_cell_angle_gamma   90.00000000
_symmetry_Int_Tables_number   1
_chemical_formula_structural   Fe(CoO3)2
_chemical_formula_sum   'Fe2 Co4 O12'
_cell_volume   208.57819842
_cell_formula_units_Z   2
loop_
 _symmetry_equiv_pos_site_id
 _symmetry_equiv_pos_as_xyz
  1  'x, y, z'
loop_
 _atom_site_type_symbol
 _atom_site_label
 _atom_site_symmetry_multiplicity
 _atom_site_fract_x
 _atom_site_fract_y
 _atom_site_fract_z
 _atom_site_occupancy
  Fe  Fe0  1  0.00000000  0.50000000  0.00000000  1
  Fe  Fe1  1  0.50000000  0.00000000  0.00000000  1
  Co  Co2  1  0.16924800  0.00000000  0.33797700  1
  Co  Co3  1  0.33075200  0.50000000  0.66202300  1
  Co  Co4  1  0.66924800  0.50000000  0.33797700  1
  Co  Co5  1  0.83075200  0.00000000  0.66202300  1
  O  O6  1  0.16107400  0.50000000  0.12328300  1
  O  O7  1  0.48407500  0.50000000  0.76809100  1
  O  O8  1  0.32063100  0.00000000  0.44489800  1
  O  O9  1  0.01592500  0.00000000  0.23190900  1
  O  O10  1  0.33892600  0.00000000  0.87671700  1
  O  O11  1  0.17936900  0.50000000  0.55510200  1
  O  O12  1  0.66107400  0.00000000  0.12328300  1
  O  O13  1  0.98407500  0.00000000  0.76809100  1
  O  O14  1  0.82063100  0.50000000  0.44489800  1
  O  O15  1  0.51592500  0.50000000  0.23190900  1
  O  O16  1  0.83892600  0.50000000  0.87671700  1
  O  O17  1  0.67936900  0.00000000  0.55510200  1
