# generated using pymatgen
data_Li4CrCu3O8
_symmetry_space_group_name_H-M   'P 1'
_cell_length_a   5.86328889
_cell_length_b   5.86328889
_cell_length_c   14.33816371
_cell_angle_alpha   90.00000000
_cell_angle_beta   90.00000000
_cell_angle_gamma   120.00000000
_symmetry_Int_Tables_number   1
_chemical_formula_structural   Li4CrCu3O8
_chemical_formula_sum   'Li12 Cr3 Cu9 O24'
_cell_volume   426.88092862
_cell_formula_units_Z   3
loop_
 _symmetry_equiv_pos_site_id
 _symmetry_equiv_pos_as_xyz
  1  'x, y, z'
loop_
 _atom_site_type_symbol
 _atom_site_label
 _atom_site_symmetry_multiplicity
 _atom_site_fract_x
 _atom_site_fract_y
 _atom_site_fract_z
 _atom_site_occupancy
  Li  Li0  1  0.00000000  0.00000000  0.50000000  1
  Li  Li1  1  0.83333333  0.66666667  0.16666667  1
  Li  Li2  1  0.00000000  0.50000000  0.50000000  1
  Li  Li3  1  0.50000000  0.50000000  0.50000000  1
  Li  Li4  1  0.66666667  0.33333333  0.83333333  1
  Li  Li5  1  0.50000000  0.00000000  0.50000000  1
  Li  Li6  1  0.66666667  0.83333333  0.83333333  1
  Li  Li7  1  0.16666667  0.83333333  0.83333333  1
  Li  Li8  1  0.33333333  0.66666667  0.16666667  1
  Li  Li9  1  0.16666667  0.33333333  0.83333333  1
  Li  Li10  1  0.33333333  0.16666667  0.16666667  1
  Li  Li11  1  0.83333333  0.16666667  0.16666667  1
  Cr  Cr12  1  0.66666667  0.33333333  0.33333333  1
  Cr  Cr13  1  0.33333333  0.66666667  0.66666667  1
  Cr  Cr14  1  1.00000000  1.00000000  0.00000000  1
  Cu  Cu15  1  0.16666667  0.33333333  0.33333333  1
  Cu  Cu16  1  0.66666667  0.83333333  0.33333333  1
  Cu  Cu17  1  0.16666667  0.83333333  0.33333333  1
  Cu  Cu18  1  0.83333333  0.66666667  0.66666667  1
  Cu  Cu19  1  0.33333333  0.16666667  0.66666667  1
  Cu  Cu20  1  0.83333333  0.16666667  0.66666667  1
  Cu  Cu21  1  0.50000000  0.00000000  0.00000000  1
  Cu  Cu22  1  0.00000000  0.50000000  0.00000000  1
  Cu  Cu23  1  0.50000000  0.50000000  0.00000000  1
  O  O24  1  0.00000000  0.00000000  0.74178800  1
  O  O25  1  0.83100583  0.66201167  0.40974267  1
  O  O26  1  0.33798833  0.16899417  0.40974267  1
  O  O27  1  0.00000000  0.00000000  0.25821200  1
  O  O28  1  0.83100583  0.16899417  0.40974267  1
  O  O29  1  0.16899417  0.33798833  0.59025733  1
  O  O30  1  0.66201167  0.83100583  0.59025733  1
  O  O31  1  0.16899417  0.83100583  0.59025733  1
  O  O32  1  0.66666667  0.33333333  0.07512133  1
  O  O33  1  0.49767250  0.99534500  0.74307600  1
  O  O34  1  0.00465500  0.50232750  0.74307600  1
  O  O35  1  0.66666667  0.33333333  0.59154533  1
  O  O36  1  0.49767250  0.50232750  0.74307600  1
  O  O37  1  0.83566083  0.67132167  0.92359067  1
  O  O38  1  0.32867833  0.16433917  0.92359067  1
  O  O39  1  0.83566083  0.16433917  0.92359067  1
  O  O40  1  0.33333333  0.66666667  0.40845467  1
  O  O41  1  0.16433917  0.32867833  0.07640933  1
  O  O42  1  0.67132167  0.83566083  0.07640933  1
  O  O43  1  0.33333333  0.66666667  0.92487867  1
  O  O44  1  0.16433917  0.83566083  0.07640933  1
  O  O45  1  0.50232750  0.00465500  0.25692400  1
  O  O46  1  0.99534500  0.49767250  0.25692400  1
  O  O47  1  0.50232750  0.49767250  0.25692400  1
