# generated using pymatgen
data_FeNi(PO4)2
_symmetry_space_group_name_H-M   'P 1'
_cell_length_a   8.65393004
_cell_length_b   8.65393004
_cell_length_c   20.38240912
_cell_angle_alpha   90.00000000
_cell_angle_beta   90.00000000
_cell_angle_gamma   120.00000000
_symmetry_Int_Tables_number   1
_chemical_formula_structural   FeNi(PO4)2
_chemical_formula_sum   'Fe9 Ni9 P18 O72'
_cell_volume   1321.94353747
_cell_formula_units_Z   9
loop_
 _symmetry_equiv_pos_site_id
 _symmetry_equiv_pos_as_xyz
  1  'x, y, z'
loop_
 _atom_site_type_symbol
 _atom_site_label
 _atom_site_symmetry_multiplicity
 _atom_site_fract_x
 _atom_site_fract_y
 _atom_site_fract_z
 _atom_site_occupancy
  Fe  Fe0  1  0.33333333  0.66666667  0.66519067  1
  Fe  Fe1  1  0.33333333  0.66666667  0.81187867  1
  Fe  Fe2  1  0.33333333  0.66666667  0.16629867  1
  Fe  Fe3  1  0.00000000  0.00000000  0.99852400  1
  Fe  Fe4  1  0.00000000  0.00000000  0.14521200  1
  Fe  Fe5  1  0.00000000  0.00000000  0.49963200  1
  Fe  Fe6  1  0.66666667  0.33333333  0.33185733  1
  Fe  Fe7  1  0.66666667  0.33333333  0.47854533  1
  Fe  Fe8  1  0.66666667  0.33333333  0.83296533  1
  Ni  Ni9  1  0.33333333  0.66666667  0.30851467  1
  Ni  Ni10  1  0.33333333  0.66666667  0.52350367  1
  Ni  Ni11  1  0.33333333  0.66666667  0.02395467  1
  Ni  Ni12  1  0.00000000  0.00000000  0.64184800  1
  Ni  Ni13  1  0.00000000  0.00000000  0.85683700  1
  Ni  Ni14  1  0.00000000  0.00000000  0.35728800  1
  Ni  Ni15  1  0.66666667  0.33333333  0.97518133  1
  Ni  Ni16  1  0.66666667  0.33333333  0.19017033  1
  Ni  Ni17  1  0.66666667  0.33333333  0.69062133  1
  P  P18  1  0.70105933  0.70201467  0.25015667  1
  P  P19  1  0.29798533  0.99904467  0.25015667  1
  P  P20  1  0.00095533  0.29894067  0.25015667  1
  P  P21  1  0.66600767  0.03447533  0.08335033  1
  P  P22  1  0.36846767  0.33399233  0.08335033  1
  P  P23  1  0.96552467  0.63153233  0.08335033  1
  P  P24  1  0.36772600  0.03534800  0.58349000  1
  P  P25  1  0.96465200  0.33237800  0.58349000  1
  P  P26  1  0.66762200  0.63227400  0.58349000  1
  P  P27  1  0.33267433  0.36780867  0.41668367  1
  P  P28  1  0.03513433  0.66732567  0.41668367  1
  P  P29  1  0.63219133  0.96486567  0.41668367  1
  P  P30  1  0.03439267  0.36868133  0.91682333  1
  P  P31  1  0.63131867  0.66571133  0.91682333  1
  P  P32  1  0.33428867  0.96560733  0.91682333  1
  P  P33  1  0.99934100  0.70114200  0.75001700  1
  P  P34  1  0.70180100  0.00065900  0.75001700  1
  P  P35  1  0.29885800  0.29819900  0.75001700  1
  O  O36  1  0.52437100  0.64369700  0.97905100  1
  O  O37  1  0.35630300  0.88067400  0.97905100  1
  O  O38  1  0.11932600  0.47562900  0.97905100  1
  O  O39  1  0.67920433  0.51344467  0.26268867  1
  O  O40  1  0.14672700  0.46163100  0.85625000  1
  O  O41  1  0.51167233  0.67493667  0.23586667  1
  O  O42  1  0.48655533  0.16575967  0.26268867  1
  O  O43  1  0.32506333  0.83673567  0.23586667  1
  O  O44  1  0.68225833  0.14126567  0.14438367  1
  O  O45  1  0.16326433  0.48832767  0.23586667  1
  O  O46  1  0.83327800  0.01006700  0.07156800  1
  O  O47  1  0.45900733  0.31774167  0.14438367  1
  O  O48  1  0.53836900  0.68509600  0.85625000  1
  O  O49  1  0.83424033  0.32079567  0.26268867  1
  O  O50  1  0.50366433  0.84316767  0.09591467  1
  O  O51  1  0.31490400  0.85327300  0.85625000  1
  O  O52  1  0.33950333  0.49633567  0.09591467  1
  O  O53  1  0.17678900  0.16672200  0.07156800  1
  O  O54  1  0.15683233  0.66049667  0.09591467  1
  O  O55  1  0.85873433  0.54099267  0.14438367  1
  O  O56  1  0.98993300  0.82321100  0.07156800  1
  O  O57  1  0.54462600  0.86093600  0.35431900  1
  O  O58  1  0.31631000  0.45537400  0.35431900  1
  O  O59  1  0.13906400  0.68369000  0.35431900  1
  O  O60  1  0.19103767  0.97703033  0.31238433  1
  O  O61  1  0.02296967  0.21400733  0.31238433  1
  O  O62  1  0.78599267  0.80896233  0.31238433  1
  O  O63  1  0.34587100  0.84677800  0.59602200  1
  O  O64  1  0.81339367  0.79496433  0.18958333  1
  O  O65  1  0.17833900  0.00827000  0.56920000  1
  O  O66  1  0.15322200  0.49909300  0.59602200  1
  O  O67  1  0.99173000  0.17006900  0.56920000  1
  O  O68  1  0.34892500  0.47459900  0.47771700  1
  O  O69  1  0.82993100  0.82166100  0.56920000  1
  O  O70  1  0.49994467  0.34340033  0.40490133  1
  O  O71  1  0.12567400  0.65107500  0.47771700  1
  O  O72  1  0.20503567  0.01842933  0.18958333  1
  O  O73  1  0.50090700  0.65412900  0.59602200  1
  O  O74  1  0.17033100  0.17650100  0.42924800  1
  O  O75  1  0.98157067  0.18660633  0.18958333  1
  O  O76  1  0.00617000  0.82966900  0.42924800  1
  O  O77  1  0.84345567  0.50005533  0.40490133  1
  O  O78  1  0.82349900  0.99383000  0.42924800  1
  O  O79  1  0.52540100  0.87432600  0.47771700  1
  O  O80  1  0.65659967  0.15654433  0.40490133  1
  O  O81  1  0.21129267  0.19426933  0.68765233  1
  O  O82  1  0.98297667  0.78870733  0.68765233  1
  O  O83  1  0.80573067  0.01702333  0.68765233  1
  O  O84  1  0.85770433  0.31036367  0.64571767  1
  O  O85  1  0.68963633  0.54734067  0.64571767  1
  O  O86  1  0.45265933  0.14229567  0.64571767  1
  O  O87  1  0.01253767  0.18011133  0.92935533  1
  O  O88  1  0.48006033  0.12829767  0.52291667  1
  O  O89  1  0.84500567  0.34160333  0.90253333  1
  O  O90  1  0.81988867  0.83242633  0.92935533  1
  O  O91  1  0.65839667  0.50340233  0.90253333  1
  O  O92  1  0.01559167  0.80793233  0.81105033  1
  O  O93  1  0.49659767  0.15499433  0.90253333  1
  O  O94  1  0.16661133  0.67673367  0.73823467  1
  O  O95  1  0.79234067  0.98440833  0.81105033  1
  O  O96  1  0.87170233  0.35176267  0.52291667  1
  O  O97  1  0.16757367  0.98746233  0.92935533  1
  O  O98  1  0.83699767  0.50983433  0.76258133  1
  O  O99  1  0.64823733  0.51993967  0.52291667  1
  O  O100  1  0.67283667  0.16300233  0.76258133  1
  O  O101  1  0.51012233  0.83338867  0.73823467  1
  O  O102  1  0.49016567  0.32716333  0.76258133  1
  O  O103  1  0.19206767  0.20765933  0.81105033  1
  O  O104  1  0.32326633  0.48987767  0.73823467  1
  O  O105  1  0.87795933  0.52760267  0.02098567  1
  O  O106  1  0.64964333  0.12204067  0.02098567  1
  O  O107  1  0.47239733  0.35035667  0.02098567  1
