# generated using pymatgen
data_Li2Co2Si2O7
_symmetry_space_group_name_H-M   'P 1'
_cell_length_a   4.98182304
_cell_length_b   9.43711409
_cell_length_c   13.43080500
_cell_angle_alpha   90.00000000
_cell_angle_beta   90.00000000
_cell_angle_gamma   90.00000000
_symmetry_Int_Tables_number   1
_chemical_formula_structural   Li2Co2Si2O7
_chemical_formula_sum   'Li8 Co8 Si8 O28'
_cell_volume   631.43630196
_cell_formula_units_Z   4
loop_
 _symmetry_equiv_pos_site_id
 _symmetry_equiv_pos_as_xyz
  1  'x, y, z'
loop_
 _atom_site_type_symbol
 _atom_site_label
 _atom_site_symmetry_multiplicity
 _atom_site_fract_x
 _atom_site_fract_y
 _atom_site_fract_z
 _atom_site_occupancy
  Li  Li0  1  0.51312900  0.50000000  0.00000000  1
  Li  Li1  1  0.51312900  0.50000000  0.50000000  1
  Li  Li2  1  0.98630250  0.01133050  0.75000000  1
  Li  Li3  1  0.48630250  0.48866950  0.25000000  1
  Li  Li4  1  0.01312900  0.00000000  0.00000000  1
  Li  Li5  1  0.01312900  0.00000000  0.50000000  1
  Li  Li6  1  0.48630250  0.51133050  0.75000000  1
  Li  Li7  1  0.98630250  0.98866950  0.25000000  1
  Co  Co8  1  0.56539900  0.22029300  0.91893300  1
  Co  Co9  1  0.56539900  0.22029300  0.58106700  1
  Co  Co10  1  0.06539900  0.27970700  0.41893300  1
  Co  Co11  1  0.06539900  0.27970700  0.08106700  1
  Co  Co12  1  0.06539900  0.72029300  0.91893300  1
  Co  Co13  1  0.06539900  0.72029300  0.58106700  1
  Co  Co14  1  0.56539900  0.77970700  0.41893300  1
  Co  Co15  1  0.56539900  0.77970700  0.08106700  1
  Si  Si16  1  0.04855400  0.39241600  0.86113800  1
  Si  Si17  1  0.04855400  0.39241600  0.63886200  1
  Si  Si18  1  0.54855400  0.10758400  0.36113800  1
  Si  Si19  1  0.54855400  0.10758400  0.13886200  1
  Si  Si20  1  0.54855400  0.89241600  0.86113800  1
  Si  Si21  1  0.54855400  0.89241600  0.63886200  1
  Si  Si22  1  0.04855400  0.60758400  0.36113800  1
  Si  Si23  1  0.04855400  0.60758400  0.13886200  1
  O  O24  1  0.12041500  0.32403600  0.75000000  1
  O  O25  1  0.62041500  0.17596400  0.25000000  1
  O  O26  1  0.72447500  0.40718400  0.87749000  1
  O  O27  1  0.72447500  0.40718400  0.62251000  1
  O  O28  1  0.22447500  0.09281600  0.12251000  1
  O  O29  1  0.22447500  0.09281600  0.37749000  1
  O  O30  1  0.20802900  0.45703200  0.13045300  1
  O  O31  1  0.20802900  0.45703200  0.36954700  1
  O  O32  1  0.70802900  0.04296800  0.63045300  1
  O  O33  1  0.70802900  0.04296800  0.86954700  1
  O  O34  1  0.18203950  0.27544350  0.93821600  1
  O  O35  1  0.18203950  0.27544350  0.56178400  1
  O  O36  1  0.68203950  0.22455650  0.43821600  1
  O  O37  1  0.68203950  0.22455650  0.06178400  1
  O  O38  1  0.62041500  0.82403600  0.75000000  1
  O  O39  1  0.12041500  0.67596400  0.25000000  1
  O  O40  1  0.22447500  0.90718400  0.87749000  1
  O  O41  1  0.22447500  0.90718400  0.62251000  1
  O  O42  1  0.72447500  0.59281600  0.12251000  1
  O  O43  1  0.72447500  0.59281600  0.37749000  1
  O  O44  1  0.70802900  0.95703200  0.13045300  1
  O  O45  1  0.70802900  0.95703200  0.36954700  1
  O  O46  1  0.20802900  0.54296800  0.63045300  1
  O  O47  1  0.20802900  0.54296800  0.86954700  1
  O  O48  1  0.68203950  0.77544350  0.93821600  1
  O  O49  1  0.68203950  0.77544350  0.56178400  1
  O  O50  1  0.18203950  0.72455650  0.43821600  1
  O  O51  1  0.18203950  0.72455650  0.06178400  1
