# generated using pymatgen
data_Li5MnO4
_symmetry_space_group_name_H-M   'P 1'
_cell_length_a   4.53455000
_cell_length_b   6.61245300
_cell_length_c   6.75131500
_cell_angle_alpha   90.00000000
_cell_angle_beta   90.00000000
_cell_angle_gamma   90.00000000
_symmetry_Int_Tables_number   1
_chemical_formula_structural   Li5MnO4
_chemical_formula_sum   'Li10 Mn2 O8'
_cell_volume   202.43479619
_cell_formula_units_Z   2
loop_
 _symmetry_equiv_pos_site_id
 _symmetry_equiv_pos_as_xyz
  1  'x, y, z'
loop_
 _atom_site_type_symbol
 _atom_site_label
 _atom_site_symmetry_multiplicity
 _atom_site_fract_x
 _atom_site_fract_y
 _atom_site_fract_z
 _atom_site_occupancy
  Li  Li0  1  0.25160900  0.75898600  0.80192900  1
  Li  Li1  1  0.25160900  0.24101400  0.80192900  1
  Li  Li2  1  0.80426700  0.50000000  0.00000000  1
  Li  Li3  1  0.25160900  0.75898600  0.19807100  1
  Li  Li4  1  0.25160900  0.24101400  0.19807100  1
  Li  Li5  1  0.74839100  0.74101400  0.30192900  1
  Li  Li6  1  0.74839100  0.25898600  0.30192900  1
  Li  Li7  1  0.19573300  0.00000000  0.50000000  1
  Li  Li8  1  0.74839100  0.74101400  0.69807100  1
  Li  Li9  1  0.74839100  0.25898600  0.69807100  1
  Mn  Mn10  1  0.76711600  0.00000000  0.00000000  1
  Mn  Mn11  1  0.23288400  0.50000000  0.50000000  1
  O  O12  1  0.97018100  0.00000000  0.75142100  1
  O  O13  1  0.57460000  0.74603000  0.00000000  1
  O  O14  1  0.57460000  0.25397000  0.00000000  1
  O  O15  1  0.97018100  0.00000000  0.24857900  1
  O  O16  1  0.02981900  0.50000000  0.25142100  1
  O  O17  1  0.42540000  0.75397000  0.50000000  1
  O  O18  1  0.42540000  0.24603000  0.50000000  1
  O  O19  1  0.02981900  0.50000000  0.74857900  1
