# generated using pymatgen
data_Fe6O11F
_symmetry_space_group_name_H-M   'P 1'
_cell_length_a   6.45399000
_cell_length_b   6.61394000
_cell_length_c   8.98599800
_cell_angle_alpha   90.00000000
_cell_angle_beta   90.00000000
_cell_angle_gamma   90.00000000
_symmetry_Int_Tables_number   1
_chemical_formula_structural   Fe6O11F
_chemical_formula_sum   'Fe12 O22 F2'
_cell_volume   383.57902998
_cell_formula_units_Z   2
loop_
 _symmetry_equiv_pos_site_id
 _symmetry_equiv_pos_as_xyz
  1  'x, y, z'
loop_
 _atom_site_type_symbol
 _atom_site_label
 _atom_site_symmetry_multiplicity
 _atom_site_fract_x
 _atom_site_fract_y
 _atom_site_fract_z
 _atom_site_occupancy
  Fe  Fe0  1  0.50000000  0.49319400  0.17332800  1
  Fe  Fe1  1  0.50000000  0.49691100  0.50000000  1
  Fe  Fe2  1  0.50000000  0.49319400  0.82667200  1
  Fe  Fe3  1  0.50000000  0.99679100  0.33425500  1
  Fe  Fe4  1  0.50000000  0.01976200  0.00000000  1
  Fe  Fe5  1  0.50000000  0.99679100  0.66574500  1
  Fe  Fe6  1  0.00000000  0.99319400  0.17332800  1
  Fe  Fe7  1  0.00000000  0.99691100  0.50000000  1
  Fe  Fe8  1  0.00000000  0.99319400  0.82667200  1
  Fe  Fe9  1  0.00000000  0.49679100  0.33425500  1
  Fe  Fe10  1  0.00000000  0.51976200  0.00000000  1
  Fe  Fe11  1  0.00000000  0.49679100  0.66574500  1
  O  O12  1  0.50000000  0.30520700  0.34052400  1
  O  O13  1  0.50000000  0.30520700  0.65947600  1
  O  O14  1  0.50000000  0.31994700  0.00000000  1
  O  O15  1  0.30823100  0.00200500  0.16658800  1
  O  O16  1  0.30917450  0.99563250  0.50000000  1
  O  O17  1  0.30823100  0.00200500  0.83341200  1
  O  O18  1  0.69176900  0.00200500  0.16658800  1
  O  O19  1  0.69082550  0.99563250  0.50000000  1
  O  O20  1  0.69176900  0.00200500  0.83341200  1
  O  O21  1  0.50000000  0.68569300  0.33691000  1
  O  O22  1  0.50000000  0.68569300  0.66309000  1
  O  O23  1  0.00000000  0.80520700  0.34052400  1
  O  O24  1  0.00000000  0.80520700  0.65947600  1
  O  O25  1  0.00000000  0.81994700  0.00000000  1
  O  O26  1  0.80823100  0.50200500  0.16658800  1
  O  O27  1  0.80917450  0.49563250  0.50000000  1
  O  O28  1  0.80823100  0.50200500  0.83341200  1
  O  O29  1  0.19176900  0.50200500  0.16658800  1
  O  O30  1  0.19082550  0.49563250  0.50000000  1
  O  O31  1  0.19176900  0.50200500  0.83341200  1
  O  O32  1  0.00000000  0.18569300  0.33691000  1
  O  O33  1  0.00000000  0.18569300  0.66309000  1
  F  F34  1  0.50000000  0.70232600  0.00000000  1
  F  F35  1  0.00000000  0.20232600  0.00000000  1
