# generated using pymatgen
data_Mn6O5F7
_symmetry_space_group_name_H-M   'P 1'
_cell_length_a   9.54908800
_cell_length_b   6.37039600
_cell_length_c   7.90982613
_cell_angle_alpha   90.00000000
_cell_angle_beta   116.10995935
_cell_angle_gamma   90.00000000
_symmetry_Int_Tables_number   1
_chemical_formula_structural   Mn6O5F7
_chemical_formula_sum   'Mn12 O10 F14'
_cell_volume   432.06386378
_cell_formula_units_Z   2
loop_
 _symmetry_equiv_pos_site_id
 _symmetry_equiv_pos_as_xyz
  1  'x, y, z'
loop_
 _atom_site_type_symbol
 _atom_site_label
 _atom_site_symmetry_multiplicity
 _atom_site_fract_x
 _atom_site_fract_y
 _atom_site_fract_z
 _atom_site_occupancy
  Mn  Mn0  1  0.00000000  0.66157100  0.00000000  1
  Mn  Mn1  1  0.66486050  0.66182450  0.16521300  1
  Mn  Mn2  1  0.00000000  0.69070900  0.50000000  1
  Mn  Mn3  1  0.17525900  0.16170600  0.67491900  1
  Mn  Mn4  1  0.32474100  0.66170600  0.32508100  1
  Mn  Mn5  1  0.33513950  0.66182450  0.83478700  1
  Mn  Mn6  1  0.50000000  0.16157100  0.00000000  1
  Mn  Mn7  1  0.16486050  0.16182450  0.16521300  1
  Mn  Mn8  1  0.50000000  0.19070900  0.50000000  1
  Mn  Mn9  1  0.67525900  0.66170600  0.67491900  1
  Mn  Mn10  1  0.82474100  0.16170600  0.32508100  1
  Mn  Mn11  1  0.83513950  0.16182450  0.83478700  1
  O  O12  1  0.16375800  0.85869300  0.16345200  1
  O  O13  1  0.00000000  0.98618600  0.50000000  1
  O  O14  1  0.16284350  0.46337050  0.16275800  1
  O  O15  1  0.33715650  0.96337050  0.83724200  1
  O  O16  1  0.83624200  0.85869300  0.83654800  1
  O  O17  1  0.66375800  0.35869300  0.16345200  1
  O  O18  1  0.50000000  0.48618600  0.50000000  1
  O  O19  1  0.66284350  0.96337050  0.16275800  1
  O  O20  1  0.83715650  0.46337050  0.83724200  1
  O  O21  1  0.33624200  0.35869300  0.83654800  1
  F  F22  1  0.50000000  0.87156700  0.50000000  1
  F  F23  1  0.23126950  0.66847650  0.53950300  1
  F  F24  1  0.89431450  0.66558350  0.21162400  1
  F  F25  1  0.56130800  0.66532900  0.87055800  1
  F  F26  1  0.43869200  0.66532900  0.12944200  1
  F  F27  1  0.60568550  0.16558350  0.78837600  1
  F  F28  1  0.26873050  0.16847650  0.46049700  1
  F  F29  1  0.00000000  0.37156700  0.50000000  1
  F  F30  1  0.73126950  0.16847650  0.53950300  1
  F  F31  1  0.39431450  0.16558350  0.21162400  1
  F  F32  1  0.06130800  0.16532900  0.87055800  1
  F  F33  1  0.93869200  0.16532900  0.12944200  1
  F  F34  1  0.10568550  0.66558350  0.78837600  1
  F  F35  1  0.76873050  0.66847650  0.46049700  1
