# generated using pymatgen
data_Li5Co2Ni3O10
_symmetry_space_group_name_H-M   'P 1'
_cell_length_a   5.77802197
_cell_length_b   2.86024626
_cell_length_c   20.58177126
_cell_angle_alpha   90.00000000
_cell_angle_beta   97.70878127
_cell_angle_gamma   90.00000000
_symmetry_Int_Tables_number   1
_chemical_formula_structural   Li5Co2Ni3O10
_chemical_formula_sum   'Li10 Co4 Ni6 O20'
_cell_volume   337.07197839
_cell_formula_units_Z   2
loop_
 _symmetry_equiv_pos_site_id
 _symmetry_equiv_pos_as_xyz
  1  'x, y, z'
loop_
 _atom_site_type_symbol
 _atom_site_label
 _atom_site_symmetry_multiplicity
 _atom_site_fract_x
 _atom_site_fract_y
 _atom_site_fract_z
 _atom_site_occupancy
  Li  Li0  1  0.10068000  0.50000000  0.20039900  1
  Li  Li1  1  0.30032100  0.00000000  0.10059600  1
  Li  Li2  1  0.50000000  0.50000000  0.00000000  1
  Li  Li3  1  0.69967900  0.00000000  0.89940400  1
  Li  Li4  1  0.89932000  0.50000000  0.79960100  1
  Li  Li5  1  0.09950500  0.00000000  0.70028500  1
  Li  Li6  1  0.50000000  0.00000000  0.50000000  1
  Li  Li7  1  0.30216900  0.50000000  0.59945100  1
  Li  Li8  1  0.69783100  0.50000000  0.40054900  1
  Li  Li9  1  0.90049500  0.00000000  0.29971500  1
  Co  Co10  1  0.00000000  0.50000000  0.00000000  1
  Co  Co11  1  0.80020400  0.50000000  0.59836200  1
  Co  Co12  1  0.00000000  0.00000000  0.50000000  1
  Co  Co13  1  0.19979600  0.50000000  0.40163800  1
  Ni  Ni14  1  0.59995600  0.50000000  0.20008500  1
  Ni  Ni15  1  0.80187800  0.00000000  0.09984300  1
  Ni  Ni16  1  0.19812200  0.00000000  0.90015700  1
  Ni  Ni17  1  0.60269300  0.00000000  0.69909900  1
  Ni  Ni18  1  0.40004400  0.50000000  0.79991500  1
  Ni  Ni19  1  0.39730700  0.00000000  0.30090100  1
  O  O20  1  0.63220400  0.50000000  0.29360300  1
  O  O21  1  0.83607500  0.00000000  0.20046300  1
  O  O22  1  0.36422100  0.00000000  0.19927700  1
  O  O23  1  0.56899500  0.50000000  0.10650100  1
  O  O24  1  0.77369900  0.00000000  0.99933300  1
  O  O25  1  0.03109600  0.50000000  0.09259800  1
  O  O26  1  0.43100500  0.50000000  0.89349900  1
  O  O27  1  0.22630100  0.00000000  0.00066700  1
  O  O28  1  0.96890400  0.50000000  0.90740200  1
  O  O29  1  0.63577900  0.00000000  0.80072300  1
  O  O30  1  0.16392500  0.00000000  0.79953700  1
  O  O31  1  0.57425700  0.00000000  0.59814500  1
  O  O32  1  0.83413800  0.50000000  0.69149600  1
  O  O33  1  0.36779600  0.50000000  0.70639700  1
  O  O34  1  0.02544700  0.00000000  0.59480300  1
  O  O35  1  0.42574300  0.00000000  0.40185500  1
  O  O36  1  0.77845600  0.50000000  0.50417300  1
  O  O37  1  0.97455300  0.00000000  0.40519700  1
  O  O38  1  0.22154400  0.50000000  0.49582700  1
  O  O39  1  0.16586200  0.50000000  0.30850400  1
