# generated using pymatgen
data_Li2V(OF)2
_symmetry_space_group_name_H-M   'P 1'
_cell_length_a   5.08035788
_cell_length_b   5.90054800
_cell_length_c   5.12844922
_cell_angle_alpha   90.00000000
_cell_angle_beta   109.68139388
_cell_angle_gamma   90.00000000
_symmetry_Int_Tables_number   1
_chemical_formula_structural   Li2V(OF)2
_chemical_formula_sum   'Li4 V2 O4 F4'
_cell_volume   144.75378284
_cell_formula_units_Z   2
loop_
 _symmetry_equiv_pos_site_id
 _symmetry_equiv_pos_as_xyz
  1  'x, y, z'
loop_
 _atom_site_type_symbol
 _atom_site_label
 _atom_site_symmetry_multiplicity
 _atom_site_fract_x
 _atom_site_fract_y
 _atom_site_fract_z
 _atom_site_occupancy
  Li  Li0  1  0.25000000  0.13385650  0.00000000  1
  Li  Li1  1  0.75000000  0.86614350  0.00000000  1
  Li  Li2  1  0.25000000  0.60800400  0.00000000  1
  Li  Li3  1  0.75000000  0.39199600  0.00000000  1
  V  V4  1  0.25000000  0.88282200  0.50000000  1
  V  V5  1  0.75000000  0.11717800  0.50000000  1
  O  O6  1  0.47442450  0.89603250  0.27776400  1
  O  O7  1  0.02557550  0.89603250  0.72223600  1
  O  O8  1  0.97442450  0.10396750  0.27776400  1
  O  O9  1  0.52557550  0.10396750  0.72223600  1
  F  F10  1  0.48197450  0.64778600  0.77363100  1
  F  F11  1  0.98197450  0.35221400  0.77363100  1
  F  F12  1  0.01802550  0.64778600  0.22636900  1
  F  F13  1  0.51802550  0.35221400  0.22636900  1
