# generated using pymatgen
data_V3O7
_symmetry_space_group_name_H-M   'P 1'
_cell_length_a   14.18693600
_cell_length_b   14.18693600
_cell_length_c   3.65383400
_cell_angle_alpha   90.00000000
_cell_angle_beta   90.00000000
_cell_angle_gamma   90.00000000
_symmetry_Int_Tables_number   1
_chemical_formula_structural   V3O7
_chemical_formula_sum   'V18 O42'
_cell_volume   735.40407463
_cell_formula_units_Z   6
loop_
 _symmetry_equiv_pos_site_id
 _symmetry_equiv_pos_as_xyz
  1  'x, y, z'
loop_
 _atom_site_type_symbol
 _atom_site_label
 _atom_site_symmetry_multiplicity
 _atom_site_fract_x
 _atom_site_fract_y
 _atom_site_fract_z
 _atom_site_occupancy
  V  V0  1  0.68376200  0.31623800  0.50000000  1
  V  V1  1  0.00000000  0.00000000  0.00000000  1
  V  V2  1  0.50000000  0.86459400  0.50000000  1
  V  V3  1  0.50000000  0.13540600  0.50000000  1
  V  V4  1  0.68376200  0.68376200  0.50000000  1
  V  V5  1  0.81623800  0.81623800  0.00000000  1
  V  V6  1  0.81623800  0.18376200  0.00000000  1
  V  V7  1  0.36459400  0.00000000  0.00000000  1
  V  V8  1  0.63540600  0.00000000  0.00000000  1
  V  V9  1  0.18376200  0.81623800  0.00000000  1
  V  V10  1  0.50000000  0.50000000  0.50000000  1
  V  V11  1  0.00000000  0.36459400  0.00000000  1
  V  V12  1  0.00000000  0.63540600  0.00000000  1
  V  V13  1  0.18376200  0.18376200  0.00000000  1
  V  V14  1  0.31623800  0.31623800  0.50000000  1
  V  V15  1  0.31623800  0.68376200  0.50000000  1
  V  V16  1  0.86459400  0.50000000  0.50000000  1
  V  V17  1  0.13540600  0.50000000  0.50000000  1
  O  O18  1  0.59947700  0.40052300  0.50000000  1
  O  O19  1  0.79269200  0.20730800  0.50000000  1
  O  O20  1  0.29109600  0.90670400  0.00000000  1
  O  O21  1  0.00000000  0.00000000  0.50000000  1
  O  O22  1  0.50000000  0.90658900  0.00000000  1
  O  O23  1  0.59341100  0.00000000  0.50000000  1
  O  O24  1  0.59329600  0.79109600  0.50000000  1
  O  O25  1  0.59329600  0.20890400  0.50000000  1
  O  O26  1  0.59947700  0.59947700  0.50000000  1
  O  O27  1  0.70890400  0.90670400  0.00000000  1
  O  O28  1  0.70730800  0.70730800  0.00000000  1
  O  O29  1  0.70730800  0.29269200  0.00000000  1
  O  O30  1  0.79269200  0.79269200  0.50000000  1
  O  O31  1  0.29109600  0.09329600  0.00000000  1
  O  O32  1  0.90052300  0.09947700  0.00000000  1
  O  O33  1  0.90052300  0.90052300  0.00000000  1
  O  O34  1  0.40670400  0.20890400  0.50000000  1
  O  O35  1  0.40670400  0.79109600  0.50000000  1
  O  O36  1  0.40658900  0.00000000  0.50000000  1
  O  O37  1  0.50000000  0.09341100  0.00000000  1
  O  O38  1  0.70890400  0.09329600  0.00000000  1
  O  O39  1  0.09947700  0.90052300  0.00000000  1
  O  O40  1  0.29269200  0.70730800  0.00000000  1
  O  O41  1  0.79109600  0.40670400  0.50000000  1
  O  O42  1  0.50000000  0.50000000  0.00000000  1
  O  O43  1  0.00000000  0.40658900  0.50000000  1
  O  O44  1  0.09341100  0.50000000  0.00000000  1
  O  O45  1  0.09329600  0.29109600  0.00000000  1
  O  O46  1  0.09329600  0.70890400  0.00000000  1
  O  O47  1  0.09947700  0.09947700  0.00000000  1
  O  O48  1  0.20890400  0.40670400  0.50000000  1
  O  O49  1  0.20730800  0.20730800  0.50000000  1
  O  O50  1  0.20730800  0.79269200  0.50000000  1
  O  O51  1  0.29269200  0.29269200  0.00000000  1
  O  O52  1  0.79109600  0.59329600  0.50000000  1
  O  O53  1  0.40052300  0.59947700  0.50000000  1
  O  O54  1  0.40052300  0.40052300  0.50000000  1
  O  O55  1  0.90670400  0.70890400  0.00000000  1
  O  O56  1  0.90670400  0.29109600  0.00000000  1
  O  O57  1  0.90658900  0.50000000  0.00000000  1
  O  O58  1  0.00000000  0.59341100  0.50000000  1
  O  O59  1  0.20890400  0.59329600  0.50000000  1
