# generated using pymatgen
data_LiMn2OF3
_symmetry_space_group_name_H-M   'P 1'
_cell_length_a   6.32931277
_cell_length_b   6.35237111
_cell_length_c   8.84265800
_cell_angle_alpha   90.00000000
_cell_angle_beta   90.00000000
_cell_angle_gamma   90.00000000
_symmetry_Int_Tables_number   1
_chemical_formula_structural   LiMn2OF3
_chemical_formula_sum   'Li4 Mn8 O4 F12'
_cell_volume   355.52917775
_cell_formula_units_Z   4
loop_
 _symmetry_equiv_pos_site_id
 _symmetry_equiv_pos_as_xyz
  1  'x, y, z'
loop_
 _atom_site_type_symbol
 _atom_site_label
 _atom_site_symmetry_multiplicity
 _atom_site_fract_x
 _atom_site_fract_y
 _atom_site_fract_z
 _atom_site_occupancy
  Li  Li0  1  0.75000000  0.23905200  0.76340550  1
  Li  Li1  1  0.25000000  0.76094800  0.23659450  1
  Li  Li2  1  0.25000000  0.26094800  0.26340550  1
  Li  Li3  1  0.75000000  0.73905200  0.73659450  1
  Mn  Mn4  1  0.25000000  0.54029700  0.89135250  1
  Mn  Mn5  1  0.25000000  0.04029700  0.60864750  1
  Mn  Mn6  1  0.75000000  0.45970300  0.10864750  1
  Mn  Mn7  1  0.75000000  0.95970300  0.39135250  1
  Mn  Mn8  1  0.50000000  0.50000000  0.50000000  1
  Mn  Mn9  1  0.50000000  0.00000000  0.00000000  1
  Mn  Mn10  1  0.00000000  0.50000000  0.50000000  1
  Mn  Mn11  1  0.00000000  0.00000000  0.00000000  1
  O  O12  1  0.25000000  0.29818600  0.48693150  1
  O  O13  1  0.75000000  0.70181400  0.51306850  1
  O  O14  1  0.75000000  0.20181400  0.98693150  1
  O  O15  1  0.25000000  0.79818600  0.01306850  1
  F  F16  1  0.25000000  0.76016000  0.48284450  1
  F  F17  1  0.75000000  0.23984000  0.51715550  1
  F  F18  1  0.75000000  0.73984000  0.98284450  1
  F  F19  1  0.25000000  0.26016000  0.01715550  1
  F  F20  1  0.01379500  0.00973600  0.25466150  1
  F  F21  1  0.48620500  0.00973600  0.25466150  1
  F  F22  1  0.48620500  0.50973600  0.24533850  1
  F  F23  1  0.01379500  0.50973600  0.24533850  1
  F  F24  1  0.51379500  0.49026400  0.75466150  1
  F  F25  1  0.98620500  0.49026400  0.75466150  1
  F  F26  1  0.98620500  0.99026400  0.74533850  1
  F  F27  1  0.51379500  0.99026400  0.74533850  1
