# generated using pymatgen
data_BaLa4TiCr4O15
_symmetry_space_group_name_H-M   'P 1'
_cell_length_a   5.58076100
_cell_length_b   7.91895736
_cell_length_c   14.80623165
_cell_angle_alpha   105.31937896
_cell_angle_beta   100.59767603
_cell_angle_gamma   90.85967616
_symmetry_Int_Tables_number   1
_chemical_formula_structural   BaLa4TiCr4O15
_chemical_formula_sum   'Ba2 La8 Ti2 Cr8 O30'
_cell_volume   618.93178619
_cell_formula_units_Z   2
loop_
 _symmetry_equiv_pos_site_id
 _symmetry_equiv_pos_as_xyz
  1  'x, y, z'
loop_
 _atom_site_type_symbol
 _atom_site_label
 _atom_site_symmetry_multiplicity
 _atom_site_fract_x
 _atom_site_fract_y
 _atom_site_fract_z
 _atom_site_occupancy
  Ba  Ba0  1  0.50116300  0.25130200  0.00265200  1
  Ba  Ba1  1  0.49883700  0.74869800  0.99734800  1
  La  La2  1  0.90106900  0.64900500  0.79817900  1
  La  La3  1  0.29940300  0.05018300  0.60015800  1
  La  La4  1  0.69999100  0.44784300  0.39707300  1
  La  La5  1  0.89923000  0.14892800  0.79801600  1
  La  La6  1  0.10077000  0.85107200  0.20198400  1
  La  La7  1  0.30000900  0.55215700  0.60292700  1
  La  La8  1  0.70059700  0.94981700  0.39984200  1
  La  La9  1  0.09893100  0.35099500  0.20182100  1
  Ti  Ti10  1  0.00000000  0.00000000  0.00000000  1
  Ti  Ti11  1  0.00000000  0.50000000  0.00000000  1
  Cr  Cr12  1  0.39515500  0.39935100  0.79730600  1
  Cr  Cr13  1  0.79977900  0.80023400  0.59840300  1
  Cr  Cr14  1  0.40323800  0.89845700  0.79726200  1
  Cr  Cr15  1  0.60484500  0.60064900  0.20269400  1
  Cr  Cr16  1  0.79871100  0.29835200  0.59848000  1
  Cr  Cr17  1  0.20128900  0.70164800  0.40152000  1
  Cr  Cr18  1  0.20022100  0.19976600  0.40159700  1
  Cr  Cr19  1  0.59676200  0.10154300  0.20273800  1
  O  O20  1  0.72281400  0.42396900  0.88820500  1
  O  O21  1  0.99196500  0.74046700  0.98165500  1
  O  O22  1  0.16482000  0.96444400  0.88791100  1
  O  O23  1  0.13019300  0.81460400  0.68315700  1
  O  O24  1  0.20454800  0.43102800  0.90459500  1
  O  O25  1  0.38723100  0.13731700  0.77401600  1
  O  O26  1  0.40258700  0.65455500  0.80832200  1
  O  O27  1  0.55640100  0.37060600  0.68425700  1
  O  O28  1  0.70000400  0.97322700  0.90485700  1
  O  O29  1  0.52813500  0.20564100  0.48580400  1
  O  O30  1  0.64904400  0.82513900  0.71308300  1
  O  O31  1  0.78526000  0.53560700  0.57094700  1
  O  O32  1  0.81404800  0.06434600  0.62860100  1
  O  O33  1  0.95431600  0.78059200  0.48466900  1
  O  O34  1  0.06713500  0.38800200  0.71175600  1
  O  O35  1  0.93286500  0.61199800  0.28824400  1
  O  O36  1  0.04568400  0.21940800  0.51533100  1
  O  O37  1  0.18595200  0.93565400  0.37139900  1
  O  O38  1  0.21474000  0.46439300  0.42905300  1
  O  O39  1  0.35095600  0.17486100  0.28691700  1
  O  O40  1  0.47186500  0.79435900  0.51419600  1
  O  O41  1  0.29999600  0.02677300  0.09514300  1
  O  O42  1  0.44359900  0.62939400  0.31574300  1
  O  O43  1  0.59741300  0.34544500  0.19167800  1
  O  O44  1  0.61276900  0.86268300  0.22598400  1
  O  O45  1  0.79545200  0.56897200  0.09540500  1
  O  O46  1  0.86980700  0.18539600  0.31684300  1
  O  O47  1  0.83518000  0.03555600  0.11208900  1
  O  O48  1  0.00803500  0.25953300  0.01834500  1
  O  O49  1  0.27718600  0.57603100  0.11179500  1
