# generated using pymatgen
data_Li6Fe3Co7O20
_symmetry_space_group_name_H-M   'P 1'
_cell_length_a   5.89634043
_cell_length_b   2.87608700
_cell_length_c   20.70436916
_cell_angle_alpha   90.00000000
_cell_angle_beta   95.70069326
_cell_angle_gamma   90.00000000
_symmetry_Int_Tables_number   1
_chemical_formula_structural   Li6Fe3Co7O20
_chemical_formula_sum   'Li6 Fe3 Co7 O20'
_cell_volume   349.37625231
_cell_formula_units_Z   1
loop_
 _symmetry_equiv_pos_site_id
 _symmetry_equiv_pos_as_xyz
  1  'x, y, z'
loop_
 _atom_site_type_symbol
 _atom_site_label
 _atom_site_symmetry_multiplicity
 _atom_site_fract_x
 _atom_site_fract_y
 _atom_site_fract_z
 _atom_site_occupancy
  Li  Li0  1  0.00000000  0.50000000  0.50000000  1
  Li  Li1  1  0.64322500  0.50000000  0.68539900  1
  Li  Li2  1  0.39921000  0.00000000  0.80398100  1
  Li  Li3  1  0.00000000  0.00000000  0.00000000  1
  Li  Li4  1  0.60079000  0.00000000  0.19601900  1
  Li  Li5  1  0.35677500  0.50000000  0.31460100  1
  Fe  Fe6  1  0.92110800  0.00000000  0.80037800  1
  Fe  Fe7  1  0.50000000  0.00000000  0.00000000  1
  Fe  Fe8  1  0.07889200  0.00000000  0.19962200  1
  Co  Co9  1  0.69816800  0.00000000  0.40177300  1
  Co  Co10  1  0.50000000  0.50000000  0.50000000  1
  Co  Co11  1  0.30183200  0.00000000  0.59822700  1
  Co  Co12  1  0.10655800  0.50000000  0.69579100  1
  Co  Co13  1  0.70344400  0.50000000  0.89908800  1
  Co  Co14  1  0.29655600  0.50000000  0.10091200  1
  Co  Co15  1  0.89344200  0.50000000  0.30420900  1
  O  O16  1  0.49073200  0.50000000  0.40732200  1
  O  O17  1  0.71721700  0.00000000  0.49264100  1
  O  O18  1  0.28278300  0.00000000  0.50735900  1
  O  O19  1  0.09458200  0.50000000  0.60255400  1
  O  O20  1  0.50926800  0.50000000  0.59267800  1
  O  O21  1  0.88570900  0.00000000  0.70224200  1
  O  O22  1  0.32487400  0.00000000  0.68975200  1
  O  O23  1  0.15035200  0.50000000  0.78939300  1
  O  O24  1  0.67738000  0.50000000  0.80698300  1
  O  O25  1  0.91222300  0.00000000  0.89851900  1
  O  O26  1  0.49380000  0.00000000  0.90118000  1
  O  O27  1  0.73364600  0.50000000  0.99046700  1
  O  O28  1  0.26635400  0.50000000  0.00953300  1
  O  O29  1  0.08777700  0.00000000  0.10148100  1
  O  O30  1  0.50620000  0.00000000  0.09882000  1
  O  O31  1  0.84964800  0.50000000  0.21060700  1
  O  O32  1  0.32262000  0.50000000  0.19301700  1
  O  O33  1  0.11429100  0.00000000  0.29775800  1
  O  O34  1  0.67512600  0.00000000  0.31024800  1
  O  O35  1  0.90541800  0.50000000  0.39744600  1
