# generated using pymatgen
data_Li3TiCr3O8
_symmetry_space_group_name_H-M   'P 1'
_cell_length_a   10.29655603
_cell_length_b   5.88909407
_cell_length_c   5.95957808
_cell_angle_alpha   90.00000000
_cell_angle_beta   124.43490698
_cell_angle_gamma   90.00000000
_symmetry_Int_Tables_number   1
_chemical_formula_structural   Li3TiCr3O8
_chemical_formula_sum   'Li6 Ti2 Cr6 O16'
_cell_volume   298.04950002
_cell_formula_units_Z   2
loop_
 _symmetry_equiv_pos_site_id
 _symmetry_equiv_pos_as_xyz
  1  'x, y, z'
loop_
 _atom_site_type_symbol
 _atom_site_label
 _atom_site_symmetry_multiplicity
 _atom_site_fract_x
 _atom_site_fract_y
 _atom_site_fract_z
 _atom_site_occupancy
  Li  Li0  1  0.50000000  0.00000000  0.50000000  1
  Li  Li1  1  0.25000000  0.75000000  0.50000000  1
  Li  Li2  1  0.25000000  0.25000000  0.50000000  1
  Li  Li3  1  0.00000000  0.50000000  0.50000000  1
  Li  Li4  1  0.75000000  0.25000000  0.50000000  1
  Li  Li5  1  0.75000000  0.75000000  0.50000000  1
  Ti  Ti6  1  0.00000000  0.00000000  0.00000000  1
  Ti  Ti7  1  0.50000000  0.50000000  0.00000000  1
  Cr  Cr8  1  0.00000000  0.50000000  0.00000000  1
  Cr  Cr9  1  0.25000000  0.75000000  0.00000000  1
  Cr  Cr10  1  0.25000000  0.25000000  0.00000000  1
  Cr  Cr11  1  0.50000000  0.00000000  0.00000000  1
  Cr  Cr12  1  0.75000000  0.25000000  0.00000000  1
  Cr  Cr13  1  0.75000000  0.75000000  0.00000000  1
  O  O14  1  0.26551000  0.00000000  0.78413400  1
  O  O15  1  0.23449000  0.50000000  0.21586600  1
  O  O16  1  0.23784325  0.00000000  0.22562950  1
  O  O17  1  0.26215675  0.50000000  0.77437050  1
  O  O18  1  0.49099975  0.74650525  0.21740750  1
  O  O19  1  0.49099975  0.25349475  0.21740750  1
  O  O20  1  0.00900025  0.24650525  0.78259250  1
  O  O21  1  0.00900025  0.75349475  0.78259250  1
  O  O22  1  0.76551000  0.50000000  0.78413400  1
  O  O23  1  0.73449000  0.00000000  0.21586600  1
  O  O24  1  0.73784325  0.50000000  0.22562950  1
  O  O25  1  0.76215675  0.00000000  0.77437050  1
  O  O26  1  0.99099975  0.24650525  0.21740750  1
  O  O27  1  0.99099975  0.75349475  0.21740750  1
  O  O28  1  0.50900025  0.74650525  0.78259250  1
  O  O29  1  0.50900025  0.25349475  0.78259250  1
