# generated using pymatgen
data_Mn4CuO8
_symmetry_space_group_name_H-M   'P 1'
_cell_length_a   10.52069989
_cell_length_b   5.81643799
_cell_length_c   6.01617969
_cell_angle_alpha   90.00000000
_cell_angle_beta   123.68422357
_cell_angle_gamma   90.00000000
_symmetry_Int_Tables_number   1
_chemical_formula_structural   Mn4CuO8
_chemical_formula_sum   'Mn8 Cu2 O16'
_cell_volume   306.33854105
_cell_formula_units_Z   2
loop_
 _symmetry_equiv_pos_site_id
 _symmetry_equiv_pos_as_xyz
  1  'x, y, z'
loop_
 _atom_site_type_symbol
 _atom_site_label
 _atom_site_symmetry_multiplicity
 _atom_site_fract_x
 _atom_site_fract_y
 _atom_site_fract_z
 _atom_site_occupancy
  Mn  Mn0  1  0.00000000  0.50000000  0.50000000  1
  Mn  Mn1  1  0.00000000  0.00000000  0.00000000  1
  Mn  Mn2  1  0.25000000  0.75000000  0.00000000  1
  Mn  Mn3  1  0.25000000  0.25000000  0.00000000  1
  Mn  Mn4  1  0.50000000  0.00000000  0.50000000  1
  Mn  Mn5  1  0.50000000  0.50000000  0.00000000  1
  Mn  Mn6  1  0.75000000  0.25000000  0.00000000  1
  Mn  Mn7  1  0.75000000  0.75000000  0.00000000  1
  Cu  Cu8  1  0.00000000  0.50000000  0.00000000  1
  Cu  Cu9  1  0.50000000  0.00000000  0.00000000  1
  O  O10  1  0.23741200  0.50000000  0.19848200  1
  O  O11  1  0.47117850  0.24904750  0.19799700  1
  O  O12  1  0.47117850  0.75095250  0.19799700  1
  O  O13  1  0.25750900  0.00000000  0.22054400  1
  O  O14  1  0.24249100  0.50000000  0.77945600  1
  O  O15  1  0.02882150  0.74904750  0.80200300  1
  O  O16  1  0.02882150  0.25095250  0.80200300  1
  O  O17  1  0.26258800  0.00000000  0.80151800  1
  O  O18  1  0.73741200  0.00000000  0.19848200  1
  O  O19  1  0.97117850  0.74904750  0.19799700  1
  O  O20  1  0.97117850  0.25095250  0.19799700  1
  O  O21  1  0.75750900  0.50000000  0.22054400  1
  O  O22  1  0.74249100  0.00000000  0.77945600  1
  O  O23  1  0.52882150  0.24904750  0.80200300  1
  O  O24  1  0.52882150  0.75095250  0.80200300  1
  O  O25  1  0.76258800  0.50000000  0.80151800  1
