# generated using pymatgen
data_Cs2TiV3(PO6)3
_symmetry_space_group_name_H-M   'P 1'
_cell_length_a   13.90710851
_cell_length_b   13.90710851
_cell_length_c   9.68810400
_cell_angle_alpha   90.00000000
_cell_angle_beta   90.00000000
_cell_angle_gamma   120.00000000
_symmetry_Int_Tables_number   1
_chemical_formula_structural   Cs2TiV3(PO6)3
_chemical_formula_sum   'Cs8 Ti4 V12 P12 O72'
_cell_volume   1622.71821238
_cell_formula_units_Z   4
loop_
 _symmetry_equiv_pos_site_id
 _symmetry_equiv_pos_as_xyz
  1  'x, y, z'
loop_
 _atom_site_type_symbol
 _atom_site_label
 _atom_site_symmetry_multiplicity
 _atom_site_fract_x
 _atom_site_fract_y
 _atom_site_fract_z
 _atom_site_occupancy
  Cs  Cs0  1  0.00000000  0.00000000  0.09056600  1
  Cs  Cs1  1  0.50000000  0.00000000  0.54947800  1
  Cs  Cs2  1  0.00000000  0.50000000  0.54947800  1
  Cs  Cs3  1  0.50000000  0.50000000  0.04947800  1
  Cs  Cs4  1  0.00000000  0.50000000  0.04947800  1
  Cs  Cs5  1  0.50000000  0.50000000  0.54947800  1
  Cs  Cs6  1  0.00000000  0.00000000  0.59056600  1
  Cs  Cs7  1  0.50000000  0.00000000  0.04947800  1
  Ti  Ti8  1  0.33333333  0.66666667  0.54310100  1
  Ti  Ti9  1  0.66666667  0.33333333  0.04310100  1
  Ti  Ti10  1  0.33333333  0.66666667  0.04310100  1
  Ti  Ti11  1  0.66666667  0.33333333  0.54310100  1
  V  V12  1  0.97396100  0.73949000  0.34037000  1
  V  V13  1  0.23447100  0.26051000  0.84037000  1
  V  V14  1  0.76552900  0.02603900  0.34037000  1
  V  V15  1  0.26051000  0.02603900  0.84037000  1
  V  V16  1  0.02603900  0.26051000  0.34037000  1
  V  V17  1  0.23447100  0.97396100  0.34037000  1
  V  V18  1  0.02603900  0.76552900  0.84037000  1
  V  V19  1  0.26051000  0.23447100  0.34037000  1
  V  V20  1  0.76552900  0.73949000  0.84037000  1
  V  V21  1  0.73949000  0.97396100  0.84037000  1
  V  V22  1  0.73949000  0.76552900  0.34037000  1
  V  V23  1  0.97396100  0.23447100  0.84037000  1
  P  P24  1  0.19917800  0.72514200  0.29327500  1
  P  P25  1  0.52596400  0.80082200  0.29327500  1
  P  P26  1  0.72514200  0.52596400  0.29327500  1
  P  P27  1  0.52596400  0.72514200  0.79327500  1
  P  P28  1  0.80082200  0.52596400  0.79327500  1
  P  P29  1  0.19917800  0.47403600  0.79327500  1
  P  P30  1  0.27485800  0.80082200  0.79327500  1
  P  P31  1  0.47403600  0.27485800  0.79327500  1
  P  P32  1  0.80082200  0.27485800  0.29327500  1
  P  P33  1  0.72514200  0.19917800  0.79327500  1
  P  P34  1  0.27485800  0.47403600  0.29327500  1
  P  P35  1  0.47403600  0.19917800  0.29327500  1
  O  O36  1  0.77459000  0.45286600  0.92444500  1
  O  O37  1  0.23720600  0.97536300  0.50784300  1
  O  O38  1  0.22541000  0.67827600  0.42444500  1
  O  O39  1  0.39287800  0.07159600  0.29277800  1
  O  O40  1  0.87557800  0.09056200  0.79498200  1
  O  O41  1  0.45286600  0.67827600  0.92444500  1
  O  O42  1  0.21498400  0.09056200  0.29498200  1
  O  O43  1  0.02463700  0.76279400  0.00784300  1
  O  O44  1  0.77459000  0.32172400  0.42444500  1
  O  O45  1  0.67827600  0.45286600  0.42444500  1
  O  O46  1  0.45286600  0.77459000  0.42444500  1
  O  O47  1  0.32172400  0.54713400  0.42444500  1
  O  O48  1  0.78501600  0.87557800  0.79498200  1
  O  O49  1  0.76279400  0.73815700  0.00784300  1
  O  O50  1  0.73306500  0.58659300  0.79197300  1
  O  O51  1  0.87557800  0.78501600  0.29498200  1
  O  O52  1  0.97536300  0.23720600  0.00784300  1
  O  O53  1  0.23720600  0.26184300  0.00784300  1
  O  O54  1  0.22538100  0.67787800  0.16303400  1
  O  O55  1  0.22541000  0.54713400  0.92444500  1
  O  O56  1  0.73815700  0.97536300  0.00784300  1
  O  O57  1  0.58659300  0.85352800  0.79197300  1
  O  O58  1  0.32212200  0.77461900  0.66303400  1
  O  O59  1  0.41340700  0.14647200  0.79197300  1
  O  O60  1  0.32212200  0.54750300  0.16303400  1
  O  O61  1  0.77461900  0.32212200  0.16303400  1
  O  O62  1  0.41340700  0.26693500  0.29197300  1
  O  O63  1  0.78501600  0.90943800  0.29498200  1
  O  O64  1  0.54713400  0.22541000  0.42444500  1
  O  O65  1  0.22538100  0.54750300  0.66303400  1
  O  O66  1  0.92840400  0.32128200  0.29277800  1
  O  O67  1  0.32128200  0.92840400  0.79277800  1
  O  O68  1  0.60712200  0.67871800  0.79277800  1
  O  O69  1  0.77461900  0.45249700  0.66303400  1
  O  O70  1  0.39287800  0.32128200  0.79277800  1
  O  O71  1  0.76279400  0.02463700  0.50784300  1
  O  O72  1  0.54713400  0.32172400  0.92444500  1
  O  O73  1  0.85352800  0.58659300  0.29197300  1
  O  O74  1  0.67871800  0.60712200  0.29277800  1
  O  O75  1  0.07159600  0.67871800  0.29277800  1
  O  O76  1  0.67871800  0.07159600  0.79277800  1
  O  O77  1  0.14647200  0.73306500  0.79197300  1
  O  O78  1  0.21498400  0.12442200  0.79498200  1
  O  O79  1  0.12442200  0.90943800  0.79498200  1
  O  O80  1  0.54750300  0.32212200  0.66303400  1
  O  O81  1  0.73815700  0.76279400  0.50784300  1
  O  O82  1  0.92840400  0.60712200  0.79277800  1
  O  O83  1  0.26184300  0.23720600  0.50784300  1
  O  O84  1  0.85352800  0.26693500  0.79197300  1
  O  O85  1  0.60712200  0.92840400  0.29277800  1
  O  O86  1  0.14647200  0.41340700  0.29197300  1
  O  O87  1  0.07159600  0.39287800  0.79277800  1
  O  O88  1  0.45249700  0.77461900  0.16303400  1
  O  O89  1  0.90943800  0.12442200  0.29498200  1
  O  O90  1  0.26184300  0.02463700  0.00784300  1
  O  O91  1  0.26693500  0.41340700  0.79197300  1
  O  O92  1  0.54750300  0.22538100  0.16303400  1
  O  O93  1  0.32172400  0.77459000  0.92444500  1
  O  O94  1  0.12442200  0.21498400  0.29498200  1
  O  O95  1  0.02463700  0.26184300  0.50784300  1
  O  O96  1  0.67827600  0.22541000  0.92444500  1
  O  O97  1  0.26693500  0.85352800  0.29197300  1
  O  O98  1  0.90943800  0.78501600  0.79498200  1
  O  O99  1  0.58659300  0.73306500  0.29197300  1
  O  O100  1  0.32128200  0.39287800  0.29277800  1
  O  O101  1  0.97536300  0.73815700  0.50784300  1
  O  O102  1  0.67787800  0.45249700  0.16303400  1
  O  O103  1  0.67787800  0.22538100  0.66303400  1
  O  O104  1  0.45249700  0.67787800  0.66303400  1
  O  O105  1  0.73306500  0.14647200  0.29197300  1
  O  O106  1  0.09056200  0.87557800  0.29498200  1
  O  O107  1  0.09056200  0.21498400  0.79498200  1
