# generated using pymatgen
data_Li6MnFe5(BO3)6
_symmetry_space_group_name_H-M   'P 1'
_cell_length_a   8.24169300
_cell_length_b   3.13699300
_cell_length_c   14.29532045
_cell_angle_alpha   90.00000000
_cell_angle_beta   90.06228849
_cell_angle_gamma   90.00000000
_symmetry_Int_Tables_number   1
_chemical_formula_structural   Li6MnFe5(BO3)6
_chemical_formula_sum   'Li6 Mn1 Fe5 B6 O18'
_cell_volume   369.59290129
_cell_formula_units_Z   1
loop_
 _symmetry_equiv_pos_site_id
 _symmetry_equiv_pos_as_xyz
  1  'x, y, z'
loop_
 _atom_site_type_symbol
 _atom_site_label
 _atom_site_symmetry_multiplicity
 _atom_site_fract_x
 _atom_site_fract_y
 _atom_site_fract_z
 _atom_site_occupancy
  Li  Li0  1  0.29371100  0.50000000  0.99242100  1
  Li  Li1  1  0.33999200  0.50000000  0.35805500  1
  Li  Li2  1  0.36487200  0.50000000  0.64983600  1
  Li  Li3  1  0.79336500  0.50000000  0.49203300  1
  Li  Li4  1  0.84308300  0.50000000  0.85623600  1
  Li  Li5  1  0.86712100  0.50000000  0.15148300  1
  Mn  Mn6  1  0.63347100  0.00000000  0.00575800  1
  Fe  Fe7  1  0.13557800  0.00000000  0.50415800  1
  Fe  Fe8  1  0.17657400  0.00000000  0.81624200  1
  Fe  Fe9  1  0.18670200  0.00000000  0.17993700  1
  Fe  Fe10  1  0.67620600  0.00000000  0.31635700  1
  Fe  Fe11  1  0.68764500  0.00000000  0.67978400  1
  B  B12  1  0.00024400  0.50000000  0.66655500  1
  B  B13  1  0.00113000  0.00000000  0.99896700  1
  B  B14  1  0.99987800  0.50000000  0.33342100  1
  B  B15  1  0.49904900  0.50000000  0.16865000  1
  B  B16  1  0.49985300  0.00000000  0.49974400  1
  B  B17  1  0.49919000  0.50000000  0.83213000  1
  O  O18  1  0.01110100  0.50000000  0.43048800  1
  O  O19  1  0.01887700  0.50000000  0.76319300  1
  O  O20  1  0.13619900  0.50000000  0.60871500  1
  O  O21  1  0.13952000  0.50000000  0.27933700  1
  O  O22  1  0.15441700  0.00000000  0.95776200  1
  O  O23  1  0.34589500  0.50000000  0.12796900  1
  O  O24  1  0.34875400  0.50000000  0.78844100  1
  O  O25  1  0.35976200  0.00000000  0.44550500  1
  O  O26  1  0.48800800  0.00000000  0.59679900  1
  O  O27  1  0.50867600  0.50000000  0.92885100  1
  O  O28  1  0.51668400  0.50000000  0.26541300  1
  O  O29  1  0.63731400  0.50000000  0.11211300  1
  O  O30  1  0.64041100  0.50000000  0.77886800  1
  O  O31  1  0.65143400  0.00000000  0.45735200  1
  O  O32  1  0.84531500  0.50000000  0.62717800  1
  O  O33  1  0.84873900  0.50000000  0.29065000  1
  O  O34  1  0.86347200  0.00000000  0.94333700  1
  O  O35  1  0.98775700  0.00000000  0.09626100  1
