# generated using pymatgen
data_FeOF
_symmetry_space_group_name_H-M   'P 1'
_cell_length_a   4.72177916
_cell_length_b   3.09977300
_cell_length_c   14.01896825
_cell_angle_alpha   90.00000000
_cell_angle_beta   90.02582012
_cell_angle_gamma   90.00000000
_symmetry_Int_Tables_number   1
_chemical_formula_structural   FeOF
_chemical_formula_sum   'Fe6 O6 F6'
_cell_volume   205.18781670
_cell_formula_units_Z   6
loop_
 _symmetry_equiv_pos_site_id
 _symmetry_equiv_pos_as_xyz
  1  'x, y, z'
loop_
 _atom_site_type_symbol
 _atom_site_label
 _atom_site_symmetry_multiplicity
 _atom_site_fract_x
 _atom_site_fract_y
 _atom_site_fract_z
 _atom_site_occupancy
  Fe  Fe0  1  0.98595300  0.00000000  0.00779900  1
  Fe  Fe1  1  0.48800900  0.50000000  0.15078800  1
  Fe  Fe2  1  0.97978400  0.00000000  0.34767800  1
  Fe  Fe3  1  0.54473900  0.50000000  0.50621000  1
  Fe  Fe4  1  0.98134500  0.00000000  0.67178700  1
  Fe  Fe5  1  0.48794400  0.50000000  0.81428800  1
  O  O6  1  0.80059600  0.50000000  0.06339800  1
  O  O7  1  0.29550300  0.00000000  0.10246000  1
  O  O8  1  0.80452300  0.50000000  0.40446800  1
  O  O9  1  0.70360300  0.00000000  0.56426100  1
  O  O10  1  0.81062700  0.50000000  0.73084100  1
  O  O11  1  0.29891000  0.00000000  0.76532000  1
  F  F12  1  0.69845500  0.00000000  0.23464100  1
  F  F13  1  0.19500500  0.50000000  0.27433500  1
  F  F14  1  0.32040100  0.00000000  0.43517600  1
  F  F15  1  0.21792100  0.50000000  0.59445600  1
  F  F16  1  0.69314500  0.00000000  0.89858600  1
  F  F17  1  0.19353800  0.50000000  0.93350900  1
