# generated using pymatgen
data_Li4Co2(PO4)3
_symmetry_space_group_name_H-M   'P 1'
_cell_length_a   8.33911042
_cell_length_b   8.38508362
_cell_length_c   9.10950475
_cell_angle_alpha   116.55684347
_cell_angle_beta   91.22996364
_cell_angle_gamma   118.75514131
_symmetry_Int_Tables_number   1
_chemical_formula_structural   Li4Co2(PO4)3
_chemical_formula_sum   'Li8 Co4 P6 O24'
_cell_volume   476.23977812
_cell_formula_units_Z   2
loop_
 _symmetry_equiv_pos_site_id
 _symmetry_equiv_pos_as_xyz
  1  'x, y, z'
loop_
 _atom_site_type_symbol
 _atom_site_label
 _atom_site_symmetry_multiplicity
 _atom_site_fract_x
 _atom_site_fract_y
 _atom_site_fract_z
 _atom_site_occupancy
  Li  Li0  1  0.19043921  0.91645075  0.14524223  1
  Li  Li1  1  0.59084634  0.67162077  0.13859392  1
  Li  Li2  1  0.96845429  0.27753582  0.10267236  1
  Li  Li3  1  0.20346459  0.73767413  0.58353775  1
  Li  Li4  1  0.79653541  0.26232587  0.41646225  1
  Li  Li5  1  0.03154571  0.72246418  0.89732764  1
  Li  Li6  1  0.40915366  0.32837923  0.86140608  1
  Li  Li7  1  0.80956079  0.08354925  0.85475777  1
  Co  Co8  1  0.31194119  0.65133790  0.04016728  1
  Co  Co9  1  0.29587217  0.15412750  0.55935344  1
  Co  Co10  1  0.70412783  0.84587250  0.44064656  1
  Co  Co11  1  0.68805881  0.34866210  0.95983272  1
  P  P12  1  0.51598332  0.96284589  0.23923790  1
  P  P13  1  0.79423382  0.53846608  0.25325848  1
  P  P14  1  0.20348525  0.24953845  0.25196680  1
  P  P15  1  0.79651475  0.75046155  0.74803320  1
  P  P16  1  0.20576618  0.46153392  0.74674152  1
  P  P17  1  0.48401668  0.03715411  0.76076210  1
  O  O18  1  0.74496331  0.54237818  0.10645237  1
  O  O19  1  0.34021843  0.19778678  0.10377096  1
  O  O20  1  0.70541863  0.15787148  0.08988773  1
  O  O21  1  0.34880247  0.83675547  0.19261201  1
  O  O22  1  0.62342477  0.86155698  0.25768214  1
  O  O23  1  0.40451400  0.99385482  0.41072899  1
  O  O24  1  0.87896553  0.74051127  0.27184078  1
  O  O25  1  0.96972888  0.49144060  0.20012978  1
  O  O26  1  0.30768999  0.46911126  0.19930584  1
  O  O27  1  0.82348798  0.82299118  0.57777893  1
  O  O28  1  0.02869730  0.85386789  0.71687087  1
  O  O29  1  0.39937141  0.61943388  0.57630418  1
  O  O30  1  0.60062859  0.38056612  0.42369582  1
  O  O31  1  0.97130270  0.14613211  0.28312913  1
  O  O32  1  0.17651202  0.17700882  0.42222107  1
  O  O33  1  0.69231001  0.53088874  0.80069416  1
  O  O34  1  0.03027112  0.50855940  0.79987022  1
  O  O35  1  0.12103447  0.25948873  0.72815922  1
  O  O36  1  0.59548600  0.00614518  0.58927101  1
  O  O37  1  0.37657523  0.13844302  0.74231786  1
  O  O38  1  0.65119753  0.16324453  0.80738799  1
  O  O39  1  0.29458137  0.84212852  0.91011227  1
  O  O40  1  0.65978157  0.80221322  0.89622904  1
  O  O41  1  0.25503669  0.45762182  0.89354763  1
