# generated using pymatgen
data_LiFe(PO3)3
_symmetry_space_group_name_H-M   'P 1'
_cell_length_a   10.32037636
_cell_length_b   10.32037636
_cell_length_c   6.79517667
_cell_angle_alpha   90.00000000
_cell_angle_beta   90.00000000
_cell_angle_gamma   120.00000000
_symmetry_Int_Tables_number   1
_chemical_formula_structural   LiFe(PO3)3
_chemical_formula_sum   'Li3 Fe3 P9 O27'
_cell_volume   626.79057088
_cell_formula_units_Z   3
loop_
 _symmetry_equiv_pos_site_id
 _symmetry_equiv_pos_as_xyz
  1  'x, y, z'
loop_
 _atom_site_type_symbol
 _atom_site_label
 _atom_site_symmetry_multiplicity
 _atom_site_fract_x
 _atom_site_fract_y
 _atom_site_fract_z
 _atom_site_occupancy
  Li  Li0  1  0.00000000  0.00000000  0.52738500  1
  Li  Li1  1  0.66666667  0.33333333  0.86071833  1
  Li  Li2  1  0.33333333  0.66666667  0.19405167  1
  Fe  Fe3  1  0.00000000  0.00000000  0.99320500  1
  Fe  Fe4  1  0.66666667  0.33333333  0.32653833  1
  Fe  Fe5  1  0.33333333  0.66666667  0.65987167  1
  P  P6  1  0.56912600  0.55829600  0.52938600  1
  P  P7  1  0.98917000  0.43087400  0.52938600  1
  P  P8  1  0.44170400  0.01083000  0.52938600  1
  P  P9  1  0.23579267  0.89162933  0.86271933  1
  P  P10  1  0.65583667  0.76420733  0.86271933  1
  P  P11  1  0.10837067  0.34416333  0.86271933  1
  P  P12  1  0.90245933  0.22496267  0.19605267  1
  P  P13  1  0.32250333  0.09754067  0.19605267  1
  P  P14  1  0.77503733  0.67749667  0.19605267  1
  O  O15  1  0.72206200  0.67837600  0.41772700  1
  O  O16  1  0.80952167  0.88763533  0.80328833  1
  O  O17  1  0.92858000  0.81092700  0.18076300  1
  O  O18  1  0.88234700  0.07142000  0.18076300  1
  O  O19  1  0.11236467  0.92188633  0.80328833  1
  O  O20  1  0.95631400  0.27793800  0.41772700  1
  O  O21  1  0.07811367  0.19047833  0.80328833  1
  O  O22  1  0.18907300  0.11765300  0.18076300  1
  O  O23  1  0.32162400  0.04368600  0.41772700  1
  O  O24  1  0.38872867  0.01170933  0.75106033  1
  O  O25  1  0.47618833  0.22096867  0.13662167  1
  O  O26  1  0.59524667  0.14426033  0.51409633  1
  O  O27  1  0.54901367  0.40475333  0.51409633  1
  O  O28  1  0.77903133  0.25521967  0.13662167  1
  O  O29  1  0.62298067  0.61127133  0.75106033  1
  O  O30  1  0.74478033  0.52381167  0.13662167  1
  O  O31  1  0.85573967  0.45098633  0.51409633  1
  O  O32  1  0.98829067  0.37701933  0.75106033  1
  O  O33  1  0.05539533  0.34504267  0.08439367  1
  O  O34  1  0.14285500  0.55430200  0.46995500  1
  O  O35  1  0.26191333  0.47759367  0.84742967  1
  O  O36  1  0.21568033  0.73808667  0.84742967  1
  O  O37  1  0.44569800  0.58855300  0.46995500  1
  O  O38  1  0.28964733  0.94460467  0.08439367  1
  O  O39  1  0.41144700  0.85714500  0.46995500  1
  O  O40  1  0.52240633  0.78431967  0.84742967  1
  O  O41  1  0.65495733  0.71035267  0.08439367  1
