# generated using pymatgen
data_Co2O3F
_symmetry_space_group_name_H-M   'P 1'
_cell_length_a   6.14862600
_cell_length_b   6.62619000
_cell_length_c   14.76486000
_cell_angle_alpha   90.00000000
_cell_angle_beta   90.00000000
_cell_angle_gamma   90.00000000
_symmetry_Int_Tables_number   1
_chemical_formula_structural   Co2O3F
_chemical_formula_sum   'Co20 O30 F10'
_cell_volume   601.54939628
_cell_formula_units_Z   10
loop_
 _symmetry_equiv_pos_site_id
 _symmetry_equiv_pos_as_xyz
  1  'x, y, z'
loop_
 _atom_site_type_symbol
 _atom_site_label
 _atom_site_symmetry_multiplicity
 _atom_site_fract_x
 _atom_site_fract_y
 _atom_site_fract_z
 _atom_site_occupancy
  Co  Co0  1  0.50000000  0.50065300  0.30061700  1
  Co  Co1  1  0.50000000  0.50561600  0.50000000  1
  Co  Co2  1  0.50000000  0.50065300  0.69938300  1
  Co  Co3  1  0.50000000  0.48517300  0.89985800  1
  Co  Co4  1  0.50000000  0.48517300  0.10014200  1
  Co  Co5  1  0.50000000  0.96929500  0.40005600  1
  Co  Co6  1  0.50000000  0.02792500  0.79992800  1
  Co  Co7  1  0.50000000  0.96929500  0.59994400  1
  Co  Co8  1  0.50000000  0.02792500  0.20007200  1
  Co  Co9  1  0.50000000  0.01818600  0.00000000  1
  Co  Co10  1  0.00000000  0.00065300  0.30061700  1
  Co  Co11  1  0.00000000  0.00561600  0.50000000  1
  Co  Co12  1  0.00000000  0.00065300  0.69938300  1
  Co  Co13  1  0.00000000  0.98517300  0.89985800  1
  Co  Co14  1  0.00000000  0.98517300  0.10014200  1
  Co  Co15  1  0.00000000  0.46929500  0.40005600  1
  Co  Co16  1  0.00000000  0.52792500  0.79992800  1
  Co  Co17  1  0.00000000  0.46929500  0.59994400  1
  Co  Co18  1  0.00000000  0.52792500  0.20007200  1
  Co  Co19  1  0.00000000  0.51818600  0.00000000  1
  O  O20  1  0.50000000  0.31380300  0.79626200  1
  O  O21  1  0.50000000  0.29444300  0.00000000  1
  O  O22  1  0.50000000  0.31380300  0.20373800  1
  O  O23  1  0.30625450  0.99989650  0.30008200  1
  O  O24  1  0.30308800  0.99256100  0.50000000  1
  O  O25  1  0.30744200  0.00567700  0.90061500  1
  O  O26  1  0.30744200  0.00567700  0.09938500  1
  O  O27  1  0.30625450  0.99989650  0.69991800  1
  O  O28  1  0.69374550  0.99989650  0.30008200  1
  O  O29  1  0.69691200  0.99256100  0.50000000  1
  O  O30  1  0.69374550  0.99989650  0.69991800  1
  O  O31  1  0.69255800  0.00567700  0.90061500  1
  O  O32  1  0.69255800  0.00567700  0.09938500  1
  O  O33  1  0.50000000  0.68042900  0.40359200  1
  O  O34  1  0.50000000  0.68042900  0.59640800  1
  O  O35  1  0.00000000  0.81380300  0.79626200  1
  O  O36  1  0.00000000  0.79444300  0.00000000  1
  O  O37  1  0.00000000  0.81380300  0.20373800  1
  O  O38  1  0.80625450  0.49989650  0.30008200  1
  O  O39  1  0.80308800  0.49256100  0.50000000  1
  O  O40  1  0.80744200  0.50567700  0.90061500  1
  O  O41  1  0.80744200  0.50567700  0.09938500  1
  O  O42  1  0.80625450  0.49989650  0.69991800  1
  O  O43  1  0.19374550  0.49989650  0.30008200  1
  O  O44  1  0.19691200  0.49256100  0.50000000  1
  O  O45  1  0.19374550  0.49989650  0.69991800  1
  O  O46  1  0.19255800  0.50567700  0.90061500  1
  O  O47  1  0.19255800  0.50567700  0.09938500  1
  O  O48  1  0.00000000  0.18042900  0.40359200  1
  O  O49  1  0.00000000  0.18042900  0.59640800  1
  F  F50  1  0.50000000  0.30111600  0.40676900  1
  F  F51  1  0.50000000  0.30111600  0.59323100  1
  F  F52  1  0.50000000  0.70557100  0.80286800  1
  F  F53  1  0.50000000  0.70557100  0.19713200  1
  F  F54  1  0.50000000  0.70640600  0.00000000  1
  F  F55  1  0.00000000  0.80111600  0.40676900  1
  F  F56  1  0.00000000  0.80111600  0.59323100  1
  F  F57  1  0.00000000  0.20557100  0.80286800  1
  F  F58  1  0.00000000  0.20557100  0.19713200  1
  F  F59  1  0.00000000  0.20640600  0.00000000  1
