# generated using pymatgen
data_HfCoO3
_symmetry_space_group_name_H-M   'P 1'
_cell_length_a   5.40392000
_cell_length_b   5.43229400
_cell_length_c   7.82869300
_cell_angle_alpha   90.00000000
_cell_angle_beta   90.00000000
_cell_angle_gamma   90.00000000
_symmetry_Int_Tables_number   1
_chemical_formula_structural   HfCoO3
_chemical_formula_sum   'Hf4 Co4 O12'
_cell_volume   229.81662369
_cell_formula_units_Z   4
loop_
 _symmetry_equiv_pos_site_id
 _symmetry_equiv_pos_as_xyz
  1  'x, y, z'
loop_
 _atom_site_type_symbol
 _atom_site_label
 _atom_site_symmetry_multiplicity
 _atom_site_fract_x
 _atom_site_fract_y
 _atom_site_fract_z
 _atom_site_occupancy
  Hf  Hf0  1  0.50000000  0.50000000  0.50000000  1
  Hf  Hf1  1  0.50000000  0.50000000  0.00000000  1
  Hf  Hf2  1  0.00000000  0.00000000  0.50000000  1
  Hf  Hf3  1  0.00000000  0.00000000  0.00000000  1
  Co  Co4  1  0.48549000  0.02685350  0.75000000  1
  Co  Co5  1  0.98549000  0.47314650  0.25000000  1
  Co  Co6  1  0.01451000  0.52685350  0.75000000  1
  Co  Co7  1  0.51451000  0.97314650  0.25000000  1
  O  O8  1  0.62046800  0.58632250  0.25000000  1
  O  O9  1  0.12046800  0.91367750  0.75000000  1
  O  O10  1  0.87953200  0.08632250  0.25000000  1
  O  O11  1  0.37953200  0.41367750  0.75000000  1
  O  O12  1  0.16477500  0.66733450  0.06606950  1
  O  O13  1  0.16477500  0.66733450  0.43393050  1
  O  O14  1  0.66477500  0.83266550  0.56606950  1
  O  O15  1  0.66477500  0.83266550  0.93393050  1
  O  O16  1  0.33522500  0.16733450  0.06606950  1
  O  O17  1  0.33522500  0.16733450  0.43393050  1
  O  O18  1  0.83522500  0.33266550  0.56606950  1
  O  O19  1  0.83522500  0.33266550  0.93393050  1
