# generated using pymatgen
data_LiMnPHO5
_symmetry_space_group_name_H-M   'P 1'
_cell_length_a   5.17525371
_cell_length_b   5.55047111
_cell_length_c   7.25881977
_cell_angle_alpha   106.26512534
_cell_angle_beta   107.77948431
_cell_angle_gamma   101.53793769
_symmetry_Int_Tables_number   1
_chemical_formula_structural   LiMnPHO5
_chemical_formula_sum   'Li2 Mn2 P2 H2 O10'
_cell_volume   181.06729910
_cell_formula_units_Z   2
loop_
 _symmetry_equiv_pos_site_id
 _symmetry_equiv_pos_as_xyz
  1  'x, y, z'
loop_
 _atom_site_type_symbol
 _atom_site_label
 _atom_site_symmetry_multiplicity
 _atom_site_fract_x
 _atom_site_fract_y
 _atom_site_fract_z
 _atom_site_occupancy
  Li  Li0  1  0.74818350  0.38589250  0.82425300  1
  Li  Li1  1  0.25181650  0.61410750  0.17574700  1
  Mn  Mn2  1  0.00000000  0.00000000  0.50000000  1
  Mn  Mn3  1  0.00000000  0.00000000  0.00000000  1
  P  P4  1  0.67116650  0.37262450  0.23452250  1
  P  P5  1  0.32883350  0.62737550  0.76547750  1
  H  H6  1  0.36072350  0.08017350  0.34397900  1
  H  H7  1  0.63927650  0.91982650  0.65602100  1
  O  O8  1  0.84323000  0.03917400  0.72335100  1
  O  O9  1  0.15677000  0.96082600  0.27664900  1
  O  O10  1  0.70922800  0.22547000  0.38636000  1
  O  O11  1  0.29077200  0.77453000  0.61364000  1
  O  O12  1  0.31198850  0.33303150  0.66005350  1
  O  O13  1  0.68801150  0.66696850  0.33994650  1
  O  O14  1  0.35696350  0.25635450  0.06737900  1
  O  O15  1  0.64303650  0.74364550  0.93262100  1
  O  O16  1  0.87742400  0.35618600  0.11978600  1
  O  O17  1  0.12257600  0.64381400  0.88021400  1
