# generated using pymatgen
data_Mn3FeO8
_symmetry_space_group_name_H-M   'P 1'
_cell_length_a   5.79830562
_cell_length_b   5.79830562
_cell_length_c   9.04087032
_cell_angle_alpha   90.00000000
_cell_angle_beta   90.00000000
_cell_angle_gamma   120.00000000
_symmetry_Int_Tables_number   1
_chemical_formula_structural   Mn3FeO8
_chemical_formula_sum   'Mn6 Fe2 O16'
_cell_volume   263.23466299
_cell_formula_units_Z   2
loop_
 _symmetry_equiv_pos_site_id
 _symmetry_equiv_pos_as_xyz
  1  'x, y, z'
loop_
 _atom_site_type_symbol
 _atom_site_label
 _atom_site_symmetry_multiplicity
 _atom_site_fract_x
 _atom_site_fract_y
 _atom_site_fract_z
 _atom_site_occupancy
  Mn  Mn0  1  0.16767650  0.83232350  0.21172800  1
  Mn  Mn1  1  0.16767650  0.33535300  0.21172800  1
  Mn  Mn2  1  0.66464700  0.83232350  0.21172800  1
  Mn  Mn3  1  0.33535300  0.16767650  0.71172800  1
  Mn  Mn4  1  0.83232350  0.66464700  0.71172800  1
  Mn  Mn5  1  0.83232350  0.16767650  0.71172800  1
  Fe  Fe6  1  0.33333333  0.66666667  0.49485900  1
  Fe  Fe7  1  0.66666667  0.33333333  0.99485900  1
  O  O8  1  0.16301450  0.83698550  0.60108500  1
  O  O9  1  0.04068200  0.52034100  0.33509700  1
  O  O10  1  0.33333333  0.66666667  0.10277100  1
  O  O11  1  0.00000000  0.00000000  0.31672600  1
  O  O12  1  0.00000000  0.00000000  0.81672600  1
  O  O13  1  0.16301450  0.32602900  0.60108500  1
  O  O14  1  0.47965900  0.95931800  0.33509700  1
  O  O15  1  0.47965900  0.52034100  0.33509700  1
  O  O16  1  0.32602900  0.16301450  0.10108500  1
  O  O17  1  0.67397100  0.83698550  0.60108500  1
  O  O18  1  0.52034100  0.47965900  0.83509700  1
  O  O19  1  0.52034100  0.04068200  0.83509700  1
  O  O20  1  0.66666667  0.33333333  0.60277100  1
  O  O21  1  0.83698550  0.67397100  0.10108500  1
  O  O22  1  0.95931800  0.47965900  0.83509700  1
  O  O23  1  0.83698550  0.16301450  0.10108500  1
