# generated using pymatgen
data_TiV4CuO12
_symmetry_space_group_name_H-M   'P 1'
_cell_length_a   10.05652600
_cell_length_b   9.13375200
_cell_length_c   5.81758566
_cell_angle_alpha   90.00000000
_cell_angle_beta   110.40240897
_cell_angle_gamma   90.00000000
_symmetry_Int_Tables_number   1
_chemical_formula_structural   TiV4CuO12
_chemical_formula_sum   'Ti2 V8 Cu2 O24'
_cell_volume   500.84513993
_cell_formula_units_Z   2
loop_
 _symmetry_equiv_pos_site_id
 _symmetry_equiv_pos_as_xyz
  1  'x, y, z'
loop_
 _atom_site_type_symbol
 _atom_site_label
 _atom_site_symmetry_multiplicity
 _atom_site_fract_x
 _atom_site_fract_y
 _atom_site_fract_z
 _atom_site_occupancy
  Ti  Ti0  1  0.00000000  0.90852500  0.00000000  1
  Ti  Ti1  1  0.50000000  0.40852500  0.00000000  1
  V  V2  1  0.20519500  0.40668800  0.49343300  1
  V  V3  1  0.20204550  0.59218350  0.98323500  1
  V  V4  1  0.79480500  0.40668800  0.50656700  1
  V  V5  1  0.79795450  0.59218350  0.01676500  1
  V  V6  1  0.70519500  0.90668800  0.49343300  1
  V  V7  1  0.70204550  0.09218350  0.98323500  1
  V  V8  1  0.29480500  0.90668800  0.50656700  1
  V  V9  1  0.29795450  0.09218350  0.01676500  1
  Cu  Cu10  1  0.00000000  0.09481700  0.50000000  1
  Cu  Cu11  1  0.50000000  0.59481700  0.50000000  1
  O  O12  1  0.39077850  0.41883250  0.63678900  1
  O  O13  1  0.14814400  0.23286100  0.46003000  1
  O  O14  1  0.38648700  0.57737000  0.09013100  1
  O  O15  1  0.13225900  0.50202800  0.69489700  1
  O  O16  1  0.85185600  0.23286100  0.53997000  1
  O  O17  1  0.14645250  0.49442750  0.19763500  1
  O  O18  1  0.86774100  0.50202800  0.30510300  1
  O  O19  1  0.13561700  0.77393900  0.96715200  1
  O  O20  1  0.85354750  0.49442750  0.80236500  1
  O  O21  1  0.60922150  0.41883250  0.36321100  1
  O  O22  1  0.86438300  0.77393900  0.03284800  1
  O  O23  1  0.61351300  0.57737000  0.90986900  1
  O  O24  1  0.89077850  0.91883250  0.63678900  1
  O  O25  1  0.64814400  0.73286100  0.46003000  1
  O  O26  1  0.88648700  0.07737000  0.09013100  1
  O  O27  1  0.63225900  0.00202800  0.69489700  1
  O  O28  1  0.35185600  0.73286100  0.53997000  1
  O  O29  1  0.64645250  0.99442750  0.19763500  1
  O  O30  1  0.36774100  0.00202800  0.30510300  1
  O  O31  1  0.63561700  0.27393900  0.96715200  1
  O  O32  1  0.35354750  0.99442750  0.80236500  1
  O  O33  1  0.10922150  0.91883250  0.36321100  1
  O  O34  1  0.36438300  0.27393900  0.03284800  1
  O  O35  1  0.11351300  0.07737000  0.90986900  1
