# generated using pymatgen
data_Li4Ti3Co2Sn3O16
_symmetry_space_group_name_H-M   'P 1'
_cell_length_a   10.65144819
_cell_length_b   6.10674452
_cell_length_c   9.84454581
_cell_angle_alpha   90.00000000
_cell_angle_beta   90.89139065
_cell_angle_gamma   90.00000000
_symmetry_Int_Tables_number   1
_chemical_formula_structural   Li4Ti3Co2Sn3O16
_chemical_formula_sum   'Li8 Ti6 Co4 Sn6 O32'
_cell_volume   640.26761178
_cell_formula_units_Z   2
loop_
 _symmetry_equiv_pos_site_id
 _symmetry_equiv_pos_as_xyz
  1  'x, y, z'
loop_
 _atom_site_type_symbol
 _atom_site_label
 _atom_site_symmetry_multiplicity
 _atom_site_fract_x
 _atom_site_fract_y
 _atom_site_fract_z
 _atom_site_occupancy
  Li  Li0  1  0.16870100  0.50000000  0.11439500  1
  Li  Li1  1  0.48983350  0.50000000  0.00384400  1
  Li  Li2  1  0.49382600  0.50000000  0.49845900  1
  Li  Li3  1  0.33525400  0.00000000  0.60741600  1
  Li  Li4  1  0.66870100  0.00000000  0.11439500  1
  Li  Li5  1  0.98983350  0.00000000  0.00384400  1
  Li  Li6  1  0.99382600  0.00000000  0.49845900  1
  Li  Li7  1  0.83525400  0.50000000  0.60741600  1
  Ti  Ti8  1  0.33078750  0.50000000  0.78268700  1
  Ti  Ti9  1  0.41516950  0.75227950  0.28381500  1
  Ti  Ti10  1  0.41516950  0.24772050  0.28381500  1
  Ti  Ti11  1  0.83078750  0.00000000  0.78268700  1
  Ti  Ti12  1  0.91516950  0.25227950  0.28381500  1
  Ti  Ti13  1  0.91516950  0.74772050  0.28381500  1
  Co  Co14  1  0.16528700  0.50000000  0.50624100  1
  Co  Co15  1  0.33670050  0.00000000  0.00689300  1
  Co  Co16  1  0.66528700  0.00000000  0.50624100  1
  Co  Co17  1  0.83670050  0.50000000  0.00689300  1
  Sn  Sn18  1  0.08481050  0.74634350  0.78584600  1
  Sn  Sn19  1  0.08481050  0.25365650  0.78584600  1
  Sn  Sn20  1  0.17066200  0.00000000  0.28720000  1
  Sn  Sn21  1  0.58481050  0.24634350  0.78584600  1
  Sn  Sn22  1  0.58481050  0.75365650  0.78584600  1
  Sn  Sn23  1  0.67066200  0.50000000  0.28720000  1
  O  O24  1  0.07666200  0.75935500  0.39774700  1
  O  O25  1  0.01489000  0.50000000  0.66331200  1
  O  O26  1  0.17535100  0.50000000  0.90227600  1
  O  O27  1  0.49351150  0.50000000  0.68117700  1
  O  O28  1  0.49527700  0.50000000  0.18541000  1
  O  O29  1  0.07666200  0.24064500  0.39774700  1
  O  O30  1  0.24550000  0.71846100  0.66540900  1
  O  O31  1  0.24550000  0.28153900  0.66540900  1
  O  O32  1  0.15672400  0.00000000  0.90474400  1
  O  O33  1  0.34486050  0.50000000  0.38638100  1
  O  O34  1  0.26466300  0.22851800  0.16811400  1
  O  O35  1  0.26466300  0.77148200  0.16811400  1
  O  O36  1  0.34482850  0.00000000  0.39738700  1
  O  O37  1  0.41524900  0.26629800  0.89459700  1
  O  O38  1  0.48096200  0.00000000  0.17375500  1
  O  O39  1  0.41524900  0.73370200  0.89459700  1
  O  O40  1  0.57666200  0.25935500  0.39774700  1
  O  O41  1  0.51489000  0.00000000  0.66331200  1
  O  O42  1  0.67535100  0.00000000  0.90227600  1
  O  O43  1  0.99351150  0.00000000  0.68117700  1
  O  O44  1  0.99527700  0.00000000  0.18541000  1
  O  O45  1  0.57666200  0.74064500  0.39774700  1
  O  O46  1  0.74550000  0.21846100  0.66540900  1
  O  O47  1  0.74550000  0.78153900  0.66540900  1
  O  O48  1  0.65672400  0.50000000  0.90474400  1
  O  O49  1  0.84486050  0.00000000  0.38638100  1
  O  O50  1  0.76466300  0.72851800  0.16811400  1
  O  O51  1  0.76466300  0.27148200  0.16811400  1
  O  O52  1  0.84482850  0.50000000  0.39738700  1
  O  O53  1  0.91524900  0.76629800  0.89459700  1
  O  O54  1  0.98096200  0.50000000  0.17375500  1
  O  O55  1  0.91524900  0.23370200  0.89459700  1
