# generated using pymatgen
data_Li2Fe2SiO6
_symmetry_space_group_name_H-M   'P 1'
_cell_length_a   6.75108400
_cell_length_b   22.17998200
_cell_length_c   22.29739000
_cell_angle_alpha   90.00000000
_cell_angle_beta   90.00000000
_cell_angle_gamma   90.00000000
_symmetry_Int_Tables_number   1
_chemical_formula_structural   Li2Fe2SiO6
_chemical_formula_sum   'Li48 Fe48 Si24 O144'
_cell_volume   3338.78713311
_cell_formula_units_Z   24
loop_
 _symmetry_equiv_pos_site_id
 _symmetry_equiv_pos_as_xyz
  1  'x, y, z'
loop_
 _atom_site_type_symbol
 _atom_site_label
 _atom_site_symmetry_multiplicity
 _atom_site_fract_x
 _atom_site_fract_y
 _atom_site_fract_z
 _atom_site_occupancy
  Li  Li0  1  0.00000000  0.99391600  0.00000000  1
  Li  Li1  1  0.00000000  0.66431000  0.00000000  1
  Li  Li2  1  0.25304850  0.77119500  0.06887950  1
  Li  Li3  1  0.75025200  0.92778500  0.10607100  1
  Li  Li4  1  0.50025200  0.67778500  0.14392900  1
  Li  Li5  1  0.00304850  0.52119500  0.18112050  1
  Li  Li6  1  0.25000000  0.74391600  0.75000000  1
  Li  Li7  1  0.75000000  0.91431000  0.75000000  1
  Li  Li8  1  0.99695150  0.52119500  0.81887950  1
  Li  Li9  1  0.49974800  0.67778500  0.85607100  1
  Li  Li10  1  0.24974800  0.92778500  0.89392900  1
  Li  Li11  1  0.74695150  0.77119500  0.93112050  1
  Li  Li12  1  0.00000000  0.49391600  0.50000000  1
  Li  Li13  1  0.00000000  0.16431000  0.50000000  1
  Li  Li14  1  0.25304850  0.27119500  0.56887950  1
  Li  Li15  1  0.75025200  0.42778500  0.60607100  1
  Li  Li16  1  0.50025200  0.17778500  0.64392900  1
  Li  Li17  1  0.00304850  0.02119500  0.68112050  1
  Li  Li18  1  0.25000000  0.24391600  0.25000000  1
  Li  Li19  1  0.75000000  0.41431000  0.25000000  1
  Li  Li20  1  0.99695150  0.02119500  0.31887950  1
  Li  Li21  1  0.49974800  0.17778500  0.35607100  1
  Li  Li22  1  0.24974800  0.42778500  0.39392900  1
  Li  Li23  1  0.74695150  0.27119500  0.43112050  1
  Li  Li24  1  0.50000000  0.49391600  0.00000000  1
  Li  Li25  1  0.50000000  0.16431000  0.00000000  1
  Li  Li26  1  0.75304850  0.27119500  0.06887950  1
  Li  Li27  1  0.25025200  0.42778500  0.10607100  1
  Li  Li28  1  0.00025200  0.17778500  0.14392900  1
  Li  Li29  1  0.50304850  0.02119500  0.18112050  1
  Li  Li30  1  0.75000000  0.24391600  0.75000000  1
  Li  Li31  1  0.25000000  0.41431000  0.75000000  1
  Li  Li32  1  0.49695150  0.02119500  0.81887950  1
  Li  Li33  1  0.99974800  0.17778500  0.85607100  1
  Li  Li34  1  0.74974800  0.42778500  0.89392900  1
  Li  Li35  1  0.24695150  0.27119500  0.93112050  1
  Li  Li36  1  0.50000000  0.99391600  0.50000000  1
  Li  Li37  1  0.50000000  0.66431000  0.50000000  1
  Li  Li38  1  0.75304850  0.77119500  0.56887950  1
  Li  Li39  1  0.25025200  0.92778500  0.60607100  1
  Li  Li40  1  0.00025200  0.67778500  0.64392900  1
  Li  Li41  1  0.50304850  0.52119500  0.68112050  1
  Li  Li42  1  0.75000000  0.74391600  0.25000000  1
  Li  Li43  1  0.25000000  0.91431000  0.25000000  1
  Li  Li44  1  0.49695150  0.52119500  0.31887950  1
  Li  Li45  1  0.99974800  0.67778500  0.35607100  1
  Li  Li46  1  0.74974800  0.92778500  0.39392900  1
  Li  Li47  1  0.24695150  0.77119500  0.43112050  1
  Fe  Fe48  1  0.50000000  0.65108200  0.00000000  1
  Fe  Fe49  1  0.50000000  0.99090100  0.00000000  1
  Fe  Fe50  1  0.75443400  0.76743000  0.05731200  1
  Fe  Fe51  1  0.25541950  0.92529650  0.10650800  1
  Fe  Fe52  1  0.00541950  0.67529650  0.14349200  1
  Fe  Fe53  1  0.50443400  0.51743000  0.19268800  1
  Fe  Fe54  1  0.25000000  0.90108200  0.75000000  1
  Fe  Fe55  1  0.75000000  0.74090100  0.75000000  1
  Fe  Fe56  1  0.49556600  0.51743000  0.80731200  1
  Fe  Fe57  1  0.99458050  0.67529650  0.85650800  1
  Fe  Fe58  1  0.74458050  0.92529650  0.89349200  1
  Fe  Fe59  1  0.24556600  0.76743000  0.94268800  1
  Fe  Fe60  1  0.50000000  0.15108200  0.50000000  1
  Fe  Fe61  1  0.50000000  0.49090100  0.50000000  1
  Fe  Fe62  1  0.75443400  0.26743000  0.55731200  1
  Fe  Fe63  1  0.25541950  0.42529650  0.60650800  1
  Fe  Fe64  1  0.00541950  0.17529650  0.64349200  1
  Fe  Fe65  1  0.50443400  0.01743000  0.69268800  1
  Fe  Fe66  1  0.25000000  0.40108200  0.25000000  1
  Fe  Fe67  1  0.75000000  0.24090100  0.25000000  1
  Fe  Fe68  1  0.49556600  0.01743000  0.30731200  1
  Fe  Fe69  1  0.99458050  0.17529650  0.35650800  1
  Fe  Fe70  1  0.74458050  0.42529650  0.39349200  1
  Fe  Fe71  1  0.24556600  0.26743000  0.44268800  1
  Fe  Fe72  1  0.00000000  0.15108200  0.00000000  1
  Fe  Fe73  1  0.00000000  0.49090100  0.00000000  1
  Fe  Fe74  1  0.25443400  0.26743000  0.05731200  1
  Fe  Fe75  1  0.75541950  0.42529650  0.10650800  1
  Fe  Fe76  1  0.50541950  0.17529650  0.14349200  1
  Fe  Fe77  1  0.00443400  0.01743000  0.19268800  1
  Fe  Fe78  1  0.75000000  0.40108200  0.75000000  1
  Fe  Fe79  1  0.25000000  0.24090100  0.75000000  1
  Fe  Fe80  1  0.99556600  0.01743000  0.80731200  1
  Fe  Fe81  1  0.49458050  0.17529650  0.85650800  1
  Fe  Fe82  1  0.24458050  0.42529650  0.89349200  1
  Fe  Fe83  1  0.74556600  0.26743000  0.94268800  1
  Fe  Fe84  1  0.00000000  0.65108200  0.50000000  1
  Fe  Fe85  1  0.00000000  0.99090100  0.50000000  1
  Fe  Fe86  1  0.25443400  0.76743000  0.55731200  1
  Fe  Fe87  1  0.75541950  0.92529650  0.60650800  1
  Fe  Fe88  1  0.50541950  0.67529650  0.64349200  1
  Fe  Fe89  1  0.00443400  0.51743000  0.69268800  1
  Fe  Fe90  1  0.75000000  0.90108200  0.25000000  1
  Fe  Fe91  1  0.25000000  0.74090100  0.25000000  1
  Fe  Fe92  1  0.99556600  0.51743000  0.30731200  1
  Fe  Fe93  1  0.49458050  0.67529650  0.35650800  1
  Fe  Fe94  1  0.24458050  0.92529650  0.39349200  1
  Fe  Fe95  1  0.74556600  0.76743000  0.44268800  1
  Si  Si96  1  0.00000000  0.87266800  0.00000000  1
  Si  Si97  1  0.25897550  0.57091900  0.08253850  1
  Si  Si98  1  0.50897550  0.82091900  0.16746150  1
  Si  Si99  1  0.25000000  0.62266800  0.75000000  1
  Si  Si100  1  0.49102450  0.82091900  0.83253850  1
  Si  Si101  1  0.74102450  0.57091900  0.91746150  1
  Si  Si102  1  0.00000000  0.37266800  0.50000000  1
  Si  Si103  1  0.25897550  0.07091900  0.58253850  1
  Si  Si104  1  0.50897550  0.32091900  0.66746150  1
  Si  Si105  1  0.25000000  0.12266800  0.25000000  1
  Si  Si106  1  0.49102450  0.32091900  0.33253850  1
  Si  Si107  1  0.74102450  0.07091900  0.41746150  1
  Si  Si108  1  0.50000000  0.37266800  0.00000000  1
  Si  Si109  1  0.75897550  0.07091900  0.08253850  1
  Si  Si110  1  0.00897550  0.32091900  0.16746150  1
  Si  Si111  1  0.75000000  0.12266800  0.75000000  1
  Si  Si112  1  0.99102450  0.32091900  0.83253850  1
  Si  Si113  1  0.24102450  0.07091900  0.91746150  1
  Si  Si114  1  0.50000000  0.87266800  0.50000000  1
  Si  Si115  1  0.75897550  0.57091900  0.58253850  1
  Si  Si116  1  0.00897550  0.82091900  0.66746150  1
  Si  Si117  1  0.75000000  0.62266800  0.25000000  1
  Si  Si118  1  0.99102450  0.82091900  0.33253850  1
  Si  Si119  1  0.24102450  0.57091900  0.41746150  1
  O  O120  1  0.72482500  0.70198700  0.00307100  1
  O  O121  1  0.24600100  0.53320000  0.01843900  1
  O  O122  1  0.79877600  0.83141050  0.00097550  1
  O  O123  1  0.01439200  0.91943800  0.05752100  1
  O  O124  1  0.49276200  0.93993500  0.06682700  1
  O  O125  1  0.45664250  0.61481250  0.07856100  1
  O  O126  1  0.98862900  0.74698450  0.09571150  1
  O  O127  1  0.05221150  0.60940550  0.08970200  1
  O  O128  1  0.52828900  0.77169700  0.11074700  1
  O  O129  1  0.27828900  0.52169700  0.13925300  1
  O  O130  1  0.30221150  0.85940550  0.16029800  1
  O  O131  1  0.23862900  0.99698450  0.15428850  1
  O  O132  1  0.70664250  0.86481250  0.17143900  1
  O  O133  1  0.24276200  0.68993500  0.18317300  1
  O  O134  1  0.76439200  0.66943800  0.19247900  1
  O  O135  1  0.54877600  0.58141050  0.24902450  1
  O  O136  1  0.49600100  0.78320000  0.23156100  1
  O  O137  1  0.97482500  0.95198700  0.24692900  1
  O  O138  1  0.02517500  0.95198700  0.75307100  1
  O  O139  1  0.50399900  0.78320000  0.76843900  1
  O  O140  1  0.45122400  0.58141050  0.75097550  1
  O  O141  1  0.23560800  0.66943800  0.80752100  1
  O  O142  1  0.75723800  0.68993500  0.81682700  1
  O  O143  1  0.29335750  0.86481250  0.82856100  1
  O  O144  1  0.76137100  0.99698450  0.84571150  1
  O  O145  1  0.69778850  0.85940550  0.83970200  1
  O  O146  1  0.72171100  0.52169700  0.86074700  1
  O  O147  1  0.47171100  0.77169700  0.88925300  1
  O  O148  1  0.94778850  0.60940550  0.91029800  1
  O  O149  1  0.01137100  0.74698450  0.90428850  1
  O  O150  1  0.54335750  0.61481250  0.92143900  1
  O  O151  1  0.50723800  0.93993500  0.93317300  1
  O  O152  1  0.98560800  0.91943800  0.94247900  1
  O  O153  1  0.20122400  0.83141050  0.99902450  1
  O  O154  1  0.75399900  0.53320000  0.98156100  1
  O  O155  1  0.27517500  0.70198700  0.99692900  1
  O  O156  1  0.72482500  0.20198700  0.50307100  1
  O  O157  1  0.24600100  0.03320000  0.51843900  1
  O  O158  1  0.79877600  0.33141050  0.50097550  1
  O  O159  1  0.01439200  0.41943800  0.55752100  1
  O  O160  1  0.49276200  0.43993500  0.56682700  1
  O  O161  1  0.45664250  0.11481250  0.57856100  1
  O  O162  1  0.98862900  0.24698450  0.59571150  1
  O  O163  1  0.05221150  0.10940550  0.58970200  1
  O  O164  1  0.52828900  0.27169700  0.61074700  1
  O  O165  1  0.27828900  0.02169700  0.63925300  1
  O  O166  1  0.30221150  0.35940550  0.66029800  1
  O  O167  1  0.23862900  0.49698450  0.65428850  1
  O  O168  1  0.70664250  0.36481250  0.67143900  1
  O  O169  1  0.24276200  0.18993500  0.68317300  1
  O  O170  1  0.76439200  0.16943800  0.69247900  1
  O  O171  1  0.54877600  0.08141050  0.74902450  1
  O  O172  1  0.49600100  0.28320000  0.73156100  1
  O  O173  1  0.97482500  0.45198700  0.74692900  1
  O  O174  1  0.02517500  0.45198700  0.25307100  1
  O  O175  1  0.50399900  0.28320000  0.26843900  1
  O  O176  1  0.45122400  0.08141050  0.25097550  1
  O  O177  1  0.23560800  0.16943800  0.30752100  1
  O  O178  1  0.75723800  0.18993500  0.31682700  1
  O  O179  1  0.29335750  0.36481250  0.32856100  1
  O  O180  1  0.76137100  0.49698450  0.34571150  1
  O  O181  1  0.69778850  0.35940550  0.33970200  1
  O  O182  1  0.72171100  0.02169700  0.36074700  1
  O  O183  1  0.47171100  0.27169700  0.38925300  1
  O  O184  1  0.94778850  0.10940550  0.41029800  1
  O  O185  1  0.01137100  0.24698450  0.40428850  1
  O  O186  1  0.54335750  0.11481250  0.42143900  1
  O  O187  1  0.50723800  0.43993500  0.43317300  1
  O  O188  1  0.98560800  0.41943800  0.44247900  1
  O  O189  1  0.20122400  0.33141050  0.49902450  1
  O  O190  1  0.75399900  0.03320000  0.48156100  1
  O  O191  1  0.27517500  0.20198700  0.49692900  1
  O  O192  1  0.22482500  0.20198700  0.00307100  1
  O  O193  1  0.74600100  0.03320000  0.01843900  1
  O  O194  1  0.29877600  0.33141050  0.00097550  1
  O  O195  1  0.51439200  0.41943800  0.05752100  1
  O  O196  1  0.99276200  0.43993500  0.06682700  1
  O  O197  1  0.95664250  0.11481250  0.07856100  1
  O  O198  1  0.48862900  0.24698450  0.09571150  1
  O  O199  1  0.55221150  0.10940550  0.08970200  1
  O  O200  1  0.02828900  0.27169700  0.11074700  1
  O  O201  1  0.77828900  0.02169700  0.13925300  1
  O  O202  1  0.80221150  0.35940550  0.16029800  1
  O  O203  1  0.73862900  0.49698450  0.15428850  1
  O  O204  1  0.20664250  0.36481250  0.17143900  1
  O  O205  1  0.74276200  0.18993500  0.18317300  1
  O  O206  1  0.26439200  0.16943800  0.19247900  1
  O  O207  1  0.04877600  0.08141050  0.24902450  1
  O  O208  1  0.99600100  0.28320000  0.23156100  1
  O  O209  1  0.47482500  0.45198700  0.24692900  1
  O  O210  1  0.52517500  0.45198700  0.75307100  1
  O  O211  1  0.00399900  0.28320000  0.76843900  1
  O  O212  1  0.95122400  0.08141050  0.75097550  1
  O  O213  1  0.73560800  0.16943800  0.80752100  1
  O  O214  1  0.25723800  0.18993500  0.81682700  1
  O  O215  1  0.79335750  0.36481250  0.82856100  1
  O  O216  1  0.26137100  0.49698450  0.84571150  1
  O  O217  1  0.19778850  0.35940550  0.83970200  1
  O  O218  1  0.22171100  0.02169700  0.86074700  1
  O  O219  1  0.97171100  0.27169700  0.88925300  1
  O  O220  1  0.44778850  0.10940550  0.91029800  1
  O  O221  1  0.51137100  0.24698450  0.90428850  1
  O  O222  1  0.04335750  0.11481250  0.92143900  1
  O  O223  1  0.00723800  0.43993500  0.93317300  1
  O  O224  1  0.48560800  0.41943800  0.94247900  1
  O  O225  1  0.70122400  0.33141050  0.99902450  1
  O  O226  1  0.25399900  0.03320000  0.98156100  1
  O  O227  1  0.77517500  0.20198700  0.99692900  1
  O  O228  1  0.22482500  0.70198700  0.50307100  1
  O  O229  1  0.74600100  0.53320000  0.51843900  1
  O  O230  1  0.29877600  0.83141050  0.50097550  1
  O  O231  1  0.51439200  0.91943800  0.55752100  1
  O  O232  1  0.99276200  0.93993500  0.56682700  1
  O  O233  1  0.95664250  0.61481250  0.57856100  1
  O  O234  1  0.48862900  0.74698450  0.59571150  1
  O  O235  1  0.55221150  0.60940550  0.58970200  1
  O  O236  1  0.02828900  0.77169700  0.61074700  1
  O  O237  1  0.77828900  0.52169700  0.63925300  1
  O  O238  1  0.80221150  0.85940550  0.66029800  1
  O  O239  1  0.73862900  0.99698450  0.65428850  1
  O  O240  1  0.20664250  0.86481250  0.67143900  1
  O  O241  1  0.74276200  0.68993500  0.68317300  1
  O  O242  1  0.26439200  0.66943800  0.69247900  1
  O  O243  1  0.04877600  0.58141050  0.74902450  1
  O  O244  1  0.99600100  0.78320000  0.73156100  1
  O  O245  1  0.47482500  0.95198700  0.74692900  1
  O  O246  1  0.52517500  0.95198700  0.25307100  1
  O  O247  1  0.00399900  0.78320000  0.26843900  1
  O  O248  1  0.95122400  0.58141050  0.25097550  1
  O  O249  1  0.73560800  0.66943800  0.30752100  1
  O  O250  1  0.25723800  0.68993500  0.31682700  1
  O  O251  1  0.79335750  0.86481250  0.32856100  1
  O  O252  1  0.26137100  0.99698450  0.34571150  1
  O  O253  1  0.19778850  0.85940550  0.33970200  1
  O  O254  1  0.22171100  0.52169700  0.36074700  1
  O  O255  1  0.97171100  0.77169700  0.38925300  1
  O  O256  1  0.44778850  0.60940550  0.41029800  1
  O  O257  1  0.51137100  0.74698450  0.40428850  1
  O  O258  1  0.04335750  0.61481250  0.42143900  1
  O  O259  1  0.00723800  0.93993500  0.43317300  1
  O  O260  1  0.48560800  0.91943800  0.44247900  1
  O  O261  1  0.70122400  0.83141050  0.49902450  1
  O  O262  1  0.25399900  0.53320000  0.48156100  1
  O  O263  1  0.77517500  0.70198700  0.49692900  1
