# generated using pymatgen
data_LiVPO4
_symmetry_space_group_name_H-M   'P 1'
_cell_length_a   5.74075252
_cell_length_b   5.80850100
_cell_length_c   8.16079652
_cell_angle_alpha   90.00000000
_cell_angle_beta   90.00000000
_cell_angle_gamma   90.00000000
_symmetry_Int_Tables_number   1
_chemical_formula_structural   LiVPO4
_chemical_formula_sum   'Li4 V4 P4 O16'
_cell_volume   272.12312058
_cell_formula_units_Z   4
loop_
 _symmetry_equiv_pos_site_id
 _symmetry_equiv_pos_as_xyz
  1  'x, y, z'
loop_
 _atom_site_type_symbol
 _atom_site_label
 _atom_site_symmetry_multiplicity
 _atom_site_fract_x
 _atom_site_fract_y
 _atom_site_fract_z
 _atom_site_occupancy
  Li  Li0  1  0.75000000  0.75000000  0.25000000  1
  Li  Li1  1  0.25000000  0.75000000  0.25000000  1
  Li  Li2  1  0.25000000  0.25000000  0.75000000  1
  Li  Li3  1  0.75000000  0.25000000  0.75000000  1
  V  V4  1  0.00000000  0.00000000  0.00000000  1
  V  V5  1  0.00000000  0.50000000  0.00000000  1
  V  V6  1  0.50000000  0.50000000  0.50000000  1
  V  V7  1  0.50000000  0.00000000  0.50000000  1
  P  P8  1  0.50000000  0.75000000  0.86988825  1
  P  P9  1  0.50000000  0.25000000  0.13011175  1
  P  P10  1  0.00000000  0.25000000  0.36988825  1
  P  P11  1  0.00000000  0.75000000  0.63011175  1
  O  O12  1  0.27900050  0.25000000  0.01493500  1
  O  O13  1  0.27900050  0.75000000  0.98506500  1
  O  O14  1  0.72099950  0.25000000  0.01493500  1
  O  O15  1  0.72099950  0.75000000  0.98506500  1
  O  O16  1  0.00000000  0.47210475  0.26332925  1
  O  O17  1  0.50000000  0.52789525  0.76332925  1
  O  O18  1  0.00000000  0.52789525  0.73667075  1
  O  O19  1  0.50000000  0.47210475  0.23667075  1
  O  O20  1  0.77900050  0.75000000  0.51493500  1
  O  O21  1  0.77900050  0.25000000  0.48506500  1
  O  O22  1  0.22099950  0.75000000  0.51493500  1
  O  O23  1  0.22099950  0.25000000  0.48506500  1
  O  O24  1  0.50000000  0.97210475  0.76332925  1
  O  O25  1  0.00000000  0.02789525  0.26332925  1
  O  O26  1  0.50000000  0.02789525  0.23667075  1
  O  O27  1  0.00000000  0.97210475  0.73667075  1
