# generated using pymatgen
data_Co2O3F
_symmetry_space_group_name_H-M   'P 1'
_cell_length_a   6.14461600
_cell_length_b   6.68803400
_cell_length_c   14.65514400
_cell_angle_alpha   90.00000000
_cell_angle_beta   90.00000000
_cell_angle_gamma   90.00000000
_symmetry_Int_Tables_number   1
_chemical_formula_structural   Co2O3F
_chemical_formula_sum   'Co20 O30 F10'
_cell_volume   602.25901536
_cell_formula_units_Z   10
loop_
 _symmetry_equiv_pos_site_id
 _symmetry_equiv_pos_as_xyz
  1  'x, y, z'
loop_
 _atom_site_type_symbol
 _atom_site_label
 _atom_site_symmetry_multiplicity
 _atom_site_fract_x
 _atom_site_fract_y
 _atom_site_fract_z
 _atom_site_occupancy
  Co  Co0  1  0.50000000  0.49578200  0.39997800  1
  Co  Co1  1  0.50000000  0.49578200  0.60002200  1
  Co  Co2  1  0.50000000  0.48596500  0.79989400  1
  Co  Co3  1  0.50000000  0.48591500  0.00000000  1
  Co  Co4  1  0.50000000  0.48596500  0.20010600  1
  Co  Co5  1  0.50000000  0.95838300  0.50000000  1
  Co  Co6  1  0.50000000  0.02412800  0.90133700  1
  Co  Co7  1  0.50000000  0.02705300  0.69851100  1
  Co  Co8  1  0.50000000  0.02705300  0.30148900  1
  Co  Co9  1  0.50000000  0.02412800  0.09866300  1
  Co  Co10  1  0.00000000  0.99578200  0.39997800  1
  Co  Co11  1  0.00000000  0.99578200  0.60002200  1
  Co  Co12  1  0.00000000  0.98596500  0.79989400  1
  Co  Co13  1  0.00000000  0.98591500  0.00000000  1
  Co  Co14  1  0.00000000  0.98596500  0.20010600  1
  Co  Co15  1  0.00000000  0.45838300  0.50000000  1
  Co  Co16  1  0.00000000  0.52412800  0.90133700  1
  Co  Co17  1  0.00000000  0.52705300  0.69851100  1
  Co  Co18  1  0.00000000  0.52705300  0.30148900  1
  Co  Co19  1  0.00000000  0.52412800  0.09866300  1
  O  O20  1  0.50000000  0.30913800  0.90597200  1
  O  O21  1  0.50000000  0.31273200  0.69733900  1
  O  O22  1  0.50000000  0.30913800  0.09402800  1
  O  O23  1  0.50000000  0.31273200  0.30266100  1
  O  O24  1  0.30734500  0.99569200  0.39927800  1
  O  O25  1  0.30734500  0.99569200  0.60072200  1
  O  O26  1  0.30451200  0.99910500  0.00000000  1
  O  O27  1  0.30726250  0.00517550  0.19943800  1
  O  O28  1  0.30726250  0.00517550  0.80056200  1
  O  O29  1  0.69265500  0.99569200  0.39927800  1
  O  O30  1  0.69265500  0.99569200  0.60072200  1
  O  O31  1  0.69273750  0.00517550  0.80056200  1
  O  O32  1  0.69548800  0.99910500  0.00000000  1
  O  O33  1  0.69273750  0.00517550  0.19943800  1
  O  O34  1  0.50000000  0.67647300  0.50000000  1
  O  O35  1  0.00000000  0.80913800  0.90597200  1
  O  O36  1  0.00000000  0.81273200  0.69733900  1
  O  O37  1  0.00000000  0.80913800  0.09402800  1
  O  O38  1  0.00000000  0.81273200  0.30266100  1
  O  O39  1  0.80734500  0.49569200  0.39927800  1
  O  O40  1  0.80734500  0.49569200  0.60072200  1
  O  O41  1  0.80451200  0.49910500  0.00000000  1
  O  O42  1  0.80726250  0.50517550  0.19943800  1
  O  O43  1  0.80726250  0.50517550  0.80056200  1
  O  O44  1  0.19265500  0.49569200  0.39927800  1
  O  O45  1  0.19265500  0.49569200  0.60072200  1
  O  O46  1  0.19273750  0.50517550  0.80056200  1
  O  O47  1  0.19548800  0.49910500  0.00000000  1
  O  O48  1  0.19273750  0.50517550  0.19943800  1
  O  O49  1  0.00000000  0.17647300  0.50000000  1
  F  F50  1  0.50000000  0.28724000  0.50000000  1
  F  F51  1  0.50000000  0.68797800  0.90494600  1
  F  F52  1  0.50000000  0.70237800  0.70316100  1
  F  F53  1  0.50000000  0.70237800  0.29683900  1
  F  F54  1  0.50000000  0.68797800  0.09505400  1
  F  F55  1  0.00000000  0.78724000  0.50000000  1
  F  F56  1  0.00000000  0.18797800  0.90494600  1
  F  F57  1  0.00000000  0.20237800  0.70316100  1
  F  F58  1  0.00000000  0.20237800  0.29683900  1
  F  F59  1  0.00000000  0.18797800  0.09505400  1
