# generated using pymatgen
data_Li2CrFe3O8
_symmetry_space_group_name_H-M   'P 1'
_cell_length_a   5.93014758
_cell_length_b   10.17913309
_cell_length_c   9.59957320
_cell_angle_alpha   90.00000000
_cell_angle_beta   90.00000000
_cell_angle_gamma   90.00000000
_symmetry_Int_Tables_number   1
_chemical_formula_structural   Li2CrFe3O8
_chemical_formula_sum   'Li8 Cr4 Fe12 O32'
_cell_volume   579.46634676
_cell_formula_units_Z   4
loop_
 _symmetry_equiv_pos_site_id
 _symmetry_equiv_pos_as_xyz
  1  'x, y, z'
loop_
 _atom_site_type_symbol
 _atom_site_label
 _atom_site_symmetry_multiplicity
 _atom_site_fract_x
 _atom_site_fract_y
 _atom_site_fract_z
 _atom_site_occupancy
  Li  Li0  1  0.00000000  0.66800850  0.89438500  1
  Li  Li1  1  0.00000000  0.00025500  0.99742700  1
  Li  Li2  1  0.00000000  0.99974500  0.49742700  1
  Li  Li3  1  0.00000000  0.33199150  0.39438500  1
  Li  Li4  1  0.50000000  0.16800850  0.89438500  1
  Li  Li5  1  0.50000000  0.50025500  0.99742700  1
  Li  Li6  1  0.50000000  0.49974500  0.49742700  1
  Li  Li7  1  0.50000000  0.83199150  0.39438500  1
  Cr  Cr8  1  0.00000000  0.66409100  0.48468000  1
  Cr  Cr9  1  0.00000000  0.33590900  0.98468000  1
  Cr  Cr10  1  0.50000000  0.16409100  0.48468000  1
  Cr  Cr11  1  0.50000000  0.83590900  0.98468000  1
  Fe  Fe12  1  0.75351300  0.58470700  0.21291900  1
  Fe  Fe13  1  0.24648700  0.58470700  0.21291900  1
  Fe  Fe14  1  0.00000000  0.83127750  0.21310900  1
  Fe  Fe15  1  0.00000000  0.16872250  0.71310900  1
  Fe  Fe16  1  0.75351300  0.41529300  0.71291900  1
  Fe  Fe17  1  0.24648700  0.41529300  0.71291900  1
  Fe  Fe18  1  0.25351300  0.08470700  0.21291900  1
  Fe  Fe19  1  0.74648700  0.08470700  0.21291900  1
  Fe  Fe20  1  0.50000000  0.33127750  0.21310900  1
  Fe  Fe21  1  0.50000000  0.66872250  0.71310900  1
  Fe  Fe22  1  0.25351300  0.91529300  0.71291900  1
  Fe  Fe23  1  0.74648700  0.91529300  0.71291900  1
  O  O24  1  0.74675450  0.58012850  0.60093800  1
  O  O25  1  0.00000000  0.51876150  0.34095800  1
  O  O26  1  0.00000000  0.66661450  0.10249300  1
  O  O27  1  0.50000000  0.50047300  0.31022400  1
  O  O28  1  0.50000000  0.49952700  0.81022400  1
  O  O29  1  0.25324550  0.58012850  0.60093800  1
  O  O30  1  0.77964600  0.73720400  0.34173300  1
  O  O31  1  0.22035400  0.73720400  0.34173300  1
  O  O32  1  0.00000000  0.16593700  0.09899700  1
  O  O33  1  0.00000000  0.83406300  0.59899700  1
  O  O34  1  0.77964600  0.26279600  0.84173300  1
  O  O35  1  0.22035400  0.26279600  0.84173300  1
  O  O36  1  0.00000000  0.33338550  0.60249300  1
  O  O37  1  0.74675450  0.41987150  0.10093800  1
  O  O38  1  0.00000000  0.48123850  0.84095800  1
  O  O39  1  0.25324550  0.41987150  0.10093800  1
  O  O40  1  0.24675450  0.08012850  0.60093800  1
  O  O41  1  0.50000000  0.01876150  0.34095800  1
  O  O42  1  0.50000000  0.16661450  0.10249300  1
  O  O43  1  0.00000000  0.00047300  0.31022400  1
  O  O44  1  0.00000000  0.99952700  0.81022400  1
  O  O45  1  0.75324550  0.08012850  0.60093800  1
  O  O46  1  0.27964600  0.23720400  0.34173300  1
  O  O47  1  0.72035400  0.23720400  0.34173300  1
  O  O48  1  0.50000000  0.66593700  0.09899700  1
  O  O49  1  0.50000000  0.33406300  0.59899700  1
  O  O50  1  0.27964600  0.76279600  0.84173300  1
  O  O51  1  0.72035400  0.76279600  0.84173300  1
  O  O52  1  0.50000000  0.83338550  0.60249300  1
  O  O53  1  0.24675450  0.91987150  0.10093800  1
  O  O54  1  0.50000000  0.98123850  0.84095800  1
  O  O55  1  0.75324550  0.91987150  0.10093800  1
