# generated using pymatgen
data_Li3VSiCO7
_symmetry_space_group_name_H-M   'P 1'
_cell_length_a   5.06047067
_cell_length_b   6.48682902
_cell_length_c   8.39574445
_cell_angle_alpha   90.00000000
_cell_angle_beta   94.78844288
_cell_angle_gamma   90.00000000
_symmetry_Int_Tables_number   1
_chemical_formula_structural   Li3VSiCO7
_chemical_formula_sum   'Li6 V2 Si2 C2 O14'
_cell_volume   274.64020360
_cell_formula_units_Z   2
loop_
 _symmetry_equiv_pos_site_id
 _symmetry_equiv_pos_as_xyz
  1  'x, y, z'
loop_
 _atom_site_type_symbol
 _atom_site_label
 _atom_site_symmetry_multiplicity
 _atom_site_fract_x
 _atom_site_fract_y
 _atom_site_fract_z
 _atom_site_occupancy
  Li  Li0  1  0.77468850  0.75000000  0.89131850  1
  Li  Li1  1  0.22531150  0.25000000  0.10868150  1
  Li  Li2  1  0.24402150  0.96355500  0.70805900  1
  Li  Li3  1  0.24402150  0.53644500  0.70805900  1
  Li  Li4  1  0.75597850  0.46355500  0.29194100  1
  Li  Li5  1  0.75597850  0.03644500  0.29194100  1
  V  V6  1  0.80666150  0.25000000  0.68017450  1
  V  V7  1  0.19333850  0.75000000  0.31982550  1
  Si  Si8  1  0.71413650  0.75000000  0.57954300  1
  Si  Si9  1  0.28586350  0.25000000  0.42045700  1
  C  C10  1  0.70023850  0.25000000  0.97027250  1
  C  C11  1  0.29976150  0.75000000  0.02972750  1
  O  O12  1  0.36643850  0.75000000  0.88515350  1
  O  O13  1  0.63356150  0.25000000  0.11484650  1
  O  O14  1  0.94585750  0.25000000  0.93497350  1
  O  O15  1  0.05414250  0.75000000  0.06502650  1
  O  O16  1  0.52016150  0.25000000  0.84890000  1
  O  O17  1  0.47983850  0.75000000  0.15110000  1
  O  O18  1  0.38770250  0.75000000  0.55058000  1
  O  O19  1  0.61229750  0.25000000  0.44942000  1
  O  O20  1  0.16291450  0.25000000  0.59469150  1
  O  O21  1  0.83708550  0.75000000  0.40530850  1
  O  O22  1  0.82060650  0.94411950  0.69527650  1
  O  O23  1  0.82060650  0.55588050  0.69527650  1
  O  O24  1  0.17939350  0.44411950  0.30472350  1
  O  O25  1  0.17939350  0.05588050  0.30472350  1
