# generated using pymatgen
data_Ti3FeSb2(PO4)6
_symmetry_space_group_name_H-M   'P 1'
_cell_length_a   8.76489555
_cell_length_b   8.76489555
_cell_length_c   21.92971239
_cell_angle_alpha   90.00000000
_cell_angle_beta   90.00000000
_cell_angle_gamma   120.00000000
_symmetry_Int_Tables_number   1
_chemical_formula_structural   Ti3FeSb2(PO4)6
_chemical_formula_sum   'Ti9 Fe3 Sb6 P18 O72'
_cell_volume   1459.00593256
_cell_formula_units_Z   3
loop_
 _symmetry_equiv_pos_site_id
 _symmetry_equiv_pos_as_xyz
  1  'x, y, z'
loop_
 _atom_site_type_symbol
 _atom_site_label
 _atom_site_symmetry_multiplicity
 _atom_site_fract_x
 _atom_site_fract_y
 _atom_site_fract_z
 _atom_site_occupancy
  Ti  Ti0  1  0.00000000  0.00000000  0.14571200  1
  Ti  Ti1  1  0.33333333  0.66666667  0.01802367  1
  Ti  Ti2  1  0.33333333  0.66666667  0.31609867  1
  Ti  Ti3  1  0.66666667  0.33333333  0.47904533  1
  Ti  Ti4  1  0.00000000  0.00000000  0.35135700  1
  Ti  Ti5  1  0.00000000  0.00000000  0.64943200  1
  Ti  Ti6  1  0.33333333  0.66666667  0.81237867  1
  Ti  Ti7  1  0.66666667  0.33333333  0.68469033  1
  Ti  Ti8  1  0.66666667  0.33333333  0.98276533  1
  Fe  Fe9  1  0.66666667  0.33333333  0.18213433  1
  Fe  Fe10  1  0.33333333  0.66666667  0.51546767  1
  Fe  Fe11  1  0.00000000  0.00000000  0.84880100  1
  Sb  Sb12  1  0.66666667  0.33333333  0.32497233  1
  Sb  Sb13  1  0.33333333  0.66666667  0.16382267  1
  Sb  Sb14  1  0.33333333  0.66666667  0.65830567  1
  Sb  Sb15  1  0.00000000  0.00000000  0.49715600  1
  Sb  Sb16  1  0.00000000  0.00000000  0.99163900  1
  Sb  Sb17  1  0.66666667  0.33333333  0.83048933  1
  P  P18  1  0.28822133  0.29135867  0.25044967  1
  P  P19  1  0.70864133  0.99686267  0.25044967  1
  P  P20  1  0.00313733  0.71177867  0.25044967  1
  P  P21  1  0.66721333  0.62679467  0.08435367  1
  P  P22  1  0.95958133  0.33278667  0.08435367  1
  P  P23  1  0.37320533  0.04041867  0.08435367  1
  P  P24  1  0.95488800  0.62469200  0.58378300  1
  P  P25  1  0.37530800  0.33019600  0.58378300  1
  P  P26  1  0.66980400  0.04511200  0.58378300  1
  P  P27  1  0.33388000  0.96012800  0.41768700  1
  P  P28  1  0.62624800  0.66612000  0.41768700  1
  P  P29  1  0.03987200  0.37375200  0.41768700  1
  P  P30  1  0.62155467  0.95802533  0.91711633  1
  P  P31  1  0.04197467  0.66352933  0.91711633  1
  P  P32  1  0.33647067  0.37844533  0.91711633  1
  P  P33  1  0.00054667  0.29346133  0.75102033  1
  P  P34  1  0.29291467  0.99945333  0.75102033  1
  P  P35  1  0.70653867  0.70708533  0.75102033  1
  O  O36  1  0.00293900  0.81055300  0.30839000  1
  O  O37  1  0.18944700  0.19238600  0.30839000  1
  O  O38  1  0.83297133  0.81585167  0.08118367  1
  O  O39  1  0.80761400  0.99706100  0.30839000  1
  O  O40  1  0.65751767  0.53405833  0.14336533  1
  O  O41  1  0.49885567  0.65076933  0.08314133  1
  O  O42  1  0.98288033  0.16702867  0.08118367  1
  O  O43  1  0.15191367  0.50114433  0.08314133  1
  O  O44  1  0.19166033  0.19571667  0.19188267  1
  O  O45  1  0.34923067  0.84808633  0.08314133  1
  O  O46  1  0.47646333  0.31183267  0.25474367  1
  O  O47  1  0.80428333  0.99594367  0.19188267  1
  O  O48  1  0.87654067  0.34248233  0.14336533  1
  O  O49  1  0.18414833  0.01711967  0.08118367  1
  O  O50  1  0.30940133  0.47980567  0.24895767  1
  O  O51  1  0.46594167  0.12345933  0.14336533  1
  O  O52  1  0.52019433  0.82959567  0.24895767  1
  O  O53  1  0.68816733  0.16463067  0.25474367  1
  O  O54  1  0.17040433  0.69059867  0.24895767  1
  O  O55  1  0.00405633  0.80833967  0.19188267  1
  O  O56  1  0.85995633  0.32918667  0.02550067  1
  O  O57  1  0.83536933  0.52353667  0.25474367  1
  O  O58  1  0.46923033  0.14004367  0.02550067  1
  O  O59  1  0.67081333  0.53076967  0.02550067  1
  O  O60  1  0.66960567  0.14388633  0.64172333  1
  O  O61  1  0.85611367  0.52571933  0.64172333  1
  O  O62  1  0.49963800  0.14918500  0.41451700  1
  O  O63  1  0.47428067  0.33039433  0.64172333  1
  O  O64  1  0.32418433  0.86739167  0.47669867  1
  O  O65  1  0.16552233  0.98410267  0.41647467  1
  O  O66  1  0.64954700  0.50036200  0.41451700  1
  O  O67  1  0.81858033  0.83447767  0.41647467  1
  O  O68  1  0.85832700  0.52905000  0.52521600  1
  O  O69  1  0.01589733  0.18141967  0.41647467  1
  O  O70  1  0.14313000  0.64516600  0.58807700  1
  O  O71  1  0.47095000  0.32927700  0.52521600  1
  O  O72  1  0.54320733  0.67581567  0.47669867  1
  O  O73  1  0.85081500  0.35045300  0.41451700  1
  O  O74  1  0.97606800  0.81313900  0.58229100  1
  O  O75  1  0.13260833  0.45679267  0.47669867  1
  O  O76  1  0.18686100  0.16292900  0.58229100  1
  O  O77  1  0.35483400  0.49796400  0.58807700  1
  O  O78  1  0.83707100  0.02393200  0.58229100  1
  O  O79  1  0.67072300  0.14167300  0.52521600  1
  O  O80  1  0.52662300  0.66252000  0.35883400  1
  O  O81  1  0.50203600  0.85687000  0.58807700  1
  O  O82  1  0.13589700  0.47337700  0.35883400  1
  O  O83  1  0.33748000  0.86410300  0.35883400  1
  O  O84  1  0.33627233  0.47721967  0.97505667  1
  O  O85  1  0.52278033  0.85905267  0.97505667  1
  O  O86  1  0.16630467  0.48251833  0.74785033  1
  O  O87  1  0.14094733  0.66372767  0.97505667  1
  O  O88  1  0.99085100  0.20072500  0.81003200  1
  O  O89  1  0.83218900  0.31743600  0.74980800  1
  O  O90  1  0.31621367  0.83369533  0.74785033  1
  O  O91  1  0.48524700  0.16781100  0.74980800  1
  O  O92  1  0.52499367  0.86238333  0.85854933  1
  O  O93  1  0.68256400  0.51475300  0.74980800  1
  O  O94  1  0.80979667  0.97849933  0.92141033  1
  O  O95  1  0.13761667  0.66261033  0.85854933  1
  O  O96  1  0.20987400  0.00914900  0.81003200  1
  O  O97  1  0.51748167  0.68378633  0.74785033  1
  O  O98  1  0.64273467  0.14647233  0.91562433  1
  O  O99  1  0.79927500  0.79012600  0.81003200  1
  O  O100  1  0.85352767  0.49626233  0.91562433  1
  O  O101  1  0.02150067  0.83129733  0.92141033  1
  O  O102  1  0.50373767  0.35726533  0.91562433  1
  O  O103  1  0.33738967  0.47500633  0.85854933  1
  O  O104  1  0.19328967  0.99585333  0.69216733  1
  O  O105  1  0.16870267  0.19020333  0.92141033  1
  O  O106  1  0.80256367  0.80671033  0.69216733  1
  O  O107  1  0.00414667  0.19743633  0.69216733  1
