# generated using pymatgen
data_V2O3
_symmetry_space_group_name_H-M   'P 1'
_cell_length_a   13.61980730
_cell_length_b   3.08176300
_cell_length_c   7.62146937
_cell_angle_alpha   90.00000000
_cell_angle_beta   98.84326721
_cell_angle_gamma   90.00000000
_symmetry_Int_Tables_number   1
_chemical_formula_structural   V2O3
_chemical_formula_sum   'V12 O18'
_cell_volume   316.09333136
_cell_formula_units_Z   6
loop_
 _symmetry_equiv_pos_site_id
 _symmetry_equiv_pos_as_xyz
  1  'x, y, z'
loop_
 _atom_site_type_symbol
 _atom_site_label
 _atom_site_symmetry_multiplicity
 _atom_site_fract_x
 _atom_site_fract_y
 _atom_site_fract_z
 _atom_site_occupancy
  V  V0  1  0.46664200  0.50000000  0.18448950  1
  V  V1  1  0.34936850  0.00000000  0.50477350  1
  V  V2  1  0.31455200  0.00000000  0.86774650  1
  V  V3  1  0.18544800  0.50000000  0.13225350  1
  V  V4  1  0.15063150  0.50000000  0.49522650  1
  V  V5  1  0.03335800  0.00000000  0.81551050  1
  V  V6  1  0.96664200  0.00000000  0.18448950  1
  V  V7  1  0.84936850  0.50000000  0.50477350  1
  V  V8  1  0.81455200  0.50000000  0.86774650  1
  V  V9  1  0.68544800  0.00000000  0.13225350  1
  V  V10  1  0.65063150  0.00000000  0.49522650  1
  V  V11  1  0.53335800  0.50000000  0.81551050  1
  O  O12  1  0.44009450  0.00000000  0.33140650  1
  O  O13  1  0.32499250  0.50000000  0.03630050  1
  O  O14  1  0.38672700  0.50000000  0.70850150  1
  O  O15  1  0.27441650  0.50000000  0.37060750  1
  O  O16  1  0.22558350  0.00000000  0.62939250  1
  O  O17  1  0.11327300  0.00000000  0.29149850  1
  O  O18  1  0.17500750  0.00000000  0.96369950  1
  O  O19  1  0.05990550  0.50000000  0.66859350  1
  O  O20  1  0.00000000  0.50000000  0.00000000  1
  O  O21  1  0.94009450  0.50000000  0.33140650  1
  O  O22  1  0.82499250  0.00000000  0.03630050  1
  O  O23  1  0.88672700  0.00000000  0.70850150  1
  O  O24  1  0.77441650  0.00000000  0.37060750  1
  O  O25  1  0.72558350  0.50000000  0.62939250  1
  O  O26  1  0.61327300  0.50000000  0.29149850  1
  O  O27  1  0.67500750  0.50000000  0.96369950  1
  O  O28  1  0.55990550  0.00000000  0.66859350  1
  O  O29  1  0.50000000  0.00000000  0.00000000  1
