# generated using pymatgen
data_Mn2Cr3Co3O16
_symmetry_space_group_name_H-M   'P 1'
_cell_length_a   9.91902292
_cell_length_b   5.75752140
_cell_length_c   8.84158696
_cell_angle_alpha   90.00000000
_cell_angle_beta   90.20113558
_cell_angle_gamma   90.00000000
_symmetry_Int_Tables_number   1
_chemical_formula_structural   Mn2Cr3Co3O16
_chemical_formula_sum   'Mn4 Cr6 Co6 O32'
_cell_volume   504.93096178
_cell_formula_units_Z   2
loop_
 _symmetry_equiv_pos_site_id
 _symmetry_equiv_pos_as_xyz
  1  'x, y, z'
loop_
 _atom_site_type_symbol
 _atom_site_label
 _atom_site_symmetry_multiplicity
 _atom_site_fract_x
 _atom_site_fract_y
 _atom_site_fract_z
 _atom_site_occupancy
  Mn  Mn0  1  0.83275400  0.50000000  0.48467600  1
  Mn  Mn1  1  0.16579700  0.50000000  0.98021900  1
  Mn  Mn2  1  0.33275400  0.00000000  0.48467600  1
  Mn  Mn3  1  0.66579700  0.00000000  0.98021900  1
  Cr  Cr4  1  0.92124150  0.75093450  0.20489700  1
  Cr  Cr5  1  0.92124150  0.24906550  0.20489700  1
  Cr  Cr6  1  0.33786250  0.50000000  0.70208000  1
  Cr  Cr7  1  0.42124150  0.25093450  0.20489700  1
  Cr  Cr8  1  0.42124150  0.74906550  0.20489700  1
  Cr  Cr9  1  0.83786250  0.00000000  0.70208000  1
  Co  Co10  1  0.67254300  0.50000000  0.21465000  1
  Co  Co11  1  0.08603350  0.74549450  0.71267000  1
  Co  Co12  1  0.08603350  0.25450550  0.71267000  1
  Co  Co13  1  0.17254300  0.00000000  0.21465000  1
  Co  Co14  1  0.58603350  0.24549450  0.71267000  1
  Co  Co15  1  0.58603350  0.75450550  0.71267000  1
  O  O16  1  0.91564100  0.74673100  0.60469900  1
  O  O17  1  0.97627900  0.50000000  0.33974000  1
  O  O18  1  0.82753150  0.50000000  0.09703000  1
  O  O19  1  0.50842250  0.50000000  0.31786200  1
  O  O20  1  0.50766550  0.50000000  0.81712900  1
  O  O21  1  0.91564100  0.25326900  0.60469900  1
  O  O22  1  0.75934950  0.71751350  0.34173800  1
  O  O23  1  0.75934950  0.28248650  0.34173800  1
  O  O24  1  0.32724250  0.50000000  0.10824500  1
  O  O25  1  0.66274250  0.50000000  0.60539100  1
  O  O26  1  0.23866500  0.72010900  0.84020500  1
  O  O27  1  0.23866500  0.27989100  0.84020500  1
  O  O28  1  0.16135300  0.50000000  0.60094400  1
  O  O29  1  0.08342450  0.74759550  0.10408300  1
  O  O30  1  0.02027750  0.50000000  0.83687000  1
  O  O31  1  0.08342450  0.25240450  0.10408300  1
  O  O32  1  0.41564100  0.24673100  0.60469900  1
  O  O33  1  0.47627900  0.00000000  0.33974000  1
  O  O34  1  0.32753150  0.00000000  0.09703000  1
  O  O35  1  0.00842250  0.00000000  0.31786200  1
  O  O36  1  0.00766550  0.00000000  0.81712900  1
  O  O37  1  0.41564100  0.75326900  0.60469900  1
  O  O38  1  0.25934950  0.21751350  0.34173800  1
  O  O39  1  0.25934950  0.78248650  0.34173800  1
  O  O40  1  0.82724250  0.00000000  0.10824500  1
  O  O41  1  0.16274250  0.00000000  0.60539100  1
  O  O42  1  0.73866500  0.22010900  0.84020500  1
  O  O43  1  0.73866500  0.77989100  0.84020500  1
  O  O44  1  0.66135300  0.00000000  0.60094400  1
  O  O45  1  0.58342450  0.24759550  0.10408300  1
  O  O46  1  0.52027750  0.00000000  0.83687000  1
  O  O47  1  0.58342450  0.75240450  0.10408300  1
