# generated using pymatgen
data_Li6Nb3V3O16
_symmetry_space_group_name_H-M   'P 1'
_cell_length_a   10.48765600
_cell_length_b   6.10513000
_cell_length_c   10.10154108
_cell_angle_alpha   90.00000000
_cell_angle_beta   90.33248222
_cell_angle_gamma   90.00000000
_symmetry_Int_Tables_number   1
_chemical_formula_structural   Li6Nb3V3O16
_chemical_formula_sum   'Li12 Nb6 V6 O32'
_cell_volume   646.77566616
_cell_formula_units_Z   2
loop_
 _symmetry_equiv_pos_site_id
 _symmetry_equiv_pos_as_xyz
  1  'x, y, z'
loop_
 _atom_site_type_symbol
 _atom_site_label
 _atom_site_symmetry_multiplicity
 _atom_site_fract_x
 _atom_site_fract_y
 _atom_site_fract_z
 _atom_site_occupancy
  Li  Li0  1  0.65408600  0.00000000  0.49770000  1
  Li  Li1  1  0.66595700  0.00000000  0.10497900  1
  Li  Li2  1  0.00666800  0.00000000  0.00039600  1
  Li  Li3  1  0.01346400  0.00000000  0.50180000  1
  Li  Li4  1  0.32672100  0.00000000  0.98731800  1
  Li  Li5  1  0.33078400  0.00000000  0.61650700  1
  Li  Li6  1  0.15408600  0.50000000  0.49770000  1
  Li  Li7  1  0.16595700  0.50000000  0.10497900  1
  Li  Li8  1  0.50666800  0.50000000  0.00039600  1
  Li  Li9  1  0.51346400  0.50000000  0.50180000  1
  Li  Li10  1  0.82672100  0.50000000  0.98731800  1
  Li  Li11  1  0.83078400  0.50000000  0.61650700  1
  Nb  Nb12  1  0.82621700  0.00000000  0.77223600  1
  Nb  Nb13  1  0.41051950  0.75475850  0.28722500  1
  Nb  Nb14  1  0.41051950  0.24524150  0.28722500  1
  Nb  Nb15  1  0.32621700  0.50000000  0.77223600  1
  Nb  Nb16  1  0.91051950  0.25475850  0.28722500  1
  Nb  Nb17  1  0.91051950  0.74524150  0.28722500  1
  V  V18  1  0.16620500  0.00000000  0.28402900  1
  V  V19  1  0.57445650  0.75897050  0.79061900  1
  V  V20  1  0.57445650  0.24102950  0.79061900  1
  V  V21  1  0.66620500  0.50000000  0.28402900  1
  V  V22  1  0.07445650  0.25897050  0.79061900  1
  V  V23  1  0.07445650  0.74102950  0.79061900  1
  O  O24  1  0.57546850  0.73122650  0.38967100  1
  O  O25  1  0.51840100  0.00000000  0.68326700  1
  O  O26  1  0.66423300  0.00000000  0.89406100  1
  O  O27  1  0.99653300  0.00000000  0.68204700  1
  O  O28  1  0.99189800  0.00000000  0.18022200  1
  O  O29  1  0.57546850  0.26877350  0.38967100  1
  O  O30  1  0.74064950  0.77019550  0.67855700  1
  O  O31  1  0.74064950  0.22980450  0.67855700  1
  O  O32  1  0.14990200  0.00000000  0.88216600  1
  O  O33  1  0.84547200  0.00000000  0.39762500  1
  O  O34  1  0.25779700  0.76833100  0.17420500  1
  O  O35  1  0.25779700  0.23166900  0.17420500  1
  O  O36  1  0.33824800  0.00000000  0.40073200  1
  O  O37  1  0.42769050  0.73041450  0.89323700  1
  O  O38  1  0.48600200  0.00000000  0.18024900  1
  O  O39  1  0.42769050  0.26958550  0.89323700  1
  O  O40  1  0.07546850  0.23122650  0.38967100  1
  O  O41  1  0.01840100  0.50000000  0.68326700  1
  O  O42  1  0.16423300  0.50000000  0.89406100  1
  O  O43  1  0.49653300  0.50000000  0.68204700  1
  O  O44  1  0.49189800  0.50000000  0.18022200  1
  O  O45  1  0.07546850  0.76877350  0.38967100  1
  O  O46  1  0.24064950  0.27019550  0.67855700  1
  O  O47  1  0.24064950  0.72980450  0.67855700  1
  O  O48  1  0.64990200  0.50000000  0.88216600  1
  O  O49  1  0.34547200  0.50000000  0.39762500  1
  O  O50  1  0.75779700  0.26833100  0.17420500  1
  O  O51  1  0.75779700  0.73166900  0.17420500  1
  O  O52  1  0.83824800  0.50000000  0.40073200  1
  O  O53  1  0.92769050  0.23041450  0.89323700  1
  O  O54  1  0.98600200  0.50000000  0.18024900  1
  O  O55  1  0.92769050  0.76958550  0.89323700  1
