# generated using pymatgen
data_Li4Fe2Si3O10
_symmetry_space_group_name_H-M   'P 1'
_cell_length_a   9.25754200
_cell_length_b   5.42910600
_cell_length_c   17.21453131
_cell_angle_alpha   90.00000000
_cell_angle_beta   99.46121035
_cell_angle_gamma   90.00000000
_symmetry_Int_Tables_number   1
_chemical_formula_structural   Li4Fe2Si3O10
_chemical_formula_sum   'Li16 Fe8 Si12 O40'
_cell_volume   853.43609706
_cell_formula_units_Z   4
loop_
 _symmetry_equiv_pos_site_id
 _symmetry_equiv_pos_as_xyz
  1  'x, y, z'
loop_
 _atom_site_type_symbol
 _atom_site_label
 _atom_site_symmetry_multiplicity
 _atom_site_fract_x
 _atom_site_fract_y
 _atom_site_fract_z
 _atom_site_occupancy
  Li  Li0  1  0.75482250  0.92782750  0.55180300  1
  Li  Li1  1  0.68564050  0.10847850  0.72829200  1
  Li  Li2  1  0.75482250  0.07217250  0.05180300  1
  Li  Li3  1  0.68564050  0.89152150  0.22829200  1
  Li  Li4  1  0.31435950  0.10847850  0.77170800  1
  Li  Li5  1  0.24517750  0.92782750  0.94819700  1
  Li  Li6  1  0.31435950  0.89152150  0.27170800  1
  Li  Li7  1  0.24517750  0.07217250  0.44819700  1
  Li  Li8  1  0.25482250  0.42782750  0.55180300  1
  Li  Li9  1  0.18564050  0.60847850  0.72829200  1
  Li  Li10  1  0.25482250  0.57217250  0.05180300  1
  Li  Li11  1  0.18564050  0.39152150  0.22829200  1
  Li  Li12  1  0.81435950  0.60847850  0.77170800  1
  Li  Li13  1  0.74517750  0.42782750  0.94819700  1
  Li  Li14  1  0.81435950  0.39152150  0.27170800  1
  Li  Li15  1  0.74517750  0.57217250  0.44819700  1
  Fe  Fe16  1  0.10433350  0.90763350  0.58412900  1
  Fe  Fe17  1  0.10433350  0.09236650  0.08412900  1
  Fe  Fe18  1  0.89566650  0.90763350  0.91587100  1
  Fe  Fe19  1  0.89566650  0.09236650  0.41587100  1
  Fe  Fe20  1  0.60433350  0.40763350  0.58412900  1
  Fe  Fe21  1  0.60433350  0.59236650  0.08412900  1
  Fe  Fe22  1  0.39566650  0.40763350  0.91587100  1
  Fe  Fe23  1  0.39566650  0.59236650  0.41587100  1
  Si  Si24  1  0.56392300  0.90321200  0.90123600  1
  Si  Si25  1  0.50000000  0.61432300  0.75000000  1
  Si  Si26  1  0.43607700  0.90321200  0.59876400  1
  Si  Si27  1  0.56392300  0.09678800  0.40123600  1
  Si  Si28  1  0.50000000  0.38567700  0.25000000  1
  Si  Si29  1  0.43607700  0.09678800  0.09876400  1
  Si  Si30  1  0.06392300  0.40321200  0.90123600  1
  Si  Si31  1  0.00000000  0.11432300  0.75000000  1
  Si  Si32  1  0.93607700  0.40321200  0.59876400  1
  Si  Si33  1  0.06392300  0.59678800  0.40123600  1
  Si  Si34  1  0.00000000  0.88567700  0.25000000  1
  Si  Si35  1  0.93607700  0.59678800  0.09876400  1
  O  O36  1  0.87773600  0.95941500  0.78686600  1
  O  O37  1  0.87773600  0.04058500  0.28686600  1
  O  O38  1  0.70151850  0.08249350  0.93464600  1
  O  O39  1  0.59648950  0.03997850  0.60965900  1
  O  O40  1  0.59506650  0.81410650  0.81222500  1
  O  O41  1  0.43172100  0.64812800  0.54728300  1
  O  O42  1  0.56827900  0.64812800  0.95271700  1
  O  O43  1  0.70151850  0.91750650  0.43464600  1
  O  O44  1  0.59648950  0.96002150  0.10965900  1
  O  O45  1  0.40493350  0.81410650  0.68777500  1
  O  O46  1  0.59506650  0.18589350  0.31222500  1
  O  O47  1  0.40351050  0.03997850  0.89034100  1
  O  O48  1  0.29848150  0.08249350  0.56535400  1
  O  O49  1  0.43172100  0.35187200  0.04728300  1
  O  O50  1  0.56827900  0.35187200  0.45271700  1
  O  O51  1  0.40493350  0.18589350  0.18777500  1
  O  O52  1  0.40351050  0.96002150  0.39034100  1
  O  O53  1  0.29848150  0.91750650  0.06535400  1
  O  O54  1  0.12226400  0.95941500  0.71313400  1
  O  O55  1  0.12226400  0.04058500  0.21313400  1
  O  O56  1  0.37773600  0.45941500  0.78686600  1
  O  O57  1  0.37773600  0.54058500  0.28686600  1
  O  O58  1  0.20151850  0.58249350  0.93464600  1
  O  O59  1  0.09648950  0.53997850  0.60965900  1
  O  O60  1  0.09506650  0.31410650  0.81222500  1
  O  O61  1  0.93172100  0.14812800  0.54728300  1
  O  O62  1  0.06827900  0.14812800  0.95271700  1
  O  O63  1  0.20151850  0.41750650  0.43464600  1
  O  O64  1  0.09648950  0.46002150  0.10965900  1
  O  O65  1  0.90493350  0.31410650  0.68777500  1
  O  O66  1  0.09506650  0.68589350  0.31222500  1
  O  O67  1  0.90351050  0.53997850  0.89034100  1
  O  O68  1  0.79848150  0.58249350  0.56535400  1
  O  O69  1  0.93172100  0.85187200  0.04728300  1
  O  O70  1  0.06827900  0.85187200  0.45271700  1
  O  O71  1  0.90493350  0.68589350  0.18777500  1
  O  O72  1  0.90351050  0.46002150  0.39034100  1
  O  O73  1  0.79848150  0.41750650  0.06535400  1
  O  O74  1  0.62226400  0.45941500  0.71313400  1
  O  O75  1  0.62226400  0.54058500  0.21313400  1
