# generated using pymatgen
data_Li3(CoO2)4
_symmetry_space_group_name_H-M   'P 1'
_cell_length_a   5.66820615
_cell_length_b   5.69874662
_cell_length_c   5.74022808
_cell_angle_alpha   118.04383221
_cell_angle_beta   91.59198861
_cell_angle_gamma   118.95784613
_symmetry_Int_Tables_number   1
_chemical_formula_structural   Li3(CoO2)4
_chemical_formula_sum   'Li3 Co4 O8'
_cell_volume   135.13027938
_cell_formula_units_Z   1
loop_
 _symmetry_equiv_pos_site_id
 _symmetry_equiv_pos_as_xyz
  1  'x, y, z'
loop_
 _atom_site_type_symbol
 _atom_site_label
 _atom_site_symmetry_multiplicity
 _atom_site_fract_x
 _atom_site_fract_y
 _atom_site_fract_z
 _atom_site_occupancy
  Li  Li0  1  0.50000000  0.00000000  0.00000000  1
  Li  Li1  1  0.50000000  0.50000000  0.50000000  1
  Li  Li2  1  0.50056910  0.50740518  0.00726323  1
  Co  Co3  1  0.50000000  0.00000000  0.50000000  1
  Co  Co4  1  0.00000000  0.00000000  0.00000000  1
  Co  Co5  1  0.00000000  0.00000000  0.50000000  1
  Co  Co6  1  0.00000000  0.50000000  0.50000000  1
  O  O7  1  0.54060102  0.78256701  0.71578737  1
  O  O8  1  0.99982566  0.77169458  0.28199186  1
  O  O9  1  0.02335203  0.75863581  0.71742084  1
  O  O10  1  0.48391515  0.76404215  0.28032943  1
  O  O11  1  0.51608485  0.23595785  0.71967057  1
  O  O12  1  0.97664797  0.24136419  0.28257916  1
  O  O13  1  0.00017434  0.22830542  0.71800814  1
  O  O14  1  0.45939898  0.21743299  0.28421263  1
