# generated using pymatgen
data_LiNiBO3
_symmetry_space_group_name_H-M   'P 1'
_cell_length_a   5.28909600
_cell_length_b   8.75101800
_cell_length_c   10.00421521
_cell_angle_alpha   90.00000000
_cell_angle_beta   91.56970842
_cell_angle_gamma   90.00000000
_symmetry_Int_Tables_number   1
_chemical_formula_structural   LiNiBO3
_chemical_formula_sum   'Li8 Ni8 B8 O24'
_cell_volume   462.87108037
_cell_formula_units_Z   8
loop_
 _symmetry_equiv_pos_site_id
 _symmetry_equiv_pos_as_xyz
  1  'x, y, z'
loop_
 _atom_site_type_symbol
 _atom_site_label
 _atom_site_symmetry_multiplicity
 _atom_site_fract_x
 _atom_site_fract_y
 _atom_site_fract_z
 _atom_site_occupancy
  Li  Li0  1  0.34384900  0.00718100  0.83380400  1
  Li  Li1  1  0.34384900  0.99281900  0.33380400  1
  Li  Li2  1  0.65861000  0.99589100  0.58468800  1
  Li  Li3  1  0.65861000  0.00410900  0.08468800  1
  Li  Li4  1  0.84384900  0.50718100  0.83380400  1
  Li  Li5  1  0.84384900  0.49281900  0.33380400  1
  Li  Li6  1  0.15861000  0.49589100  0.58468800  1
  Li  Li7  1  0.15861000  0.50410900  0.08468800  1
  Ni  Ni8  1  0.35012600  0.67019100  0.36987500  1
  Ni  Ni9  1  0.65630250  0.67326750  0.11881400  1
  Ni  Ni10  1  0.35012600  0.32980900  0.86987500  1
  Ni  Ni11  1  0.65630250  0.32673250  0.61881400  1
  Ni  Ni12  1  0.85012600  0.17019100  0.36987500  1
  Ni  Ni13  1  0.15630250  0.17326750  0.11881400  1
  Ni  Ni14  1  0.85012600  0.82980900  0.86987500  1
  Ni  Ni15  1  0.15630250  0.82673250  0.61881400  1
  B  B16  1  0.33365850  0.66733550  0.87321200  1
  B  B17  1  0.66936500  0.67012800  0.62402700  1
  B  B18  1  0.33365850  0.33266450  0.37321200  1
  B  B19  1  0.66936500  0.32987200  0.12402700  1
  B  B20  1  0.83365850  0.16733550  0.87321200  1
  B  B21  1  0.16936500  0.17012800  0.62402700  1
  B  B22  1  0.83365850  0.83266450  0.37321200  1
  B  B23  1  0.16936500  0.82987200  0.12402700  1
  O  O24  1  0.78218450  0.19096150  0.16211200  1
  O  O25  1  0.41911650  0.66944750  0.57756000  1
  O  O26  1  0.59004800  0.66736900  0.91043500  1
  O  O27  1  0.22027350  0.19825050  0.32715700  1
  O  O28  1  0.30724800  0.96265400  0.13409200  1
  O  O29  1  0.30724800  0.03734600  0.63409200  1
  O  O30  1  0.69078350  0.96312750  0.38537400  1
  O  O31  1  0.69078350  0.03687250  0.88537400  1
  O  O32  1  0.78218450  0.80903850  0.66211200  1
  O  O33  1  0.41911650  0.33055250  0.07756000  1
  O  O34  1  0.59004800  0.33263100  0.41043500  1
  O  O35  1  0.22027350  0.80174950  0.82715700  1
  O  O36  1  0.28218450  0.69096150  0.16211200  1
  O  O37  1  0.91911650  0.16944750  0.57756000  1
  O  O38  1  0.09004800  0.16736900  0.91043500  1
  O  O39  1  0.72027350  0.69825050  0.32715700  1
  O  O40  1  0.80724800  0.46265400  0.13409200  1
  O  O41  1  0.80724800  0.53734600  0.63409200  1
  O  O42  1  0.19078350  0.46312750  0.38537400  1
  O  O43  1  0.19078350  0.53687250  0.88537400  1
  O  O44  1  0.28218450  0.30903850  0.66211200  1
  O  O45  1  0.91911650  0.83055250  0.07756000  1
  O  O46  1  0.09004800  0.83263100  0.41043500  1
  O  O47  1  0.72027350  0.30174950  0.82715700  1
