# generated using pymatgen
data_LiMnSbO4
_symmetry_space_group_name_H-M   'P 1'
_cell_length_a   6.24298504
_cell_length_b   6.27182700
_cell_length_c   9.04641139
_cell_angle_alpha   90.00000000
_cell_angle_beta   90.00000000
_cell_angle_gamma   90.00000000
_symmetry_Int_Tables_number   1
_chemical_formula_structural   LiMnSbO4
_chemical_formula_sum   'Li4 Mn4 Sb4 O16'
_cell_volume   354.21153311
_cell_formula_units_Z   4
loop_
 _symmetry_equiv_pos_site_id
 _symmetry_equiv_pos_as_xyz
  1  'x, y, z'
loop_
 _atom_site_type_symbol
 _atom_site_label
 _atom_site_symmetry_multiplicity
 _atom_site_fract_x
 _atom_site_fract_y
 _atom_site_fract_z
 _atom_site_occupancy
  Li  Li0  1  0.00000000  0.75000000  0.09758825  1
  Li  Li1  1  0.50000000  0.75000000  0.40241175  1
  Li  Li2  1  0.50000000  0.25000000  0.59758825  1
  Li  Li3  1  0.00000000  0.25000000  0.90241175  1
  Mn  Mn4  1  0.50000000  0.50000000  0.00000000  1
  Mn  Mn5  1  0.00000000  0.50000000  0.50000000  1
  Mn  Mn6  1  0.00000000  0.00000000  0.50000000  1
  Mn  Mn7  1  0.50000000  0.00000000  0.00000000  1
  Sb  Sb8  1  0.25000000  0.25000000  0.25000000  1
  Sb  Sb9  1  0.75000000  0.25000000  0.25000000  1
  Sb  Sb10  1  0.75000000  0.75000000  0.75000000  1
  Sb  Sb11  1  0.25000000  0.75000000  0.75000000  1
  O  O12  1  0.00000000  0.03071850  0.24923625  1
  O  O13  1  0.00000000  0.46928150  0.24923625  1
  O  O14  1  0.50000000  0.03071850  0.25076375  1
  O  O15  1  0.50000000  0.46928150  0.25076375  1
  O  O16  1  0.23787250  0.25000000  0.46765925  1
  O  O17  1  0.76212750  0.25000000  0.46765925  1
  O  O18  1  0.26212750  0.25000000  0.03234075  1
  O  O19  1  0.73787250  0.25000000  0.03234075  1
  O  O20  1  0.50000000  0.53071850  0.74923625  1
  O  O21  1  0.50000000  0.96928150  0.74923625  1
  O  O22  1  0.00000000  0.53071850  0.75076375  1
  O  O23  1  0.00000000  0.96928150  0.75076375  1
  O  O24  1  0.73787250  0.75000000  0.96765925  1
  O  O25  1  0.26212750  0.75000000  0.96765925  1
  O  O26  1  0.76212750  0.75000000  0.53234075  1
  O  O27  1  0.23787250  0.75000000  0.53234075  1
