# generated using pymatgen
data_Li4Mn3Nb2Cr3O16
_symmetry_space_group_name_H-M   'P 1'
_cell_length_a   10.45355000
_cell_length_b   5.92807200
_cell_length_c   9.76971980
_cell_angle_alpha   90.00000000
_cell_angle_beta   92.47977613
_cell_angle_gamma   90.00000000
_symmetry_Int_Tables_number   1
_chemical_formula_structural   Li4Mn3Nb2Cr3O16
_chemical_formula_sum   'Li8 Mn6 Nb4 Cr6 O32'
_cell_volume   604.85669979
_cell_formula_units_Z   2
loop_
 _symmetry_equiv_pos_site_id
 _symmetry_equiv_pos_as_xyz
  1  'x, y, z'
loop_
 _atom_site_type_symbol
 _atom_site_label
 _atom_site_symmetry_multiplicity
 _atom_site_fract_x
 _atom_site_fract_y
 _atom_site_fract_z
 _atom_site_occupancy
  Li  Li0  1  0.66085600  0.00000000  0.90572200  1
  Li  Li1  1  0.99781300  0.00000000  0.99059500  1
  Li  Li2  1  0.50247100  0.50000000  0.49058900  1
  Li  Li3  1  0.83249200  0.50000000  0.40046200  1
  Li  Li4  1  0.16085600  0.50000000  0.90572200  1
  Li  Li5  1  0.49781300  0.50000000  0.99059500  1
  Li  Li6  1  0.00247100  0.00000000  0.49058900  1
  Li  Li7  1  0.33249200  0.00000000  0.40046200  1
  Mn  Mn8  1  0.83092000  0.00000000  0.21290100  1
  Mn  Mn9  1  0.91566700  0.74594200  0.71496400  1
  Mn  Mn10  1  0.91566700  0.25405800  0.71496400  1
  Mn  Mn11  1  0.33092000  0.50000000  0.21290100  1
  Mn  Mn12  1  0.41566700  0.24594200  0.71496400  1
  Mn  Mn13  1  0.41566700  0.75405800  0.71496400  1
  Nb  Nb14  1  0.66718900  0.00000000  0.48897500  1
  Nb  Nb15  1  0.82052600  0.50000000  0.99327200  1
  Nb  Nb16  1  0.16718900  0.50000000  0.48897500  1
  Nb  Nb17  1  0.32052600  0.00000000  0.99327200  1
  Cr  Cr18  1  0.58474750  0.24536050  0.21547200  1
  Cr  Cr19  1  0.58474750  0.75463950  0.21547200  1
  Cr  Cr20  1  0.67043700  0.50000000  0.71513100  1
  Cr  Cr21  1  0.08474750  0.74536050  0.21547200  1
  Cr  Cr22  1  0.08474750  0.25463950  0.21547200  1
  Cr  Cr23  1  0.17043700  0.00000000  0.71513100  1
  O  O24  1  0.59432550  0.25126050  0.58846500  1
  O  O25  1  0.52000900  0.00000000  0.33881500  1
  O  O26  1  0.66927500  0.00000000  0.11334200  1
  O  O27  1  0.99673600  0.00000000  0.30471300  1
  O  O28  1  0.50263500  0.50000000  0.80378600  1
  O  O29  1  0.59432550  0.74873950  0.58846500  1
  O  O30  1  0.73970650  0.22496250  0.34429200  1
  O  O31  1  0.73970650  0.77503750  0.34429200  1
  O  O32  1  0.66436700  0.50000000  0.10068400  1
  O  O33  1  0.84048700  0.00000000  0.59365000  1
  O  O34  1  0.75037850  0.71910350  0.84968100  1
  O  O35  1  0.75037850  0.28089650  0.84968100  1
  O  O36  1  0.83310600  0.50000000  0.61456800  1
  O  O37  1  0.91951850  0.74538650  0.08816300  1
  O  O38  1  0.97766400  0.50000000  0.83865400  1
  O  O39  1  0.91951850  0.25461350  0.08816300  1
  O  O40  1  0.09432550  0.75126050  0.58846500  1
  O  O41  1  0.02000900  0.50000000  0.33881500  1
  O  O42  1  0.16927500  0.50000000  0.11334200  1
  O  O43  1  0.49673600  0.50000000  0.30471300  1
  O  O44  1  0.00263500  0.00000000  0.80378600  1
  O  O45  1  0.09432550  0.24873950  0.58846500  1
  O  O46  1  0.23970650  0.72496250  0.34429200  1
  O  O47  1  0.23970650  0.27503750  0.34429200  1
  O  O48  1  0.16436700  0.00000000  0.10068400  1
  O  O49  1  0.34048700  0.50000000  0.59365000  1
  O  O50  1  0.25037850  0.21910350  0.84968100  1
  O  O51  1  0.25037850  0.78089650  0.84968100  1
  O  O52  1  0.33310600  0.00000000  0.61456800  1
  O  O53  1  0.41951850  0.24538650  0.08816300  1
  O  O54  1  0.47766400  0.00000000  0.83865400  1
  O  O55  1  0.41951850  0.75461350  0.08816300  1
