# generated using pymatgen
data_MnNb(PO4)2
_symmetry_space_group_name_H-M   'P 1'
_cell_length_a   5.05877742
_cell_length_b   6.14232601
_cell_length_c   10.20950797
_cell_angle_alpha   90.00000000
_cell_angle_beta   92.43733656
_cell_angle_gamma   90.00000000
_symmetry_Int_Tables_number   1
_chemical_formula_structural   MnNb(PO4)2
_chemical_formula_sum   'Mn2 Nb2 P4 O16'
_cell_volume   316.94957651
_cell_formula_units_Z   2
loop_
 _symmetry_equiv_pos_site_id
 _symmetry_equiv_pos_as_xyz
  1  'x, y, z'
loop_
 _atom_site_type_symbol
 _atom_site_label
 _atom_site_symmetry_multiplicity
 _atom_site_fract_x
 _atom_site_fract_y
 _atom_site_fract_z
 _atom_site_occupancy
  Mn  Mn0  1  0.94843450  0.25000000  0.77713250  1
  Mn  Mn1  1  0.05156550  0.75000000  0.22286750  1
  Nb  Nb2  1  0.44303050  0.75000000  0.71691650  1
  Nb  Nb3  1  0.55696950  0.25000000  0.28308350  1
  P  P4  1  0.41810250  0.25000000  0.59043850  1
  P  P5  1  0.88780750  0.75000000  0.89804250  1
  P  P6  1  0.11219250  0.25000000  0.10195750  1
  P  P7  1  0.58189750  0.75000000  0.40956150  1
  O  O8  1  0.68159050  0.75000000  0.55463150  1
  O  O9  1  0.71606350  0.25000000  0.60523850  1
  O  O10  1  0.29040450  0.04917200  0.66318950  1
  O  O11  1  0.29040450  0.45082800  0.66318950  1
  O  O12  1  0.73913350  0.94389300  0.82337550  1
  O  O13  1  0.73913350  0.55610700  0.82337550  1
  O  O14  1  0.18346450  0.75000000  0.86588950  1
  O  O15  1  0.14885150  0.25000000  0.95654850  1
  O  O16  1  0.85114850  0.75000000  0.04345150  1
  O  O17  1  0.81653550  0.25000000  0.13411050  1
  O  O18  1  0.26086650  0.05610700  0.17662450  1
  O  O19  1  0.26086650  0.44389300  0.17662450  1
  O  O20  1  0.70959550  0.54917200  0.33681050  1
  O  O21  1  0.70959550  0.95082800  0.33681050  1
  O  O22  1  0.28393650  0.75000000  0.39476150  1
  O  O23  1  0.31840950  0.25000000  0.44536850  1
