# generated using pymatgen
data_LiFe(SiO3)2
_symmetry_space_group_name_H-M   'P 1'
_cell_length_a   5.37205400
_cell_length_b   9.32562600
_cell_length_c   5.64024200
_cell_angle_alpha   90.00000000
_cell_angle_beta   90.00000000
_cell_angle_gamma   90.00000000
_symmetry_Int_Tables_number   1
_chemical_formula_structural   LiFe(SiO3)2
_chemical_formula_sum   'Li2 Fe2 Si4 O12'
_cell_volume   282.56352647
_cell_formula_units_Z   2
loop_
 _symmetry_equiv_pos_site_id
 _symmetry_equiv_pos_as_xyz
  1  'x, y, z'
loop_
 _atom_site_type_symbol
 _atom_site_label
 _atom_site_symmetry_multiplicity
 _atom_site_fract_x
 _atom_site_fract_y
 _atom_site_fract_z
 _atom_site_occupancy
  Li  Li0  1  0.00000000  0.00000000  0.00000000  1
  Li  Li1  1  0.50000000  0.50000000  0.00000000  1
  Fe  Fe2  1  0.50000000  0.00000000  0.00000000  1
  Fe  Fe3  1  0.00000000  0.50000000  0.00000000  1
  Si  Si4  1  0.75000000  0.25000000  0.66339900  1
  Si  Si5  1  0.25000000  0.25000000  0.33660100  1
  Si  Si6  1  0.25000000  0.75000000  0.66339900  1
  Si  Si7  1  0.75000000  0.75000000  0.33660100  1
  O  O8  1  0.26112050  0.10607250  0.17096800  1
  O  O9  1  0.73887950  0.10607250  0.82903200  1
  O  O10  1  0.50000000  0.25903300  0.50000000  1
  O  O11  1  0.00000000  0.24096700  0.50000000  1
  O  O12  1  0.76112050  0.39392750  0.82903200  1
  O  O13  1  0.23887950  0.39392750  0.17096800  1
  O  O14  1  0.76112050  0.60607250  0.17096800  1
  O  O15  1  0.23887950  0.60607250  0.82903200  1
  O  O16  1  0.00000000  0.75903300  0.50000000  1
  O  O17  1  0.50000000  0.74096700  0.50000000  1
  O  O18  1  0.26112050  0.89392750  0.82903200  1
  O  O19  1  0.73887950  0.89392750  0.17096800  1
