# generated using pymatgen
data_Ti2Sb(PO4)3
_symmetry_space_group_name_H-M   'P 1'
_cell_length_a   8.69307565
_cell_length_b   8.69307565
_cell_length_c   22.26018180
_cell_angle_alpha   90.00000000
_cell_angle_beta   90.00000000
_cell_angle_gamma   120.00000000
_symmetry_Int_Tables_number   1
_chemical_formula_structural   Ti2Sb(PO4)3
_chemical_formula_sum   'Ti12 Sb6 P18 O72'
_cell_volume   1456.82121305
_cell_formula_units_Z   6
loop_
 _symmetry_equiv_pos_site_id
 _symmetry_equiv_pos_as_xyz
  1  'x, y, z'
loop_
 _atom_site_type_symbol
 _atom_site_label
 _atom_site_symmetry_multiplicity
 _atom_site_fract_x
 _atom_site_fract_y
 _atom_site_fract_z
 _atom_site_occupancy
  Ti  Ti0  1  0.00000000  0.00000000  0.14802900  1
  Ti  Ti1  1  0.33333333  0.66666667  0.01863767  1
  Ti  Ti2  1  0.33333333  0.66666667  0.31469567  1
  Ti  Ti3  1  0.66666667  0.33333333  0.18530433  1
  Ti  Ti4  1  0.66666667  0.33333333  0.48136233  1
  Ti  Ti5  1  0.00000000  0.00000000  0.35197100  1
  Ti  Ti6  1  0.00000000  0.00000000  0.64802900  1
  Ti  Ti7  1  0.33333333  0.66666667  0.51863767  1
  Ti  Ti8  1  0.33333333  0.66666667  0.81469567  1
  Ti  Ti9  1  0.66666667  0.33333333  0.68530433  1
  Ti  Ti10  1  0.66666667  0.33333333  0.98136233  1
  Ti  Ti11  1  0.00000000  0.00000000  0.85197100  1
  Sb  Sb12  1  0.00000000  0.00000000  0.00000000  1
  Sb  Sb13  1  0.33333333  0.66666667  0.16666667  1
  Sb  Sb14  1  0.66666667  0.33333333  0.33333333  1
  Sb  Sb15  1  0.00000000  0.00000000  0.50000000  1
  Sb  Sb16  1  0.33333333  0.66666667  0.66666667  1
  Sb  Sb17  1  0.66666667  0.33333333  0.83333333  1
  P  P18  1  0.66666667  0.62413233  0.08333333  1
  P  P19  1  0.95746567  0.33333333  0.08333333  1
  P  P20  1  0.37586767  0.04253433  0.08333333  1
  P  P21  1  0.29079900  0.29079900  0.25000000  1
  P  P22  1  0.70920100  0.00000000  0.25000000  1
  P  P23  1  0.00000000  0.70920100  0.25000000  1
  P  P24  1  0.33333333  0.95746567  0.41666667  1
  P  P25  1  0.62413233  0.66666667  0.41666667  1
  P  P26  1  0.04253433  0.37586767  0.41666667  1
  P  P27  1  0.95746567  0.62413233  0.58333333  1
  P  P28  1  0.37586767  0.33333333  0.58333333  1
  P  P29  1  0.66666667  0.04253433  0.58333333  1
  P  P30  1  0.00000000  0.29079900  0.75000000  1
  P  P31  1  0.29079900  0.00000000  0.75000000  1
  P  P32  1  0.70920100  0.70920100  0.75000000  1
  P  P33  1  0.62413233  0.95746567  0.91666667  1
  P  P34  1  0.04253433  0.66666667  0.91666667  1
  P  P35  1  0.33333333  0.37586767  0.91666667  1
  O  O36  1  0.99289600  0.80260900  0.30766200  1
  O  O37  1  0.19739100  0.19028700  0.30766200  1
  O  O38  1  0.83490233  0.81384067  0.08364967  1
  O  O39  1  0.80971300  0.00710400  0.30766200  1
  O  O40  1  0.65956267  0.52362033  0.14099533  1
  O  O41  1  0.49843100  0.64560500  0.08301700  1
  O  O42  1  0.97893833  0.16509767  0.08364967  1
  O  O43  1  0.14717400  0.50156900  0.08301700  1
  O  O44  1  0.19028700  0.19739100  0.19233800  1
  O  O45  1  0.35439500  0.85282600  0.08301700  1
  O  O46  1  0.48050733  0.31227167  0.24968367  1
  O  O47  1  0.80260900  0.99289600  0.19233800  1
  O  O48  1  0.86405767  0.34043733  0.14099533  1
  O  O49  1  0.18615933  0.02106167  0.08364967  1
  O  O50  1  0.31227167  0.48050733  0.25031633  1
  O  O51  1  0.47637967  0.13594233  0.14099533  1
  O  O52  1  0.51949267  0.83176433  0.25031633  1
  O  O53  1  0.68772833  0.16823567  0.24968367  1
  O  O54  1  0.16823567  0.68772833  0.25031633  1
  O  O55  1  0.00710400  0.80971300  0.19233800  1
  O  O56  1  0.85695367  0.32622933  0.02567133  1
  O  O57  1  0.83176433  0.51949267  0.24968367  1
  O  O58  1  0.46927567  0.14304633  0.02567133  1
  O  O59  1  0.67377067  0.53072433  0.02567133  1
  O  O60  1  0.65956267  0.13594233  0.64099533  1
  O  O61  1  0.86405767  0.52362033  0.64099533  1
  O  O62  1  0.50156900  0.14717400  0.41698300  1
  O  O63  1  0.47637967  0.34043733  0.64099533  1
  O  O64  1  0.32622933  0.85695367  0.47432867  1
  O  O65  1  0.16509767  0.97893833  0.41635033  1
  O  O66  1  0.64560500  0.49843100  0.41698300  1
  O  O67  1  0.81384067  0.83490233  0.41635033  1
  O  O68  1  0.85695367  0.53072433  0.52567133  1
  O  O69  1  0.02106167  0.18615933  0.41635033  1
  O  O70  1  0.14717400  0.64560500  0.58301700  1
  O  O71  1  0.46927567  0.32622933  0.52567133  1
  O  O72  1  0.53072433  0.67377067  0.47432867  1
  O  O73  1  0.85282600  0.35439500  0.41698300  1
  O  O74  1  0.97893833  0.81384067  0.58364967  1
  O  O75  1  0.14304633  0.46927567  0.47432867  1
  O  O76  1  0.18615933  0.16509767  0.58364967  1
  O  O77  1  0.35439500  0.50156900  0.58301700  1
  O  O78  1  0.83490233  0.02106167  0.58364967  1
  O  O79  1  0.67377067  0.14304633  0.52567133  1
  O  O80  1  0.52362033  0.65956267  0.35900467  1
  O  O81  1  0.49843100  0.85282600  0.58301700  1
  O  O82  1  0.13594233  0.47637967  0.35900467  1
  O  O83  1  0.34043733  0.86405767  0.35900467  1
  O  O84  1  0.32622933  0.46927567  0.97432867  1
  O  O85  1  0.53072433  0.85695367  0.97432867  1
  O  O86  1  0.16823567  0.48050733  0.75031633  1
  O  O87  1  0.14304633  0.67377067  0.97432867  1
  O  O88  1  0.99289600  0.19028700  0.80766200  1
  O  O89  1  0.83176433  0.31227167  0.74968367  1
  O  O90  1  0.31227167  0.83176433  0.75031633  1
  O  O91  1  0.48050733  0.16823567  0.74968367  1
  O  O92  1  0.52362033  0.86405767  0.85900467  1
  O  O93  1  0.68772833  0.51949267  0.74968367  1
  O  O94  1  0.81384067  0.97893833  0.91635033  1
  O  O95  1  0.13594233  0.65956267  0.85900467  1
  O  O96  1  0.19739100  0.00710400  0.80766200  1
  O  O97  1  0.51949267  0.68772833  0.75031633  1
  O  O98  1  0.64560500  0.14717400  0.91698300  1
  O  O99  1  0.80971300  0.80260900  0.80766200  1
  O  O100  1  0.85282600  0.49843100  0.91698300  1
  O  O101  1  0.02106167  0.83490233  0.91635033  1
  O  O102  1  0.50156900  0.35439500  0.91698300  1
  O  O103  1  0.34043733  0.47637967  0.85900467  1
  O  O104  1  0.19028700  0.99289600  0.69233800  1
  O  O105  1  0.16509767  0.18615933  0.91635033  1
  O  O106  1  0.80260900  0.80971300  0.69233800  1
  O  O107  1  0.00710400  0.19739100  0.69233800  1
