# generated using pymatgen
data_Ti3Mn3(TeO8)2
_symmetry_space_group_name_H-M   'P 1'
_cell_length_a   10.80550600
_cell_length_b   6.01540000
_cell_length_c   9.28623379
_cell_angle_alpha   90.00000000
_cell_angle_beta   92.83954566
_cell_angle_gamma   90.00000000
_symmetry_Int_Tables_number   1
_chemical_formula_structural   Ti3Mn3(TeO8)2
_chemical_formula_sum   'Ti6 Mn6 Te4 O32'
_cell_volume   602.85889344
_cell_formula_units_Z   2
loop_
 _symmetry_equiv_pos_site_id
 _symmetry_equiv_pos_as_xyz
  1  'x, y, z'
loop_
 _atom_site_type_symbol
 _atom_site_label
 _atom_site_symmetry_multiplicity
 _atom_site_fract_x
 _atom_site_fract_y
 _atom_site_fract_z
 _atom_site_occupancy
  Ti  Ti0  1  0.58805550  0.24933450  0.20701400  1
  Ti  Ti1  1  0.58805550  0.75066550  0.20701400  1
  Ti  Ti2  1  0.66646600  0.50000000  0.71455000  1
  Ti  Ti3  1  0.08805550  0.74933450  0.20701400  1
  Ti  Ti4  1  0.08805550  0.25066550  0.20701400  1
  Ti  Ti5  1  0.16646600  0.00000000  0.71455000  1
  Mn  Mn6  1  0.83071100  0.00000000  0.20272100  1
  Mn  Mn7  1  0.91568500  0.74654100  0.70428100  1
  Mn  Mn8  1  0.91568500  0.25345900  0.70428100  1
  Mn  Mn9  1  0.33071100  0.50000000  0.20272100  1
  Mn  Mn10  1  0.41568500  0.24654100  0.70428100  1
  Mn  Mn11  1  0.41568500  0.75345900  0.70428100  1
  Te  Te12  1  0.67063700  0.00000000  0.48744500  1
  Te  Te13  1  0.83525100  0.50000000  0.98702000  1
  Te  Te14  1  0.17063700  0.50000000  0.48744500  1
  Te  Te15  1  0.33525100  0.00000000  0.98702000  1
  O  O16  1  0.60191400  0.23455800  0.60413000  1
  O  O17  1  0.52613400  0.00000000  0.34583000  1
  O  O18  1  0.64566400  0.00000000  0.10262500  1
  O  O19  1  0.51240600  0.50000000  0.29136500  1
  O  O20  1  0.50363500  0.50000000  0.79029900  1
  O  O21  1  0.60191400  0.76544200  0.60413000  1
  O  O22  1  0.72787550  0.22083550  0.35019300  1
  O  O23  1  0.72787550  0.77916450  0.35019300  1
  O  O24  1  0.68338500  0.50000000  0.10793900  1
  O  O25  1  0.83233100  0.00000000  0.59198300  1
  O  O26  1  0.75067350  0.71073150  0.85252000  1
  O  O27  1  0.75067350  0.28926850  0.85252000  1
  O  O28  1  0.82918200  0.50000000  0.61277700  1
  O  O29  1  0.91741400  0.73114700  0.09976700  1
  O  O30  1  0.96922900  0.50000000  0.84506400  1
  O  O31  1  0.91741400  0.26885300  0.09976700  1
  O  O32  1  0.10191400  0.73455800  0.60413000  1
  O  O33  1  0.02613400  0.50000000  0.34583000  1
  O  O34  1  0.14566400  0.50000000  0.10262500  1
  O  O35  1  0.01240600  0.00000000  0.29136500  1
  O  O36  1  0.00363500  0.00000000  0.79029900  1
  O  O37  1  0.10191400  0.26544200  0.60413000  1
  O  O38  1  0.22787550  0.72083550  0.35019300  1
  O  O39  1  0.22787550  0.27916450  0.35019300  1
  O  O40  1  0.18338500  0.00000000  0.10793900  1
  O  O41  1  0.33233100  0.50000000  0.59198300  1
  O  O42  1  0.25067350  0.21073150  0.85252000  1
  O  O43  1  0.25067350  0.78926850  0.85252000  1
  O  O44  1  0.32918200  0.00000000  0.61277700  1
  O  O45  1  0.41741400  0.23114700  0.09976700  1
  O  O46  1  0.46922900  0.00000000  0.84506400  1
  O  O47  1  0.41741400  0.76885300  0.09976700  1
