# generated using pymatgen
data_Co6OF11
_symmetry_space_group_name_H-M   'P 1'
_cell_length_a   9.17694400
_cell_length_b   6.79009000
_cell_length_c   7.40956522
_cell_angle_alpha   90.00000000
_cell_angle_beta   110.90660979
_cell_angle_gamma   90.00000000
_symmetry_Int_Tables_number   1
_chemical_formula_structural   Co6OF11
_chemical_formula_sum   'Co12 O2 F22'
_cell_volume   431.30962035
_cell_formula_units_Z   2
loop_
 _symmetry_equiv_pos_site_id
 _symmetry_equiv_pos_as_xyz
  1  'x, y, z'
loop_
 _atom_site_type_symbol
 _atom_site_label
 _atom_site_symmetry_multiplicity
 _atom_site_fract_x
 _atom_site_fract_y
 _atom_site_fract_z
 _atom_site_occupancy
  Co  Co0  1  0.16708300  0.50000000  0.16562200  1
  Co  Co1  1  0.15159000  0.50000000  0.66928700  1
  Co  Co2  1  0.83570900  0.50000000  0.34281000  1
  Co  Co3  1  0.84065700  0.50000000  0.82145600  1
  Co  Co4  1  0.49797700  0.50000000  0.50150100  1
  Co  Co5  1  0.50261400  0.50000000  0.99698600  1
  Co  Co6  1  0.66708300  0.00000000  0.16562200  1
  Co  Co7  1  0.65159000  0.00000000  0.66928700  1
  Co  Co8  1  0.33570900  0.00000000  0.34281000  1
  Co  Co9  1  0.34065700  0.00000000  0.82145600  1
  Co  Co10  1  0.99797700  0.00000000  0.50150100  1
  Co  Co11  1  0.00261400  0.00000000  0.99698600  1
  O  O12  1  0.94142900  0.50000000  0.63797000  1
  O  O13  1  0.44142900  0.00000000  0.63797000  1
  F  F14  1  0.16657400  0.19329800  0.66996100  1
  F  F15  1  0.83443100  0.19694300  0.33088000  1
  F  F16  1  0.07130600  0.50000000  0.37207900  1
  F  F17  1  0.38549600  0.50000000  0.69713400  1
  F  F18  1  0.73793400  0.50000000  0.03430700  1
  F  F19  1  0.26551700  0.50000000  0.96014700  1
  F  F20  1  0.60191000  0.50000000  0.29712400  1
  F  F21  1  0.16657400  0.80670200  0.66996100  1
  F  F22  1  0.83443100  0.80305700  0.33088000  1
  F  F23  1  0.99938450  0.30121850  0.00094800  1
  F  F24  1  0.99938450  0.69878150  0.00094800  1
  F  F25  1  0.66657400  0.69329800  0.66996100  1
  F  F26  1  0.33443100  0.69694300  0.33088000  1
  F  F27  1  0.57130600  0.00000000  0.37207900  1
  F  F28  1  0.88549600  0.00000000  0.69713400  1
  F  F29  1  0.23793400  0.00000000  0.03430700  1
  F  F30  1  0.76551700  0.00000000  0.96014700  1
  F  F31  1  0.10191000  0.00000000  0.29712400  1
  F  F32  1  0.66657400  0.30670200  0.66996100  1
  F  F33  1  0.33443100  0.30305700  0.33088000  1
  F  F34  1  0.49938450  0.80121850  0.00094800  1
  F  F35  1  0.49938450  0.19878150  0.00094800  1
