# generated using pymatgen
data_Fe4O7F
_symmetry_space_group_name_H-M   'P 1'
_cell_length_a   9.21699800
_cell_length_b   6.05414400
_cell_length_c   4.61571698
_cell_angle_alpha   90.00000000
_cell_angle_beta   91.94599295
_cell_angle_gamma   90.00000000
_symmetry_Int_Tables_number   1
_chemical_formula_structural   Fe4O7F
_chemical_formula_sum   'Fe8 O14 F2'
_cell_volume   257.41323493
_cell_formula_units_Z   2
loop_
 _symmetry_equiv_pos_site_id
 _symmetry_equiv_pos_as_xyz
  1  'x, y, z'
loop_
 _atom_site_type_symbol
 _atom_site_label
 _atom_site_symmetry_multiplicity
 _atom_site_fract_x
 _atom_site_fract_y
 _atom_site_fract_z
 _atom_site_occupancy
  Fe  Fe0  1  0.00072000  0.00000000  0.49881400  1
  Fe  Fe1  1  0.49321000  0.00000000  0.51276200  1
  Fe  Fe2  1  0.25428100  0.24340700  0.99129300  1
  Fe  Fe3  1  0.25428100  0.75659300  0.99129300  1
  Fe  Fe4  1  0.50072000  0.50000000  0.49881400  1
  Fe  Fe5  1  0.99321000  0.50000000  0.51276200  1
  Fe  Fe6  1  0.75428100  0.74340700  0.99129300  1
  Fe  Fe7  1  0.75428100  0.25659300  0.99129300  1
  O  O8  1  0.34945000  0.00000000  0.80216700  1
  O  O9  1  0.84242100  0.00000000  0.81432900  1
  O  O10  1  0.59650350  0.24820850  0.69421000  1
  O  O11  1  0.59650350  0.75179150  0.69421000  1
  O  O12  1  0.40299350  0.74975250  0.30663100  1
  O  O13  1  0.40299350  0.25024750  0.30663100  1
  O  O14  1  0.15793500  0.00000000  0.18434200  1
  O  O15  1  0.84945000  0.50000000  0.80216700  1
  O  O16  1  0.34242100  0.50000000  0.81432900  1
  O  O17  1  0.09650350  0.74820850  0.69421000  1
  O  O18  1  0.09650350  0.25179150  0.69421000  1
  O  O19  1  0.90299350  0.24975250  0.30663100  1
  O  O20  1  0.90299350  0.75024750  0.30663100  1
  O  O21  1  0.65793500  0.50000000  0.18434200  1
  F  F22  1  0.64871000  0.00000000  0.20331700  1
  F  F23  1  0.14871000  0.50000000  0.20331700  1
