# generated using pymatgen
data_Li2Fe3P5O18
_symmetry_space_group_name_H-M   'P 1'
_cell_length_a   25.67171200
_cell_length_b   4.94157000
_cell_length_c   12.56987822
_cell_angle_alpha   90.00000000
_cell_angle_beta   91.76271695
_cell_angle_gamma   90.00000000
_symmetry_Int_Tables_number   1
_chemical_formula_structural   Li2Fe3P5O18
_chemical_formula_sum   'Li8 Fe12 P20 O72'
_cell_volume   1593.84209121
_cell_formula_units_Z   4
loop_
 _symmetry_equiv_pos_site_id
 _symmetry_equiv_pos_as_xyz
  1  'x, y, z'
loop_
 _atom_site_type_symbol
 _atom_site_label
 _atom_site_symmetry_multiplicity
 _atom_site_fract_x
 _atom_site_fract_y
 _atom_site_fract_z
 _atom_site_occupancy
  Li  Li0  1  0.66501600  0.84821600  0.86388100  1
  Li  Li1  1  0.66501600  0.15178400  0.36388100  1
  Li  Li2  1  0.83498400  0.34821600  0.63611900  1
  Li  Li3  1  0.83498400  0.65178400  0.13611900  1
  Li  Li4  1  0.16501600  0.34821600  0.86388100  1
  Li  Li5  1  0.16501600  0.65178400  0.36388100  1
  Li  Li6  1  0.33498400  0.84821600  0.63611900  1
  Li  Li7  1  0.33498400  0.15178400  0.13611900  1
  Fe  Fe8  1  0.69875800  0.42266300  0.62063600  1
  Fe  Fe9  1  0.69875800  0.57733700  0.12063600  1
  Fe  Fe10  1  0.80124200  0.92266300  0.87936400  1
  Fe  Fe11  1  0.80124200  0.07733700  0.37936400  1
  Fe  Fe12  1  0.00000000  0.50000000  0.50000000  1
  Fe  Fe13  1  0.00000000  0.50000000  0.00000000  1
  Fe  Fe14  1  0.19875800  0.92266300  0.62063600  1
  Fe  Fe15  1  0.19875800  0.07733700  0.12063600  1
  Fe  Fe16  1  0.30124200  0.42266300  0.87936400  1
  Fe  Fe17  1  0.30124200  0.57733700  0.37936400  1
  Fe  Fe18  1  0.50000000  0.00000000  0.50000000  1
  Fe  Fe19  1  0.50000000  0.00000000  0.00000000  1
  P  P20  1  0.56871000  0.49830600  0.59220300  1
  P  P21  1  0.56871000  0.50169400  0.09220300  1
  P  P22  1  0.72611050  0.42631450  0.87163500  1
  P  P23  1  0.72611050  0.57368550  0.37163500  1
  P  P24  1  0.77388950  0.92631450  0.62836500  1
  P  P25  1  0.77388950  0.07368550  0.12836500  1
  P  P26  1  0.93129000  0.99830600  0.90779700  1
  P  P27  1  0.93129000  0.00169400  0.40779700  1
  P  P28  1  0.00000000  0.73039800  0.75000000  1
  P  P29  1  0.00000000  0.26960200  0.25000000  1
  P  P30  1  0.06871000  0.99830600  0.59220300  1
  P  P31  1  0.06871000  0.00169400  0.09220300  1
  P  P32  1  0.22611050  0.92631450  0.87163500  1
  P  P33  1  0.22611050  0.07368550  0.37163500  1
  P  P34  1  0.27388950  0.42631450  0.62836500  1
  P  P35  1  0.27388950  0.57368550  0.12836500  1
  P  P36  1  0.43129000  0.49830600  0.90779700  1
  P  P37  1  0.43129000  0.50169400  0.40779700  1
  P  P38  1  0.50000000  0.23039800  0.75000000  1
  P  P39  1  0.50000000  0.76960200  0.25000000  1
  O  O40  1  0.52501500  0.07749600  0.84280000  1
  O  O41  1  0.54537200  0.68261600  0.00568100  1
  O  O42  1  0.52501500  0.92250400  0.34280000  1
  O  O43  1  0.54224500  0.44048800  0.70562300  1
  O  O44  1  0.54537200  0.31738400  0.50568100  1
  O  O45  1  0.54224500  0.55951200  0.20562300  1
  O  O46  1  0.56299750  0.79766950  0.56844100  1
  O  O47  1  0.56299750  0.20233050  0.06844100  1
  O  O48  1  0.62565850  0.41687650  0.61612400  1
  O  O49  1  0.62565850  0.58312350  0.11612400  1
  O  O50  1  0.69435900  0.54448300  0.96337900  1
  O  O51  1  0.69473300  0.53068800  0.77240300  1
  O  O52  1  0.69435900  0.45551700  0.46337900  1
  O  O53  1  0.69473300  0.46931200  0.27240300  1
  O  O54  1  0.71844850  0.04299250  0.62825500  1
  O  O55  1  0.72897050  0.11293050  0.87644000  1
  O  O56  1  0.71844850  0.95700750  0.12825500  1
  O  O57  1  0.72897050  0.88706950  0.37644000  1
  O  O58  1  0.77102950  0.61293050  0.62356000  1
  O  O59  1  0.78155150  0.54299250  0.87174500  1
  O  O60  1  0.77102950  0.38706950  0.12356000  1
  O  O61  1  0.78155150  0.45700750  0.37174500  1
  O  O62  1  0.80526700  0.03068800  0.72759700  1
  O  O63  1  0.80564100  0.04448300  0.53662100  1
  O  O64  1  0.80526700  0.96931200  0.22759700  1
  O  O65  1  0.80564100  0.95551700  0.03662100  1
  O  O66  1  0.87434150  0.91687650  0.88387600  1
  O  O67  1  0.87434150  0.08312350  0.38387600  1
  O  O68  1  0.93700250  0.29766950  0.93155900  1
  O  O69  1  0.93700250  0.70233050  0.43155900  1
  O  O70  1  0.95775500  0.94048800  0.79437700  1
  O  O71  1  0.95462800  0.18261600  0.49431900  1
  O  O72  1  0.95775500  0.05951200  0.29437700  1
  O  O73  1  0.97498500  0.57749600  0.65720000  1
  O  O74  1  0.95462800  0.81738400  0.99431900  1
  O  O75  1  0.97498500  0.42250400  0.15720000  1
  O  O76  1  0.02501500  0.57749600  0.84280000  1
  O  O77  1  0.04537200  0.18261600  0.00568100  1
  O  O78  1  0.02501500  0.42250400  0.34280000  1
  O  O79  1  0.04224500  0.94048800  0.70562300  1
  O  O80  1  0.04537200  0.81738400  0.50568100  1
  O  O81  1  0.04224500  0.05951200  0.20562300  1
  O  O82  1  0.06299750  0.29766950  0.56844100  1
  O  O83  1  0.06299750  0.70233050  0.06844100  1
  O  O84  1  0.12565850  0.91687650  0.61612400  1
  O  O85  1  0.12565850  0.08312350  0.11612400  1
  O  O86  1  0.19435900  0.04448300  0.96337900  1
  O  O87  1  0.19473300  0.03068800  0.77240300  1
  O  O88  1  0.19435900  0.95551700  0.46337900  1
  O  O89  1  0.19473300  0.96931200  0.27240300  1
  O  O90  1  0.21844850  0.54299250  0.62825500  1
  O  O91  1  0.22897050  0.61293050  0.87644000  1
  O  O92  1  0.21844850  0.45700750  0.12825500  1
  O  O93  1  0.22897050  0.38706950  0.37644000  1
  O  O94  1  0.27102950  0.11293050  0.62356000  1
  O  O95  1  0.28155150  0.04299250  0.87174500  1
  O  O96  1  0.27102950  0.88706950  0.12356000  1
  O  O97  1  0.28155150  0.95700750  0.37174500  1
  O  O98  1  0.30526700  0.53068800  0.72759700  1
  O  O99  1  0.30564100  0.54448300  0.53662100  1
  O  O100  1  0.30526700  0.46931200  0.22759700  1
  O  O101  1  0.30564100  0.45551700  0.03662100  1
  O  O102  1  0.37434150  0.41687650  0.88387600  1
  O  O103  1  0.37434150  0.58312350  0.38387600  1
  O  O104  1  0.43700250  0.79766950  0.93155900  1
  O  O105  1  0.43700250  0.20233050  0.43155900  1
  O  O106  1  0.45775500  0.44048800  0.79437700  1
  O  O107  1  0.45462800  0.68261600  0.49431900  1
  O  O108  1  0.45775500  0.55951200  0.29437700  1
  O  O109  1  0.47498500  0.07749600  0.65720000  1
  O  O110  1  0.45462800  0.31738400  0.99431900  1
  O  O111  1  0.47498500  0.92250400  0.15720000  1
