# generated using pymatgen
data_Mg7Co17O32
_symmetry_space_group_name_H-M   'P 1'
_cell_length_a   10.02793200
_cell_length_b   5.79400600
_cell_length_c   19.26571748
_cell_angle_alpha   90.00000000
_cell_angle_beta   100.58346021
_cell_angle_gamma   90.00000000
_symmetry_Int_Tables_number   1
_chemical_formula_structural   Mg7Co17O32
_chemical_formula_sum   'Mg14 Co34 O64'
_cell_volume   1100.33241131
_cell_formula_units_Z   2
loop_
 _symmetry_equiv_pos_site_id
 _symmetry_equiv_pos_as_xyz
  1  'x, y, z'
loop_
 _atom_site_type_symbol
 _atom_site_label
 _atom_site_symmetry_multiplicity
 _atom_site_fract_x
 _atom_site_fract_y
 _atom_site_fract_z
 _atom_site_occupancy
  Mg  Mg0  1  0.62521600  0.00000000  0.37486500  1
  Mg  Mg1  1  0.75023400  0.00000000  0.24897900  1
  Mg  Mg2  1  0.87478400  0.50000000  0.62513500  1
  Mg  Mg3  1  0.74976600  0.50000000  0.75102100  1
  Mg  Mg4  1  0.50000000  0.00000000  0.50000000  1
  Mg  Mg5  1  0.87643000  0.00000000  0.12397300  1
  Mg  Mg6  1  0.62357000  0.50000000  0.87602700  1
  Mg  Mg7  1  0.12521600  0.50000000  0.37486500  1
  Mg  Mg8  1  0.25023400  0.50000000  0.24897900  1
  Mg  Mg9  1  0.37478400  0.00000000  0.62513500  1
  Mg  Mg10  1  0.24976600  0.00000000  0.75102100  1
  Mg  Mg11  1  0.00000000  0.50000000  0.50000000  1
  Mg  Mg12  1  0.37643000  0.50000000  0.12397300  1
  Mg  Mg13  1  0.12357000  0.00000000  0.87602700  1
  Co  Co14  1  0.60064500  0.50000000  0.28316600  1
  Co  Co15  1  0.64934200  0.50000000  0.46636500  1
  Co  Co16  1  0.40092200  0.00000000  0.21664900  1
  Co  Co17  1  0.37494350  0.74985350  0.37483300  1
  Co  Co18  1  0.87494350  0.75014650  0.37483300  1
  Co  Co19  1  0.12505650  0.75014650  0.62516700  1
  Co  Co20  1  0.62505650  0.74985350  0.62516700  1
  Co  Co21  1  0.85065800  0.00000000  0.53363500  1
  Co  Co22  1  0.89935500  0.00000000  0.71683400  1
  Co  Co23  1  0.87454300  0.75196500  0.87603300  1
  Co  Co24  1  0.87454300  0.24803500  0.87603300  1
  Co  Co25  1  0.09907800  0.50000000  0.78335100  1
  Co  Co26  1  0.34904700  0.00000000  0.03081800  1
  Co  Co27  1  0.00000000  0.00000000  0.00000000  1
  Co  Co28  1  0.15095300  0.50000000  0.96918200  1
  Co  Co29  1  0.62545700  0.74803500  0.12396700  1
  Co  Co30  1  0.62545700  0.25196500  0.12396700  1
  Co  Co31  1  0.10064500  0.00000000  0.28316600  1
  Co  Co32  1  0.14934200  0.00000000  0.46636500  1
  Co  Co33  1  0.90092200  0.50000000  0.21664900  1
  Co  Co34  1  0.87494350  0.24985350  0.37483300  1
  Co  Co35  1  0.37494350  0.25014650  0.37483300  1
  Co  Co36  1  0.62505650  0.25014650  0.62516700  1
  Co  Co37  1  0.12505650  0.24985350  0.62516700  1
  Co  Co38  1  0.35065800  0.50000000  0.53363500  1
  Co  Co39  1  0.39935500  0.50000000  0.71683400  1
  Co  Co40  1  0.37454300  0.25196500  0.87603300  1
  Co  Co41  1  0.37454300  0.74803500  0.87603300  1
  Co  Co42  1  0.59907800  0.00000000  0.78335100  1
  Co  Co43  1  0.84904700  0.50000000  0.03081800  1
  Co  Co44  1  0.50000000  0.50000000  0.00000000  1
  Co  Co45  1  0.65095300  0.00000000  0.96918200  1
  Co  Co46  1  0.12545700  0.24803500  0.12396700  1
  Co  Co47  1  0.12545700  0.75196500  0.12396700  1
  O  O48  1  0.05081150  0.74124250  0.43351300  1
  O  O49  1  0.55081150  0.75875750  0.43351300  1
  O  O50  1  0.69918600  0.75909700  0.31589900  1
  O  O51  1  0.69918600  0.24090300  0.31589900  1
  O  O52  1  0.93252900  0.00000000  0.31891200  1
  O  O53  1  0.82020500  0.00000000  0.43163200  1
  O  O54  1  0.68275000  0.00000000  0.56932300  1
  O  O55  1  0.42977600  0.00000000  0.31813200  1
  O  O56  1  0.81725000  0.50000000  0.43067700  1
  O  O57  1  0.67979500  0.50000000  0.56836800  1
  O  O58  1  0.80081400  0.74090300  0.68410100  1
  O  O59  1  0.80081400  0.25909700  0.68410100  1
  O  O60  1  0.44918850  0.75875750  0.56648700  1
  O  O61  1  0.94918850  0.74124250  0.56648700  1
  O  O62  1  0.07022400  0.50000000  0.68186800  1
  O  O63  1  0.93366200  0.50000000  0.82040900  1
  O  O64  1  0.81975900  0.50000000  0.92957200  1
  O  O65  1  0.56747100  0.50000000  0.68108800  1
  O  O66  1  0.32680900  0.50000000  0.93474700  1
  O  O67  1  0.92978100  0.00000000  0.81885100  1
  O  O68  1  0.04753050  0.22882050  0.93787500  1
  O  O69  1  0.04753050  0.77117950  0.93787500  1
  O  O70  1  0.69843800  0.74301000  0.81772200  1
  O  O71  1  0.19843800  0.75699000  0.81772200  1
  O  O72  1  0.45246950  0.27117950  0.06212500  1
  O  O73  1  0.45246950  0.72882050  0.06212500  1
  O  O74  1  0.17319100  0.00000000  0.06525300  1
  O  O75  1  0.57021900  0.50000000  0.18114900  1
  O  O76  1  0.56633800  0.00000000  0.17959100  1
  O  O77  1  0.68024100  0.00000000  0.07042800  1
  O  O78  1  0.30156200  0.74301000  0.18227800  1
  O  O79  1  0.80156200  0.75699000  0.18227800  1
  O  O80  1  0.55081150  0.24124250  0.43351300  1
  O  O81  1  0.05081150  0.25875750  0.43351300  1
  O  O82  1  0.19918600  0.25909700  0.31589900  1
  O  O83  1  0.19918600  0.74090300  0.31589900  1
  O  O84  1  0.43252900  0.50000000  0.31891200  1
  O  O85  1  0.32020500  0.50000000  0.43163200  1
  O  O86  1  0.18275000  0.50000000  0.56932300  1
  O  O87  1  0.92977600  0.50000000  0.31813200  1
  O  O88  1  0.31725000  0.00000000  0.43067700  1
  O  O89  1  0.17979500  0.00000000  0.56836800  1
  O  O90  1  0.30081400  0.24090300  0.68410100  1
  O  O91  1  0.30081400  0.75909700  0.68410100  1
  O  O92  1  0.94918850  0.25875750  0.56648700  1
  O  O93  1  0.44918850  0.24124250  0.56648700  1
  O  O94  1  0.57022400  0.00000000  0.68186800  1
  O  O95  1  0.43366200  0.00000000  0.82040900  1
  O  O96  1  0.31975900  0.00000000  0.92957200  1
  O  O97  1  0.06747100  0.00000000  0.68108800  1
  O  O98  1  0.82680900  0.00000000  0.93474700  1
  O  O99  1  0.42978100  0.50000000  0.81885100  1
  O  O100  1  0.54753050  0.72882050  0.93787500  1
  O  O101  1  0.54753050  0.27117950  0.93787500  1
  O  O102  1  0.19843800  0.24301000  0.81772200  1
  O  O103  1  0.69843800  0.25699000  0.81772200  1
  O  O104  1  0.95246950  0.77117950  0.06212500  1
  O  O105  1  0.95246950  0.22882050  0.06212500  1
  O  O106  1  0.67319100  0.50000000  0.06525300  1
  O  O107  1  0.07021900  0.00000000  0.18114900  1
  O  O108  1  0.06633800  0.50000000  0.17959100  1
  O  O109  1  0.18024100  0.50000000  0.07042800  1
  O  O110  1  0.80156200  0.24301000  0.18227800  1
  O  O111  1  0.30156200  0.25699000  0.18227800  1
