# generated using pymatgen
data_Na11Mn13O32
_symmetry_space_group_name_H-M   'P 1'
_cell_length_a   10.86640565
_cell_length_b   5.98966729
_cell_length_c   20.82876871
_cell_angle_alpha   90.00000000
_cell_angle_beta   103.11298364
_cell_angle_gamma   90.00000000
_symmetry_Int_Tables_number   1
_chemical_formula_structural   Na11Mn13O32
_chemical_formula_sum   'Na22 Mn26 O64'
_cell_volume   1320.31494061
_cell_formula_units_Z   2
loop_
 _symmetry_equiv_pos_site_id
 _symmetry_equiv_pos_as_xyz
  1  'x, y, z'
loop_
 _atom_site_type_symbol
 _atom_site_label
 _atom_site_symmetry_multiplicity
 _atom_site_fract_x
 _atom_site_fract_y
 _atom_site_fract_z
 _atom_site_occupancy
  Na  Na0  1  0.00000000  0.00000000  0.00000000  1
  Na  Na1  1  0.83561100  0.50000000  0.03180500  1
  Na  Na2  1  0.89967850  0.00000000  0.71026600  1
  Na  Na3  1  0.16438900  0.50000000  0.96819500  1
  Na  Na4  1  0.08113700  0.50000000  0.77715100  1
  Na  Na5  1  0.65917950  0.50000000  0.47335400  1
  Na  Na6  1  0.62622450  0.00000000  0.37374000  1
  Na  Na7  1  0.87377550  0.50000000  0.62626000  1
  Na  Na8  1  0.60032150  0.50000000  0.28973400  1
  Na  Na9  1  0.84082050  0.00000000  0.52664600  1
  Na  Na10  1  0.91886300  0.50000000  0.22284900  1
  Na  Na11  1  0.50000000  0.50000000  0.00000000  1
  Na  Na12  1  0.33561100  0.00000000  0.03180500  1
  Na  Na13  1  0.39967850  0.50000000  0.71026600  1
  Na  Na14  1  0.66438900  0.00000000  0.96819500  1
  Na  Na15  1  0.58113700  0.00000000  0.77715100  1
  Na  Na16  1  0.15917950  0.00000000  0.47335400  1
  Na  Na17  1  0.12622450  0.50000000  0.37374000  1
  Na  Na18  1  0.37377550  0.00000000  0.62626000  1
  Na  Na19  1  0.10032150  0.00000000  0.28973400  1
  Na  Na20  1  0.34082050  0.50000000  0.52664600  1
  Na  Na21  1  0.41886300  0.00000000  0.22284900  1
  Mn  Mn22  1  0.11942050  0.00000000  0.86741100  1
  Mn  Mn23  1  0.87221150  0.24608450  0.86710500  1
  Mn  Mn24  1  0.87221150  0.75391550  0.86710500  1
  Mn  Mn25  1  0.73645500  0.50000000  0.74548700  1
  Mn  Mn26  1  0.87894450  0.24989050  0.37651000  1
  Mn  Mn27  1  0.12105550  0.24989050  0.62349000  1
  Mn  Mn28  1  0.12105550  0.75010950  0.62349000  1
  Mn  Mn29  1  0.00000000  0.50000000  0.50000000  1
  Mn  Mn30  1  0.62778850  0.25391550  0.13289500  1
  Mn  Mn31  1  0.87894450  0.75010950  0.37651000  1
  Mn  Mn32  1  0.76354500  0.00000000  0.25451300  1
  Mn  Mn33  1  0.88057950  0.00000000  0.13258900  1
  Mn  Mn34  1  0.62778850  0.74608450  0.13289500  1
  Mn  Mn35  1  0.61942050  0.50000000  0.86741100  1
  Mn  Mn36  1  0.37221150  0.74608450  0.86710500  1
  Mn  Mn37  1  0.37221150  0.25391550  0.86710500  1
  Mn  Mn38  1  0.23645500  0.00000000  0.74548700  1
  Mn  Mn39  1  0.37894450  0.74989050  0.37651000  1
  Mn  Mn40  1  0.62105550  0.74989050  0.62349000  1
  Mn  Mn41  1  0.62105550  0.25010950  0.62349000  1
  Mn  Mn42  1  0.50000000  0.00000000  0.50000000  1
  Mn  Mn43  1  0.12778850  0.75391550  0.13289500  1
  Mn  Mn44  1  0.37894450  0.25010950  0.37651000  1
  Mn  Mn45  1  0.26354500  0.50000000  0.25451300  1
  Mn  Mn46  1  0.38057950  0.50000000  0.13258900  1
  Mn  Mn47  1  0.12778850  0.24608450  0.13289500  1
  O  O48  1  0.04682600  0.22755000  0.91278100  1
  O  O49  1  0.82540100  0.00000000  0.91396500  1
  O  O50  1  0.93530100  0.00000000  0.81856000  1
  O  O51  1  0.81026150  0.50000000  0.91722600  1
  O  O52  1  0.96516850  0.27803750  0.56022600  1
  O  O53  1  0.19555050  0.20873250  0.81367400  1
  O  O54  1  0.19555050  0.79126750  0.81367400  1
  O  O55  1  0.77547600  0.27910500  0.69103800  1
  O  O56  1  0.04682600  0.77245000  0.91278100  1
  O  O57  1  0.83264250  0.50000000  0.43141800  1
  O  O58  1  0.66925350  0.50000000  0.57839000  1
  O  O59  1  0.07492550  0.00000000  0.67787500  1
  O  O60  1  0.07820650  0.50000000  0.67090100  1
  O  O61  1  0.90020700  0.50000000  0.81046300  1
  O  O62  1  0.66735750  0.00000000  0.56858200  1
  O  O63  1  0.72452400  0.22089500  0.30896200  1
  O  O64  1  0.96516850  0.72196250  0.56022600  1
  O  O65  1  0.03483150  0.27803750  0.43977400  1
  O  O66  1  0.03483150  0.72196250  0.43977400  1
  O  O67  1  0.77547600  0.72089500  0.69103800  1
  O  O68  1  0.92179350  0.50000000  0.32909900  1
  O  O69  1  0.92507450  0.00000000  0.32212500  1
  O  O70  1  0.83074650  0.00000000  0.42161000  1
  O  O71  1  0.56469900  0.50000000  0.18144000  1
  O  O72  1  0.67459900  0.50000000  0.08603500  1
  O  O73  1  0.72452400  0.77910500  0.30896200  1
  O  O74  1  0.45317400  0.72755000  0.08721900  1
  O  O75  1  0.45317400  0.27245000  0.08721900  1
  O  O76  1  0.80444950  0.79126750  0.18632600  1
  O  O77  1  0.80444950  0.20873250  0.18632600  1
  O  O78  1  0.59979300  0.00000000  0.18953700  1
  O  O79  1  0.68973850  0.00000000  0.08277400  1
  O  O80  1  0.54682600  0.72755000  0.91278100  1
  O  O81  1  0.32540100  0.50000000  0.91396500  1
  O  O82  1  0.43530100  0.50000000  0.81856000  1
  O  O83  1  0.31026150  0.00000000  0.91722600  1
  O  O84  1  0.46516850  0.77803750  0.56022600  1
  O  O85  1  0.69555050  0.70873250  0.81367400  1
  O  O86  1  0.69555050  0.29126750  0.81367400  1
  O  O87  1  0.27547600  0.77910500  0.69103800  1
  O  O88  1  0.54682600  0.27245000  0.91278100  1
  O  O89  1  0.33264250  0.00000000  0.43141800  1
  O  O90  1  0.16925350  0.00000000  0.57839000  1
  O  O91  1  0.57492550  0.50000000  0.67787500  1
  O  O92  1  0.57820650  0.00000000  0.67090100  1
  O  O93  1  0.40020700  0.00000000  0.81046300  1
  O  O94  1  0.16735750  0.50000000  0.56858200  1
  O  O95  1  0.22452400  0.72089500  0.30896200  1
  O  O96  1  0.46516850  0.22196250  0.56022600  1
  O  O97  1  0.53483150  0.77803750  0.43977400  1
  O  O98  1  0.53483150  0.22196250  0.43977400  1
  O  O99  1  0.27547600  0.22089500  0.69103800  1
  O  O100  1  0.42179350  0.00000000  0.32909900  1
  O  O101  1  0.42507450  0.50000000  0.32212500  1
  O  O102  1  0.33074650  0.50000000  0.42161000  1
  O  O103  1  0.06469900  0.00000000  0.18144000  1
  O  O104  1  0.17459900  0.00000000  0.08603500  1
  O  O105  1  0.22452400  0.27910500  0.30896200  1
  O  O106  1  0.95317400  0.22755000  0.08721900  1
  O  O107  1  0.95317400  0.77245000  0.08721900  1
  O  O108  1  0.30444950  0.29126750  0.18632600  1
  O  O109  1  0.30444950  0.70873250  0.18632600  1
  O  O110  1  0.09979300  0.50000000  0.18953700  1
  O  O111  1  0.18973850  0.50000000  0.08277400  1
