# generated using pymatgen
data_Mn5P6WO24
_symmetry_space_group_name_H-M   'P 1'
_cell_length_a   8.76857184
_cell_length_b   8.76857184
_cell_length_c   21.43838156
_cell_angle_alpha   90.00000000
_cell_angle_beta   90.00000000
_cell_angle_gamma   120.00000000
_symmetry_Int_Tables_number   1
_chemical_formula_structural   Mn5P6WO24
_chemical_formula_sum   'Mn15 P18 W3 O72'
_cell_volume   1427.51393662
_cell_formula_units_Z   3
loop_
 _symmetry_equiv_pos_site_id
 _symmetry_equiv_pos_as_xyz
  1  'x, y, z'
loop_
 _atom_site_type_symbol
 _atom_site_label
 _atom_site_symmetry_multiplicity
 _atom_site_fract_x
 _atom_site_fract_y
 _atom_site_fract_z
 _atom_site_occupancy
  Mn  Mn0  1  0.33333333  0.66666667  0.65769167  1
  Mn  Mn1  1  0.33333333  0.66666667  0.31217667  1
  Mn  Mn2  1  0.33333333  0.66666667  0.16673067  1
  Mn  Mn3  1  0.33333333  0.66666667  0.51844767  1
  Mn  Mn4  1  0.33333333  0.66666667  0.02207567  1
  Mn  Mn5  1  0.00000000  0.00000000  0.99102500  1
  Mn  Mn6  1  0.00000000  0.00000000  0.64551000  1
  Mn  Mn7  1  0.00000000  0.00000000  0.50006400  1
  Mn  Mn8  1  0.00000000  0.00000000  0.85178100  1
  Mn  Mn9  1  0.00000000  0.00000000  0.35540900  1
  Mn  Mn10  1  0.66666667  0.33333333  0.32435833  1
  Mn  Mn11  1  0.66666667  0.33333333  0.97884333  1
  Mn  Mn12  1  0.66666667  0.33333333  0.83339733  1
  Mn  Mn13  1  0.66666667  0.33333333  0.18511433  1
  Mn  Mn14  1  0.66666667  0.33333333  0.68874233  1
  P  P15  1  0.70343467  0.70418033  0.25163633  1
  P  P16  1  0.29581967  0.99925433  0.25163633  1
  P  P17  1  0.00074567  0.29656533  0.25163633  1
  P  P18  1  0.66038633  0.03516867  0.08396167  1
  P  P19  1  0.37478233  0.33961367  0.08396167  1
  P  P20  1  0.96483133  0.62521767  0.08396167  1
  P  P21  1  0.37010133  0.03751367  0.58496967  1
  P  P22  1  0.96248633  0.33258767  0.58496967  1
  P  P23  1  0.66741233  0.62989867  0.58496967  1
  P  P24  1  0.32705300  0.36850200  0.41729500  1
  P  P25  1  0.04144900  0.67294700  0.41729500  1
  P  P26  1  0.63149800  0.95855100  0.41729500  1
  P  P27  1  0.03676800  0.37084700  0.91830300  1
  P  P28  1  0.62915300  0.66592100  0.91830300  1
  P  P29  1  0.33407900  0.96323200  0.91830300  1
  P  P30  1  0.99371967  0.70183533  0.75062833  1
  P  P31  1  0.70811567  0.00628033  0.75062833  1
  P  P32  1  0.29816467  0.29188433  0.75062833  1
  W  W33  1  0.33333333  0.66666667  0.81053567  1
  W  W34  1  0.00000000  0.00000000  0.14386900  1
  W  W35  1  0.66666667  0.33333333  0.47720233  1
  O  O36  1  0.52839900  0.65997000  0.97633900  1
  O  O37  1  0.34003000  0.86842900  0.97633900  1
  O  O38  1  0.13157100  0.47160100  0.97633900  1
  O  O39  1  0.68912700  0.52136100  0.25423000  1
  O  O40  1  0.15812733  0.47807467  0.85907967  1
  O  O41  1  0.52689500  0.69291300  0.23814200  1
  O  O42  1  0.47863900  0.16776600  0.25423000  1
  O  O43  1  0.30708700  0.83398200  0.23814200  1
  O  O44  1  0.66308033  0.12908967  0.14375367  1
  O  O45  1  0.16601800  0.47310500  0.23814200  1
  O  O46  1  0.83191000  0.00739000  0.08412500  1
  O  O47  1  0.46600933  0.33691967  0.14375367  1
  O  O48  1  0.52192533  0.68005267  0.85907967  1
  O  O49  1  0.83223400  0.31087300  0.25423000  1
  O  O50  1  0.50227900  0.84509500  0.08930200  1
  O  O51  1  0.31994733  0.84187267  0.85907967  1
  O  O52  1  0.34281600  0.49772100  0.08930200  1
  O  O53  1  0.17548000  0.16809000  0.08412500  1
  O  O54  1  0.15490500  0.65718400  0.08930200  1
  O  O55  1  0.87091033  0.53399067  0.14375367  1
  O  O56  1  0.99261000  0.82452000  0.08412500  1
  O  O57  1  0.53696167  0.88162433  0.35687433  1
  O  O58  1  0.34466267  0.46303833  0.35687433  1
  O  O59  1  0.11837567  0.65533733  0.35687433  1
  O  O60  1  0.19506567  0.99330333  0.30967233  1
  O  O61  1  0.00669667  0.20176233  0.30967233  1
  O  O62  1  0.79823767  0.80493433  0.30967233  1
  O  O63  1  0.35579367  0.85469433  0.58756333  1
  O  O64  1  0.82479400  0.81140800  0.19241300  1
  O  O65  1  0.19356167  0.02624633  0.57147533  1
  O  O66  1  0.14530567  0.50109933  0.58756333  1
  O  O67  1  0.97375367  0.16731533  0.57147533  1
  O  O68  1  0.32974700  0.46242300  0.47708700  1
  O  O69  1  0.83268467  0.80643833  0.57147533  1
  O  O70  1  0.49857667  0.34072333  0.41745833  1
  O  O71  1  0.13267600  0.67025300  0.47708700  1
  O  O72  1  0.18859200  0.01338600  0.19241300  1
  O  O73  1  0.49890067  0.64420633  0.58756333  1
  O  O74  1  0.16894567  0.17842833  0.42263533  1
  O  O75  1  0.98661400  0.17520600  0.19241300  1
  O  O76  1  0.00948267  0.83105433  0.42263533  1
  O  O77  1  0.84214667  0.50142333  0.41745833  1
  O  O78  1  0.82157167  0.99051733  0.42263533  1
  O  O79  1  0.53757700  0.86732400  0.47708700  1
  O  O80  1  0.65927667  0.15785333  0.41745833  1
  O  O81  1  0.20362833  0.21495767  0.69020767  1
  O  O82  1  0.01132933  0.79637167  0.69020767  1
  O  O83  1  0.78504233  0.98867067  0.69020767  1
  O  O84  1  0.86173233  0.32663667  0.64300567  1
  O  O85  1  0.67336333  0.53509567  0.64300567  1
  O  O86  1  0.46490433  0.13826767  0.64300567  1
  O  O87  1  0.02246033  0.18802767  0.92089667  1
  O  O88  1  0.49146067  0.14474133  0.52574633  1
  O  O89  1  0.86022833  0.35957967  0.90480867  1
  O  O90  1  0.81197233  0.83443267  0.92089667  1
  O  O91  1  0.64042033  0.50064867  0.90480867  1
  O  O92  1  0.99641367  0.79575633  0.81042033  1
  O  O93  1  0.49935133  0.13977167  0.90480867  1
  O  O94  1  0.16524333  0.67405667  0.75079167  1
  O  O95  1  0.79934267  0.00358633  0.81042033  1
  O  O96  1  0.85525867  0.34671933  0.52574633  1
  O  O97  1  0.16556733  0.97753967  0.92089667  1
  O  O98  1  0.83561233  0.51176167  0.75596867  1
  O  O99  1  0.65328067  0.50853933  0.52574633  1
  O  O100  1  0.67614933  0.16438767  0.75596867  1
  O  O101  1  0.50881333  0.83475667  0.75079167  1
  O  O102  1  0.48823833  0.32385067  0.75596867  1
  O  O103  1  0.20424367  0.20065733  0.81042033  1
  O  O104  1  0.32594333  0.49118667  0.75079167  1
  O  O105  1  0.87029500  0.54829100  0.02354100  1
  O  O106  1  0.67799600  0.12970500  0.02354100  1
  O  O107  1  0.45170900  0.32200400  0.02354100  1
