# generated using pymatgen
data_Na2VAsCO7
_symmetry_space_group_name_H-M   'P 1'
_cell_length_a   5.36771670
_cell_length_b   6.76096600
_cell_length_c   9.20521170
_cell_angle_alpha   90.00000000
_cell_angle_beta   91.78004076
_cell_angle_gamma   90.00000000
_symmetry_Int_Tables_number   1
_chemical_formula_structural   Na2VAsCO7
_chemical_formula_sum   'Na4 V2 As2 C2 O14'
_cell_volume   333.90467235
_cell_formula_units_Z   2
loop_
 _symmetry_equiv_pos_site_id
 _symmetry_equiv_pos_as_xyz
  1  'x, y, z'
loop_
 _atom_site_type_symbol
 _atom_site_label
 _atom_site_symmetry_multiplicity
 _atom_site_fract_x
 _atom_site_fract_y
 _atom_site_fract_z
 _atom_site_occupancy
  Na  Na0  1  0.26177425  0.50030300  0.21732175  1
  Na  Na1  1  0.26177425  0.99969700  0.21732175  1
  Na  Na2  1  0.73822575  0.49969700  0.78267825  1
  Na  Na3  1  0.73822575  0.00030300  0.78267825  1
  V  V4  1  0.70682325  0.25000000  0.34441475  1
  V  V5  1  0.29317675  0.75000000  0.65558525  1
  As  As6  1  0.79067275  0.75000000  0.42315825  1
  As  As7  1  0.20932725  0.25000000  0.57684175  1
  C  C8  1  0.77443625  0.25000000  0.07722975  1
  C  C9  1  0.22556375  0.75000000  0.92277025  1
  O  O10  1  0.18794325  0.75000000  0.05673775  1
  O  O11  1  0.81205675  0.25000000  0.94326225  1
  O  O12  1  0.55200525  0.25000000  0.13360875  1
  O  O13  1  0.44799475  0.75000000  0.86639125  1
  O  O14  1  0.95827625  0.25000000  0.17776775  1
  O  O15  1  0.04172375  0.75000000  0.82223225  1
  O  O16  1  0.35115025  0.25000000  0.41076075  1
  O  O17  1  0.64884975  0.75000000  0.58923925  1
  O  O18  1  0.11073625  0.75000000  0.45010375  1
  O  O19  1  0.88926375  0.25000000  0.54989625  1
  O  O20  1  0.70217075  0.95272200  0.32177025  1
  O  O21  1  0.70217075  0.54727800  0.32177025  1
  O  O22  1  0.29782925  0.45272200  0.67822975  1
  O  O23  1  0.29782925  0.04727800  0.67822975  1
