# generated using pymatgen
data_Li8CrO6
_symmetry_space_group_name_H-M   'P 1'
_cell_length_a   5.40539365
_cell_length_b   5.40539365
_cell_length_c   14.94852001
_cell_angle_alpha   90.00000000
_cell_angle_beta   90.00000000
_cell_angle_gamma   120.00000000
_symmetry_Int_Tables_number   1
_chemical_formula_structural   Li8CrO6
_chemical_formula_sum   'Li24 Cr3 O18'
_cell_volume   378.25395934
_cell_formula_units_Z   3
loop_
 _symmetry_equiv_pos_site_id
 _symmetry_equiv_pos_as_xyz
  1  'x, y, z'
loop_
 _atom_site_type_symbol
 _atom_site_label
 _atom_site_symmetry_multiplicity
 _atom_site_fract_x
 _atom_site_fract_y
 _atom_site_fract_z
 _atom_site_occupancy
  Li  Li0  1  0.33333333  0.66666667  0.32539700  1
  Li  Li1  1  0.33333333  0.66666667  0.00793633  1
  Li  Li2  1  0.29462850  0.31556300  0.21605700  1
  Li  Li3  1  0.64573217  0.62796183  0.11727633  1
  Li  Li4  1  0.98222967  0.35426783  0.11727633  1
  Li  Li5  1  0.68443700  0.97906550  0.21605700  1
  Li  Li6  1  0.02093450  0.70537150  0.21605700  1
  Li  Li7  1  0.37203817  0.01777033  0.11727633  1
  Li  Li8  1  0.00000000  0.00000000  0.65873033  1
  Li  Li9  1  0.00000000  0.00000000  0.34126967  1
  Li  Li10  1  0.96129517  0.64889633  0.54939033  1
  Li  Li11  1  0.31239883  0.96129517  0.45060967  1
  Li  Li12  1  0.64889633  0.68760117  0.45060967  1
  Li  Li13  1  0.35110367  0.31239883  0.54939033  1
  Li  Li14  1  0.68760117  0.03870483  0.54939033  1
  Li  Li15  1  0.03870483  0.35110367  0.45060967  1
  Li  Li16  1  0.66666667  0.33333333  0.99206367  1
  Li  Li17  1  0.66666667  0.33333333  0.67460300  1
  Li  Li18  1  0.62796183  0.98222967  0.88272367  1
  Li  Li19  1  0.97906550  0.29462850  0.78394300  1
  Li  Li20  1  0.31556300  0.02093450  0.78394300  1
  Li  Li21  1  0.01777033  0.64573217  0.88272367  1
  Li  Li22  1  0.35426783  0.37203817  0.88272367  1
  Li  Li23  1  0.70537150  0.68443700  0.78394300  1
  Cr  Cr24  1  0.00000000  0.00000000  0.00000000  1
  Cr  Cr25  1  0.66666667  0.33333333  0.33333333  1
  Cr  Cr26  1  0.33333333  0.66666667  0.66666667  1
  O  O27  1  0.29618183  0.30728217  0.07740967  1
  O  O28  1  0.65556633  0.62951517  0.25592367  1
  O  O29  1  0.97394883  0.34443367  0.25592367  1
  O  O30  1  0.69271783  0.98889967  0.07740967  1
  O  O31  1  0.01110033  0.70381817  0.07740967  1
  O  O32  1  0.37048483  0.02605117  0.25592367  1
  O  O33  1  0.96284850  0.64061550  0.41074300  1
  O  O34  1  0.32223300  0.96284850  0.58925700  1
  O  O35  1  0.64061550  0.67776700  0.58925700  1
  O  O36  1  0.35938450  0.32223300  0.41074300  1
  O  O37  1  0.67776700  0.03715150  0.41074300  1
  O  O38  1  0.03715150  0.35938450  0.58925700  1
  O  O39  1  0.62951517  0.97394883  0.74407633  1
  O  O40  1  0.98889967  0.29618183  0.92259033  1
  O  O41  1  0.30728217  0.01110033  0.92259033  1
  O  O42  1  0.02605117  0.65556633  0.74407633  1
  O  O43  1  0.34443367  0.37048483  0.74407633  1
  O  O44  1  0.70381817  0.69271783  0.92259033  1
