# generated using pymatgen
data_Mn(CO3)2
_symmetry_space_group_name_H-M   'P 1'
_cell_length_a   4.66883081
_cell_length_b   4.66883081
_cell_length_c   16.42495645
_cell_angle_alpha   90.00000000
_cell_angle_beta   90.00000000
_cell_angle_gamma   120.00000000
_symmetry_Int_Tables_number   1
_chemical_formula_structural   Mn(CO3)2
_chemical_formula_sum   'Mn3 C6 O18'
_cell_volume   310.06384649
_cell_formula_units_Z   3
loop_
 _symmetry_equiv_pos_site_id
 _symmetry_equiv_pos_as_xyz
  1  'x, y, z'
loop_
 _atom_site_type_symbol
 _atom_site_label
 _atom_site_symmetry_multiplicity
 _atom_site_fract_x
 _atom_site_fract_y
 _atom_site_fract_z
 _atom_site_occupancy
  Mn  Mn0  1  0.66666667  0.33333333  0.83333333  1
  Mn  Mn1  1  0.33333333  0.66666667  0.16666667  1
  Mn  Mn2  1  0.00000000  1.00000000  0.50000000  1
  C  C3  1  0.00000000  0.00000000  0.76653800  1
  C  C4  1  0.33333333  0.66666667  0.90012867  1
  C  C5  1  0.66666667  0.33333333  0.09987133  1
  C  C6  1  1.00000000  0.00000000  0.23346200  1
  C  C7  1  0.33333333  0.66666667  0.43320467  1
  C  C8  1  0.66666667  0.33333333  0.56679533  1
  O  O9  1  0.36672500  0.40791000  0.90154100  1
  O  O10  1  0.29214833  0.03339167  0.76512567  1
  O  O11  1  0.74124333  0.70785167  0.76512567  1
  O  O12  1  0.59209000  0.95881500  0.90154100  1
  O  O13  1  0.04118500  0.63327500  0.90154100  1
  O  O14  1  0.96660833  0.25875667  0.76512567  1
  O  O15  1  0.03339167  0.74124333  0.23487433  1
  O  O16  1  0.95881500  0.36672500  0.09845900  1
  O  O17  1  0.40791000  0.04118500  0.09845900  1
  O  O18  1  0.25875667  0.29214833  0.23487433  1
  O  O19  1  0.70785167  0.96660833  0.23487433  1
  O  O20  1  0.63327500  0.59209000  0.09845900  1
  O  O21  1  0.70005833  0.07457667  0.56820767  1
  O  O22  1  0.62548167  0.70005833  0.43179233  1
  O  O23  1  0.07457667  0.37451833  0.43179233  1
  O  O24  1  0.92542333  0.62548167  0.56820767  1
  O  O25  1  0.37451833  0.29994167  0.56820767  1
  O  O26  1  0.29994167  0.92542333  0.43179233  1
