# generated using pymatgen
data_CoP2WO8
_symmetry_space_group_name_H-M   'P 1'
_cell_length_a   4.95559392
_cell_length_b   5.98046200
_cell_length_c   10.18479457
_cell_angle_alpha   90.00000000
_cell_angle_beta   92.46878321
_cell_angle_gamma   90.00000000
_symmetry_Int_Tables_number   1
_chemical_formula_structural   CoP2WO8
_chemical_formula_sum   'Co2 P4 W2 O16'
_cell_volume   301.56395974
_cell_formula_units_Z   2
loop_
 _symmetry_equiv_pos_site_id
 _symmetry_equiv_pos_as_xyz
  1  'x, y, z'
loop_
 _atom_site_type_symbol
 _atom_site_label
 _atom_site_symmetry_multiplicity
 _atom_site_fract_x
 _atom_site_fract_y
 _atom_site_fract_z
 _atom_site_occupancy
  Co  Co0  1  0.93385600  0.25000000  0.28178100  1
  Co  Co1  1  0.06614400  0.75000000  0.71821900  1
  P  P2  1  0.40234000  0.25000000  0.09208800  1
  P  P3  1  0.59766000  0.75000000  0.90791200  1
  P  P4  1  0.89174000  0.75000000  0.40664300  1
  P  P5  1  0.10826000  0.25000000  0.59335700  1
  W  W6  1  0.44409600  0.75000000  0.22022300  1
  W  W7  1  0.55590400  0.25000000  0.77977700  1
  O  O8  1  0.68503200  0.75000000  0.05367700  1
  O  O9  1  0.31496800  0.25000000  0.94632300  1
  O  O10  1  0.70547900  0.25000000  0.11489300  1
  O  O11  1  0.29452100  0.75000000  0.88510700  1
  O  O12  1  0.19115200  0.75000000  0.37827000  1
  O  O13  1  0.80884800  0.25000000  0.62173000  1
  O  O14  1  0.15459500  0.25000000  0.44830400  1
  O  O15  1  0.84540500  0.75000000  0.55169600  1
  O  O16  1  0.26518200  0.04544600  0.16487100  1
  O  O17  1  0.26518200  0.45455400  0.16487100  1
  O  O18  1  0.73481800  0.54544600  0.83512900  1
  O  O19  1  0.73481800  0.95455400  0.83512900  1
  O  O20  1  0.73489900  0.55259300  0.33005300  1
  O  O21  1  0.73489900  0.94740700  0.33005300  1
  O  O22  1  0.26510100  0.05259300  0.66994700  1
  O  O23  1  0.26510100  0.44740700  0.66994700  1
