# generated using pymatgen
data_Fe4O7F
_symmetry_space_group_name_H-M   'P 1'
_cell_length_a   9.24887000
_cell_length_b   6.00788400
_cell_length_c   10.19154305
_cell_angle_alpha   90.00000000
_cell_angle_beta   114.95258534
_cell_angle_gamma   90.00000000
_symmetry_Int_Tables_number   1
_chemical_formula_structural   Fe4O7F
_chemical_formula_sum   'Fe16 O28 F4'
_cell_volume   513.44422957
_cell_formula_units_Z   4
loop_
 _symmetry_equiv_pos_site_id
 _symmetry_equiv_pos_as_xyz
  1  'x, y, z'
loop_
 _atom_site_type_symbol
 _atom_site_label
 _atom_site_symmetry_multiplicity
 _atom_site_fract_x
 _atom_site_fract_y
 _atom_site_fract_z
 _atom_site_occupancy
  Fe  Fe0  1  0.86368400  0.50000000  0.74261000  1
  Fe  Fe1  1  0.60806600  0.50000000  0.23910200  1
  Fe  Fe2  1  0.50589650  0.74588850  0.50404100  1
  Fe  Fe3  1  0.00589650  0.75411150  0.50404100  1
  Fe  Fe4  1  0.25619550  0.75922650  0.00418800  1
  Fe  Fe5  1  0.63061400  0.00000000  0.25330800  1
  Fe  Fe6  1  0.87655300  0.00000000  0.75085900  1
  Fe  Fe7  1  0.25619550  0.24077350  0.00418800  1
  Fe  Fe8  1  0.36368400  0.00000000  0.74261000  1
  Fe  Fe9  1  0.10806600  0.00000000  0.23910200  1
  Fe  Fe10  1  0.00589650  0.24588850  0.50404100  1
  Fe  Fe11  1  0.50589650  0.25411150  0.50404100  1
  Fe  Fe12  1  0.75619550  0.25922650  0.00418800  1
  Fe  Fe13  1  0.13061400  0.50000000  0.25330800  1
  Fe  Fe14  1  0.37655300  0.50000000  0.75085900  1
  Fe  Fe15  1  0.75619550  0.74077350  0.00418800  1
  O  O16  1  0.64684200  0.50000000  0.59771800  1
  O  O17  1  0.82779450  0.74917850  0.84730100  1
  O  O18  1  0.67348700  0.24837500  0.15395900  1
  O  O19  1  0.42281950  0.75202950  0.65334900  1
  O  O20  1  0.92281950  0.74797050  0.65334900  1
  O  O21  1  0.61107400  0.50000000  0.90808600  1
  O  O22  1  0.88572600  0.00000000  0.08862000  1
  O  O23  1  0.63922400  0.00000000  0.59490500  1
  O  O24  1  0.40294300  0.00000000  0.10192000  1
  O  O25  1  0.07657750  0.74682150  0.34597400  1
  O  O26  1  0.57657750  0.75317850  0.34597400  1
  O  O27  1  0.82779450  0.25082150  0.84730100  1
  O  O28  1  0.67348700  0.75162500  0.15395900  1
  O  O29  1  0.86140100  0.00000000  0.40609400  1
  O  O30  1  0.14684200  0.00000000  0.59771800  1
  O  O31  1  0.32779450  0.24917850  0.84730100  1
  O  O32  1  0.17348700  0.74837500  0.15395900  1
  O  O33  1  0.92281950  0.25202950  0.65334900  1
  O  O34  1  0.42281950  0.24797050  0.65334900  1
  O  O35  1  0.11107400  0.00000000  0.90808600  1
  O  O36  1  0.38572600  0.50000000  0.08862000  1
  O  O37  1  0.13922400  0.50000000  0.59490500  1
  O  O38  1  0.90294300  0.50000000  0.10192000  1
  O  O39  1  0.57657750  0.24682150  0.34597400  1
  O  O40  1  0.07657750  0.25317850  0.34597400  1
  O  O41  1  0.32779450  0.75082150  0.84730100  1
  O  O42  1  0.17348700  0.25162500  0.15395900  1
  O  O43  1  0.36140100  0.50000000  0.40609400  1
  F  F44  1  0.84822100  0.50000000  0.40107400  1
  F  F45  1  0.10011500  0.50000000  0.89808400  1
  F  F46  1  0.34822100  0.00000000  0.40107400  1
  F  F47  1  0.60011500  0.00000000  0.89808400  1
