# generated using pymatgen
data_Bi2TeO2
_symmetry_space_group_name_H-M   'P 1'
_cell_length_a   5.68999306
_cell_length_b   5.69144971
_cell_length_c   12.90288442
_cell_angle_alpha   90.00000000
_cell_angle_beta   90.00000000
_cell_angle_gamma   90.00000000
_symmetry_Int_Tables_number   1
_chemical_formula_structural   Bi2TeO2
_chemical_formula_sum   'Bi8 Te4 O8'
_cell_volume   417.85100086
_cell_formula_units_Z   4
loop_
 _symmetry_equiv_pos_site_id
 _symmetry_equiv_pos_as_xyz
  1  'x, y, z'
loop_
 _atom_site_type_symbol
 _atom_site_label
 _atom_site_symmetry_multiplicity
 _atom_site_fract_x
 _atom_site_fract_y
 _atom_site_fract_z
 _atom_site_occupancy
  Bi  Bi0  1  0.00000000  0.99879703  0.65412700  1
  Bi  Bi1  1  0.50000000  0.99879703  0.84587300  1
  Bi  Bi2  1  0.00000000  0.49879703  0.15412700  1
  Bi  Bi3  1  0.50000000  0.49879703  0.34587300  1
  Bi  Bi4  1  0.50000000  0.49879703  0.65412700  1
  Bi  Bi5  1  0.00000000  0.49879703  0.84587300  1
  Bi  Bi6  1  0.50000000  0.99879703  0.15412700  1
  Bi  Bi7  1  0.00000000  0.99879703  0.34587300  1
  Te  Te8  1  0.00000000  0.49171246  0.50000000  1
  Te  Te9  1  0.00000000  0.99171246  0.00000000  1
  Te  Te10  1  0.50000000  0.99171246  0.50000000  1
  Te  Te11  1  0.50000000  0.49171246  0.00000000  1
  O  O12  1  0.75000000  0.24742504  0.75000000  1
  O  O13  1  0.75000000  0.74742504  0.75000000  1
  O  O14  1  0.75000000  0.74742504  0.25000000  1
  O  O15  1  0.75000000  0.24742504  0.25000000  1
  O  O16  1  0.25000000  0.74742504  0.75000000  1
  O  O17  1  0.25000000  0.24742504  0.75000000  1
  O  O18  1  0.25000000  0.24742504  0.25000000  1
  O  O19  1  0.25000000  0.74742504  0.25000000  1
