# generated using pymatgen
data_AlCrO4
_symmetry_space_group_name_H-M   'P 1'
_cell_length_a   6.24149000
_cell_length_b   6.39149800
_cell_length_c   2.90342900
_cell_angle_alpha   90.00000000
_cell_angle_beta   90.00000000
_cell_angle_gamma   90.00000000
_symmetry_Int_Tables_number   1
_chemical_formula_structural   AlCrO4
_chemical_formula_sum   'Al2 Cr2 O8'
_cell_volume   115.82495675
_cell_formula_units_Z   2
loop_
 _symmetry_equiv_pos_site_id
 _symmetry_equiv_pos_as_xyz
  1  'x, y, z'
loop_
 _atom_site_type_symbol
 _atom_site_label
 _atom_site_symmetry_multiplicity
 _atom_site_fract_x
 _atom_site_fract_y
 _atom_site_fract_z
 _atom_site_occupancy
  Al  Al0  1  0.00000000  0.00000000  0.00000000  1
  Al  Al1  1  0.50000000  0.50000000  0.00000000  1
  Cr  Cr2  1  0.50000000  0.00000000  0.50000000  1
  Cr  Cr3  1  0.00000000  0.50000000  0.50000000  1
  O  O4  1  0.50000000  0.19754400  0.00000000  1
  O  O5  1  0.80263200  0.00000000  0.50000000  1
  O  O6  1  0.50000000  0.80245600  0.00000000  1
  O  O7  1  0.19736800  0.00000000  0.50000000  1
  O  O8  1  0.00000000  0.69754400  0.00000000  1
  O  O9  1  0.30263200  0.50000000  0.50000000  1
  O  O10  1  0.00000000  0.30245600  0.00000000  1
  O  O11  1  0.69736800  0.50000000  0.50000000  1
