# generated using pymatgen
data_Li2CuNiO4
_symmetry_space_group_name_H-M   'P 1'
_cell_length_a   8.19665149
_cell_length_b   7.88588452
_cell_length_c   6.02021644
_cell_angle_alpha   90.00000000
_cell_angle_beta   131.06256292
_cell_angle_gamma   90.00000000
_symmetry_Int_Tables_number   1
_chemical_formula_structural   Li2CuNiO4
_chemical_formula_sum   'Li8 Cu4 Ni4 O16'
_cell_volume   293.40409071
_cell_formula_units_Z   4
loop_
 _symmetry_equiv_pos_site_id
 _symmetry_equiv_pos_as_xyz
  1  'x, y, z'
loop_
 _atom_site_type_symbol
 _atom_site_label
 _atom_site_symmetry_multiplicity
 _atom_site_fract_x
 _atom_site_fract_y
 _atom_site_fract_z
 _atom_site_occupancy
  Li  Li0  1  0.00000000  0.00000000  0.50000000  1
  Li  Li1  1  0.00000000  0.00000000  0.00000000  1
  Li  Li2  1  0.25000000  0.75000000  0.00000000  1
  Li  Li3  1  0.75000000  0.75000000  0.50000000  1
  Li  Li4  1  0.50000000  0.50000000  0.50000000  1
  Li  Li5  1  0.50000000  0.50000000  0.00000000  1
  Li  Li6  1  0.75000000  0.25000000  0.00000000  1
  Li  Li7  1  0.25000000  0.25000000  0.50000000  1
  Cu  Cu8  1  0.75000000  0.75000000  0.00000000  1
  Cu  Cu9  1  0.75000000  0.25000000  0.50000000  1
  Cu  Cu10  1  0.25000000  0.25000000  0.00000000  1
  Cu  Cu11  1  0.25000000  0.75000000  0.50000000  1
  Ni  Ni12  1  0.00000000  0.50000000  0.50000000  1
  Ni  Ni13  1  0.50000000  0.00000000  0.00000000  1
  Ni  Ni14  1  0.50000000  0.00000000  0.50000000  1
  Ni  Ni15  1  0.00000000  0.50000000  0.00000000  1
  O  O16  1  0.77612400  0.48357400  0.56713550  1
  O  O17  1  0.72387600  0.98357400  0.93286450  1
  O  O18  1  0.27612400  0.01642600  0.06713550  1
  O  O19  1  0.22387600  0.51642600  0.43286450  1
  O  O20  1  0.94954900  0.26056000  0.44596650  1
  O  O21  1  0.05045100  0.26056000  0.05403350  1
  O  O22  1  0.94954900  0.73944000  0.94596650  1
  O  O23  1  0.05045100  0.73944000  0.55403350  1
  O  O24  1  0.27612400  0.98357400  0.56713550  1
  O  O25  1  0.22387600  0.48357400  0.93286450  1
  O  O26  1  0.77612400  0.51642600  0.06713550  1
  O  O27  1  0.72387600  0.01642600  0.43286450  1
  O  O28  1  0.44954900  0.76056000  0.44596650  1
  O  O29  1  0.55045100  0.76056000  0.05403350  1
  O  O30  1  0.44954900  0.23944000  0.94596650  1
  O  O31  1  0.55045100  0.23944000  0.55403350  1
