# generated using pymatgen
data_Li3Mn5O8
_symmetry_space_group_name_H-M   'P 1'
_cell_length_a   6.08993015
_cell_length_b   6.08993015
_cell_length_c   14.93657840
_cell_angle_alpha   90.00000000
_cell_angle_beta   90.00000000
_cell_angle_gamma   120.00000000
_symmetry_Int_Tables_number   1
_chemical_formula_structural   Li3Mn5O8
_chemical_formula_sum   'Li9 Mn15 O24'
_cell_volume   479.74049323
_cell_formula_units_Z   3
loop_
 _symmetry_equiv_pos_site_id
 _symmetry_equiv_pos_as_xyz
  1  'x, y, z'
loop_
 _atom_site_type_symbol
 _atom_site_label
 _atom_site_symmetry_multiplicity
 _atom_site_fract_x
 _atom_site_fract_y
 _atom_site_fract_z
 _atom_site_occupancy
  Li  Li0  1  0.33333333  0.16666667  0.16666667  1
  Li  Li1  1  0.83333333  0.66666667  0.16666667  1
  Li  Li2  1  0.83333333  0.16666667  0.16666667  1
  Li  Li3  1  0.00000000  0.50000000  0.50000000  1
  Li  Li4  1  0.50000000  0.00000000  0.50000000  1
  Li  Li5  1  0.50000000  0.50000000  0.50000000  1
  Li  Li6  1  0.66666667  0.83333333  0.83333333  1
  Li  Li7  1  0.16666667  0.33333333  0.83333333  1
  Li  Li8  1  0.16666667  0.83333333  0.83333333  1
  Mn  Mn9  1  0.33333333  0.66666667  0.16666667  1
  Mn  Mn10  1  0.00000000  0.00000000  0.00000000  1
  Mn  Mn11  1  0.50000000  0.50000000  0.00000000  1
  Mn  Mn12  1  0.00000000  0.50000000  0.00000000  1
  Mn  Mn13  1  0.50000000  0.00000000  0.00000000  1
  Mn  Mn14  1  1.00000000  1.00000000  0.50000000  1
  Mn  Mn15  1  0.66666667  0.33333333  0.33333333  1
  Mn  Mn16  1  0.16666667  0.83333333  0.33333333  1
  Mn  Mn17  1  0.66666667  0.83333333  0.33333333  1
  Mn  Mn18  1  0.16666667  0.33333333  0.33333333  1
  Mn  Mn19  1  0.66666667  0.33333333  0.83333333  1
  Mn  Mn20  1  0.33333333  0.66666667  0.66666667  1
  Mn  Mn21  1  0.83333333  0.16666667  0.66666667  1
  Mn  Mn22  1  0.33333333  0.16666667  0.66666667  1
  Mn  Mn23  1  0.83333333  0.66666667  0.66666667  1
  O  O24  1  0.66666667  0.33333333  0.06696833  1
  O  O25  1  0.16632333  0.83367667  0.08339167  1
  O  O26  1  0.66735333  0.83367667  0.08339167  1
  O  O27  1  0.16632333  0.33264667  0.08339167  1
  O  O28  1  0.50034333  0.00068667  0.24994167  1
  O  O29  1  0.99931333  0.49965667  0.24994167  1
  O  O30  1  0.50034333  0.49965667  0.24994167  1
  O  O31  1  0.00000000  0.00000000  0.26636500  1
  O  O32  1  0.33333333  0.66666667  0.40030167  1
  O  O33  1  0.83299000  0.16701000  0.41672500  1
  O  O34  1  0.33402000  0.16701000  0.41672500  1
  O  O35  1  0.83299000  0.66598000  0.41672500  1
  O  O36  1  0.16701000  0.33402000  0.58327500  1
  O  O37  1  0.66598000  0.83299000  0.58327500  1
  O  O38  1  0.16701000  0.83299000  0.58327500  1
  O  O39  1  0.66666667  0.33333333  0.59969833  1
  O  O40  1  0.00000000  0.00000000  0.73363500  1
  O  O41  1  0.49965667  0.50034333  0.75005833  1
  O  O42  1  0.00068667  0.50034333  0.75005833  1
  O  O43  1  0.49965667  0.99931333  0.75005833  1
  O  O44  1  0.83367667  0.66735333  0.91660833  1
  O  O45  1  0.33264667  0.16632333  0.91660833  1
  O  O46  1  0.83367667  0.16632333  0.91660833  1
  O  O47  1  0.33333333  0.66666667  0.93303167  1
