# generated using pymatgen
data_Cr2Te(PO4)3
_symmetry_space_group_name_H-M   'P 1'
_cell_length_a   8.57521009
_cell_length_b   8.57521009
_cell_length_c   22.20290142
_cell_angle_alpha   90.00000000
_cell_angle_beta   90.00000000
_cell_angle_gamma   120.00000000
_symmetry_Int_Tables_number   1
_chemical_formula_structural   Cr2Te(PO4)3
_chemical_formula_sum   'Cr12 Te6 P18 O72'
_cell_volume   1413.93648205
_cell_formula_units_Z   6
loop_
 _symmetry_equiv_pos_site_id
 _symmetry_equiv_pos_as_xyz
  1  'x, y, z'
loop_
 _atom_site_type_symbol
 _atom_site_label
 _atom_site_symmetry_multiplicity
 _atom_site_fract_x
 _atom_site_fract_y
 _atom_site_fract_z
 _atom_site_occupancy
  Cr  Cr0  1  0.66666667  0.33333333  0.18598333  1
  Cr  Cr1  1  0.33333333  0.66666667  0.31401667  1
  Cr  Cr2  1  0.33333333  0.66666667  0.01931667  1
  Cr  Cr3  1  0.00000000  0.00000000  0.14735000  1
  Cr  Cr4  1  0.33333333  0.66666667  0.51931667  1
  Cr  Cr5  1  0.00000000  0.00000000  0.64735000  1
  Cr  Cr6  1  0.00000000  0.00000000  0.35265000  1
  Cr  Cr7  1  0.66666667  0.33333333  0.48068333  1
  Cr  Cr8  1  0.00000000  0.00000000  0.85265000  1
  Cr  Cr9  1  0.66666667  0.33333333  0.98068333  1
  Cr  Cr10  1  0.66666667  0.33333333  0.68598333  1
  Cr  Cr11  1  0.33333333  0.66666667  0.81401667  1
  Te  Te12  1  0.00000000  0.00000000  0.00000000  1
  Te  Te13  1  0.33333333  0.66666667  0.16666667  1
  Te  Te14  1  0.66666667  0.33333333  0.33333333  1
  Te  Te15  1  0.00000000  0.00000000  0.50000000  1
  Te  Te16  1  0.33333333  0.66666667  0.66666667  1
  Te  Te17  1  0.66666667  0.33333333  0.83333333  1
  P  P18  1  0.71229700  0.71229700  0.25000000  1
  P  P19  1  0.28770300  0.00000000  0.25000000  1
  P  P20  1  0.00000000  0.28770300  0.25000000  1
  P  P21  1  0.66666667  0.04563033  0.08333333  1
  P  P22  1  0.37896367  0.33333333  0.08333333  1
  P  P23  1  0.95436967  0.62103633  0.08333333  1
  P  P24  1  0.37896367  0.04563033  0.58333333  1
  P  P25  1  0.95436967  0.33333333  0.58333333  1
  P  P26  1  0.66666667  0.62103633  0.58333333  1
  P  P27  1  0.33333333  0.37896367  0.41666667  1
  P  P28  1  0.04563033  0.66666667  0.41666667  1
  P  P29  1  0.62103633  0.95436967  0.41666667  1
  P  P30  1  0.04563033  0.37896367  0.91666667  1
  P  P31  1  0.62103633  0.66666667  0.91666667  1
  P  P32  1  0.33333333  0.95436967  0.91666667  1
  P  P33  1  0.00000000  0.71229700  0.75000000  1
  P  P34  1  0.71229700  0.00000000  0.75000000  1
  P  P35  1  0.28770300  0.28770300  0.75000000  1
  O  O36  1  0.85421600  0.53855500  0.02518500  1
  O  O37  1  0.68433900  0.14578400  0.02518500  1
  O  O38  1  0.68789967  0.51716433  0.24855033  1
  O  O39  1  0.46144500  0.31566100  0.02518500  1
  O  O40  1  0.51716433  0.68789967  0.25144967  1
  O  O41  1  0.79477833  0.81245067  0.19185167  1
  O  O42  1  0.48283567  0.17073533  0.24855033  1
  O  O43  1  0.31210033  0.82926467  0.25144967  1
  O  O44  1  0.17073533  0.48283567  0.25144967  1
  O  O45  1  0.64899433  0.12811167  0.14148167  1
  O  O46  1  0.83740200  0.02123300  0.08478300  1
  O  O47  1  0.47911733  0.35100567  0.14148167  1
  O  O48  1  0.18754933  0.98232767  0.19185167  1
  O  O49  1  0.82926467  0.31210033  0.24855033  1
  O  O50  1  0.01767233  0.20522167  0.19185167  1
  O  O51  1  0.49593133  0.85049767  0.08188367  1
  O  O52  1  0.35456633  0.50406867  0.08188367  1
  O  O53  1  0.18383100  0.16259800  0.08478300  1
  O  O54  1  0.87188833  0.52088267  0.14148167  1
  O  O55  1  0.14950233  0.64543367  0.08188367  1
  O  O56  1  0.20522167  0.01767233  0.30814833  1
  O  O57  1  0.97876700  0.81616900  0.08478300  1
  O  O58  1  0.98232767  0.18754933  0.30814833  1
  O  O59  1  0.81245067  0.79477833  0.30814833  1
  O  O60  1  0.52088267  0.87188833  0.35851833  1
  O  O61  1  0.35100567  0.47911733  0.35851833  1
  O  O62  1  0.35456633  0.85049767  0.58188367  1
  O  O63  1  0.12811167  0.64899433  0.35851833  1
  O  O64  1  0.18383100  0.02123300  0.58478300  1
  O  O65  1  0.46144500  0.14578400  0.52518500  1
  O  O66  1  0.14950233  0.50406867  0.58188367  1
  O  O67  1  0.97876700  0.16259800  0.58478300  1
  O  O68  1  0.83740200  0.81616900  0.58478300  1
  O  O69  1  0.31566100  0.46144500  0.47481500  1
  O  O70  1  0.50406867  0.35456633  0.41811633  1
  O  O71  1  0.14578400  0.68433900  0.47481500  1
  O  O72  1  0.85421600  0.31566100  0.52518500  1
  O  O73  1  0.49593133  0.64543367  0.58188367  1
  O  O74  1  0.68433900  0.53855500  0.52518500  1
  O  O75  1  0.16259800  0.18383100  0.41521700  1
  O  O76  1  0.02123300  0.83740200  0.41521700  1
  O  O77  1  0.85049767  0.49593133  0.41811633  1
  O  O78  1  0.53855500  0.85421600  0.47481500  1
  O  O79  1  0.81616900  0.97876700  0.41521700  1
  O  O80  1  0.87188833  0.35100567  0.64148167  1
  O  O81  1  0.64543367  0.14950233  0.41811633  1
  O  O82  1  0.64899433  0.52088267  0.64148167  1
  O  O83  1  0.47911733  0.12811167  0.64148167  1
  O  O84  1  0.18754933  0.20522167  0.69185167  1
  O  O85  1  0.01767233  0.81245067  0.69185167  1
  O  O86  1  0.02123300  0.18383100  0.91521700  1
  O  O87  1  0.79477833  0.98232767  0.69185167  1
  O  O88  1  0.85049767  0.35456633  0.91811633  1
  O  O89  1  0.12811167  0.47911733  0.85851833  1
  O  O90  1  0.81616900  0.83740200  0.91521700  1
  O  O91  1  0.64543367  0.49593133  0.91811633  1
  O  O92  1  0.50406867  0.14950233  0.91811633  1
  O  O93  1  0.98232767  0.79477833  0.80814833  1
  O  O94  1  0.17073533  0.68789967  0.75144967  1
  O  O95  1  0.81245067  0.01767233  0.80814833  1
  O  O96  1  0.52088267  0.64899433  0.85851833  1
  O  O97  1  0.16259800  0.97876700  0.91521700  1
  O  O98  1  0.35100567  0.87188833  0.85851833  1
  O  O99  1  0.82926467  0.51716433  0.74855033  1
  O  O100  1  0.68789967  0.17073533  0.74855033  1
  O  O101  1  0.51716433  0.82926467  0.75144967  1
  O  O102  1  0.20522167  0.18754933  0.80814833  1
  O  O103  1  0.48283567  0.31210033  0.74855033  1
  O  O104  1  0.53855500  0.68433900  0.97481500  1
  O  O105  1  0.31210033  0.48283567  0.75144967  1
  O  O106  1  0.31566100  0.85421600  0.97481500  1
  O  O107  1  0.14578400  0.46144500  0.97481500  1
