# generated using pymatgen
data_LiFeF4
_symmetry_space_group_name_H-M   'P 1'
_cell_length_a   5.97656600
_cell_length_b   8.27257800
_cell_length_c   6.31381400
_cell_angle_alpha   90.00000000
_cell_angle_beta   90.00000000
_cell_angle_gamma   90.00000000
_symmetry_Int_Tables_number   1
_chemical_formula_structural   LiFeF4
_chemical_formula_sum   'Li4 Fe4 F16'
_cell_volume   312.16511934
_cell_formula_units_Z   4
loop_
 _symmetry_equiv_pos_site_id
 _symmetry_equiv_pos_as_xyz
  1  'x, y, z'
loop_
 _atom_site_type_symbol
 _atom_site_label
 _atom_site_symmetry_multiplicity
 _atom_site_fract_x
 _atom_site_fract_y
 _atom_site_fract_z
 _atom_site_occupancy
  Li  Li0  1  0.50000000  0.86315100  0.25000000  1
  Li  Li1  1  0.50000000  0.13684900  0.75000000  1
  Li  Li2  1  0.00000000  0.36315100  0.25000000  1
  Li  Li3  1  0.00000000  0.63684900  0.75000000  1
  Fe  Fe4  1  0.00000000  0.00000000  0.00000000  1
  Fe  Fe5  1  0.00000000  0.00000000  0.50000000  1
  Fe  Fe6  1  0.50000000  0.50000000  0.00000000  1
  Fe  Fe7  1  0.50000000  0.50000000  0.50000000  1
  F  F8  1  0.21858400  0.98744900  0.25000000  1
  F  F9  1  0.21858400  0.01255100  0.75000000  1
  F  F10  1  0.50000000  0.72478200  0.01845400  1
  F  F11  1  0.50000000  0.72478200  0.48154600  1
  F  F12  1  0.50000000  0.27521800  0.51845400  1
  F  F13  1  0.50000000  0.27521800  0.98154600  1
  F  F14  1  0.78141600  0.98744900  0.25000000  1
  F  F15  1  0.78141600  0.01255100  0.75000000  1
  F  F16  1  0.71858400  0.48744900  0.25000000  1
  F  F17  1  0.71858400  0.51255100  0.75000000  1
  F  F18  1  0.00000000  0.22478200  0.01845400  1
  F  F19  1  0.00000000  0.22478200  0.48154600  1
  F  F20  1  0.00000000  0.77521800  0.51845400  1
  F  F21  1  0.00000000  0.77521800  0.98154600  1
  F  F22  1  0.28141600  0.48744900  0.25000000  1
  F  F23  1  0.28141600  0.51255100  0.75000000  1
