# generated using pymatgen
data_Na5LiMn2P2(CO7)2
_symmetry_space_group_name_H-M   'P 1'
_cell_length_a   8.98345600
_cell_length_b   6.76685100
_cell_length_c   10.36674061
_cell_angle_alpha   90.00000000
_cell_angle_beta   90.06941769
_cell_angle_gamma   90.00000000
_symmetry_Int_Tables_number   1
_chemical_formula_structural   Na5LiMn2P2(CO7)2
_chemical_formula_sum   'Na10 Li2 Mn4 P4 C4 O28'
_cell_volume   630.19067423
_cell_formula_units_Z   2
loop_
 _symmetry_equiv_pos_site_id
 _symmetry_equiv_pos_as_xyz
  1  'x, y, z'
loop_
 _atom_site_type_symbol
 _atom_site_label
 _atom_site_symmetry_multiplicity
 _atom_site_fract_x
 _atom_site_fract_y
 _atom_site_fract_z
 _atom_site_occupancy
  Na  Na0  1  0.41656700  0.75024100  0.88059600  1
  Na  Na1  1  0.41716300  0.74736500  0.37929200  1
  Na  Na2  1  0.24143200  0.99862600  0.62356500  1
  Na  Na3  1  0.24149000  0.50109100  0.62322800  1
  Na  Na4  1  0.24196400  0.99814000  0.12416200  1
  Na  Na5  1  0.75803600  0.49814000  0.87583800  1
  Na  Na6  1  0.75856800  0.49862600  0.37643500  1
  Na  Na7  1  0.75851000  0.00109100  0.37677200  1
  Na  Na8  1  0.58283700  0.24736500  0.62070800  1
  Na  Na9  1  0.58343300  0.25024100  0.11940400  1
  Li  Li10  1  0.23129200  0.50907100  0.12035100  1
  Li  Li11  1  0.76870800  0.00907100  0.87964900  1
  Mn  Mn12  1  0.13857200  0.25267700  0.89024800  1
  Mn  Mn13  1  0.13826700  0.25061100  0.38843000  1
  Mn  Mn14  1  0.86173300  0.75061100  0.61157000  1
  Mn  Mn15  1  0.86142800  0.75267700  0.10975200  1
  P  P16  1  0.08611900  0.75441700  0.85216300  1
  P  P17  1  0.09012600  0.74682400  0.34949000  1
  P  P18  1  0.90987400  0.24682400  0.65051000  1
  P  P19  1  0.91388100  0.25441700  0.14783700  1
  C  C20  1  0.44351000  0.24509800  0.86887600  1
  C  C21  1  0.43930100  0.25138500  0.36673800  1
  C  C22  1  0.56069900  0.75138500  0.63326200  1
  C  C23  1  0.55649000  0.74509800  0.13112400  1
  O  O24  1  0.41679500  0.75012800  0.64408800  1
  O  O25  1  0.41210800  0.73217600  0.14078900  1
  O  O26  1  0.37981100  0.25177700  0.98141300  1
  O  O27  1  0.37764300  0.24950100  0.48042000  1
  O  O28  1  0.36040900  0.25217800  0.76559700  1
  O  O29  1  0.35504200  0.25407500  0.26420600  1
  O  O30  1  0.18081500  0.93677600  0.89259900  1
  O  O31  1  0.17427600  0.56941600  0.89921100  1
  O  O32  1  0.18115800  0.93327400  0.38868400  1
  O  O33  1  0.18179500  0.56517900  0.39527700  1
  O  O34  1  0.07279800  0.74844700  0.70195200  1
  O  O35  1  0.06808900  0.24941000  0.59101300  1
  O  O36  1  0.07608100  0.73822900  0.19860600  1
  O  O37  1  0.07437500  0.26389000  0.09161600  1
  O  O38  1  0.92562500  0.76389000  0.90838400  1
  O  O39  1  0.92391900  0.23822900  0.80139400  1
  O  O40  1  0.93191100  0.74941000  0.40898700  1
  O  O41  1  0.92720200  0.24844700  0.29804800  1
  O  O42  1  0.81884200  0.43327400  0.61131600  1
  O  O43  1  0.81820500  0.06517900  0.60472300  1
  O  O44  1  0.81918500  0.43677600  0.10740100  1
  O  O45  1  0.82572400  0.06941600  0.10078900  1
  O  O46  1  0.64495800  0.75407500  0.73579400  1
  O  O47  1  0.63959100  0.75217800  0.23440300  1
  O  O48  1  0.62235700  0.74950100  0.51958000  1
  O  O49  1  0.62018900  0.75177700  0.01858700  1
  O  O50  1  0.58789200  0.23217600  0.85921100  1
  O  O51  1  0.58320500  0.25012800  0.35591200  1
