# generated using pymatgen
data_VGa2O5
_symmetry_space_group_name_H-M   'P 1'
_cell_length_a   10.04512516
_cell_length_b   5.05066525
_cell_length_c   6.98867962
_cell_angle_alpha   90.00000000
_cell_angle_beta   110.51709455
_cell_angle_gamma   90.00000000
_symmetry_Int_Tables_number   1
_chemical_formula_structural   VGa2O5
_chemical_formula_sum   'V4 Ga8 O20'
_cell_volume   332.07656424
_cell_formula_units_Z   4
loop_
 _symmetry_equiv_pos_site_id
 _symmetry_equiv_pos_as_xyz
  1  'x, y, z'
loop_
 _atom_site_type_symbol
 _atom_site_label
 _atom_site_symmetry_multiplicity
 _atom_site_fract_x
 _atom_site_fract_y
 _atom_site_fract_z
 _atom_site_occupancy
  V  V0  1  0.50000000  0.50000000  0.50000000  1
  V  V1  1  0.00000000  0.00000000  0.00000000  1
  V  V2  1  0.00000000  0.00000000  0.50000000  1
  V  V3  1  0.50000000  0.50000000  0.00000000  1
  Ga  Ga4  1  0.36379550  0.99680400  0.27189100  1
  Ga  Ga5  1  0.36379550  0.00319600  0.77189100  1
  Ga  Ga6  1  0.13620450  0.49680400  0.22810900  1
  Ga  Ga7  1  0.13620450  0.50319600  0.72810900  1
  Ga  Ga8  1  0.86379550  0.49680400  0.27189100  1
  Ga  Ga9  1  0.86379550  0.50319600  0.77189100  1
  Ga  Ga10  1  0.63620450  0.99680400  0.22810900  1
  Ga  Ga11  1  0.63620450  0.00319600  0.72810900  1
  O  O12  1  0.00000000  0.79854450  0.25000000  1
  O  O13  1  0.50000000  0.70145550  0.75000000  1
  O  O14  1  0.41170550  0.83410750  0.04605300  1
  O  O15  1  0.41170550  0.16589250  0.54605300  1
  O  O16  1  0.08829450  0.33410750  0.45394700  1
  O  O17  1  0.08829450  0.66589250  0.95394700  1
  O  O18  1  0.31874750  0.64904300  0.35308150  1
  O  O19  1  0.18125250  0.14904300  0.14691850  1
  O  O20  1  0.31874750  0.35095700  0.85308150  1
  O  O21  1  0.18125250  0.85095700  0.64691850  1
  O  O22  1  0.50000000  0.29854450  0.25000000  1
  O  O23  1  0.00000000  0.20145550  0.75000000  1
  O  O24  1  0.91170550  0.33410750  0.04605300  1
  O  O25  1  0.91170550  0.66589250  0.54605300  1
  O  O26  1  0.58829450  0.83410750  0.45394700  1
  O  O27  1  0.58829450  0.16589250  0.95394700  1
  O  O28  1  0.81874750  0.14904300  0.35308150  1
  O  O29  1  0.68125250  0.64904300  0.14691850  1
  O  O30  1  0.81874750  0.85095700  0.85308150  1
  O  O31  1  0.68125250  0.35095700  0.64691850  1
