# generated using pymatgen
data_Ti3NbFe2(PO4)6
_symmetry_space_group_name_H-M   'P 1'
_cell_length_a   8.78544265
_cell_length_b   8.78544265
_cell_length_c   20.90887605
_cell_angle_alpha   90.00000000
_cell_angle_beta   90.00000000
_cell_angle_gamma   120.00000000
_symmetry_Int_Tables_number   1
_chemical_formula_structural   Ti3NbFe2(PO4)6
_chemical_formula_sum   'Ti9 Nb3 Fe6 P18 O72'
_cell_volume   1397.61842015
_cell_formula_units_Z   3
loop_
 _symmetry_equiv_pos_site_id
 _symmetry_equiv_pos_as_xyz
  1  'x, y, z'
loop_
 _atom_site_type_symbol
 _atom_site_label
 _atom_site_symmetry_multiplicity
 _atom_site_fract_x
 _atom_site_fract_y
 _atom_site_fract_z
 _atom_site_occupancy
  Ti  Ti0  1  0.33333333  0.66666667  0.52259067  1
  Ti  Ti1  1  0.33333333  0.66666667  0.31051467  1
  Ti  Ti2  1  0.33333333  0.66666667  0.02264167  1
  Ti  Ti3  1  0.00000000  0.00000000  0.85592400  1
  Ti  Ti4  1  0.00000000  0.00000000  0.64384800  1
  Ti  Ti5  1  0.00000000  0.00000000  0.35597500  1
  Ti  Ti6  1  0.66666667  0.33333333  0.18925733  1
  Ti  Ti7  1  0.66666667  0.33333333  0.97718133  1
  Ti  Ti8  1  0.66666667  0.33333333  0.68930833  1
  Nb  Nb9  1  0.33333333  0.66666667  0.80948467  1
  Nb  Nb10  1  0.00000000  0.00000000  0.14281800  1
  Nb  Nb11  1  0.66666667  0.33333333  0.47615133  1
  Fe  Fe12  1  0.33333333  0.66666667  0.66409167  1
  Fe  Fe13  1  0.33333333  0.66666667  0.16678067  1
  Fe  Fe14  1  0.00000000  0.00000000  0.99742500  1
  Fe  Fe15  1  0.00000000  0.00000000  0.50011400  1
  Fe  Fe16  1  0.66666667  0.33333333  0.33075833  1
  Fe  Fe17  1  0.66666667  0.33333333  0.83344733  1
  P  P18  1  0.00017800  0.70308300  0.25124700  1
  P  P19  1  0.70290500  0.99982200  0.25124700  1
  P  P20  1  0.37800267  0.03978433  0.08316433  1
  P  P21  1  0.96021567  0.33821833  0.08316433  1
  P  P22  1  0.66178167  0.62199733  0.08316433  1
  P  P23  1  0.29691700  0.29709500  0.25124700  1
  P  P24  1  0.66684467  0.03641633  0.58458033  1
  P  P25  1  0.36957167  0.33315533  0.58458033  1
  P  P26  1  0.04466933  0.37311767  0.41649767  1
  P  P27  1  0.62688233  0.67155167  0.41649767  1
  P  P28  1  0.32844833  0.95533067  0.41649767  1
  P  P29  1  0.96358367  0.63042833  0.58458033  1
  P  P30  1  0.33351133  0.36974967  0.91791367  1
  P  P31  1  0.03623833  0.66648867  0.91791367  1
  P  P32  1  0.71133600  0.70645100  0.74983100  1
  P  P33  1  0.29354900  0.00488500  0.74983100  1
  P  P34  1  0.99511500  0.28866400  0.74983100  1
  P  P35  1  0.63025033  0.96376167  0.91791367  1
  O  O36  1  0.32573367  0.85483833  0.35610133  1
  O  O37  1  0.14516167  0.47089533  0.35610133  1
  O  O38  1  0.83433167  0.51719733  0.25742733  1
  O  O39  1  0.52910467  0.67426633  0.35610133  1
  O  O40  1  0.99564933  0.79790567  0.18950067  1
  O  O41  1  0.16565833  0.68285067  0.24387067  1
  O  O42  1  0.68286567  0.16566833  0.25742733  1
  O  O43  1  0.51719233  0.83434167  0.24387067  1
  O  O44  1  0.47230400  0.14136400  0.14404900  1
  O  O45  1  0.31714933  0.48280767  0.24387067  1
  O  O46  1  0.18993600  0.01824500  0.07554700  1
  O  O47  1  0.85863600  0.33094000  0.14404900  1
  O  O48  1  0.80225633  0.00435067  0.18950067  1
  O  O49  1  0.48280267  0.31713433  0.25742733  1
  O  O50  1  0.35457400  0.85261700  0.09011600  1
  O  O51  1  0.20209433  0.19774367  0.18950067  1
  O  O52  1  0.14738300  0.50195700  0.09011600  1
  O  O53  1  0.98175500  0.17169100  0.07554700  1
  O  O54  1  0.49804300  0.64542600  0.09011600  1
  O  O55  1  0.66906000  0.52769600  0.14404900  1
  O  O56  1  0.13838533  0.66318767  0.97694267  1
  O  O57  1  0.82830900  0.81006400  0.07554700  1
  O  O58  1  0.52480233  0.86161467  0.97694267  1
  O  O59  1  0.33681233  0.47519767  0.97694267  1
  O  O60  1  0.99240033  0.18817167  0.68943467  1
  O  O61  1  0.81182833  0.80422867  0.68943467  1
  O  O62  1  0.50099833  0.85053067  0.59076067  1
  O  O63  1  0.19577133  0.00759967  0.68943467  1
  O  O64  1  0.66231600  0.13123900  0.52283400  1
  O  O65  1  0.83232500  0.01618400  0.57720400  1
  O  O66  1  0.34953233  0.49900167  0.59076067  1
  O  O67  1  0.18385900  0.16767500  0.57720400  1
  O  O68  1  0.13897067  0.47469733  0.47738233  1
  O  O69  1  0.98381600  0.81614100  0.57720400  1
  O  O70  1  0.85660267  0.35157833  0.40888033  1
  O  O71  1  0.52530267  0.66427333  0.47738233  1
  O  O72  1  0.46892300  0.33768400  0.52283400  1
  O  O73  1  0.14946933  0.65046767  0.59076067  1
  O  O74  1  0.02124067  0.18595033  0.42344933  1
  O  O75  1  0.86876100  0.53107700  0.52283400  1
  O  O76  1  0.81404967  0.83529033  0.42344933  1
  O  O77  1  0.64842167  0.50502433  0.40888033  1
  O  O78  1  0.16470967  0.97875933  0.42344933  1
  O  O79  1  0.33572667  0.86102933  0.47738233  1
  O  O80  1  0.80505200  0.99652100  0.31027600  1
  O  O81  1  0.49497567  0.14339733  0.40888033  1
  O  O82  1  0.19146900  0.19494800  0.31027600  1
  O  O83  1  0.00347900  0.80853100  0.31027600  1
  O  O84  1  0.65906700  0.52150500  0.02276800  1
  O  O85  1  0.47849500  0.13756200  0.02276800  1
  O  O86  1  0.16766500  0.18386400  0.92409400  1
  O  O87  1  0.86243800  0.34093300  0.02276800  1
  O  O88  1  0.32898267  0.46457233  0.85616733  1
  O  O89  1  0.49899167  0.34951733  0.91053733  1
  O  O90  1  0.01619900  0.83233500  0.92409400  1
  O  O91  1  0.85052567  0.50100833  0.91053733  1
  O  O92  1  0.80563733  0.80803067  0.81071567  1
  O  O93  1  0.65048267  0.14947433  0.91053733  1
  O  O94  1  0.52326933  0.68491167  0.74221367  1
  O  O95  1  0.19196933  0.99760667  0.81071567  1
  O  O96  1  0.13558967  0.67101733  0.85616733  1
  O  O97  1  0.81613600  0.98380100  0.92409400  1
  O  O98  1  0.68790733  0.51928367  0.75678267  1
  O  O99  1  0.53542767  0.86441033  0.85616733  1
  O  O100  1  0.48071633  0.16862367  0.75678267  1
  O  O101  1  0.31508833  0.83835767  0.74221367  1
  O  O102  1  0.83137633  0.31209267  0.75678267  1
  O  O103  1  0.00239333  0.19436267  0.81071567  1
  O  O104  1  0.47171867  0.32985433  0.64360933  1
  O  O105  1  0.16164233  0.47673067  0.74221367  1
  O  O106  1  0.85813567  0.52828133  0.64360933  1
  O  O107  1  0.67014567  0.14186433  0.64360933  1
