# generated using pymatgen
data_Li3Mn(PO4)2
_symmetry_space_group_name_H-M   'P 1'
_cell_length_a   8.98228110
_cell_length_b   4.72730909
_cell_length_c   13.87015770
_cell_angle_alpha   90.00000000
_cell_angle_beta   99.62128422
_cell_angle_gamma   90.00000000
_symmetry_Int_Tables_number   1
_chemical_formula_structural   Li3Mn(PO4)2
_chemical_formula_sum   'Li12 Mn4 P8 O32'
_cell_volume   580.67067202
_cell_formula_units_Z   4
loop_
 _symmetry_equiv_pos_site_id
 _symmetry_equiv_pos_as_xyz
  1  'x, y, z'
loop_
 _atom_site_type_symbol
 _atom_site_label
 _atom_site_symmetry_multiplicity
 _atom_site_fract_x
 _atom_site_fract_y
 _atom_site_fract_z
 _atom_site_occupancy
  Li  Li0  1  0.50000000  0.51545825  0.25000000  1
  Li  Li1  1  0.50000000  0.48454175  0.75000000  1
  Li  Li2  1  0.33276550  0.00786200  0.33640950  1
  Li  Li3  1  0.33276550  0.99213800  0.83640950  1
  Li  Li4  1  0.16723450  0.50786200  0.16359050  1
  Li  Li5  1  0.16723450  0.49213800  0.66359050  1
  Li  Li6  1  0.00000000  0.01545825  0.25000000  1
  Li  Li7  1  0.00000000  0.98454175  0.75000000  1
  Li  Li8  1  0.83276550  0.50786200  0.33640950  1
  Li  Li9  1  0.83276550  0.49213800  0.83640950  1
  Li  Li10  1  0.66723450  0.00786200  0.16359050  1
  Li  Li11  1  0.66723450  0.99213800  0.66359050  1
  Mn  Mn12  1  0.50000000  0.50000000  0.50000000  1
  Mn  Mn13  1  0.50000000  0.50000000  0.00000000  1
  Mn  Mn14  1  0.00000000  0.00000000  0.50000000  1
  Mn  Mn15  1  0.00000000  0.00000000  0.00000000  1
  P  P16  1  0.34334000  0.99486800  0.11681250  1
  P  P17  1  0.34334000  0.00513200  0.61681250  1
  P  P18  1  0.15666000  0.49486800  0.38318750  1
  P  P19  1  0.15666000  0.50513200  0.88318750  1
  P  P20  1  0.84334000  0.49486800  0.11681250  1
  P  P21  1  0.84334000  0.50513200  0.61681250  1
  P  P22  1  0.65666000  0.99486800  0.38318750  1
  P  P23  1  0.65666000  0.00513200  0.88318750  1
  O  O24  1  0.46123950  0.23575450  0.14077950  1
  O  O25  1  0.46123950  0.76424550  0.64077950  1
  O  O26  1  0.03876050  0.73575450  0.35922050  1
  O  O27  1  0.03876050  0.26424550  0.85922050  1
  O  O28  1  0.39025200  0.81985900  0.03257950  1
  O  O29  1  0.39025200  0.18014100  0.53257950  1
  O  O30  1  0.10974800  0.31985900  0.46742050  1
  O  O31  1  0.10974800  0.68014100  0.96742050  1
  O  O32  1  0.33295750  0.80260400  0.20574550  1
  O  O33  1  0.33295750  0.19739600  0.70574550  1
  O  O34  1  0.16704250  0.30260400  0.29425450  1
  O  O35  1  0.16704250  0.69739600  0.79425450  1
  O  O36  1  0.31489975  0.64033625  0.41603950  1
  O  O37  1  0.31489975  0.35966375  0.91603950  1
  O  O38  1  0.18510025  0.14033625  0.08396050  1
  O  O39  1  0.18510025  0.85966375  0.58396050  1
  O  O40  1  0.96123950  0.73575450  0.14077950  1
  O  O41  1  0.96123950  0.26424550  0.64077950  1
  O  O42  1  0.53876050  0.23575450  0.35922050  1
  O  O43  1  0.53876050  0.76424550  0.85922050  1
  O  O44  1  0.89025200  0.31985900  0.03257950  1
  O  O45  1  0.89025200  0.68014100  0.53257950  1
  O  O46  1  0.60974800  0.81985900  0.46742050  1
  O  O47  1  0.60974800  0.18014100  0.96742050  1
  O  O48  1  0.83295750  0.30260400  0.20574550  1
  O  O49  1  0.83295750  0.69739600  0.70574550  1
  O  O50  1  0.66704250  0.80260400  0.29425450  1
  O  O51  1  0.66704250  0.19739600  0.79425450  1
  O  O52  1  0.81489975  0.14033625  0.41603950  1
  O  O53  1  0.81489975  0.85966375  0.91603950  1
  O  O54  1  0.68510025  0.64033625  0.08396050  1
  O  O55  1  0.68510025  0.35966375  0.58396050  1
