# generated using pymatgen
data_LiV4(PO4)3
_symmetry_space_group_name_H-M   'P 1'
_cell_length_a   6.82829600
_cell_length_b   6.82829600
_cell_length_c   19.15863000
_cell_angle_alpha   90.00000000
_cell_angle_beta   90.00000000
_cell_angle_gamma   90.00000000
_symmetry_Int_Tables_number   1
_chemical_formula_structural   LiV4(PO4)3
_chemical_formula_sum   'Li4 V16 P12 O48'
_cell_volume   893.28312210
_cell_formula_units_Z   4
loop_
 _symmetry_equiv_pos_site_id
 _symmetry_equiv_pos_as_xyz
  1  'x, y, z'
loop_
 _atom_site_type_symbol
 _atom_site_label
 _atom_site_symmetry_multiplicity
 _atom_site_fract_x
 _atom_site_fract_y
 _atom_site_fract_z
 _atom_site_occupancy
  Li  Li0  1  0.50000000  0.00000000  0.25000000  1
  Li  Li1  1  0.50000000  0.50000000  0.00000000  1
  Li  Li2  1  0.00000000  0.50000000  0.75000000  1
  Li  Li3  1  0.00000000  0.00000000  0.50000000  1
  V  V4  1  0.24500600  0.25000000  0.12500000  1
  V  V5  1  0.50000000  0.50000000  0.27293800  1
  V  V6  1  0.75000000  0.25499400  0.37500000  1
  V  V7  1  0.75499400  0.75000000  0.12500000  1
  V  V8  1  0.00000000  0.00000000  0.22706200  1
  V  V9  1  0.00000000  0.50000000  0.47706200  1
  V  V10  1  0.00000000  0.50000000  0.02293800  1
  V  V11  1  0.25000000  0.74500600  0.37500000  1
  V  V12  1  0.74500600  0.75000000  0.62500000  1
  V  V13  1  0.00000000  0.00000000  0.77293800  1
  V  V14  1  0.25000000  0.75499400  0.87500000  1
  V  V15  1  0.25499400  0.25000000  0.62500000  1
  V  V16  1  0.50000000  0.50000000  0.72706200  1
  V  V17  1  0.50000000  0.00000000  0.97706200  1
  V  V18  1  0.50000000  0.00000000  0.52293800  1
  V  V19  1  0.75000000  0.24500600  0.87500000  1
  P  P20  1  0.00000000  0.00000000  0.00000000  1
  P  P21  1  0.35259900  0.75000000  0.12500000  1
  P  P22  1  0.64740100  0.25000000  0.12500000  1
  P  P23  1  0.75000000  0.85259900  0.37500000  1
  P  P24  1  0.00000000  0.50000000  0.25000000  1
  P  P25  1  0.25000000  0.14740100  0.37500000  1
  P  P26  1  0.50000000  0.50000000  0.50000000  1
  P  P27  1  0.85259900  0.25000000  0.62500000  1
  P  P28  1  0.14740100  0.75000000  0.62500000  1
  P  P29  1  0.25000000  0.35259900  0.87500000  1
  P  P30  1  0.50000000  0.00000000  0.75000000  1
  P  P31  1  0.75000000  0.64740100  0.87500000  1
  O  O32  1  0.04708000  0.18867600  0.04239600  1
  O  O33  1  0.23565650  0.56416950  0.10514150  1
  O  O34  1  0.23565650  0.93583050  0.14485850  1
  O  O35  1  0.43583050  0.26434350  0.35514150  1
  O  O36  1  0.50469900  0.21610900  0.06078400  1
  O  O37  1  0.50469900  0.28389100  0.18921600  1
  O  O38  1  0.49530100  0.71610900  0.18921600  1
  O  O39  1  0.49530100  0.78389100  0.06078400  1
  O  O40  1  0.56416950  0.73565650  0.35514150  1
  O  O41  1  0.68867600  0.45292000  0.45760400  1
  O  O42  1  0.71610900  0.99530100  0.43921600  1
  O  O43  1  0.76434350  0.06416950  0.14485850  1
  O  O44  1  0.76434350  0.43583050  0.10514150  1
  O  O45  1  0.78389100  0.99530100  0.31078400  1
  O  O46  1  0.81132400  0.45292000  0.29239600  1
  O  O47  1  0.95292000  0.68867600  0.20760400  1
  O  O48  1  0.95292000  0.81132400  0.04239600  1
  O  O49  1  0.93583050  0.73565650  0.39485850  1
  O  O50  1  0.06416950  0.26434350  0.39485850  1
  O  O51  1  0.04708000  0.31132400  0.20760400  1
  O  O52  1  0.18867600  0.54708000  0.29239600  1
  O  O53  1  0.21610900  0.00469900  0.31078400  1
  O  O54  1  0.28389100  0.00469900  0.43921600  1
  O  O55  1  0.31132400  0.54708000  0.45760400  1
  O  O56  1  0.54708000  0.68867600  0.54239600  1
  O  O57  1  0.73565650  0.06416950  0.60514150  1
  O  O58  1  0.73565650  0.43583050  0.64485850  1
  O  O59  1  0.93583050  0.76434350  0.85514150  1
  O  O60  1  0.00469900  0.71610900  0.56078400  1
  O  O61  1  0.00469900  0.78389100  0.68921600  1
  O  O62  1  0.99530100  0.21610900  0.68921600  1
  O  O63  1  0.99530100  0.28389100  0.56078400  1
  O  O64  1  0.06416950  0.23565650  0.85514150  1
  O  O65  1  0.18867600  0.95292000  0.95760400  1
  O  O66  1  0.21610900  0.49530100  0.93921600  1
  O  O67  1  0.26434350  0.56416950  0.64485850  1
  O  O68  1  0.26434350  0.93583050  0.60514150  1
  O  O69  1  0.28389100  0.49530100  0.81078400  1
  O  O70  1  0.31132400  0.95292000  0.79239600  1
  O  O71  1  0.45292000  0.18867600  0.70760400  1
  O  O72  1  0.45292000  0.31132400  0.54239600  1
  O  O73  1  0.43583050  0.23565650  0.89485850  1
  O  O74  1  0.56416950  0.76434350  0.89485850  1
  O  O75  1  0.54708000  0.81132400  0.70760400  1
  O  O76  1  0.68867600  0.04708000  0.79239600  1
  O  O77  1  0.71610900  0.50469900  0.81078400  1
  O  O78  1  0.78389100  0.50469900  0.93921600  1
  O  O79  1  0.81132400  0.04708000  0.95760400  1
