# generated using pymatgen
data_Li3Mn3O8
_symmetry_space_group_name_H-M   'P 1'
_cell_length_a   11.77307000
_cell_length_b   11.81680200
_cell_length_c   8.30310529
_cell_angle_alpha   90.00000000
_cell_angle_beta   91.34665778
_cell_angle_gamma   90.00000000
_symmetry_Int_Tables_number   1
_chemical_formula_structural   Li3Mn3O8
_chemical_formula_sum   'Li24 Mn24 O64'
_cell_volume   1154.80927358
_cell_formula_units_Z   8
loop_
 _symmetry_equiv_pos_site_id
 _symmetry_equiv_pos_as_xyz
  1  'x, y, z'
loop_
 _atom_site_type_symbol
 _atom_site_label
 _atom_site_symmetry_multiplicity
 _atom_site_fract_x
 _atom_site_fract_y
 _atom_site_fract_z
 _atom_site_occupancy
  Li  Li0  1  0.50000000  0.75182500  0.50000000  1
  Li  Li1  1  0.20673750  0.98503950  0.49563400  1
  Li  Li2  1  0.38890000  0.99746800  0.35951200  1
  Li  Li3  1  0.41049850  0.40890750  0.27293100  1
  Li  Li4  1  0.37525500  0.75397400  0.13054000  1
  Li  Li5  1  0.37405750  0.23936550  0.10998200  1
  Li  Li6  1  0.50000000  0.99945600  0.00000000  1
  Li  Li7  1  0.62594250  0.23936550  0.89001800  1
  Li  Li8  1  0.62474500  0.75397400  0.86946000  1
  Li  Li9  1  0.58950150  0.40890750  0.72706900  1
  Li  Li10  1  0.61110000  0.99746800  0.64048800  1
  Li  Li11  1  0.79326250  0.98503950  0.50436600  1
  Li  Li12  1  0.00000000  0.25182500  0.50000000  1
  Li  Li13  1  0.70673750  0.48503950  0.49563400  1
  Li  Li14  1  0.88890000  0.49746800  0.35951200  1
  Li  Li15  1  0.91049850  0.90890750  0.27293100  1
  Li  Li16  1  0.87525500  0.25397400  0.13054000  1
  Li  Li17  1  0.87405750  0.73936550  0.10998200  1
  Li  Li18  1  0.00000000  0.49945600  0.00000000  1
  Li  Li19  1  0.12594250  0.73936550  0.89001800  1
  Li  Li20  1  0.12474500  0.25397400  0.86946000  1
  Li  Li21  1  0.08950150  0.90890750  0.72706900  1
  Li  Li22  1  0.11110000  0.49746800  0.64048800  1
  Li  Li23  1  0.29326250  0.48503950  0.50436600  1
  Mn  Mn24  1  0.50000000  0.24000500  0.50000000  1
  Mn  Mn25  1  0.25362800  0.24818400  0.49737700  1
  Mn  Mn26  1  0.62786200  0.12323700  0.25244200  1
  Mn  Mn27  1  0.63119350  0.87662350  0.24747000  1
  Mn  Mn28  1  0.62833850  0.63257450  0.24094300  1
  Mn  Mn29  1  0.75344250  0.00105850  0.00364800  1
  Mn  Mn30  1  0.50000000  0.50484800  0.00000000  1
  Mn  Mn31  1  0.24655750  0.00105850  0.99635200  1
  Mn  Mn32  1  0.37166150  0.63257450  0.75905700  1
  Mn  Mn33  1  0.36880650  0.87662350  0.75253000  1
  Mn  Mn34  1  0.37213800  0.12323700  0.74755800  1
  Mn  Mn35  1  0.74637200  0.24818400  0.50262300  1
  Mn  Mn36  1  0.00000000  0.74000500  0.50000000  1
  Mn  Mn37  1  0.75362800  0.74818400  0.49737700  1
  Mn  Mn38  1  0.12786200  0.62323700  0.25244200  1
  Mn  Mn39  1  0.13119350  0.37662350  0.24747000  1
  Mn  Mn40  1  0.12833850  0.13257450  0.24094300  1
  Mn  Mn41  1  0.25344250  0.50105850  0.00364800  1
  Mn  Mn42  1  0.00000000  0.00484800  0.00000000  1
  Mn  Mn43  1  0.74655750  0.50105850  0.99635200  1
  Mn  Mn44  1  0.87166150  0.13257450  0.75905700  1
  Mn  Mn45  1  0.86880650  0.37662350  0.75253000  1
  Mn  Mn46  1  0.87213800  0.62323700  0.74755800  1
  Mn  Mn47  1  0.24637200  0.74818400  0.50262300  1
  O  O48  1  0.38175050  0.34724150  0.48365200  1
  O  O49  1  0.62696550  0.13082650  0.49009400  1
  O  O50  1  0.64994250  0.87022150  0.48286600  1
  O  O51  1  0.13929300  0.13480600  0.46704400  1
  O  O52  1  0.74575650  0.23315650  0.28055300  1
  O  O53  1  0.50576950  0.22705650  0.26944600  1
  O  O54  1  0.74277200  0.75204300  0.25842500  1
  O  O55  1  0.52677700  0.99592900  0.24977800  1
  O  O56  1  0.52522950  0.75750650  0.24343000  1
  O  O57  1  0.74425750  0.99942250  0.24451500  1
  O  O58  1  0.51414150  0.52388650  0.22520700  1
  O  O59  1  0.24666050  0.01715450  0.22255700  1
  O  O60  1  0.63781150  0.11465750  0.02837100  1
  O  O61  1  0.64382400  0.88582900  0.01751300  1
  O  O62  1  0.88197400  0.90050300  0.02849600  1
  O  O63  1  0.12568200  0.11612700  0.00522600  1
  O  O64  1  0.87431800  0.11612700  0.99477400  1
  O  O65  1  0.11802600  0.90050300  0.97150400  1
  O  O66  1  0.35617600  0.88582900  0.98248700  1
  O  O67  1  0.36218850  0.11465750  0.97162900  1
  O  O68  1  0.75333950  0.01715450  0.77744300  1
  O  O69  1  0.48585850  0.52388650  0.77479300  1
  O  O70  1  0.25574250  0.99942250  0.75548500  1
  O  O71  1  0.47477050  0.75750650  0.75657000  1
  O  O72  1  0.47322300  0.99592900  0.75022200  1
  O  O73  1  0.25722800  0.75204300  0.74157500  1
  O  O74  1  0.49423050  0.22705650  0.73055400  1
  O  O75  1  0.25424350  0.23315650  0.71944700  1
  O  O76  1  0.86070700  0.13480600  0.53295600  1
  O  O77  1  0.35005750  0.87022150  0.51713400  1
  O  O78  1  0.37303450  0.13082650  0.50990600  1
  O  O79  1  0.61824950  0.34724150  0.51634800  1
  O  O80  1  0.88175050  0.84724150  0.48365200  1
  O  O81  1  0.12696550  0.63082650  0.49009400  1
  O  O82  1  0.14994250  0.37022150  0.48286600  1
  O  O83  1  0.63929300  0.63480600  0.46704400  1
  O  O84  1  0.24575650  0.73315650  0.28055300  1
  O  O85  1  0.00576950  0.72705650  0.26944600  1
  O  O86  1  0.24277200  0.25204300  0.25842500  1
  O  O87  1  0.02677700  0.49592900  0.24977800  1
  O  O88  1  0.02522950  0.25750650  0.24343000  1
  O  O89  1  0.24425750  0.49942250  0.24451500  1
  O  O90  1  0.01414150  0.02388650  0.22520700  1
  O  O91  1  0.74666050  0.51715450  0.22255700  1
  O  O92  1  0.13781150  0.61465750  0.02837100  1
  O  O93  1  0.14382400  0.38582900  0.01751300  1
  O  O94  1  0.38197400  0.40050300  0.02849600  1
  O  O95  1  0.62568200  0.61612700  0.00522600  1
  O  O96  1  0.37431800  0.61612700  0.99477400  1
  O  O97  1  0.61802600  0.40050300  0.97150400  1
  O  O98  1  0.85617600  0.38582900  0.98248700  1
  O  O99  1  0.86218850  0.61465750  0.97162900  1
  O  O100  1  0.25333950  0.51715450  0.77744300  1
  O  O101  1  0.98585850  0.02388650  0.77479300  1
  O  O102  1  0.75574250  0.49942250  0.75548500  1
  O  O103  1  0.97477050  0.25750650  0.75657000  1
  O  O104  1  0.97322300  0.49592900  0.75022200  1
  O  O105  1  0.75722800  0.25204300  0.74157500  1
  O  O106  1  0.99423050  0.72705650  0.73055400  1
  O  O107  1  0.75424350  0.73315650  0.71944700  1
  O  O108  1  0.36070700  0.63480600  0.53295600  1
  O  O109  1  0.85005750  0.37022150  0.51713400  1
  O  O110  1  0.87303450  0.63082650  0.50990600  1
  O  O111  1  0.11824950  0.84724150  0.51634800  1
