# generated using pymatgen
data_Li3VSi2O7
_symmetry_space_group_name_H-M   'P 1'
_cell_length_a   8.62937400
_cell_length_b   13.08343300
_cell_length_c   8.64258461
_cell_angle_alpha   90.00000000
_cell_angle_beta   119.85961890
_cell_angle_gamma   90.00000000
_symmetry_Int_Tables_number   1
_chemical_formula_structural   Li3VSi2O7
_chemical_formula_sum   'Li18 V6 Si12 O42'
_cell_volume   846.22895821
_cell_formula_units_Z   6
loop_
 _symmetry_equiv_pos_site_id
 _symmetry_equiv_pos_as_xyz
  1  'x, y, z'
loop_
 _atom_site_type_symbol
 _atom_site_label
 _atom_site_symmetry_multiplicity
 _atom_site_fract_x
 _atom_site_fract_y
 _atom_site_fract_z
 _atom_site_occupancy
  Li  Li0  1  0.02153000  0.10349700  0.68890900  1
  Li  Li1  1  0.02120600  0.43335100  0.69006200  1
  Li  Li2  1  0.33092700  0.78186700  0.66502600  1
  Li  Li3  1  0.33147100  0.26569800  0.66592900  1
  Li  Li4  1  0.99773000  0.53719500  0.99757000  1
  Li  Li5  1  0.00227000  0.03719500  0.00243000  1
  Li  Li6  1  0.30809900  0.43449600  0.33129200  1
  Li  Li7  1  0.30849000  0.10141200  0.33270400  1
  Li  Li8  1  0.66367600  0.10211100  0.97314000  1
  Li  Li9  1  0.66620000  0.43392500  0.97408300  1
  Li  Li10  1  0.33380000  0.93392500  0.02591700  1
  Li  Li11  1  0.33632400  0.60211100  0.02686000  1
  Li  Li12  1  0.69151000  0.60141200  0.66729600  1
  Li  Li13  1  0.69190100  0.93449600  0.66870800  1
  Li  Li14  1  0.66852900  0.76569800  0.33407100  1
  Li  Li15  1  0.66907300  0.28186700  0.33497400  1
  Li  Li16  1  0.97879400  0.93335100  0.30993800  1
  Li  Li17  1  0.97847000  0.60349700  0.31109100  1
  V  V18  1  0.00220100  0.76870700  0.99786800  1
  V  V19  1  0.99779900  0.26870700  0.00213200  1
  V  V20  1  0.33152700  0.49053400  0.66549700  1
  V  V21  1  0.33139500  0.04405600  0.66530000  1
  V  V22  1  0.66860500  0.54405600  0.33470000  1
  V  V23  1  0.66847300  0.99053400  0.33450300  1
  Si  Si24  1  0.02336700  0.65478100  0.67223800  1
  Si  Si25  1  0.02051400  0.87986100  0.67115200  1
  Si  Si26  1  0.32562400  0.87925500  0.34887200  1
  Si  Si27  1  0.32428700  0.65480400  0.35075100  1
  Si  Si28  1  0.64862900  0.87925400  0.97447600  1
  Si  Si29  1  0.64718000  0.65529300  0.97168100  1
  Si  Si30  1  0.35282000  0.15529300  0.02831900  1
  Si  Si31  1  0.35137100  0.37925400  0.02552400  1
  Si  Si32  1  0.67571300  0.15480400  0.64924900  1
  Si  Si33  1  0.67437600  0.37925500  0.65112800  1
  Si  Si34  1  0.97948600  0.37986100  0.32884800  1
  Si  Si35  1  0.97663300  0.15478100  0.32776200  1
  O  O36  1  0.13095100  0.15842500  0.92899400  1
  O  O37  1  0.13031200  0.37372300  0.92502600  1
  O  O38  1  0.12550000  0.76760200  0.69348900  1
  O  O39  1  0.18513600  0.96312900  0.75440500  1
  O  O40  1  0.18580600  0.57076300  0.75633800  1
  O  O41  1  0.11678800  0.39458800  0.53772600  1
  O  O42  1  0.11679100  0.14002200  0.53574500  1
  O  O43  1  0.06833700  0.15727200  0.20193900  1
  O  O44  1  0.41620900  0.14036200  0.87925800  1
  O  O45  1  0.07293100  0.37456400  0.20535400  1
  O  O46  1  0.41808700  0.39495200  0.87978000  1
  O  O47  1  0.24210800  0.96317900  0.42970800  1
  O  O48  1  0.24057900  0.57046800  0.42957300  1
  O  O49  1  0.30360300  0.76737000  0.43229300  1
  O  O50  1  0.20139500  0.65743700  0.13326400  1
  O  O51  1  0.56334500  0.76743900  0.86963900  1
  O  O52  1  0.20477300  0.87395200  0.13224900  1
  O  O53  1  0.56820400  0.57049400  0.81023200  1
  O  O54  1  0.56702300  0.96334500  0.81123500  1
  O  O55  1  0.45990100  0.39489200  0.57887700  1
  O  O56  1  0.46105700  0.13948500  0.57987900  1
  O  O57  1  0.53894300  0.63948500  0.42012100  1
  O  O58  1  0.54009900  0.89489200  0.42112300  1
  O  O59  1  0.43297700  0.46334500  0.18876500  1
  O  O60  1  0.43179600  0.07049400  0.18976800  1
  O  O61  1  0.79522700  0.37395200  0.86775100  1
  O  O62  1  0.43665500  0.26743900  0.13036100  1
  O  O63  1  0.79860500  0.15743700  0.86673600  1
  O  O64  1  0.69639700  0.26737000  0.56770700  1
  O  O65  1  0.75942100  0.07046800  0.57042700  1
  O  O66  1  0.75789200  0.46317900  0.57029200  1
  O  O67  1  0.58191300  0.89495200  0.12022000  1
  O  O68  1  0.92706900  0.87456400  0.79464600  1
  O  O69  1  0.58379100  0.64036200  0.12074200  1
  O  O70  1  0.93166300  0.65727200  0.79806100  1
  O  O71  1  0.88320900  0.64002200  0.46425500  1
  O  O72  1  0.88321200  0.89458800  0.46227400  1
  O  O73  1  0.81419400  0.07076300  0.24366200  1
  O  O74  1  0.81486400  0.46312900  0.24559500  1
  O  O75  1  0.87450000  0.26760200  0.30651100  1
  O  O76  1  0.86968800  0.87372300  0.07497400  1
  O  O77  1  0.86904900  0.65842500  0.07100600  1
