# generated using pymatgen
data_LiFe2(BO3)2
_symmetry_space_group_name_H-M   'P 1'
_cell_length_a   5.24061526
_cell_length_b   9.15571646
_cell_length_c   11.32480559
_cell_angle_alpha   113.49345095
_cell_angle_beta   102.93346835
_cell_angle_gamma   89.07226698
_symmetry_Int_Tables_number   1
_chemical_formula_structural   LiFe2(BO3)2
_chemical_formula_sum   'Li4 Fe8 B8 O24'
_cell_volume   484.07230648
_cell_formula_units_Z   4
loop_
 _symmetry_equiv_pos_site_id
 _symmetry_equiv_pos_as_xyz
  1  'x, y, z'
loop_
 _atom_site_type_symbol
 _atom_site_label
 _atom_site_symmetry_multiplicity
 _atom_site_fract_x
 _atom_site_fract_y
 _atom_site_fract_z
 _atom_site_occupancy
  Li  Li0  1  0.03220000  0.03856500  0.40661000  1
  Li  Li1  1  0.29081800  0.26871800  0.90564200  1
  Li  Li2  1  0.48236300  0.50476400  0.65417100  1
  Li  Li3  1  0.76317000  0.75070600  0.15508900  1
  Fe  Fe4  1  0.01640100  0.35893200  0.37594700  1
  Fe  Fe5  1  0.26089900  0.92712100  0.88244600  1
  Fe  Fe6  1  0.49287400  0.14859200  0.63199000  1
  Fe  Fe7  1  0.23205800  0.56366800  0.12785000  1
  Fe  Fe8  1  0.77536500  0.44010400  0.87767400  1
  Fe  Fe9  1  0.52345600  0.84664600  0.38469100  1
  Fe  Fe10  1  0.96464000  0.66328600  0.63031300  1
  Fe  Fe11  1  0.75136500  0.06858400  0.12823400  1
  B  B12  1  0.02125100  0.69437700  0.37550700  1
  B  B13  1  0.26437600  0.60039400  0.87369300  1
  B  B14  1  0.46232800  0.81422700  0.63405900  1
  B  B15  1  0.24218200  0.88720100  0.12880600  1
  B  B16  1  0.52980500  0.18366500  0.38087700  1
  B  B17  1  0.76403800  0.10294100  0.87641100  1
  B  B18  1  0.99031200  0.31813000  0.62570000  1
  B  B19  1  0.73047900  0.40356400  0.12677400  1
  O  O20  1  0.02724300  0.09758300  0.88021000  1
  O  O21  1  0.11263300  0.71429300  0.84719400  1
  O  O22  1  0.16123400  0.50392000  0.92739700  1
  O  O23  1  0.13039600  0.18504000  0.61933100  1
  O  O24  1  0.08573700  0.43370900  0.59601300  1
  O  O25  1  0.24542900  0.85086700  0.68778200  1
  O  O26  1  0.25481600  0.67323200  0.32965800  1
  O  O27  1  0.50537500  0.57776300  0.84909600  1
  O  O28  1  0.61454100  0.20855400  0.82854900  1
  O  O29  1  0.43442500  0.06531700  0.42423400  1
  O  O30  1  0.38837400  0.30618800  0.38501400  1
  O  O31  1  0.63089500  0.01480700  0.92090100  1
  O  O32  1  0.35989800  0.97141200  0.07590800  1
  O  O33  1  0.59158300  0.68435000  0.62613600  1
  O  O34  1  0.54426100  0.91781300  0.57959400  1
  O  O35  1  0.40314400  0.77964100  0.17178900  1
  O  O36  1  0.45998600  0.40079900  0.10664500  1
  O  O37  1  0.74728000  0.32910300  0.66305300  1
  O  O38  1  0.76787200  0.15522000  0.34437300  1
  O  O39  1  0.94043000  0.59619000  0.42361700  1
  O  O40  1  0.87551600  0.81959000  0.36232700  1
  O  O41  1  0.85059400  0.51489400  0.09191400  1
  O  O42  1  0.87133300  0.30236600  0.17078100  1
  O  O43  1  0.99229500  0.89883100  0.14448700  1
