# generated using pymatgen
data_Li4Fe3Co3(NiO8)2
_symmetry_space_group_name_H-M   'P 1'
_cell_length_a   10.00543200
_cell_length_b   5.76699800
_cell_length_c   9.56036706
_cell_angle_alpha   90.00000000
_cell_angle_beta   90.26732107
_cell_angle_gamma   90.00000000
_symmetry_Int_Tables_number   1
_chemical_formula_structural   Li4Fe3Co3(NiO8)2
_chemical_formula_sum   'Li8 Fe6 Co6 Ni4 O32'
_cell_volume   551.63966399
_cell_formula_units_Z   2
loop_
 _symmetry_equiv_pos_site_id
 _symmetry_equiv_pos_as_xyz
  1  'x, y, z'
loop_
 _atom_site_type_symbol
 _atom_site_label
 _atom_site_symmetry_multiplicity
 _atom_site_fract_x
 _atom_site_fract_y
 _atom_site_fract_z
 _atom_site_occupancy
  Li  Li0  1  0.66411300  0.00000000  0.89497800  1
  Li  Li1  1  0.50507700  0.50000000  0.99940900  1
  Li  Li2  1  0.50571800  0.50000000  0.49749300  1
  Li  Li3  1  0.83060400  0.50000000  0.39078300  1
  Li  Li4  1  0.16411300  0.50000000  0.89497800  1
  Li  Li5  1  0.00507700  0.00000000  0.99940900  1
  Li  Li6  1  0.00571800  0.00000000  0.49749300  1
  Li  Li7  1  0.33060400  0.00000000  0.39078300  1
  Fe  Fe8  1  0.82998400  0.00000000  0.21522100  1
  Fe  Fe9  1  0.91440950  0.74632350  0.71512900  1
  Fe  Fe10  1  0.91440950  0.25367650  0.71512900  1
  Fe  Fe11  1  0.32998400  0.50000000  0.21522100  1
  Fe  Fe12  1  0.41440950  0.24632350  0.71512900  1
  Fe  Fe13  1  0.41440950  0.75367650  0.71512900  1
  Co  Co14  1  0.58352550  0.24686750  0.21314800  1
  Co  Co15  1  0.58352550  0.75313250  0.21314800  1
  Co  Co16  1  0.66900100  0.50000000  0.71208600  1
  Co  Co17  1  0.08352550  0.74686750  0.21314800  1
  Co  Co18  1  0.08352550  0.25313250  0.21314800  1
  Co  Co19  1  0.16900100  0.00000000  0.71208600  1
  Ni  Ni20  1  0.66801500  0.00000000  0.48754800  1
  Ni  Ni21  1  0.83260000  0.50000000  0.98961700  1
  Ni  Ni22  1  0.16801500  0.50000000  0.48754800  1
  Ni  Ni23  1  0.33260000  0.00000000  0.98961700  1
  O  O24  1  0.58589950  0.26289450  0.60751600  1
  O  O25  1  0.51871900  0.00000000  0.32493800  1
  O  O26  1  0.65913600  0.00000000  0.10575800  1
  O  O27  1  0.50691800  0.50000000  0.31190000  1
  O  O28  1  0.50679300  0.50000000  0.81366100  1
  O  O29  1  0.58589950  0.73710550  0.60751600  1
  O  O30  1  0.73590800  0.22646700  0.32978800  1
  O  O31  1  0.73590800  0.77353300  0.32978800  1
  O  O32  1  0.65927000  0.50000000  0.11398300  1
  O  O33  1  0.84035700  0.00000000  0.60269400  1
  O  O34  1  0.75311350  0.71865750  0.83190000  1
  O  O35  1  0.75311350  0.28134250  0.83190000  1
  O  O36  1  0.82879800  0.50000000  0.60121100  1
  O  O37  1  0.92400550  0.75709950  0.10802700  1
  O  O38  1  0.98082800  0.50000000  0.83559600  1
  O  O39  1  0.92400550  0.24290050  0.10802700  1
  O  O40  1  0.08589950  0.76289450  0.60751600  1
  O  O41  1  0.01871900  0.50000000  0.32493800  1
  O  O42  1  0.15913600  0.50000000  0.10575800  1
  O  O43  1  0.00691800  0.00000000  0.31190000  1
  O  O44  1  0.00679300  0.00000000  0.81366100  1
  O  O45  1  0.08589950  0.23710550  0.60751600  1
  O  O46  1  0.23590800  0.72646700  0.32978800  1
  O  O47  1  0.23590800  0.27353300  0.32978800  1
  O  O48  1  0.15927000  0.00000000  0.11398300  1
  O  O49  1  0.34035700  0.50000000  0.60269400  1
  O  O50  1  0.25311350  0.21865750  0.83190000  1
  O  O51  1  0.25311350  0.78134250  0.83190000  1
  O  O52  1  0.32879800  0.00000000  0.60121100  1
  O  O53  1  0.42400550  0.25709950  0.10802700  1
  O  O54  1  0.48082800  0.00000000  0.83559600  1
  O  O55  1  0.42400550  0.74290050  0.10802700  1
