# generated using pymatgen
data_Li6Fe7O15
_symmetry_space_group_name_H-M   'P 1'
_cell_length_a   15.36379800
_cell_length_b   3.94685200
_cell_length_c   8.98201402
_cell_angle_alpha   90.00000000
_cell_angle_beta   101.91463641
_cell_angle_gamma   90.00000000
_symmetry_Int_Tables_number   1
_chemical_formula_structural   Li6Fe7O15
_chemical_formula_sum   'Li12 Fe14 O30'
_cell_volume   532.92314519
_cell_formula_units_Z   2
loop_
 _symmetry_equiv_pos_site_id
 _symmetry_equiv_pos_as_xyz
  1  'x, y, z'
loop_
 _atom_site_type_symbol
 _atom_site_label
 _atom_site_symmetry_multiplicity
 _atom_site_fract_x
 _atom_site_fract_y
 _atom_site_fract_z
 _atom_site_occupancy
  Li  Li0  1  0.89363600  0.50000000  0.13182700  1
  Li  Li1  1  0.50096100  0.50000000  0.99955400  1
  Li  Li2  1  0.99883200  0.00000000  0.33952300  1
  Li  Li3  1  0.69578600  0.50000000  0.39860700  1
  Li  Li4  1  0.79606400  0.00000000  0.59720800  1
  Li  Li5  1  0.69306100  0.50000000  0.73336100  1
  Li  Li6  1  0.39363600  0.00000000  0.13182700  1
  Li  Li7  1  0.00096100  0.00000000  0.99955400  1
  Li  Li8  1  0.49883200  0.50000000  0.33952300  1
  Li  Li9  1  0.19578600  0.00000000  0.39860700  1
  Li  Li10  1  0.29606400  0.50000000  0.59720800  1
  Li  Li11  1  0.19306100  0.00000000  0.73336100  1
  Fe  Fe12  1  0.79077600  0.00000000  0.25871900  1
  Fe  Fe13  1  0.59354200  0.00000000  0.19780700  1
  Fe  Fe14  1  0.90359000  0.50000000  0.47415300  1
  Fe  Fe15  1  0.59943500  0.00000000  0.53960500  1
  Fe  Fe16  1  0.90084700  0.50000000  0.79511500  1
  Fe  Fe17  1  0.59628500  0.00000000  0.86441900  1
  Fe  Fe18  1  0.79213100  0.00000000  0.93707500  1
  Fe  Fe19  1  0.29077600  0.50000000  0.25871900  1
  Fe  Fe20  1  0.09354200  0.50000000  0.19780700  1
  Fe  Fe21  1  0.40359000  0.00000000  0.47415300  1
  Fe  Fe22  1  0.09943500  0.50000000  0.53960500  1
  Fe  Fe23  1  0.40084700  0.00000000  0.79511500  1
  Fe  Fe24  1  0.09628500  0.50000000  0.86441900  1
  Fe  Fe25  1  0.29213100  0.50000000  0.93707500  1
  O  O26  1  0.87818800  0.00000000  0.12893900  1
  O  O27  1  0.69376500  0.00000000  0.06450000  1
  O  O28  1  0.58630400  0.50000000  0.20161700  1
  O  O29  1  0.80450000  0.50000000  0.28705500  1
  O  O30  1  0.88901200  0.00000000  0.44680200  1
  O  O31  1  0.69222300  0.00000000  0.38219100  1
  O  O32  1  0.50537200  0.00000000  0.35268800  1
  O  O33  1  0.81594500  0.50000000  0.60593200  1
  O  O34  1  0.60687300  0.50000000  0.53305500  1
  O  O35  1  0.99743800  0.50000000  0.67274700  1
  O  O36  1  0.69035700  0.00000000  0.74108000  1
  O  O37  1  0.88873400  0.00000000  0.81654500  1
  O  O38  1  0.80577900  0.50000000  0.91501800  1
  O  O39  1  0.59678500  0.50000000  0.86474100  1
  O  O40  1  0.50330300  0.00000000  0.99187400  1
  O  O41  1  0.37818800  0.50000000  0.12893900  1
  O  O42  1  0.19376500  0.50000000  0.06450000  1
  O  O43  1  0.08630400  0.00000000  0.20161700  1
  O  O44  1  0.30450000  0.00000000  0.28705500  1
  O  O45  1  0.38901200  0.50000000  0.44680200  1
  O  O46  1  0.19222300  0.50000000  0.38219100  1
  O  O47  1  0.00537200  0.50000000  0.35268800  1
  O  O48  1  0.31594500  0.00000000  0.60593200  1
  O  O49  1  0.10687300  0.00000000  0.53305500  1
  O  O50  1  0.49743800  0.00000000  0.67274700  1
  O  O51  1  0.19035700  0.50000000  0.74108000  1
  O  O52  1  0.38873400  0.50000000  0.81654500  1
  O  O53  1  0.30577900  0.00000000  0.91501800  1
  O  O54  1  0.09678500  0.00000000  0.86474100  1
  O  O55  1  0.00330300  0.50000000  0.99187400  1
