# generated using pymatgen
data_Li2VOF4
_symmetry_space_group_name_H-M   'P 1'
_cell_length_a   6.74449200
_cell_length_b   3.73525900
_cell_length_c   14.70810431
_cell_angle_alpha   90.00000000
_cell_angle_beta   90.79933690
_cell_angle_gamma   90.00000000
_symmetry_Int_Tables_number   1
_chemical_formula_structural   Li2VOF4
_chemical_formula_sum   'Li8 V4 O4 F16'
_cell_volume   370.49674837
_cell_formula_units_Z   4
loop_
 _symmetry_equiv_pos_site_id
 _symmetry_equiv_pos_as_xyz
  1  'x, y, z'
loop_
 _atom_site_type_symbol
 _atom_site_label
 _atom_site_symmetry_multiplicity
 _atom_site_fract_x
 _atom_site_fract_y
 _atom_site_fract_z
 _atom_site_occupancy
  Li  Li0  1  0.05696100  0.00000000  0.12887700  1
  Li  Li1  1  0.17461300  0.00000000  0.73419200  1
  Li  Li2  1  0.32370100  0.50000000  0.22945300  1
  Li  Li3  1  0.42654300  0.50000000  0.64259200  1
  Li  Li4  1  0.56480600  0.00000000  0.36783700  1
  Li  Li5  1  0.68750100  0.00000000  0.75686200  1
  Li  Li6  1  0.81191200  0.50000000  0.25534800  1
  Li  Li7  1  0.94281900  0.50000000  0.86473500  1
  V  V8  1  0.10880700  0.00000000  0.42747900  1
  V  V9  1  0.40245900  0.50000000  0.93317800  1
  V  V10  1  0.59741600  0.00000000  0.06795600  1
  V  V11  1  0.87680500  0.50000000  0.56795900  1
  O  O12  1  0.06976300  0.50000000  0.45147400  1
  O  O13  1  0.44652000  0.00000000  0.95417800  1
  O  O14  1  0.55190400  0.50000000  0.04981600  1
  O  O15  1  0.66698800  0.50000000  0.50920200  1
  F  F16  1  0.05623300  0.50000000  0.18722700  1
  F  F17  1  0.13059900  0.50000000  0.64548800  1
  F  F18  1  0.15400500  0.50000000  0.98322000  1
  F  F19  1  0.23928400  0.00000000  0.31872800  1
  F  F20  1  0.25631800  0.50000000  0.82158700  1
  F  F21  1  0.35842100  0.00000000  0.48136800  1
  F  F22  1  0.36529000  0.00000000  0.14307000  1
  F  F23  1  0.44180700  0.00000000  0.69156900  1
  F  F24  1  0.55263000  0.50000000  0.30695100  1
  F  F25  1  0.63562600  0.50000000  0.86240400  1
  F  F26  1  0.74457500  0.00000000  0.18185100  1
  F  F27  1  0.74775700  0.50000000  0.68563200  1
  F  F28  1  0.84612800  0.00000000  0.01970500  1
  F  F29  1  0.86337400  0.00000000  0.35917600  1
  F  F30  1  0.95412400  0.00000000  0.55880500  1
  F  F31  1  0.94431200  0.00000000  0.81208300  1
