# generated using pymatgen
data_Li3Mn2(SiO4)2
_symmetry_space_group_name_H-M   'P 1'
_cell_length_a   5.08299700
_cell_length_b   10.77408200
_cell_length_c   6.36313302
_cell_angle_alpha   90.00000000
_cell_angle_beta   90.32125834
_cell_angle_gamma   90.00000000
_symmetry_Int_Tables_number   1
_chemical_formula_structural   Li3Mn2(SiO4)2
_chemical_formula_sum   'Li6 Mn4 Si4 O16'
_cell_volume   348.46912555
_cell_formula_units_Z   2
loop_
 _symmetry_equiv_pos_site_id
 _symmetry_equiv_pos_as_xyz
  1  'x, y, z'
loop_
 _atom_site_type_symbol
 _atom_site_label
 _atom_site_symmetry_multiplicity
 _atom_site_fract_x
 _atom_site_fract_y
 _atom_site_fract_z
 _atom_site_occupancy
  Li  Li0  1  0.42817000  0.08715200  0.75321400  1
  Li  Li1  1  0.57183000  0.58715200  0.24678600  1
  Li  Li2  1  0.08248800  0.91798600  0.24955000  1
  Li  Li3  1  0.93384600  0.41145400  0.24967600  1
  Li  Li4  1  0.91751200  0.41798600  0.75045000  1
  Li  Li5  1  0.06615400  0.91145400  0.75032400  1
  Mn  Mn6  1  0.56503800  0.84046800  0.49563000  1
  Mn  Mn7  1  0.43496200  0.34046800  0.50437000  1
  Mn  Mn8  1  0.08135700  0.65710800  0.98922300  1
  Mn  Mn9  1  0.91864300  0.15710800  0.01077700  1
  Si  Si10  1  0.91909200  0.16726400  0.50707500  1
  Si  Si11  1  0.08090800  0.66726400  0.49292500  1
  Si  Si12  1  0.41859900  0.33081000  0.99936400  1
  Si  Si13  1  0.58140100  0.83081000  0.00063600  1
  O  O14  1  0.00354500  0.59074600  0.70512400  1
  O  O15  1  0.03051100  0.09384800  0.71881100  1
  O  O16  1  0.59416600  0.17619000  0.52398700  1
  O  O17  1  0.96992900  0.81268100  0.49975800  1
  O  O18  1  0.03007100  0.31268100  0.50024200  1
  O  O19  1  0.40583400  0.67619000  0.47601300  1
  O  O20  1  0.99645500  0.09074600  0.29487600  1
  O  O21  1  0.96948900  0.59384800  0.28118900  1
  O  O22  1  0.47150500  0.90032900  0.21588800  1
  O  O23  1  0.53168200  0.40327100  0.21361600  1
  O  O24  1  0.52638400  0.18700200  0.99532800  1
  O  O25  1  0.09381200  0.33506900  0.00133500  1
  O  O26  1  0.47361600  0.68700200  0.00467200  1
  O  O27  1  0.90618800  0.83506900  0.99866500  1
  O  O28  1  0.52849500  0.40032900  0.78411200  1
  O  O29  1  0.46831800  0.90327100  0.78638400  1
