# generated using pymatgen
data_Ba5Mn5O14
_symmetry_space_group_name_H-M   'P 1'
_cell_length_a   5.79976000
_cell_length_b   9.98320600
_cell_length_c   23.93085900
_cell_angle_alpha   90.00000000
_cell_angle_beta   90.00000000
_cell_angle_gamma   90.00000000
_symmetry_Int_Tables_number   1
_chemical_formula_structural   Ba5Mn5O14
_chemical_formula_sum   'Ba20 Mn20 O56'
_cell_volume   1385.60149429
_cell_formula_units_Z   4
loop_
 _symmetry_equiv_pos_site_id
 _symmetry_equiv_pos_as_xyz
  1  'x, y, z'
loop_
 _atom_site_type_symbol
 _atom_site_label
 _atom_site_symmetry_multiplicity
 _atom_site_fract_x
 _atom_site_fract_y
 _atom_site_fract_z
 _atom_site_occupancy
  Ba  Ba0  1  0.50310100  0.83394200  0.04599900  1
  Ba  Ba1  1  0.49733750  0.83428250  0.63905700  1
  Ba  Ba2  1  0.00400800  0.99911400  0.75000000  1
  Ba  Ba3  1  0.49733750  0.83428250  0.86094300  1
  Ba  Ba4  1  0.00400800  0.00088600  0.25000000  1
  Ba  Ba5  1  0.50310100  0.83394200  0.45400100  1
  Ba  Ba6  1  0.50310100  0.16605800  0.95400100  1
  Ba  Ba7  1  0.50310100  0.16605800  0.54599900  1
  Ba  Ba8  1  0.49733750  0.16571750  0.13905700  1
  Ba  Ba9  1  0.49733750  0.16571750  0.36094300  1
  Ba  Ba10  1  0.00310100  0.33394200  0.04599900  1
  Ba  Ba11  1  0.99733750  0.33428250  0.63905700  1
  Ba  Ba12  1  0.50400800  0.49911400  0.75000000  1
  Ba  Ba13  1  0.99733750  0.33428250  0.86094300  1
  Ba  Ba14  1  0.50400800  0.50088600  0.25000000  1
  Ba  Ba15  1  0.00310100  0.33394200  0.45400100  1
  Ba  Ba16  1  0.00310100  0.66605800  0.95400100  1
  Ba  Ba17  1  0.00310100  0.66605800  0.54599900  1
  Ba  Ba18  1  0.99733750  0.66571750  0.13905700  1
  Ba  Ba19  1  0.99733750  0.66571750  0.36094300  1
  Mn  Mn20  1  0.50916100  0.83662500  0.19192700  1
  Mn  Mn21  1  0.01065600  0.00000000  0.50000000  1
  Mn  Mn22  1  0.00333350  0.99893350  0.60737900  1
  Mn  Mn23  1  0.00333350  0.99893350  0.89262100  1
  Mn  Mn24  1  0.01065600  0.00000000  0.00000000  1
  Mn  Mn25  1  0.00333350  0.00106650  0.10737900  1
  Mn  Mn26  1  0.00333350  0.00106650  0.39262100  1
  Mn  Mn27  1  0.50916100  0.83662500  0.30807300  1
  Mn  Mn28  1  0.50916100  0.16337500  0.69192700  1
  Mn  Mn29  1  0.50916100  0.16337500  0.80807300  1
  Mn  Mn30  1  0.00916100  0.33662500  0.19192700  1
  Mn  Mn31  1  0.51065600  0.50000000  0.50000000  1
  Mn  Mn32  1  0.50333350  0.49893350  0.60737900  1
  Mn  Mn33  1  0.50333350  0.49893350  0.89262100  1
  Mn  Mn34  1  0.51065600  0.50000000  0.00000000  1
  Mn  Mn35  1  0.50333350  0.50106650  0.10737900  1
  Mn  Mn36  1  0.50333350  0.50106650  0.39262100  1
  Mn  Mn37  1  0.00916100  0.33662500  0.30807300  1
  Mn  Mn38  1  0.00916100  0.66337500  0.69192700  1
  Mn  Mn39  1  0.00916100  0.66337500  0.80807300  1
  O  O40  1  0.23249400  0.92299000  0.55126500  1
  O  O41  1  0.23249400  0.92299000  0.94873500  1
  O  O42  1  0.24227850  0.91200550  0.15241500  1
  O  O43  1  0.69224850  0.24719150  0.75000000  1
  O  O44  1  0.24227850  0.91200550  0.34758500  1
  O  O45  1  0.48862100  0.66514900  0.15226500  1
  O  O46  1  0.50798500  0.64658500  0.94774100  1
  O  O47  1  0.48862100  0.66514900  0.34773500  1
  O  O48  1  0.50798500  0.64658500  0.55225900  1
  O  O49  1  0.24227850  0.08799450  0.84758500  1
  O  O50  1  0.24227850  0.08799450  0.65241500  1
  O  O51  1  0.23249400  0.07701000  0.05126500  1
  O  O52  1  0.23249400  0.07701000  0.44873500  1
  O  O53  1  0.69224850  0.75280850  0.25000000  1
  O  O54  1  0.78799000  0.92453900  0.55140000  1
  O  O55  1  0.76237650  0.92064250  0.14849900  1
  O  O56  1  0.78799000  0.92453900  0.94860000  1
  O  O57  1  0.76237650  0.92064250  0.35150100  1
  O  O58  1  0.48862100  0.33485100  0.65226500  1
  O  O59  1  0.47547550  0.97069950  0.25000000  1
  O  O60  1  0.47547550  0.02930050  0.75000000  1
  O  O61  1  0.48862100  0.33485100  0.84773500  1
  O  O62  1  0.50798500  0.35341500  0.44774100  1
  O  O63  1  0.50798500  0.35341500  0.05225900  1
  O  O64  1  0.76237650  0.07935750  0.64849900  1
  O  O65  1  0.78799000  0.07546100  0.44860000  1
  O  O66  1  0.76237650  0.07935750  0.85150100  1
  O  O67  1  0.78799000  0.07546100  0.05140000  1
  O  O68  1  0.73249400  0.42299000  0.55126500  1
  O  O69  1  0.73249400  0.42299000  0.94873500  1
  O  O70  1  0.74227850  0.41200550  0.15241500  1
  O  O71  1  0.19224850  0.74719150  0.75000000  1
  O  O72  1  0.74227850  0.41200550  0.34758500  1
  O  O73  1  0.98862100  0.16514900  0.15226500  1
  O  O74  1  0.00798500  0.14658500  0.94774100  1
  O  O75  1  0.98862100  0.16514900  0.34773500  1
  O  O76  1  0.00798500  0.14658500  0.55225900  1
  O  O77  1  0.74227850  0.58799450  0.84758500  1
  O  O78  1  0.74227850  0.58799450  0.65241500  1
  O  O79  1  0.73249400  0.57701000  0.05126500  1
  O  O80  1  0.73249400  0.57701000  0.44873500  1
  O  O81  1  0.19224850  0.25280850  0.25000000  1
  O  O82  1  0.28799000  0.42453900  0.55140000  1
  O  O83  1  0.26237650  0.42064250  0.14849900  1
  O  O84  1  0.28799000  0.42453900  0.94860000  1
  O  O85  1  0.26237650  0.42064250  0.35150100  1
  O  O86  1  0.98862100  0.83485100  0.65226500  1
  O  O87  1  0.97547550  0.47069950  0.25000000  1
  O  O88  1  0.97547550  0.52930050  0.75000000  1
  O  O89  1  0.98862100  0.83485100  0.84773500  1
  O  O90  1  0.00798500  0.85341500  0.44774100  1
  O  O91  1  0.00798500  0.85341500  0.05225900  1
  O  O92  1  0.26237650  0.57935750  0.64849900  1
  O  O93  1  0.28799000  0.57546100  0.44860000  1
  O  O94  1  0.26237650  0.57935750  0.85150100  1
  O  O95  1  0.28799000  0.57546100  0.05140000  1
