# generated using pymatgen
data_Mn3Cr3(SbO8)2
_symmetry_space_group_name_H-M   'P 1'
_cell_length_a   10.22569998
_cell_length_b   5.89253280
_cell_length_c   9.24250324
_cell_angle_alpha   90.00000000
_cell_angle_beta   91.00189103
_cell_angle_gamma   90.00000000
_symmetry_Int_Tables_number   1
_chemical_formula_structural   Mn3Cr3(SbO8)2
_chemical_formula_sum   'Mn6 Cr6 Sb4 O32'
_cell_volume   556.82441005
_cell_formula_units_Z   2
loop_
 _symmetry_equiv_pos_site_id
 _symmetry_equiv_pos_as_xyz
  1  'x, y, z'
loop_
 _atom_site_type_symbol
 _atom_site_label
 _atom_site_symmetry_multiplicity
 _atom_site_fract_x
 _atom_site_fract_y
 _atom_site_fract_z
 _atom_site_occupancy
  Mn  Mn0  1  0.82956400  0.00000000  0.79069100  1
  Mn  Mn1  1  0.91529900  0.74822700  0.28715000  1
  Mn  Mn2  1  0.91529900  0.25177300  0.28715000  1
  Mn  Mn3  1  0.32956400  0.50000000  0.79069100  1
  Mn  Mn4  1  0.41529900  0.24822700  0.28715000  1
  Mn  Mn5  1  0.41529900  0.75177300  0.28715000  1
  Cr  Cr6  1  0.58267200  0.24513800  0.78400500  1
  Cr  Cr7  1  0.58267200  0.75486200  0.78400500  1
  Cr  Cr8  1  0.66814850  0.50000000  0.28680800  1
  Cr  Cr9  1  0.08267200  0.74513800  0.78400500  1
  Cr  Cr10  1  0.08267200  0.25486200  0.78400500  1
  Cr  Cr11  1  0.16814850  0.00000000  0.28680800  1
  Sb  Sb12  1  0.66548400  0.00000000  0.50745900  1
  Sb  Sb13  1  0.83110400  0.50000000  0.00811100  1
  Sb  Sb14  1  0.16548400  0.50000000  0.50745900  1
  Sb  Sb15  1  0.33110400  0.00000000  0.00811100  1
  O  O16  1  0.58095600  0.25257500  0.40059300  1
  O  O17  1  0.52027300  0.00000000  0.65771300  1
  O  O18  1  0.67023000  0.00000000  0.89275500  1
  O  O19  1  0.99772200  0.00000000  0.69942800  1
  O  O20  1  0.99374950  0.00000000  0.19026200  1
  O  O21  1  0.58095600  0.74742500  0.40059300  1
  O  O22  1  0.74202000  0.21786000  0.66317700  1
  O  O23  1  0.74202000  0.78214000  0.66317700  1
  O  O24  1  0.66404300  0.50000000  0.90170600  1
  O  O25  1  0.83411700  0.00000000  0.39860100  1
  O  O26  1  0.76324100  0.72377700  0.16152500  1
  O  O27  1  0.76324100  0.27622300  0.16152500  1
  O  O28  1  0.83921000  0.50000000  0.39079700  1
  O  O29  1  0.91569600  0.75073700  0.89992600  1
  O  O30  1  0.98071050  0.50000000  0.16519800  1
  O  O31  1  0.91569600  0.24926300  0.89992600  1
  O  O32  1  0.08095600  0.75257500  0.40059300  1
  O  O33  1  0.02027300  0.50000000  0.65771300  1
  O  O34  1  0.17023000  0.50000000  0.89275500  1
  O  O35  1  0.49772200  0.50000000  0.69942800  1
  O  O36  1  0.49374950  0.50000000  0.19026200  1
  O  O37  1  0.08095600  0.24742500  0.40059300  1
  O  O38  1  0.24202000  0.71786000  0.66317700  1
  O  O39  1  0.24202000  0.28214000  0.66317700  1
  O  O40  1  0.16404300  0.00000000  0.90170600  1
  O  O41  1  0.33411700  0.50000000  0.39860100  1
  O  O42  1  0.26324100  0.22377700  0.16152500  1
  O  O43  1  0.26324100  0.77622300  0.16152500  1
  O  O44  1  0.33921000  0.00000000  0.39079700  1
  O  O45  1  0.41569600  0.25073700  0.89992600  1
  O  O46  1  0.48071050  0.00000000  0.16519800  1
  O  O47  1  0.41569600  0.74926300  0.89992600  1
