# generated using pymatgen
data_CdFeO3
_symmetry_space_group_name_H-M   'P 1'
_cell_length_a   5.36303661
_cell_length_b   5.45016057
_cell_length_c   7.66973807
_cell_angle_alpha   90.00000000
_cell_angle_beta   90.00000000
_cell_angle_gamma   90.00000000
_symmetry_Int_Tables_number   1
_chemical_formula_structural   CdFeO3
_chemical_formula_sum   'Cd4 Fe4 O12'
_cell_volume   224.18192391
_cell_formula_units_Z   4
loop_
 _symmetry_equiv_pos_site_id
 _symmetry_equiv_pos_as_xyz
  1  'x, y, z'
loop_
 _atom_site_type_symbol
 _atom_site_label
 _atom_site_symmetry_multiplicity
 _atom_site_fract_x
 _atom_site_fract_y
 _atom_site_fract_z
 _atom_site_occupancy
  Cd  Cd0  1  0.50936500  0.95767000  0.25000000  1
  Cd  Cd1  1  0.99063500  0.45767000  0.25000000  1
  Cd  Cd2  1  0.00936500  0.54233000  0.75000000  1
  Cd  Cd3  1  0.49063500  0.04233000  0.75000000  1
  Fe  Fe4  1  0.50000000  0.50000000  0.50000000  1
  Fe  Fe5  1  0.50000000  0.50000000  0.00000000  1
  Fe  Fe6  1  0.00000000  0.00000000  0.50000000  1
  Fe  Fe7  1  0.00000000  0.00000000  0.00000000  1
  O  O8  1  0.59208400  0.46844700  0.75000000  1
  O  O9  1  0.70029700  0.20699300  0.04821750  1
  O  O10  1  0.70029700  0.20699300  0.45178250  1
  O  O11  1  0.79970300  0.70699300  0.04821750  1
  O  O12  1  0.79970300  0.70699300  0.45178250  1
  O  O13  1  0.90791600  0.96844700  0.75000000  1
  O  O14  1  0.09208400  0.03155300  0.25000000  1
  O  O15  1  0.20029700  0.29300700  0.54821750  1
  O  O16  1  0.20029700  0.29300700  0.95178250  1
  O  O17  1  0.29970300  0.79300700  0.54821750  1
  O  O18  1  0.29970300  0.79300700  0.95178250  1
  O  O19  1  0.40791600  0.53155300  0.25000000  1
