# generated using pymatgen
data_Li4Co3WO8
_symmetry_space_group_name_H-M   'P 1'
_cell_length_a   6.05831567
_cell_length_b   6.05831567
_cell_length_c   14.66000120
_cell_angle_alpha   90.00000000
_cell_angle_beta   90.00000000
_cell_angle_gamma   120.00000000
_symmetry_Int_Tables_number   1
_chemical_formula_structural   Li4Co3WO8
_chemical_formula_sum   'Li12 Co9 W3 O24'
_cell_volume   465.98124295
_cell_formula_units_Z   3
loop_
 _symmetry_equiv_pos_site_id
 _symmetry_equiv_pos_as_xyz
  1  'x, y, z'
loop_
 _atom_site_type_symbol
 _atom_site_label
 _atom_site_symmetry_multiplicity
 _atom_site_fract_x
 _atom_site_fract_y
 _atom_site_fract_z
 _atom_site_occupancy
  Li  Li0  1  0.33333333  0.66666667  0.16666667  1
  Li  Li1  1  0.16666667  0.33333333  0.83333333  1
  Li  Li2  1  0.83333333  0.16666667  0.16666667  1
  Li  Li3  1  0.33333333  0.16666667  0.16666667  1
  Li  Li4  1  1.00000000  1.00000000  0.50000000  1
  Li  Li5  1  0.83333333  0.66666667  0.16666667  1
  Li  Li6  1  0.50000000  0.50000000  0.50000000  1
  Li  Li7  1  0.00000000  0.50000000  0.50000000  1
  Li  Li8  1  0.66666667  0.33333333  0.83333333  1
  Li  Li9  1  0.50000000  0.00000000  0.50000000  1
  Li  Li10  1  0.16666667  0.83333333  0.83333333  1
  Li  Li11  1  0.66666667  0.83333333  0.83333333  1
  Co  Co12  1  0.16666667  0.33333333  0.33333333  1
  Co  Co13  1  0.50000000  0.50000000  0.00000000  1
  Co  Co14  1  0.00000000  0.50000000  0.00000000  1
  Co  Co15  1  0.83333333  0.66666667  0.66666667  1
  Co  Co16  1  0.16666667  0.83333333  0.33333333  1
  Co  Co17  1  0.66666667  0.83333333  0.33333333  1
  Co  Co18  1  0.50000000  0.00000000  0.00000000  1
  Co  Co19  1  0.83333333  0.16666667  0.66666667  1
  Co  Co20  1  0.33333333  0.16666667  0.66666667  1
  W  W21  1  0.00000000  0.00000000  0.00000000  1
  W  W22  1  0.66666667  0.33333333  0.33333333  1
  W  W23  1  0.33333333  0.66666667  0.66666667  1
  O  O24  1  0.33333333  0.66666667  0.40519167  1
  O  O25  1  0.15219500  0.30439000  0.07911100  1
  O  O26  1  0.15219500  0.84780500  0.07911100  1
  O  O27  1  0.33333333  0.66666667  0.92814167  1
  O  O28  1  0.69561000  0.84780500  0.07911100  1
  O  O29  1  0.51447167  0.02894333  0.25422233  1
  O  O30  1  0.51447167  0.48552833  0.25422233  1
  O  O31  1  0.97105667  0.48552833  0.25422233  1
  O  O32  1  0.00000000  0.00000000  0.73852500  1
  O  O33  1  0.81886167  0.63772333  0.41244433  1
  O  O34  1  0.81886167  0.18113833  0.41244433  1
  O  O35  1  0.00000000  0.00000000  0.26147500  1
  O  O36  1  0.36227667  0.18113833  0.41244433  1
  O  O37  1  0.18113833  0.36227667  0.58755567  1
  O  O38  1  0.18113833  0.81886167  0.58755567  1
  O  O39  1  0.63772333  0.81886167  0.58755567  1
  O  O40  1  0.66666667  0.33333333  0.07185833  1
  O  O41  1  0.48552833  0.97105667  0.74577767  1
  O  O42  1  0.48552833  0.51447167  0.74577767  1
  O  O43  1  0.66666667  0.33333333  0.59480833  1
  O  O44  1  0.02894333  0.51447167  0.74577767  1
  O  O45  1  0.84780500  0.69561000  0.92088900  1
  O  O46  1  0.84780500  0.15219500  0.92088900  1
  O  O47  1  0.30439000  0.15219500  0.92088900  1
