# generated using pymatgen
data_Li4Cr3CuO8
_symmetry_space_group_name_H-M   'P 1'
_cell_length_a   5.91635061
_cell_length_b   5.91635061
_cell_length_c   14.49703110
_cell_angle_alpha   90.00000000
_cell_angle_beta   90.00000000
_cell_angle_gamma   120.00000000
_symmetry_Int_Tables_number   1
_chemical_formula_structural   Li4Cr3CuO8
_chemical_formula_sum   'Li12 Cr9 Cu3 O24'
_cell_volume   439.45813423
_cell_formula_units_Z   3
loop_
 _symmetry_equiv_pos_site_id
 _symmetry_equiv_pos_as_xyz
  1  'x, y, z'
loop_
 _atom_site_type_symbol
 _atom_site_label
 _atom_site_symmetry_multiplicity
 _atom_site_fract_x
 _atom_site_fract_y
 _atom_site_fract_z
 _atom_site_occupancy
  Li  Li0  1  0.00000000  0.00000000  0.50000000  1
  Li  Li1  1  0.50000000  0.00000000  0.50000000  1
  Li  Li2  1  0.00000000  0.50000000  0.50000000  1
  Li  Li3  1  0.50000000  0.50000000  0.50000000  1
  Li  Li4  1  0.66666667  0.33333333  0.83333333  1
  Li  Li5  1  0.16666667  0.33333333  0.83333333  1
  Li  Li6  1  0.66666667  0.83333333  0.83333333  1
  Li  Li7  1  0.16666667  0.83333333  0.83333333  1
  Li  Li8  1  0.33333333  0.66666667  0.16666667  1
  Li  Li9  1  0.83333333  0.66666667  0.16666667  1
  Li  Li10  1  0.33333333  0.16666667  0.16666667  1
  Li  Li11  1  0.83333333  0.16666667  0.16666667  1
  Cr  Cr12  1  0.83333333  0.66666667  0.66666667  1
  Cr  Cr13  1  0.66666667  0.83333333  0.33333333  1
  Cr  Cr14  1  0.16666667  0.83333333  0.33333333  1
  Cr  Cr15  1  0.50000000  0.00000000  0.00000000  1
  Cr  Cr16  1  0.33333333  0.16666667  0.66666667  1
  Cr  Cr17  1  0.83333333  0.16666667  0.66666667  1
  Cr  Cr18  1  0.16666667  0.33333333  0.33333333  1
  Cr  Cr19  1  0.00000000  0.50000000  0.00000000  1
  Cr  Cr20  1  0.50000000  0.50000000  0.00000000  1
  Cu  Cu21  1  0.33333333  0.66666667  0.66666667  1
  Cu  Cu22  1  1.00000000  1.00000000  0.00000000  1
  Cu  Cu23  1  0.66666667  0.33333333  0.33333333  1
  O  O24  1  0.33333333  0.66666667  0.40869567  1
  O  O25  1  0.83474600  0.66949200  0.40835800  1
  O  O26  1  0.33050800  0.16525400  0.40835800  1
  O  O27  1  0.66666667  0.33333333  0.59130433  1
  O  O28  1  0.83474600  0.16525400  0.40835800  1
  O  O29  1  0.16525400  0.33050800  0.59164200  1
  O  O30  1  0.66949200  0.83474600  0.59164200  1
  O  O31  1  0.16525400  0.83474600  0.59164200  1
  O  O32  1  0.00000000  0.00000000  0.74202900  1
  O  O33  1  0.50141267  0.00282533  0.74169133  1
  O  O34  1  0.99717467  0.49858733  0.74169133  1
  O  O35  1  0.33333333  0.66666667  0.92463767  1
  O  O36  1  0.50141267  0.49858733  0.74169133  1
  O  O37  1  0.83192067  0.66384133  0.92497533  1
  O  O38  1  0.33615867  0.16807933  0.92497533  1
  O  O39  1  0.83192067  0.16807933  0.92497533  1
  O  O40  1  0.66666667  0.33333333  0.07536233  1
  O  O41  1  0.16807933  0.33615867  0.07502467  1
  O  O42  1  0.66384133  0.83192067  0.07502467  1
  O  O43  1  0.00000000  0.00000000  0.25797100  1
  O  O44  1  0.16807933  0.83192067  0.07502467  1
  O  O45  1  0.49858733  0.99717467  0.25830867  1
  O  O46  1  0.00282533  0.50141267  0.25830867  1
  O  O47  1  0.49858733  0.50141267  0.25830867  1
