# generated using pymatgen
data_LiFePO4
_symmetry_space_group_name_H-M   'P 1'
_cell_length_a   5.15377600
_cell_length_b   6.20647400
_cell_length_c   11.26452100
_cell_angle_alpha   90.00000000
_cell_angle_beta   90.00000000
_cell_angle_gamma   90.00000000
_symmetry_Int_Tables_number   1
_chemical_formula_structural   LiFePO4
_chemical_formula_sum   'Li4 Fe4 P4 O16'
_cell_volume   360.31571849
_cell_formula_units_Z   4
loop_
 _symmetry_equiv_pos_site_id
 _symmetry_equiv_pos_as_xyz
  1  'x, y, z'
loop_
 _atom_site_type_symbol
 _atom_site_label
 _atom_site_symmetry_multiplicity
 _atom_site_fract_x
 _atom_site_fract_y
 _atom_site_fract_z
 _atom_site_occupancy
  Li  Li0  1  0.75204100  0.97597900  0.17343150  1
  Li  Li1  1  0.25204100  0.47597900  0.32656850  1
  Li  Li2  1  0.75204100  0.52402100  0.67343150  1
  Li  Li3  1  0.25204100  0.02402100  0.82656850  1
  Fe  Fe4  1  0.25794100  0.78247900  0.58308850  1
  Fe  Fe5  1  0.75794100  0.28247900  0.91691150  1
  Fe  Fe6  1  0.25794100  0.71752100  0.08308850  1
  Fe  Fe7  1  0.75794100  0.21752100  0.41691150  1
  P  P8  1  0.74955200  0.47380000  0.17100250  1
  P  P9  1  0.24955200  0.97380000  0.32899750  1
  P  P10  1  0.74955200  0.02620000  0.67100250  1
  P  P11  1  0.24955200  0.52620000  0.82899750  1
  O  O12  1  0.81111600  0.27053100  0.09313150  1
  O  O13  1  0.31111600  0.77053100  0.40686850  1
  O  O14  1  0.81111600  0.22946900  0.59313150  1
  O  O15  1  0.31111600  0.72946900  0.90686850  1
  O  O16  1  0.86348300  0.68055800  0.11149150  1
  O  O17  1  0.36348300  0.18055800  0.38850850  1
  O  O18  1  0.86348300  0.81944200  0.61149150  1
  O  O19  1  0.36348300  0.31944200  0.88850850  1
  O  O20  1  0.36892100  0.94587200  0.20321250  1
  O  O21  1  0.86892100  0.44587200  0.29678750  1
  O  O22  1  0.36892100  0.55412800  0.70321250  1
  O  O23  1  0.86892100  0.05412800  0.79678750  1
  O  O24  1  0.45100300  0.49648400  0.18046550  1
  O  O25  1  0.95100300  0.99648400  0.31953450  1
  O  O26  1  0.45100300  0.00351600  0.68046550  1
  O  O27  1  0.95100300  0.50351600  0.81953450  1
