# generated using pymatgen
data_Tl3Co3O8
_symmetry_space_group_name_H-M   'P 1'
_cell_length_a   5.58089506
_cell_length_b   5.59026534
_cell_length_c   11.33167788
_cell_angle_alpha   90.00000000
_cell_angle_beta   90.13084938
_cell_angle_gamma   90.00000000
_symmetry_Int_Tables_number   1
_chemical_formula_structural   Tl3Co3O8
_chemical_formula_sum   'Tl6 Co6 O16'
_cell_volume   353.53251750
_cell_formula_units_Z   2
loop_
 _symmetry_equiv_pos_site_id
 _symmetry_equiv_pos_as_xyz
  1  'x, y, z'
loop_
 _atom_site_type_symbol
 _atom_site_label
 _atom_site_symmetry_multiplicity
 _atom_site_fract_x
 _atom_site_fract_y
 _atom_site_fract_z
 _atom_site_occupancy
  Tl  Tl0  1  0.72828450  0.20070700  0.49814650  1
  Tl  Tl1  1  0.27171550  0.70070700  0.50185350  1
  Tl  Tl2  1  0.73218550  0.29928600  0.82067650  1
  Tl  Tl3  1  0.26781450  0.79928600  0.17932350  1
  Tl  Tl4  1  0.73572650  0.30324000  0.17917250  1
  Tl  Tl5  1  0.26427350  0.80324000  0.82082750  1
  Co  Co6  1  0.19932850  0.30734400  0.00276550  1
  Co  Co7  1  0.75863850  0.75025800  0.32934250  1
  Co  Co8  1  0.24136150  0.25025800  0.67065750  1
  Co  Co9  1  0.80067150  0.80734400  0.99723450  1
  Co  Co10  1  0.76452750  0.75130700  0.66583550  1
  Co  Co11  1  0.23547250  0.25130700  0.33416450  1
  O  O12  1  0.94841050  0.04035400  0.72121350  1
  O  O13  1  0.05158950  0.54035400  0.27878650  1
  O  O14  1  0.04654750  0.54786900  0.71675050  1
  O  O15  1  0.95345250  0.04786900  0.28324950  1
  O  O16  1  0.87079950  0.16044600  0.00071250  1
  O  O17  1  0.12920050  0.66044600  0.99928750  1
  O  O18  1  0.86671050  0.81475500  0.50452450  1
  O  O19  1  0.13328950  0.31475500  0.49547550  1
  O  O20  1  0.64989550  0.69518300  0.84979250  1
  O  O21  1  0.35010450  0.19518300  0.15020750  1
  O  O22  1  0.64958950  0.69652100  0.14421750  1
  O  O23  1  0.35041050  0.19652100  0.85578250  1
  O  O24  1  0.56277650  0.44878800  0.63280350  1
  O  O25  1  0.43722350  0.94878800  0.36719650  1
  O  O26  1  0.44877650  0.94062100  0.63542650  1
  O  O27  1  0.55122350  0.44062100  0.36457350  1
