# generated using pymatgen
data_V3CoSn2(PO4)6
_symmetry_space_group_name_H-M   'P 1'
_cell_length_a   8.56805097
_cell_length_b   8.56805097
_cell_length_c   22.36476012
_cell_angle_alpha   90.00000000
_cell_angle_beta   90.00000000
_cell_angle_gamma   120.00000000
_symmetry_Int_Tables_number   1
_chemical_formula_structural   V3CoSn2(PO4)6
_chemical_formula_sum   'V9 Co3 Sn6 P18 O72'
_cell_volume   1421.86694610
_cell_formula_units_Z   3
loop_
 _symmetry_equiv_pos_site_id
 _symmetry_equiv_pos_as_xyz
  1  'x, y, z'
loop_
 _atom_site_type_symbol
 _atom_site_label
 _atom_site_symmetry_multiplicity
 _atom_site_fract_x
 _atom_site_fract_y
 _atom_site_fract_z
 _atom_site_occupancy
  V  V0  1  0.33333333  0.66666667  0.31398967  1
  V  V1  1  0.66666667  0.33333333  0.18788633  1
  V  V2  1  0.33333333  0.66666667  0.01800567  1
  V  V3  1  0.00000000  0.00000000  0.64732300  1
  V  V4  1  0.33333333  0.66666667  0.52121967  1
  V  V5  1  0.00000000  0.00000000  0.35133900  1
  V  V6  1  0.66666667  0.33333333  0.98065633  1
  V  V7  1  0.00000000  0.00000000  0.85455300  1
  V  V8  1  0.66666667  0.33333333  0.68467233  1
  Co  Co9  1  0.00000000  0.00000000  0.14860100  1
  Co  Co10  1  0.66666667  0.33333333  0.48193433  1
  Co  Co11  1  0.33333333  0.66666667  0.81526767  1
  Sn  Sn12  1  0.00000000  0.00000000  0.00857200  1
  Sn  Sn13  1  0.33333333  0.66666667  0.16659567  1
  Sn  Sn14  1  0.66666667  0.33333333  0.34190533  1
  Sn  Sn15  1  0.00000000  0.00000000  0.49992900  1
  Sn  Sn16  1  0.33333333  0.66666667  0.67523867  1
  Sn  Sn17  1  0.66666667  0.33333333  0.83326233  1
  P  P18  1  0.71512433  0.71511967  0.24869367  1
  P  P19  1  0.28488033  0.00000467  0.24869367  1
  P  P20  1  0.99999533  0.28487567  0.24869367  1
  P  P21  1  0.66593900  0.04705100  0.08352900  1
  P  P22  1  0.38111200  0.33406100  0.08352900  1
  P  P23  1  0.95294900  0.61888800  0.08352900  1
  P  P24  1  0.38179100  0.04845300  0.58202700  1
  P  P25  1  0.95154700  0.33333800  0.58202700  1
  P  P26  1  0.66666200  0.61820900  0.58202700  1
  P  P27  1  0.33260567  0.38038433  0.41686233  1
  P  P28  1  0.04777867  0.66739433  0.41686233  1
  P  P29  1  0.61961567  0.95222133  0.41686233  1
  P  P30  1  0.04845767  0.38178633  0.91536033  1
  P  P31  1  0.61821367  0.66667133  0.91536033  1
  P  P32  1  0.33332867  0.95154233  0.91536033  1
  P  P33  1  0.99927233  0.71371767  0.75019567  1
  P  P34  1  0.71444533  0.00072767  0.75019567  1
  P  P35  1  0.28628233  0.28555467  0.75019567  1
  O  O36  1  0.19995967  0.02272633  0.30687233  1
  O  O37  1  0.97727367  0.17723333  0.30687233  1
  O  O38  1  0.82276667  0.80004033  0.30687233  1
  O  O39  1  0.69187800  0.52390600  0.24450200  1
  O  O40  1  0.79368800  0.82239200  0.19143200  1
  O  O41  1  0.52289500  0.69030700  0.25628400  1
  O  O42  1  0.47609400  0.16797200  0.24450200  1
  O  O43  1  0.30969300  0.83258800  0.25628400  1
  O  O44  1  0.64401433  0.13363067  0.14059167  1
  O  O45  1  0.16741200  0.47710500  0.25628400  1
  O  O46  1  0.83749233  0.02926967  0.08721167  1
  O  O47  1  0.48961633  0.35598567  0.14059167  1
  O  O48  1  0.17760800  0.97129600  0.19143200  1
  O  O49  1  0.83202800  0.30812200  0.24450200  1
  O  O50  1  0.49570167  0.85702633  0.07802333  1
  O  O51  1  0.02870400  0.20631200  0.19143200  1
  O  O52  1  0.36132467  0.50429833  0.07802333  1
  O  O53  1  0.19177733  0.16250767  0.08721167  1
  O  O54  1  0.14297367  0.63867533  0.07802333  1
  O  O55  1  0.86636933  0.51038367  0.14059167  1
  O  O56  1  0.97073033  0.80822267  0.08721167  1
  O  O57  1  0.84701133  0.52907167  0.02609167  1
  O  O58  1  0.68206033  0.15298867  0.02609167  1
  O  O59  1  0.47092833  0.31793967  0.02609167  1
  O  O60  1  0.86662633  0.35605967  0.64020567  1
  O  O61  1  0.64394033  0.51056667  0.64020567  1
  O  O62  1  0.48943333  0.13337367  0.64020567  1
  O  O63  1  0.35854467  0.85723933  0.57783533  1
  O  O64  1  0.46035467  0.15572533  0.52476533  1
  O  O65  1  0.18956167  0.02364033  0.58961733  1
  O  O66  1  0.14276067  0.50130533  0.57783533  1
  O  O67  1  0.97635967  0.16592133  0.58961733  1
  O  O68  1  0.31068100  0.46696400  0.47392500  1
  O  O69  1  0.83407867  0.81043833  0.58961733  1
  O  O70  1  0.50415900  0.36260300  0.42054500  1
  O  O71  1  0.15628300  0.68931900  0.47392500  1
  O  O72  1  0.84427467  0.30462933  0.52476533  1
  O  O73  1  0.49869467  0.64145533  0.57783533  1
  O  O74  1  0.16236833  0.19035967  0.41135667  1
  O  O75  1  0.69537067  0.53964533  0.52476533  1
  O  O76  1  0.02799133  0.83763167  0.41135667  1
  O  O77  1  0.85844400  0.49584100  0.42054500  1
  O  O78  1  0.80964033  0.97200867  0.41135667  1
  O  O79  1  0.53303600  0.84371700  0.47392500  1
  O  O80  1  0.63739700  0.14155600  0.42054500  1
  O  O81  1  0.51367800  0.86240500  0.35942500  1
  O  O82  1  0.34872700  0.48632200  0.35942500  1
  O  O83  1  0.13759500  0.65127300  0.35942500  1
  O  O84  1  0.53329300  0.68939300  0.97353900  1
  O  O85  1  0.31060700  0.84390000  0.97353900  1
  O  O86  1  0.15610000  0.46670700  0.97353900  1
  O  O87  1  0.02521133  0.19057267  0.91116867  1
  O  O88  1  0.12702133  0.48905867  0.85809867  1
  O  O89  1  0.85622833  0.35697367  0.92295067  1
  O  O90  1  0.80942733  0.83463867  0.91116867  1
  O  O91  1  0.64302633  0.49925467  0.92295067  1
  O  O92  1  0.97734767  0.80029733  0.80725833  1
  O  O93  1  0.50074533  0.14377167  0.92295067  1
  O  O94  1  0.17082567  0.69593633  0.75387833  1
  O  O95  1  0.82294967  0.02265233  0.80725833  1
  O  O96  1  0.51094133  0.63796267  0.85809867  1
  O  O97  1  0.16536133  0.97478867  0.91116867  1
  O  O98  1  0.82903500  0.52369300  0.74469000  1
  O  O99  1  0.36203733  0.87297867  0.85809867  1
  O  O100  1  0.69465800  0.17096500  0.74469000  1
  O  O101  1  0.52511067  0.82917433  0.75387833  1
  O  O102  1  0.47630700  0.30534200  0.74469000  1
  O  O103  1  0.19970267  0.17705033  0.80725833  1
  O  O104  1  0.30406367  0.47488933  0.75387833  1
  O  O105  1  0.18034467  0.19573833  0.69275833  1
  O  O106  1  0.01539367  0.81965533  0.69275833  1
  O  O107  1  0.80426167  0.98460633  0.69275833  1
