# generated using pymatgen
data_Li2TiV5O12
_symmetry_space_group_name_H-M   'P 1'
_cell_length_a   11.02137762
_cell_length_b   8.28162737
_cell_length_c   5.69519846
_cell_angle_alpha   90.00000000
_cell_angle_beta   113.50947190
_cell_angle_gamma   90.00000000
_symmetry_Int_Tables_number   1
_chemical_formula_structural   Li2TiV5O12
_chemical_formula_sum   'Li4 Ti2 V10 O24'
_cell_volume   476.68006731
_cell_formula_units_Z   2
loop_
 _symmetry_equiv_pos_site_id
 _symmetry_equiv_pos_as_xyz
  1  'x, y, z'
loop_
 _atom_site_type_symbol
 _atom_site_label
 _atom_site_symmetry_multiplicity
 _atom_site_fract_x
 _atom_site_fract_y
 _atom_site_fract_z
 _atom_site_occupancy
  Li  Li0  1  0.50000000  0.19222150  0.50000000  1
  Li  Li1  1  0.50000000  0.80446200  0.00000000  1
  Li  Li2  1  0.00000000  0.69222150  0.50000000  1
  Li  Li3  1  0.00000000  0.30446200  0.00000000  1
  Ti  Ti4  1  0.50000000  0.57774500  0.50000000  1
  Ti  Ti5  1  0.00000000  0.07774500  0.50000000  1
  V  V6  1  0.50000000  0.42374050  0.00000000  1
  V  V7  1  0.72854950  0.09643550  0.06597800  1
  V  V8  1  0.73444450  0.90142750  0.57125100  1
  V  V9  1  0.27145050  0.09643550  0.93402200  1
  V  V10  1  0.26555550  0.90142750  0.42874900  1
  V  V11  1  0.00000000  0.92374050  0.00000000  1
  V  V12  1  0.22854950  0.59643550  0.06597800  1
  V  V13  1  0.23444450  0.40142750  0.57125100  1
  V  V14  1  0.77145050  0.59643550  0.93402200  1
  V  V15  1  0.76555550  0.40142750  0.42874900  1
  O  O16  1  0.41140700  0.60453100  0.10282500  1
  O  O17  1  0.65899000  0.30418000  0.04734900  1
  O  O18  1  0.42418100  0.39238300  0.62767200  1
  O  O19  1  0.65105100  0.95614100  0.19860800  1
  O  O20  1  0.34101000  0.30418000  0.95265100  1
  O  O21  1  0.65486100  0.05531400  0.71522500  1
  O  O22  1  0.34894900  0.95614100  0.80139200  1
  O  O23  1  0.65274850  0.69052950  0.53835900  1
  O  O24  1  0.34513900  0.05531400  0.28477500  1
  O  O25  1  0.58859300  0.60453100  0.89717500  1
  O  O26  1  0.34725150  0.69052950  0.46164100  1
  O  O27  1  0.57581900  0.39238300  0.37232800  1
  O  O28  1  0.91140700  0.10453100  0.10282500  1
  O  O29  1  0.15899000  0.80418000  0.04734900  1
  O  O30  1  0.92418100  0.89238300  0.62767200  1
  O  O31  1  0.15105100  0.45614100  0.19860800  1
  O  O32  1  0.84101000  0.80418000  0.95265100  1
  O  O33  1  0.15486100  0.55531400  0.71522500  1
  O  O34  1  0.84894900  0.45614100  0.80139200  1
  O  O35  1  0.15274850  0.19052950  0.53835900  1
  O  O36  1  0.84513900  0.55531400  0.28477500  1
  O  O37  1  0.08859300  0.10453100  0.89717500  1
  O  O38  1  0.84725150  0.19052950  0.46164100  1
  O  O39  1  0.07581900  0.89238300  0.37232800  1
