# generated using pymatgen
data_Li3V3P8O29
_symmetry_space_group_name_H-M   'P 1'
_cell_length_a   16.94750400
_cell_length_b   9.79362800
_cell_length_c   14.27488604
_cell_angle_alpha   90.00000000
_cell_angle_beta   90.84408538
_cell_angle_gamma   90.00000000
_symmetry_Int_Tables_number   1
_chemical_formula_structural   Li3V3P8O29
_chemical_formula_sum   'Li12 V12 P32 O116'
_cell_volume   2369.05350137
_cell_formula_units_Z   4
loop_
 _symmetry_equiv_pos_site_id
 _symmetry_equiv_pos_as_xyz
  1  'x, y, z'
loop_
 _atom_site_type_symbol
 _atom_site_label
 _atom_site_symmetry_multiplicity
 _atom_site_fract_x
 _atom_site_fract_y
 _atom_site_fract_z
 _atom_site_occupancy
  Li  Li0  1  0.84748400  0.93014100  0.69401000  1
  Li  Li1  1  0.84059300  0.06630000  0.18697200  1
  Li  Li2  1  0.54030750  0.76424350  0.69618900  1
  Li  Li3  1  0.45969250  0.76424350  0.30381100  1
  Li  Li4  1  0.15251600  0.93014100  0.30599000  1
  Li  Li5  1  0.15940700  0.06630000  0.81302800  1
  Li  Li6  1  0.34748400  0.43014100  0.69401000  1
  Li  Li7  1  0.34059300  0.56630000  0.18697200  1
  Li  Li8  1  0.04030750  0.26424350  0.69618900  1
  Li  Li9  1  0.95969250  0.26424350  0.30381100  1
  Li  Li10  1  0.65251600  0.43014100  0.30599000  1
  Li  Li11  1  0.65940700  0.56630000  0.81302800  1
  V  V12  1  0.71569850  0.72110550  0.00818900  1
  V  V13  1  0.28430150  0.72110550  0.99181100  1
  V  V14  1  0.50000000  0.94061700  0.50000000  1
  V  V15  1  0.50000000  0.06912000  0.00000000  1
  V  V16  1  0.71435800  0.28094600  0.50694300  1
  V  V17  1  0.28564200  0.28094600  0.49305700  1
  V  V18  1  0.21569850  0.22110550  0.00818900  1
  V  V19  1  0.78430150  0.22110550  0.99181100  1
  V  V20  1  0.00000000  0.44061700  0.50000000  1
  V  V21  1  0.00000000  0.56912000  0.00000000  1
  V  V22  1  0.21435800  0.78094600  0.50694300  1
  V  V23  1  0.78564200  0.78094600  0.49305700  1
  P  P24  1  0.83919850  0.92566450  0.90842600  1
  P  P25  1  0.83907650  0.07568350  0.40810900  1
  P  P26  1  0.61334150  0.70247450  0.41086600  1
  P  P27  1  0.66842150  0.00575050  0.11992600  1
  P  P28  1  0.66901200  0.99353400  0.61842700  1
  P  P29  1  0.54406350  0.77450450  0.91055500  1
  P  P30  1  0.45593650  0.77450450  0.08944500  1
  P  P31  1  0.61195150  0.29907050  0.91127000  1
  P  P32  1  0.38665850  0.70247450  0.58913400  1
  P  P33  1  0.54180850  0.23118750  0.40821300  1
  P  P34  1  0.45819150  0.23118750  0.59178700  1
  P  P35  1  0.33157850  0.00575050  0.88007400  1
  P  P36  1  0.33098800  0.99353400  0.38157300  1
  P  P37  1  0.38804850  0.29907050  0.08873000  1
  P  P38  1  0.16080150  0.92566450  0.09157400  1
  P  P39  1  0.16092350  0.07568350  0.59189100  1
  P  P40  1  0.33919850  0.42566450  0.90842600  1
  P  P41  1  0.33907650  0.57568350  0.40810900  1
  P  P42  1  0.11334150  0.20247450  0.41086600  1
  P  P43  1  0.16842150  0.50575050  0.11992600  1
  P  P44  1  0.16901200  0.49353400  0.61842700  1
  P  P45  1  0.04406350  0.27450450  0.91055500  1
  P  P46  1  0.95593650  0.27450450  0.08944500  1
  P  P47  1  0.11195150  0.79907050  0.91127000  1
  P  P48  1  0.88665850  0.20247450  0.58913400  1
  P  P49  1  0.04180850  0.73118750  0.40821300  1
  P  P50  1  0.95819150  0.73118750  0.59178700  1
  P  P51  1  0.83157850  0.50575050  0.88007400  1
  P  P52  1  0.83098800  0.49353400  0.38157300  1
  P  P53  1  0.88804850  0.79907050  0.08873000  1
  P  P54  1  0.66080150  0.42566450  0.09157400  1
  P  P55  1  0.66092350  0.57568350  0.59189100  1
  O  O56  1  0.88380700  0.88954700  0.17121100  1
  O  O57  1  0.82824900  0.91869700  0.41727500  1
  O  O58  1  0.39791700  0.61592600  0.49306000  1
  O  O59  1  0.88241550  0.11101950  0.67115900  1
  O  O60  1  0.75990750  0.85482250  0.93061500  1
  O  O61  1  0.82700500  0.08265400  0.92039800  1
  O  O62  1  0.74336450  0.92241850  0.57691500  1
  O  O63  1  0.69094150  0.78674050  0.42665900  1
  O  O64  1  0.12530300  0.12043100  0.68200700  1
  O  O65  1  0.62842700  0.71172500  0.91635600  1
  O  O66  1  0.74303100  0.07818700  0.08061200  1
  O  O67  1  0.66895800  0.85345100  0.07599400  1
  O  O68  1  0.75970600  0.14630100  0.42896200  1
  O  O69  1  0.66931700  0.99715000  0.22367000  1
  O  O70  1  0.66879400  0.99430500  0.72211400  1
  O  O71  1  0.68999000  0.21422500  0.92580600  1
  O  O72  1  0.59249450  0.92034150  0.57632400  1
  O  O73  1  0.66830350  0.14447850  0.57457500  1
  O  O74  1  0.54098150  0.79959050  0.41063000  1
  O  O75  1  0.50000000  0.71021200  0.00000000  1
  O  O76  1  0.50476900  0.73951400  0.81989200  1
  O  O77  1  0.49523100  0.73951400  0.18010800  1
  O  O78  1  0.54740000  0.93034900  0.92914700  1
  O  O79  1  0.59279650  0.07276650  0.07460900  1
  O  O80  1  0.62753250  0.28962650  0.41634600  1
  O  O81  1  0.45901850  0.79959050  0.58937000  1
  O  O82  1  0.54673050  0.07226350  0.43069900  1
  O  O83  1  0.87469700  0.12043100  0.31799300  1
  O  O84  1  0.12758750  0.88762450  0.18274200  1
  O  O85  1  0.45260000  0.93034900  0.07085300  1
  O  O86  1  0.54169050  0.19904150  0.91531300  1
  O  O87  1  0.60184850  0.38673450  0.00668300  1
  O  O88  1  0.37157300  0.71172500  0.08364400  1
  O  O89  1  0.40750550  0.92034150  0.42367600  1
  O  O90  1  0.45326950  0.07226350  0.56930100  1
  O  O91  1  0.49982800  0.26100200  0.68039000  1
  O  O92  1  0.50017200  0.26100200  0.31961000  1
  O  O93  1  0.50000000  0.29241300  0.50000000  1
  O  O94  1  0.45830950  0.19904150  0.08468700  1
  O  O95  1  0.33104200  0.85345100  0.92400600  1
  O  O96  1  0.30905850  0.78674050  0.57334100  1
  O  O97  1  0.40720350  0.07276650  0.92539100  1
  O  O98  1  0.33120600  0.99430500  0.27788600  1
  O  O99  1  0.33068300  0.99715000  0.77633000  1
  O  O100  1  0.24009250  0.85482250  0.06938500  1
  O  O101  1  0.33169650  0.14447850  0.42542500  1
  O  O102  1  0.25663550  0.92241850  0.42308500  1
  O  O103  1  0.37246750  0.28962650  0.58365400  1
  O  O104  1  0.39815150  0.38673450  0.99331700  1
  O  O105  1  0.87241250  0.88762450  0.81725800  1
  O  O106  1  0.31001000  0.21422500  0.07419400  1
  O  O107  1  0.25696900  0.07818700  0.91938800  1
  O  O108  1  0.17175100  0.91869700  0.58272500  1
  O  O109  1  0.24029400  0.14630100  0.57103800  1
  O  O110  1  0.11619300  0.88954700  0.82878900  1
  O  O111  1  0.17299500  0.08265400  0.07960200  1
  O  O112  1  0.11758450  0.11101950  0.32884100  1
  O  O113  1  0.60208300  0.61592600  0.50694000  1
  O  O114  1  0.38380700  0.38954700  0.17121100  1
  O  O115  1  0.32824900  0.41869700  0.41727500  1
  O  O116  1  0.89791700  0.11592600  0.49306000  1
  O  O117  1  0.38241550  0.61101950  0.67115900  1
  O  O118  1  0.25990750  0.35482250  0.93061500  1
  O  O119  1  0.32700500  0.58265400  0.92039800  1
  O  O120  1  0.24336450  0.42241850  0.57691500  1
  O  O121  1  0.19094150  0.28674050  0.42665900  1
  O  O122  1  0.62530300  0.62043100  0.68200700  1
  O  O123  1  0.12842700  0.21172500  0.91635600  1
  O  O124  1  0.24303100  0.57818700  0.08061200  1
  O  O125  1  0.16895800  0.35345100  0.07599400  1
  O  O126  1  0.25970600  0.64630100  0.42896200  1
  O  O127  1  0.16931700  0.49715000  0.22367000  1
  O  O128  1  0.16879400  0.49430500  0.72211400  1
  O  O129  1  0.18999000  0.71422500  0.92580600  1
  O  O130  1  0.09249450  0.42034150  0.57632400  1
  O  O131  1  0.16830350  0.64447850  0.57457500  1
  O  O132  1  0.04098150  0.29959050  0.41063000  1
  O  O133  1  0.00000000  0.21021200  0.00000000  1
  O  O134  1  0.00476900  0.23951400  0.81989200  1
  O  O135  1  0.99523100  0.23951400  0.18010800  1
  O  O136  1  0.04740000  0.43034900  0.92914700  1
  O  O137  1  0.09279650  0.57276650  0.07460900  1
  O  O138  1  0.12753250  0.78962650  0.41634600  1
  O  O139  1  0.95901850  0.29959050  0.58937000  1
  O  O140  1  0.04673050  0.57226350  0.43069900  1
  O  O141  1  0.37469700  0.62043100  0.31799300  1
  O  O142  1  0.62758750  0.38762450  0.18274200  1
  O  O143  1  0.95260000  0.43034900  0.07085300  1
  O  O144  1  0.04169050  0.69904150  0.91531300  1
  O  O145  1  0.10184850  0.88673450  0.00668300  1
  O  O146  1  0.87157300  0.21172500  0.08364400  1
  O  O147  1  0.90750550  0.42034150  0.42367600  1
  O  O148  1  0.95326950  0.57226350  0.56930100  1
  O  O149  1  0.99982800  0.76100200  0.68039000  1
  O  O150  1  0.00017200  0.76100200  0.31961000  1
  O  O151  1  0.00000000  0.79241300  0.50000000  1
  O  O152  1  0.95830950  0.69904150  0.08468700  1
  O  O153  1  0.83104200  0.35345100  0.92400600  1
  O  O154  1  0.80905850  0.28674050  0.57334100  1
  O  O155  1  0.90720350  0.57276650  0.92539100  1
  O  O156  1  0.83120600  0.49430500  0.27788600  1
  O  O157  1  0.83068300  0.49715000  0.77633000  1
  O  O158  1  0.74009250  0.35482250  0.06938500  1
  O  O159  1  0.83169650  0.64447850  0.42542500  1
  O  O160  1  0.75663550  0.42241850  0.42308500  1
  O  O161  1  0.87246750  0.78962650  0.58365400  1
  O  O162  1  0.89815150  0.88673450  0.99331700  1
  O  O163  1  0.37241250  0.38762450  0.81725800  1
  O  O164  1  0.81001000  0.71422500  0.07419400  1
  O  O165  1  0.75696900  0.57818700  0.91938800  1
  O  O166  1  0.67175100  0.41869700  0.58272500  1
  O  O167  1  0.74029400  0.64630100  0.57103800  1
  O  O168  1  0.61619300  0.38954700  0.82878900  1
  O  O169  1  0.67299500  0.58265400  0.07960200  1
  O  O170  1  0.61758450  0.61101950  0.32884100  1
  O  O171  1  0.10208300  0.11592600  0.50694000  1
