# generated using pymatgen
data_V3(O2F)2
_symmetry_space_group_name_H-M   'P 1'
_cell_length_a   6.66447800
_cell_length_b   6.67701600
_cell_length_c   9.02389834
_cell_angle_alpha   90.00000000
_cell_angle_beta   91.07502502
_cell_angle_gamma   90.00000000
_symmetry_Int_Tables_number   1
_chemical_formula_structural   V3(O2F)2
_chemical_formula_sum   'V12 O16 F8'
_cell_volume   401.48220495
_cell_formula_units_Z   4
loop_
 _symmetry_equiv_pos_site_id
 _symmetry_equiv_pos_as_xyz
  1  'x, y, z'
loop_
 _atom_site_type_symbol
 _atom_site_label
 _atom_site_symmetry_multiplicity
 _atom_site_fract_x
 _atom_site_fract_y
 _atom_site_fract_z
 _atom_site_occupancy
  V  V0  1  0.02800500  0.98716500  0.15352400  1
  V  V1  1  0.97199500  0.98716500  0.84647600  1
  V  V2  1  0.50000000  0.48931300  0.50000000  1
  V  V3  1  0.50000000  0.99094400  0.00000000  1
  V  V4  1  0.49053000  0.02508100  0.34576900  1
  V  V5  1  0.50947000  0.02508100  0.65423100  1
  V  V6  1  0.52800500  0.48716500  0.15352400  1
  V  V7  1  0.47199500  0.48716500  0.84647600  1
  V  V8  1  0.00000000  0.98931300  0.50000000  1
  V  V9  1  0.00000000  0.49094400  0.00000000  1
  V  V10  1  0.99053000  0.52508100  0.34576900  1
  V  V11  1  0.00947000  0.52508100  0.65423100  1
  O  O12  1  0.50000000  0.28683600  0.00000000  1
  O  O13  1  0.49806800  0.30721200  0.67202300  1
  O  O14  1  0.50193200  0.30721200  0.32797700  1
  O  O15  1  0.68806650  0.99517450  0.82963200  1
  O  O16  1  0.70377250  0.00553150  0.49722400  1
  O  O17  1  0.31193350  0.99517450  0.17036800  1
  O  O18  1  0.29622750  0.00553150  0.50277600  1
  O  O19  1  0.50000000  0.69152300  0.00000000  1
  O  O20  1  0.00000000  0.78683600  0.00000000  1
  O  O21  1  0.99806800  0.80721200  0.67202300  1
  O  O22  1  0.00193200  0.80721200  0.32797700  1
  O  O23  1  0.18806650  0.49517450  0.82963200  1
  O  O24  1  0.20377250  0.50553150  0.49722400  1
  O  O25  1  0.81193350  0.49517450  0.17036800  1
  O  O26  1  0.79622750  0.50553150  0.50277600  1
  O  O27  1  0.00000000  0.19152300  0.00000000  1
  F  F28  1  0.70628550  0.99923150  0.17108000  1
  F  F29  1  0.29371450  0.99923150  0.82892000  1
  F  F30  1  0.50548150  0.70129650  0.32983800  1
  F  F31  1  0.49451850  0.70129650  0.67016200  1
  F  F32  1  0.20628550  0.49923150  0.17108000  1
  F  F33  1  0.79371450  0.49923150  0.82892000  1
  F  F34  1  0.00548150  0.20129650  0.32983800  1
  F  F35  1  0.99451850  0.20129650  0.67016200  1
