# generated using pymatgen
data_Ni(SO4)2
_symmetry_space_group_name_H-M   'P 1'
_cell_length_a   8.48821793
_cell_length_b   8.48821793
_cell_length_c   22.66719543
_cell_angle_alpha   90.00000000
_cell_angle_beta   90.00000000
_cell_angle_gamma   120.00000000
_symmetry_Int_Tables_number   1
_chemical_formula_structural   Ni(SO4)2
_chemical_formula_sum   'Ni9 S18 O72'
_cell_volume   1414.36487654
_cell_formula_units_Z   9
loop_
 _symmetry_equiv_pos_site_id
 _symmetry_equiv_pos_as_xyz
  1  'x, y, z'
loop_
 _atom_site_type_symbol
 _atom_site_label
 _atom_site_symmetry_multiplicity
 _atom_site_fract_x
 _atom_site_fract_y
 _atom_site_fract_z
 _atom_site_occupancy
  Ni  Ni0  1  0.33333333  0.66666667  0.02306367  1
  Ni  Ni1  1  0.33333333  0.66666667  0.31035367  1
  Ni  Ni2  1  0.66666667  0.33333333  0.18442833  1
  Ni  Ni3  1  0.00000000  0.00000000  0.35639700  1
  Ni  Ni4  1  0.00000000  0.00000000  0.64368700  1
  Ni  Ni5  1  0.33333333  0.66666667  0.51776167  1
  Ni  Ni6  1  0.66666667  0.33333333  0.68973033  1
  Ni  Ni7  1  0.66666667  0.33333333  0.97702033  1
  Ni  Ni8  1  0.00000000  0.00000000  0.85109500  1
  S  S9  1  0.95914000  0.33950500  0.08421000  1
  S  S10  1  0.38036500  0.04086000  0.08421000  1
  S  S11  1  0.66049500  0.61963500  0.08421000  1
  S  S12  1  0.99933933  0.70837667  0.25045167  1
  S  S13  1  0.29162333  0.29096267  0.25045167  1
  S  S14  1  0.70903733  0.00066067  0.25045167  1
  S  S15  1  0.62580667  0.67283833  0.41754333  1
  S  S16  1  0.04703167  0.37419333  0.41754333  1
  S  S17  1  0.32716167  0.95296833  0.41754333  1
  S  S18  1  0.66600600  0.04171000  0.58378500  1
  S  S19  1  0.95829000  0.62429600  0.58378500  1
  S  S20  1  0.37570400  0.33399400  0.58378500  1
  S  S21  1  0.29247333  0.00617167  0.75087667  1
  S  S22  1  0.71369833  0.70752667  0.75087667  1
  S  S23  1  0.99382833  0.28630167  0.75087667  1
  S  S24  1  0.33267267  0.37504333  0.91711833  1
  S  S25  1  0.62495667  0.95762933  0.91711833  1
  S  S26  1  0.04237067  0.66732733  0.91711833  1
  O  O27  1  0.79804467  0.00398233  0.30658833  1
  O  O28  1  0.99601767  0.79406233  0.30658833  1
  O  O29  1  0.90925667  0.14753833  0.09624733  1
  O  O30  1  0.20593767  0.20195533  0.30658833  1
  O  O31  1  0.89366033  0.41133467  0.13215867  1
  O  O32  1  0.15736367  0.45864333  0.07829733  1
  O  O33  1  0.30127967  0.84263633  0.07829733  1
  O  O34  1  0.23828167  0.09074333  0.09624733  1
  O  O35  1  0.54135667  0.69872033  0.07829733  1
  O  O36  1  0.81301633  0.56224667  0.23596567  1
  O  O37  1  0.07508033  0.84500867  0.20178967  1
  O  O38  1  0.15499133  0.23007167  0.20178967  1
  O  O39  1  0.51767433  0.10633967  0.13215867  1
  O  O40  1  0.58866533  0.48232567  0.13215867  1
  O  O41  1  0.85246167  0.76171833  0.09624733  1
  O  O42  1  0.12441733  0.63215867  0.25480767  1
  O  O43  1  0.43775333  0.25076967  0.23596567  1
  O  O44  1  0.36784133  0.49225867  0.25480767  1
  O  O45  1  0.50774133  0.87558267  0.25480767  1
  O  O46  1  0.76992833  0.92491967  0.20178967  1
  O  O47  1  0.46262967  0.13100733  0.02654433  1
  O  O48  1  0.74923033  0.18698367  0.23596567  1
  O  O49  1  0.66837767  0.53737033  0.02654433  1
  O  O50  1  0.86899267  0.33162233  0.02654433  1
  O  O51  1  0.46471133  0.33731567  0.63992167  1
  O  O52  1  0.66268433  0.12739567  0.63992167  1
  O  O53  1  0.57592333  0.48087167  0.42958067  1
  O  O54  1  0.87260433  0.53528867  0.63992167  1
  O  O55  1  0.56032700  0.74466800  0.46549200  1
  O  O56  1  0.82403033  0.79197667  0.41163067  1
  O  O57  1  0.96794633  0.17596967  0.41163067  1
  O  O58  1  0.90494833  0.42407667  0.42958067  1
  O  O59  1  0.20802333  0.03205367  0.41163067  1
  O  O60  1  0.47968300  0.89558000  0.56929900  1
  O  O61  1  0.74174700  0.17834200  0.53512300  1
  O  O62  1  0.82165800  0.56340500  0.53512300  1
  O  O63  1  0.18434100  0.43967300  0.46549200  1
  O  O64  1  0.25533200  0.81565900  0.46549200  1
  O  O65  1  0.51912833  0.09505167  0.42958067  1
  O  O66  1  0.79108400  0.96549200  0.58814100  1
  O  O67  1  0.10442000  0.58410300  0.56929900  1
  O  O68  1  0.03450800  0.82559200  0.58814100  1
  O  O69  1  0.17440800  0.20891600  0.58814100  1
  O  O70  1  0.43659500  0.25825300  0.53512300  1
  O  O71  1  0.12929633  0.46434067  0.35987767  1
  O  O72  1  0.41589700  0.52031700  0.56929900  1
  O  O73  1  0.33504433  0.87070367  0.35987767  1
  O  O74  1  0.53565933  0.66495567  0.35987767  1
  O  O75  1  0.13137800  0.67064900  0.97325500  1
  O  O76  1  0.32935100  0.46072900  0.97325500  1
  O  O77  1  0.24259000  0.81420500  0.76291400  1
  O  O78  1  0.53927100  0.86862200  0.97325500  1
  O  O79  1  0.22699367  0.07800133  0.79882533  1
  O  O80  1  0.49069700  0.12531000  0.74496400  1
  O  O81  1  0.63461300  0.50930300  0.74496400  1
  O  O82  1  0.57161500  0.75741000  0.76291400  1
  O  O83  1  0.87469000  0.36538700  0.74496400  1
  O  O84  1  0.14634967  0.22891333  0.90263233  1
  O  O85  1  0.40841367  0.51167533  0.86845633  1
  O  O86  1  0.48832467  0.89673833  0.86845633  1
  O  O87  1  0.85100767  0.77300633  0.79882533  1
  O  O88  1  0.92199867  0.14899233  0.79882533  1
  O  O89  1  0.18579500  0.42838500  0.76291400  1
  O  O90  1  0.45775067  0.29882533  0.92147433  1
  O  O91  1  0.77108667  0.91743633  0.90263233  1
  O  O92  1  0.70117467  0.15892533  0.92147433  1
  O  O93  1  0.84107467  0.54224933  0.92147433  1
  O  O94  1  0.10326167  0.59158633  0.86845633  1
  O  O95  1  0.79596300  0.79767400  0.69321100  1
  O  O96  1  0.08256367  0.85365033  0.90263233  1
  O  O97  1  0.00171100  0.20403700  0.69321100  1
  O  O98  1  0.20232600  0.99828900  0.69321100  1
