# generated using pymatgen
data_Ba5Bi3O11
_symmetry_space_group_name_H-M   'P 1'
_cell_length_a   8.88322200
_cell_length_b   8.88924000
_cell_length_c   9.23510400
_cell_angle_alpha   90.00000000
_cell_angle_beta   90.00000000
_cell_angle_gamma   90.00000000
_symmetry_Int_Tables_number   1
_chemical_formula_structural   Ba5Bi3O11
_chemical_formula_sum   'Ba10 Bi6 O22'
_cell_volume   729.25084005
_cell_formula_units_Z   2
loop_
 _symmetry_equiv_pos_site_id
 _symmetry_equiv_pos_as_xyz
  1  'x, y, z'
loop_
 _atom_site_type_symbol
 _atom_site_label
 _atom_site_symmetry_multiplicity
 _atom_site_fract_x
 _atom_site_fract_y
 _atom_site_fract_z
 _atom_site_occupancy
  Ba  Ba0  1  0.76578650  0.22275150  0.22811000  1
  Ba  Ba1  1  0.76578650  0.22275150  0.77189000  1
  Ba  Ba2  1  0.50000000  0.48149000  0.50000000  1
  Ba  Ba3  1  0.23421350  0.22275150  0.22811000  1
  Ba  Ba4  1  0.23421350  0.22275150  0.77189000  1
  Ba  Ba5  1  0.26578650  0.72275150  0.22811000  1
  Ba  Ba6  1  0.26578650  0.72275150  0.77189000  1
  Ba  Ba7  1  0.00000000  0.98149000  0.50000000  1
  Ba  Ba8  1  0.73421350  0.72275150  0.22811000  1
  Ba  Ba9  1  0.73421350  0.72275150  0.77189000  1
  Bi  Bi10  1  0.50000000  0.48230100  0.00000000  1
  Bi  Bi11  1  0.50000000  0.99009500  0.00000000  1
  Bi  Bi12  1  0.50000000  0.99559300  0.50000000  1
  Bi  Bi13  1  0.00000000  0.98230100  0.00000000  1
  Bi  Bi14  1  0.00000000  0.49009500  0.00000000  1
  Bi  Bi15  1  0.00000000  0.49559300  0.50000000  1
  O  O16  1  0.50000000  0.73141500  0.00000000  1
  O  O17  1  0.24376150  0.99950050  0.00000000  1
  O  O18  1  0.75623850  0.99950050  0.00000000  1
  O  O19  1  0.50000000  0.48900500  0.23212100  1
  O  O20  1  0.50000000  0.75939100  0.50000000  1
  O  O21  1  0.50000000  0.99177300  0.25030800  1
  O  O22  1  0.50000000  0.24288600  0.00000000  1
  O  O23  1  0.71752150  0.11178350  0.50000000  1
  O  O24  1  0.28247850  0.11178350  0.50000000  1
  O  O25  1  0.50000000  0.99177300  0.74969200  1
  O  O26  1  0.50000000  0.48900500  0.76787900  1
  O  O27  1  0.00000000  0.23141500  0.00000000  1
  O  O28  1  0.74376150  0.49950050  0.00000000  1
  O  O29  1  0.25623850  0.49950050  0.00000000  1
  O  O30  1  0.00000000  0.98900500  0.23212100  1
  O  O31  1  0.00000000  0.25939100  0.50000000  1
  O  O32  1  0.00000000  0.49177300  0.25030800  1
  O  O33  1  0.00000000  0.74288600  0.00000000  1
  O  O34  1  0.21752150  0.61178350  0.50000000  1
  O  O35  1  0.78247850  0.61178350  0.50000000  1
  O  O36  1  0.00000000  0.49177300  0.74969200  1
  O  O37  1  0.00000000  0.98900500  0.76787900  1
