# generated using pymatgen
data_NaCo2H3(SO5)2
_symmetry_space_group_name_H-M   'P 1'
_cell_length_a   11.06951600
_cell_length_b   6.11822800
_cell_length_c   7.49151279
_cell_angle_alpha   90.00000000
_cell_angle_beta   116.48378409
_cell_angle_gamma   90.00000000
_symmetry_Int_Tables_number   1
_chemical_formula_structural   NaCo2H3(SO5)2
_chemical_formula_sum   'Na2 Co4 H6 S4 O20'
_cell_volume   454.12588730
_cell_formula_units_Z   2
loop_
 _symmetry_equiv_pos_site_id
 _symmetry_equiv_pos_as_xyz
  1  'x, y, z'
loop_
 _atom_site_type_symbol
 _atom_site_label
 _atom_site_symmetry_multiplicity
 _atom_site_fract_x
 _atom_site_fract_y
 _atom_site_fract_z
 _atom_site_occupancy
  Na  Na0  1  0.00283600  0.50000000  0.51666500  1
  Na  Na1  1  0.50283600  0.00000000  0.51666500  1
  Co  Co2  1  0.24997850  0.74229750  0.01097300  1
  Co  Co3  1  0.24997850  0.25770250  0.01097300  1
  Co  Co4  1  0.74997850  0.24229750  0.01097300  1
  Co  Co5  1  0.74997850  0.75770250  0.01097300  1
  H  H6  1  0.40213900  0.50000000  0.32178100  1
  H  H7  1  0.46807500  0.00000000  0.95244600  1
  H  H8  1  0.11403200  0.00000000  0.70565400  1
  H  H9  1  0.90213900  0.00000000  0.32178100  1
  H  H10  1  0.96807500  0.50000000  0.95244600  1
  H  H11  1  0.61403200  0.50000000  0.70565400  1
  S  S12  1  0.04264400  0.00000000  0.25905300  1
  S  S13  1  0.46247900  0.50000000  0.74270000  1
  S  S14  1  0.54264400  0.50000000  0.25905300  1
  S  S15  1  0.96247900  0.00000000  0.74270000  1
  O  O16  1  0.36547000  0.00000000  0.87919500  1
  O  O17  1  0.18084900  0.50000000  0.30503700  1
  O  O18  1  0.24006700  0.00000000  0.12115600  1
  O  O19  1  0.06677850  0.18233250  0.73122300  1
  O  O20  1  0.44589100  0.68235900  0.28637500  1
  O  O21  1  0.06677850  0.81766750  0.73122300  1
  O  O22  1  0.44589100  0.31764100  0.28637500  1
  O  O23  1  0.27279100  0.50000000  0.88997100  1
  O  O24  1  0.33152700  0.00000000  0.67280100  1
  O  O25  1  0.14579500  0.50000000  0.10639900  1
  O  O26  1  0.86547000  0.50000000  0.87919500  1
  O  O27  1  0.68084900  0.00000000  0.30503700  1
  O  O28  1  0.74006700  0.50000000  0.12115600  1
  O  O29  1  0.56677850  0.68233250  0.73122300  1
  O  O30  1  0.94589100  0.18235900  0.28637500  1
  O  O31  1  0.56677850  0.31766750  0.73122300  1
  O  O32  1  0.94589100  0.81764100  0.28637500  1
  O  O33  1  0.77279100  0.00000000  0.88997100  1
  O  O34  1  0.83152700  0.50000000  0.67280100  1
  O  O35  1  0.64579500  0.00000000  0.10639900  1
