# generated using pymatgen
data_LiSn(PO3)4
_symmetry_space_group_name_H-M   'P 1'
_cell_length_a   10.07338800
_cell_length_b   11.78453600
_cell_length_c   17.76934800
_cell_angle_alpha   90.00000000
_cell_angle_beta   90.00000000
_cell_angle_gamma   90.00000000
_symmetry_Int_Tables_number   1
_chemical_formula_structural   LiSn(PO3)4
_chemical_formula_sum   'Li8 Sn8 P32 O96'
_cell_volume   2109.40291764
_cell_formula_units_Z   8
loop_
 _symmetry_equiv_pos_site_id
 _symmetry_equiv_pos_as_xyz
  1  'x, y, z'
loop_
 _atom_site_type_symbol
 _atom_site_label
 _atom_site_symmetry_multiplicity
 _atom_site_fract_x
 _atom_site_fract_y
 _atom_site_fract_z
 _atom_site_occupancy
  Li  Li0  1  0.14591900  0.95331700  0.64597300  1
  Li  Li1  1  0.85408100  0.95331700  0.85402700  1
  Li  Li2  1  0.85408100  0.04668300  0.14597300  1
  Li  Li3  1  0.14591900  0.04668300  0.35402700  1
  Li  Li4  1  0.64591900  0.45331700  0.64597300  1
  Li  Li5  1  0.35408100  0.45331700  0.85402700  1
  Li  Li6  1  0.35408100  0.54668300  0.14597300  1
  Li  Li7  1  0.64591900  0.54668300  0.35402700  1
  Sn  Sn8  1  0.77462850  0.20348150  0.86993500  1
  Sn  Sn9  1  0.22537150  0.20348150  0.63006500  1
  Sn  Sn10  1  0.22537150  0.79651850  0.36993500  1
  Sn  Sn11  1  0.77462850  0.79651850  0.13006500  1
  Sn  Sn12  1  0.27462850  0.70348150  0.86993500  1
  Sn  Sn13  1  0.72537150  0.70348150  0.63006500  1
  Sn  Sn14  1  0.72537150  0.29651850  0.36993500  1
  Sn  Sn15  1  0.27462850  0.29651850  0.13006500  1
  P  P16  1  0.39463700  0.35830100  0.34565500  1
  P  P17  1  0.60536300  0.35830100  0.15434500  1
  P  P18  1  0.54290700  0.23973100  0.01045800  1
  P  P19  1  0.45709300  0.23973100  0.48954200  1
  P  P20  1  0.50000000  0.13830600  0.75000000  1
  P  P21  1  0.30110900  0.02681000  0.19026600  1
  P  P22  1  0.69889100  0.02681000  0.30973400  1
  P  P23  1  0.35085000  0.00000000  0.50000000  1
  P  P24  1  0.64915000  0.00000000  0.00000000  1
  P  P25  1  0.30110900  0.97319000  0.80973400  1
  P  P26  1  0.69889100  0.97319000  0.69026600  1
  P  P27  1  0.50000000  0.86169400  0.25000000  1
  P  P28  1  0.54290700  0.76026900  0.98954200  1
  P  P29  1  0.45709300  0.76026900  0.51045800  1
  P  P30  1  0.39463700  0.64169900  0.65434500  1
  P  P31  1  0.60536300  0.64169900  0.84565500  1
  P  P32  1  0.89463700  0.85830100  0.34565500  1
  P  P33  1  0.10536300  0.85830100  0.15434500  1
  P  P34  1  0.04290700  0.73973100  0.01045800  1
  P  P35  1  0.95709300  0.73973100  0.48954200  1
  P  P36  1  0.00000000  0.63830600  0.75000000  1
  P  P37  1  0.80110900  0.52681000  0.19026600  1
  P  P38  1  0.19889100  0.52681000  0.30973400  1
  P  P39  1  0.85085000  0.50000000  0.50000000  1
  P  P40  1  0.14915000  0.50000000  0.00000000  1
  P  P41  1  0.80110900  0.47319000  0.80973400  1
  P  P42  1  0.19889100  0.47319000  0.69026600  1
  P  P43  1  0.00000000  0.36169400  0.25000000  1
  P  P44  1  0.04290700  0.26026900  0.98954200  1
  P  P45  1  0.95709300  0.26026900  0.51045800  1
  P  P46  1  0.89463700  0.14169900  0.65434500  1
  P  P47  1  0.10536300  0.14169900  0.84565500  1
  O  O48  1  0.46721300  0.41036700  0.14604600  1
  O  O49  1  0.53278700  0.41036700  0.35395400  1
  O  O50  1  0.35040850  0.29857850  0.27702400  1
  O  O51  1  0.64959150  0.29857850  0.22297600  1
  O  O52  1  0.40070200  0.27734300  0.01802400  1
  O  O53  1  0.59929800  0.27734300  0.48197600  1
  O  O54  1  0.37149650  0.27273550  0.41642900  1
  O  O55  1  0.62850350  0.27273550  0.08357100  1
  O  O56  1  0.38348100  0.28068400  0.55844900  1
  O  O57  1  0.61651900  0.28068400  0.94155100  1
  O  O58  1  0.59777600  0.20902700  0.79388400  1
  O  O59  1  0.40222400  0.20902700  0.70611600  1
  O  O60  1  0.34968800  0.13031500  0.14784100  1
  O  O61  1  0.65031200  0.13031500  0.35215900  1
  O  O62  1  0.54598850  0.10209650  0.01236400  1
  O  O63  1  0.45401150  0.10209650  0.48763600  1
  O  O64  1  0.79573650  0.03776750  0.63188800  1
  O  O65  1  0.20426350  0.03776750  0.86811200  1
  O  O66  1  0.57004050  0.05540350  0.69061900  1
  O  O67  1  0.42995950  0.05540350  0.80938100  1
  O  O68  1  0.72738700  0.01852300  0.92835000  1
  O  O69  1  0.27261300  0.01852300  0.57165000  1
  O  O70  1  0.75891700  0.03908600  0.23421700  1
  O  O71  1  0.24108300  0.03908600  0.26578300  1
  O  O72  1  0.24108300  0.96091400  0.73421700  1
  O  O73  1  0.75891700  0.96091400  0.76578300  1
  O  O74  1  0.27261300  0.98147700  0.42835000  1
  O  O75  1  0.72738700  0.98147700  0.07165000  1
  O  O76  1  0.57004050  0.94459650  0.30938100  1
  O  O77  1  0.42995950  0.94459650  0.19061900  1
  O  O78  1  0.20426350  0.96223250  0.13188800  1
  O  O79  1  0.79573650  0.96223250  0.36811200  1
  O  O80  1  0.54598850  0.89790350  0.98763600  1
  O  O81  1  0.45401150  0.89790350  0.51236400  1
  O  O82  1  0.65031200  0.86968500  0.64784100  1
  O  O83  1  0.34968800  0.86968500  0.85215900  1
  O  O84  1  0.59777600  0.79097300  0.20611600  1
  O  O85  1  0.40222400  0.79097300  0.29388400  1
  O  O86  1  0.38348100  0.71931600  0.44155100  1
  O  O87  1  0.61651900  0.71931600  0.05844900  1
  O  O88  1  0.37149650  0.72726450  0.58357100  1
  O  O89  1  0.62850350  0.72726450  0.91642900  1
  O  O90  1  0.59929800  0.72265700  0.51802400  1
  O  O91  1  0.40070200  0.72265700  0.98197600  1
  O  O92  1  0.35040850  0.70142150  0.72297600  1
  O  O93  1  0.64959150  0.70142150  0.77702400  1
  O  O94  1  0.53278700  0.58963300  0.64604600  1
  O  O95  1  0.46721300  0.58963300  0.85395400  1
  O  O96  1  0.96721300  0.91036700  0.14604600  1
  O  O97  1  0.03278700  0.91036700  0.35395400  1
  O  O98  1  0.85040850  0.79857850  0.27702400  1
  O  O99  1  0.14959150  0.79857850  0.22297600  1
  O  O100  1  0.90070200  0.77734300  0.01802400  1
  O  O101  1  0.09929800  0.77734300  0.48197600  1
  O  O102  1  0.87149650  0.77273550  0.41642900  1
  O  O103  1  0.12850350  0.77273550  0.08357100  1
  O  O104  1  0.88348100  0.78068400  0.55844900  1
  O  O105  1  0.11651900  0.78068400  0.94155100  1
  O  O106  1  0.09777600  0.70902700  0.79388400  1
  O  O107  1  0.90222400  0.70902700  0.70611600  1
  O  O108  1  0.84968800  0.63031500  0.14784100  1
  O  O109  1  0.15031200  0.63031500  0.35215900  1
  O  O110  1  0.04598850  0.60209650  0.01236400  1
  O  O111  1  0.95401150  0.60209650  0.48763600  1
  O  O112  1  0.29573650  0.53776750  0.63188800  1
  O  O113  1  0.70426350  0.53776750  0.86811200  1
  O  O114  1  0.07004050  0.55540350  0.69061900  1
  O  O115  1  0.92995950  0.55540350  0.80938100  1
  O  O116  1  0.22738700  0.51852300  0.92835000  1
  O  O117  1  0.77261300  0.51852300  0.57165000  1
  O  O118  1  0.25891700  0.53908600  0.23421700  1
  O  O119  1  0.74108300  0.53908600  0.26578300  1
  O  O120  1  0.74108300  0.46091400  0.73421700  1
  O  O121  1  0.25891700  0.46091400  0.76578300  1
  O  O122  1  0.77261300  0.48147700  0.42835000  1
  O  O123  1  0.22738700  0.48147700  0.07165000  1
  O  O124  1  0.07004050  0.44459650  0.30938100  1
  O  O125  1  0.92995950  0.44459650  0.19061900  1
  O  O126  1  0.70426350  0.46223250  0.13188800  1
  O  O127  1  0.29573650  0.46223250  0.36811200  1
  O  O128  1  0.04598850  0.39790350  0.98763600  1
  O  O129  1  0.95401150  0.39790350  0.51236400  1
  O  O130  1  0.15031200  0.36968500  0.64784100  1
  O  O131  1  0.84968800  0.36968500  0.85215900  1
  O  O132  1  0.09777600  0.29097300  0.20611600  1
  O  O133  1  0.90222400  0.29097300  0.29388400  1
  O  O134  1  0.88348100  0.21931600  0.44155100  1
  O  O135  1  0.11651900  0.21931600  0.05844900  1
  O  O136  1  0.87149650  0.22726450  0.58357100  1
  O  O137  1  0.12850350  0.22726450  0.91642900  1
  O  O138  1  0.09929800  0.22265700  0.51802400  1
  O  O139  1  0.90070200  0.22265700  0.98197600  1
  O  O140  1  0.85040850  0.20142150  0.72297600  1
  O  O141  1  0.14959150  0.20142150  0.77702400  1
  O  O142  1  0.03278700  0.08963300  0.64604600  1
  O  O143  1  0.96721300  0.08963300  0.85395400  1
