# generated using pymatgen
data_SrNd7Fe8(AsO)8
_symmetry_space_group_name_H-M   'P 1'
_cell_length_a   8.19414600
_cell_length_b   8.19414600
_cell_length_c   18.74133000
_cell_angle_alpha   90.00000000
_cell_angle_beta   90.00000000
_cell_angle_gamma   90.00000000
_symmetry_Int_Tables_number   1
_chemical_formula_structural   SrNd7Fe8(AsO)8
_chemical_formula_sum   'Sr2 Nd14 Fe16 As16 O16'
_cell_volume   1258.36839882
_cell_formula_units_Z   2
loop_
 _symmetry_equiv_pos_site_id
 _symmetry_equiv_pos_as_xyz
  1  'x, y, z'
loop_
 _atom_site_type_symbol
 _atom_site_label
 _atom_site_symmetry_multiplicity
 _atom_site_fract_x
 _atom_site_fract_y
 _atom_site_fract_z
 _atom_site_occupancy
  Sr  Sr0  1  0.00000000  0.00000000  0.30883700  1
  Sr  Sr1  1  0.50000000  0.50000000  0.80883700  1
  Nd  Nd2  1  0.75101350  0.75101350  0.43610850  1
  Nd  Nd3  1  0.75101350  0.24898650  0.43610850  1
  Nd  Nd4  1  0.50000000  0.00000000  0.31440400  1
  Nd  Nd5  1  0.50000000  0.50000000  0.31262600  1
  Nd  Nd6  1  0.24898650  0.75101350  0.43610850  1
  Nd  Nd7  1  0.24898650  0.24898650  0.43610850  1
  Nd  Nd8  1  0.00000000  0.50000000  0.31440400  1
  Nd  Nd9  1  0.25101350  0.25101350  0.93610850  1
  Nd  Nd10  1  0.25101350  0.74898650  0.93610850  1
  Nd  Nd11  1  0.00000000  0.50000000  0.81440400  1
  Nd  Nd12  1  0.00000000  0.00000000  0.81262600  1
  Nd  Nd13  1  0.74898650  0.25101350  0.93610850  1
  Nd  Nd14  1  0.74898650  0.74898650  0.93610850  1
  Nd  Nd15  1  0.50000000  0.00000000  0.81440400  1
  Fe  Fe16  1  0.25023900  0.50000000  0.12441600  1
  Fe  Fe17  1  0.24982100  0.00000000  0.12513700  1
  Fe  Fe18  1  0.50000000  0.74976100  0.12441600  1
  Fe  Fe19  1  0.50000000  0.25023900  0.12441600  1
  Fe  Fe20  1  0.74976100  0.50000000  0.12441600  1
  Fe  Fe21  1  0.75017900  0.00000000  0.12513700  1
  Fe  Fe22  1  0.00000000  0.75017900  0.12513700  1
  Fe  Fe23  1  0.00000000  0.24982100  0.12513700  1
  Fe  Fe24  1  0.75023900  0.00000000  0.62441600  1
  Fe  Fe25  1  0.74982100  0.50000000  0.62513700  1
  Fe  Fe26  1  0.00000000  0.24976100  0.62441600  1
  Fe  Fe27  1  0.00000000  0.75023900  0.62441600  1
  Fe  Fe28  1  0.24976100  0.00000000  0.62441600  1
  Fe  Fe29  1  0.25017900  0.50000000  0.62513700  1
  Fe  Fe30  1  0.50000000  0.25017900  0.62513700  1
  Fe  Fe31  1  0.50000000  0.74982100  0.62513700  1
  As  As32  1  0.25073650  0.74926350  0.21224950  1
  As  As33  1  0.25073650  0.25073650  0.21224950  1
  As  As34  1  0.50000000  0.50000000  0.03648200  1
  As  As35  1  0.50000000  0.00000000  0.03760400  1
  As  As36  1  0.74926350  0.74926350  0.21224950  1
  As  As37  1  0.74926350  0.25073650  0.21224950  1
  As  As38  1  0.00000000  0.50000000  0.03760400  1
  As  As39  1  0.00000000  0.00000000  0.03719000  1
  As  As40  1  0.75073650  0.24926350  0.71224950  1
  As  As41  1  0.75073650  0.75073650  0.71224950  1
  As  As42  1  0.00000000  0.00000000  0.53648200  1
  As  As43  1  0.00000000  0.50000000  0.53760400  1
  As  As44  1  0.24926350  0.24926350  0.71224950  1
  As  As45  1  0.24926350  0.75073650  0.71224950  1
  As  As46  1  0.50000000  0.00000000  0.53760400  1
  As  As47  1  0.50000000  0.50000000  0.53719000  1
  O  O48  1  0.50000000  0.74751700  0.37434300  1
  O  O49  1  0.50000000  0.25248300  0.37434300  1
  O  O50  1  0.74082400  0.00000000  0.37816400  1
  O  O51  1  0.74751700  0.50000000  0.37434300  1
  O  O52  1  0.00000000  0.74082400  0.37816400  1
  O  O53  1  0.00000000  0.25917600  0.37816400  1
  O  O54  1  0.25917600  0.00000000  0.37816400  1
  O  O55  1  0.25248300  0.50000000  0.37434300  1
  O  O56  1  0.00000000  0.24751700  0.87434300  1
  O  O57  1  0.00000000  0.75248300  0.87434300  1
  O  O58  1  0.24082400  0.50000000  0.87816400  1
  O  O59  1  0.24751700  0.00000000  0.87434300  1
  O  O60  1  0.50000000  0.24082400  0.87816400  1
  O  O61  1  0.50000000  0.75917600  0.87816400  1
  O  O62  1  0.75917600  0.50000000  0.87816400  1
  O  O63  1  0.75248300  0.00000000  0.87434300  1
