# generated using pymatgen
data_Li4(CuO2)3
_symmetry_space_group_name_H-M   'P 1'
_cell_length_a   10.09546000
_cell_length_b   3.52741400
_cell_length_c   8.37610315
_cell_angle_alpha   90.00000000
_cell_angle_beta   106.07680461
_cell_angle_gamma   90.00000000
_symmetry_Int_Tables_number   1
_chemical_formula_structural   Li4(CuO2)3
_chemical_formula_sum   'Li8 Cu6 O12'
_cell_volume   286.61495284
_cell_formula_units_Z   2
loop_
 _symmetry_equiv_pos_site_id
 _symmetry_equiv_pos_as_xyz
  1  'x, y, z'
loop_
 _atom_site_type_symbol
 _atom_site_label
 _atom_site_symmetry_multiplicity
 _atom_site_fract_x
 _atom_site_fract_y
 _atom_site_fract_z
 _atom_site_occupancy
  Li  Li0  1  0.77896000  0.00000000  0.74457800  1
  Li  Li1  1  0.72360900  0.50000000  0.92136100  1
  Li  Li2  1  0.77972500  0.00000000  0.44053500  1
  Li  Li3  1  0.71862700  0.50000000  0.22601000  1
  Li  Li4  1  0.27896000  0.50000000  0.74457800  1
  Li  Li5  1  0.22360900  0.00000000  0.92136100  1
  Li  Li6  1  0.27972500  0.50000000  0.44053500  1
  Li  Li7  1  0.21862700  0.00000000  0.22601000  1
  Cu  Cu8  1  0.99903600  0.50000000  0.33421400  1
  Cu  Cu9  1  0.99708600  0.50000000  0.66275600  1
  Cu  Cu10  1  0.50438900  0.00000000  0.00369900  1
  Cu  Cu11  1  0.49903600  0.00000000  0.33421400  1
  Cu  Cu12  1  0.49708600  0.00000000  0.66275600  1
  Cu  Cu13  1  0.00438900  0.50000000  0.00369900  1
  O  O14  1  0.86924100  0.50000000  0.78839600  1
  O  O15  1  0.62510100  0.00000000  0.54139700  1
  O  O16  1  0.87203800  0.50000000  0.12811500  1
  O  O17  1  0.63264500  0.00000000  0.86693600  1
  O  O18  1  0.86651200  0.50000000  0.45192100  1
  O  O19  1  0.63492500  0.00000000  0.22341700  1
  O  O20  1  0.36924100  0.00000000  0.78839600  1
  O  O21  1  0.12510100  0.50000000  0.54139700  1
  O  O22  1  0.37203800  0.00000000  0.12811500  1
  O  O23  1  0.13264500  0.50000000  0.86693600  1
  O  O24  1  0.36651200  0.00000000  0.45192100  1
  O  O25  1  0.13492500  0.50000000  0.22341700  1
