# generated using pymatgen
data_Li2Si3Ni2O9
_symmetry_space_group_name_H-M   'P 1'
_cell_length_a   9.93840954
_cell_length_b   9.93840954
_cell_length_c   12.24471200
_cell_angle_alpha   90.00000000
_cell_angle_beta   90.00000000
_cell_angle_gamma   120.00000000
_symmetry_Int_Tables_number   1
_chemical_formula_structural   Li2Si3Ni2O9
_chemical_formula_sum   'Li12 Si18 Ni12 O54'
_cell_volume   1047.40100085
_cell_formula_units_Z   6
loop_
 _symmetry_equiv_pos_site_id
 _symmetry_equiv_pos_as_xyz
  1  'x, y, z'
loop_
 _atom_site_type_symbol
 _atom_site_label
 _atom_site_symmetry_multiplicity
 _atom_site_fract_x
 _atom_site_fract_y
 _atom_site_fract_z
 _atom_site_occupancy
  Li  Li0  1  0.80977400  0.30873800  0.18325100  1
  Li  Li1  1  0.96974800  0.15861400  0.01347800  1
  Li  Li2  1  0.84138600  0.81113400  0.68014467  1
  Li  Li3  1  0.69126200  0.50103600  0.84991767  1
  Li  Li4  1  0.18886600  0.03025200  0.34681133  1
  Li  Li5  1  0.83346900  0.36146500  0.68284500  1
  Li  Li6  1  0.01212600  0.66510000  0.76102300  1
  Li  Li7  1  0.49896400  0.19022600  0.51658433  1
  Li  Li8  1  0.52799600  0.16653100  0.01617833  1
  Li  Li9  1  0.33490000  0.34702600  0.42768967  1
  Li  Li10  1  0.65297400  0.98787400  0.09435633  1
  Li  Li11  1  0.63853500  0.47200400  0.34951167  1
  Si  Si12  1  0.80551500  0.29010100  0.91835300  1
  Si  Si13  1  0.95879600  0.14758000  0.75737900  1
  Si  Si14  1  0.84126000  0.84053600  0.90524800  1
  Si  Si15  1  0.99927600  0.15874000  0.23858133  1
  Si  Si16  1  0.70989900  0.51541400  0.58501967  1
  Si  Si17  1  0.85242000  0.81121600  0.42404567  1
  Si  Si18  1  0.83781300  0.33838400  0.43630500  1
  Si  Si19  1  0.15946400  0.00072400  0.57191467  1
  Si  Si20  1  0.18878400  0.04120400  0.09071233  1
  Si  Si21  1  0.28500600  0.82190000  0.44481900  1
  Si  Si22  1  0.13660000  0.51745600  0.57228800  1
  Si  Si23  1  0.48458600  0.19448500  0.25168633  1
  Si  Si24  1  0.50057100  0.16218700  0.76963833  1
  Si  Si25  1  0.38085600  0.86340000  0.90562133  1
  Si  Si26  1  0.17810000  0.46310600  0.11148567  1
  Si  Si27  1  0.53689400  0.71499400  0.77815233  1
  Si  Si28  1  0.48254400  0.61914400  0.23895467  1
  Si  Si29  1  0.66161600  0.49942900  0.10297167  1
  Ni  Ni30  1  0.00759900  0.16123900  0.49806600  1
  Ni  Ni31  1  0.83876100  0.84636000  0.16473267  1
  Ni  Ni32  1  0.15364000  0.99240100  0.83139933  1
  Ni  Ni33  1  0.00888600  0.66271800  0.23744100  1
  Ni  Ni34  1  0.03681000  0.66621400  0.00151700  1
  Ni  Ni35  1  0.15600500  0.49416800  0.84030600  1
  Ni  Ni36  1  0.33816300  0.84399500  0.17363933  1
  Ni  Ni37  1  0.65383200  0.99111400  0.57077433  1
  Ni  Ni38  1  0.62940400  0.96319000  0.33485033  1
  Ni  Ni39  1  0.33378600  0.37059600  0.66818367  1
  Ni  Ni40  1  0.33728200  0.34616800  0.90410767  1
  Ni  Ni41  1  0.50583200  0.66183700  0.50697267  1
  O  O42  1  0.73743400  0.14834200  0.43733800  1
  O  O43  1  0.76413300  0.21085100  0.03705000  1
  O  O44  1  0.85891300  0.19573600  0.83575000  1
  O  O45  1  0.81377400  0.03226800  0.23238200  1
  O  O46  1  0.72582500  0.86683100  0.44024300  1
  O  O47  1  0.68456900  0.71039200  0.84035700  1
  O  O48  1  0.88253200  0.10177900  0.63577900  1
  O  O49  1  0.80891400  0.90704900  0.01587700  1
  O  O50  1  0.02582300  0.31543100  0.17369033  1
  O  O51  1  0.93129100  0.98458800  0.81443700  1
  O  O52  1  0.80426400  0.66317700  0.50241667  1
  O  O53  1  0.09813500  0.19108600  0.34921033  1
  O  O54  1  0.78914900  0.55328200  0.70371667  1
  O  O55  1  0.89822100  0.78075300  0.30244567  1
  O  O56  1  0.14100600  0.27417500  0.77357633  1
  O  O57  1  0.05329700  0.06870900  0.14777033  1
  O  O58  1  0.96773200  0.78150600  0.89904867  1
  O  O59  1  0.85165800  0.58909200  0.10400467  1
  O  O60  1  0.74298400  0.38298200  0.52797800  1
  O  O61  1  0.01541200  0.94670300  0.48110367  1
  O  O62  1  0.86913600  0.43709800  0.32532400  1
  O  O63  1  0.09295100  0.90186500  0.68254367  1
  O  O64  1  0.21849400  0.18622600  0.56571533  1
  O  O65  1  0.21924700  0.11746800  0.96911233  1
  O  O66  1  0.93366500  0.47149900  0.90474800  1
  O  O67  1  0.13316900  0.85899400  0.10690967  1
  O  O68  1  0.33682300  0.14108700  0.16908333  1
  O  O69  1  0.28960800  0.97417700  0.50702367  1
  O  O70  1  0.00061600  0.36747500  0.49919800  1
  O  O71  1  0.41090800  0.26256600  0.77067133  1
  O  O72  1  0.22072300  0.81683500  0.32039700  1
  O  O73  1  0.06590700  0.50668100  0.69333900  1
  O  O74  1  0.44671800  0.23586700  0.37038333  1
  O  O75  1  0.15338000  0.67011800  0.50985600  1
  O  O76  1  0.15278900  0.61224600  0.12835000  1
  O  O77  1  0.21194100  0.71005700  0.89322300  1
  O  O78  1  0.36685900  0.99938400  0.83253133  1
  O  O79  1  0.18316500  0.40388800  0.98706367  1
  O  O80  1  0.44077400  0.93409300  0.02667233  1
  O  O81  1  0.56796200  0.13086400  0.65865733  1
  O  O82  1  0.53783400  0.06633500  0.23808133  1
  O  O83  1  0.28994300  0.50188400  0.55988967  1
  O  O84  1  0.45945700  0.84721100  0.46168333  1
  O  O85  1  0.63999800  0.25701600  0.86131133  1
  O  O86  1  0.32988200  0.48326200  0.17652267  1
  O  O87  1  0.51673800  0.84662000  0.84318933  1
  O  O88  1  0.49811600  0.78805900  0.22655633  1
  O  O89  1  0.38775400  0.54054300  0.79501667  1
  O  O90  1  0.49331900  0.55922600  0.36000567  1
  O  O91  1  0.59611200  0.77927700  0.65373033  1
  O  O92  1  0.52850100  0.46216600  0.57141467  1
  O  O93  1  0.63252500  0.63314100  0.16586467  1
  O  O94  1  0.56290200  0.43203800  0.99199067  1
  O  O95  1  0.61701800  0.36000200  0.19464467  1
