# generated using pymatgen
data_SrLa3MnO8
_symmetry_space_group_name_H-M   'P 1'
_cell_length_a   5.34525800
_cell_length_b   12.79720200
_cell_length_c   10.88673200
_cell_angle_alpha   90.00000000
_cell_angle_beta   90.00000000
_cell_angle_gamma   90.00000000
_symmetry_Int_Tables_number   1
_chemical_formula_structural   SrLa3MnO8
_chemical_formula_sum   'Sr4 La12 Mn4 O32'
_cell_volume   744.69978654
_cell_formula_units_Z   4
loop_
 _symmetry_equiv_pos_site_id
 _symmetry_equiv_pos_as_xyz
  1  'x, y, z'
loop_
 _atom_site_type_symbol
 _atom_site_label
 _atom_site_symmetry_multiplicity
 _atom_site_fract_x
 _atom_site_fract_y
 _atom_site_fract_z
 _atom_site_occupancy
  Sr  Sr0  1  0.50000000  0.13811300  0.25000000  1
  Sr  Sr1  1  0.00000000  0.36188700  0.75000000  1
  Sr  Sr2  1  0.00000000  0.63811300  0.25000000  1
  Sr  Sr3  1  0.50000000  0.86188700  0.75000000  1
  La  La4  1  0.50000000  0.36605800  0.50183800  1
  La  La5  1  0.00000000  0.36539400  0.25000000  1
  La  La6  1  0.00000000  0.13394200  0.49816200  1
  La  La7  1  0.50000000  0.13460600  0.75000000  1
  La  La8  1  0.50000000  0.36605800  0.99816200  1
  La  La9  1  0.00000000  0.13394200  0.00183800  1
  La  La10  1  0.00000000  0.86605800  0.50183800  1
  La  La11  1  0.50000000  0.86539400  0.25000000  1
  La  La12  1  0.50000000  0.63394200  0.49816200  1
  La  La13  1  0.00000000  0.63460600  0.75000000  1
  La  La14  1  0.00000000  0.86605800  0.99816200  1
  La  La15  1  0.50000000  0.63394200  0.00183800  1
  Mn  Mn16  1  0.00000000  0.00064600  0.25000000  1
  Mn  Mn17  1  0.50000000  0.49935400  0.75000000  1
  Mn  Mn18  1  0.50000000  0.50064600  0.25000000  1
  Mn  Mn19  1  0.00000000  0.99935400  0.75000000  1
  O  O20  1  0.25481450  0.49780950  0.37230400  1
  O  O21  1  0.50000000  0.34119000  0.25000000  1
  O  O22  1  0.50000000  0.19036100  0.51862000  1
  O  O23  1  0.00000000  0.15874500  0.25000000  1
  O  O24  1  0.74518550  0.49780950  0.37230400  1
  O  O25  1  0.75481450  0.00219050  0.62769600  1
  O  O26  1  0.24518550  0.00219050  0.62769600  1
  O  O27  1  0.00000000  0.30963900  0.48138000  1
  O  O28  1  0.50000000  0.34125500  0.75000000  1
  O  O29  1  0.75481450  0.00219050  0.87230400  1
  O  O30  1  0.50000000  0.19036100  0.98138000  1
  O  O31  1  0.00000000  0.15881000  0.75000000  1
  O  O32  1  0.24518550  0.00219050  0.87230400  1
  O  O33  1  0.25481450  0.49780950  0.12769600  1
  O  O34  1  0.00000000  0.30963900  0.01862000  1
  O  O35  1  0.74518550  0.49780950  0.12769600  1
  O  O36  1  0.75481450  0.99780950  0.37230400  1
  O  O37  1  0.00000000  0.84119000  0.25000000  1
  O  O38  1  0.00000000  0.69036100  0.51862000  1
  O  O39  1  0.50000000  0.65874500  0.25000000  1
  O  O40  1  0.24518550  0.99780950  0.37230400  1
  O  O41  1  0.25481450  0.50219050  0.62769600  1
  O  O42  1  0.74518550  0.50219050  0.62769600  1
  O  O43  1  0.50000000  0.80963900  0.48138000  1
  O  O44  1  0.00000000  0.84125500  0.75000000  1
  O  O45  1  0.25481450  0.50219050  0.87230400  1
  O  O46  1  0.00000000  0.69036100  0.98138000  1
  O  O47  1  0.50000000  0.65881000  0.75000000  1
  O  O48  1  0.74518550  0.50219050  0.87230400  1
  O  O49  1  0.75481450  0.99780950  0.12769600  1
  O  O50  1  0.50000000  0.80963900  0.01862000  1
  O  O51  1  0.24518550  0.99780950  0.12769600  1
