# generated using pymatgen
data_Mn3Fe3(SbO8)2
_symmetry_space_group_name_H-M   'P 1'
_cell_length_a   10.32995800
_cell_length_b   5.90825200
_cell_length_c   9.28943273
_cell_angle_alpha   90.00000000
_cell_angle_beta   91.35137673
_cell_angle_gamma   90.00000000
_symmetry_Int_Tables_number   1
_chemical_formula_structural   Mn3Fe3(SbO8)2
_chemical_formula_sum   'Mn6 Fe6 Sb4 O32'
_cell_volume   566.79492186
_cell_formula_units_Z   2
loop_
 _symmetry_equiv_pos_site_id
 _symmetry_equiv_pos_as_xyz
  1  'x, y, z'
loop_
 _atom_site_type_symbol
 _atom_site_label
 _atom_site_symmetry_multiplicity
 _atom_site_fract_x
 _atom_site_fract_y
 _atom_site_fract_z
 _atom_site_occupancy
  Mn  Mn0  1  0.82952000  0.00000000  0.78658600  1
  Mn  Mn1  1  0.91443050  0.25212350  0.28812300  1
  Mn  Mn2  1  0.91443050  0.74787650  0.28812300  1
  Mn  Mn3  1  0.32952000  0.50000000  0.78658600  1
  Mn  Mn4  1  0.41443050  0.75212350  0.28812300  1
  Mn  Mn5  1  0.41443050  0.24787650  0.28812300  1
  Fe  Fe6  1  0.58086850  0.75137550  0.79055300  1
  Fe  Fe7  1  0.58086850  0.24862450  0.79055300  1
  Fe  Fe8  1  0.66561500  0.50000000  0.29058300  1
  Fe  Fe9  1  0.08086850  0.25137550  0.79055300  1
  Fe  Fe10  1  0.08086850  0.74862450  0.79055300  1
  Fe  Fe11  1  0.16561500  0.00000000  0.29058300  1
  Sb  Sb12  1  0.66678300  0.00000000  0.51016200  1
  Sb  Sb13  1  0.83231900  0.50000000  0.00949500  1
  Sb  Sb14  1  0.16678300  0.50000000  0.51016200  1
  Sb  Sb15  1  0.33231900  0.00000000  0.00949500  1
  O  O16  1  0.58208000  0.75114900  0.39905600  1
  O  O17  1  0.52141800  0.00000000  0.65630900  1
  O  O18  1  0.67277700  0.00000000  0.89308200  1
  O  O19  1  0.99296500  0.00000000  0.69299000  1
  O  O20  1  0.99270400  0.00000000  0.19226900  1
  O  O21  1  0.58208000  0.24885100  0.39905600  1
  O  O22  1  0.74622800  0.78311000  0.65946200  1
  O  O23  1  0.74622800  0.21689000  0.65946200  1
  O  O24  1  0.66529600  0.50000000  0.90215300  1
  O  O25  1  0.83420700  0.00000000  0.39606100  1
  O  O26  1  0.76558900  0.27565200  0.16049900  1
  O  O27  1  0.76558900  0.72434800  0.16049900  1
  O  O28  1  0.84048400  0.50000000  0.39211100  1
  O  O29  1  0.91356200  0.25077700  0.89979100  1
  O  O30  1  0.98031000  0.50000000  0.16730500  1
  O  O31  1  0.91356200  0.74922300  0.89979100  1
  O  O32  1  0.08208000  0.25114900  0.39905600  1
  O  O33  1  0.02141800  0.50000000  0.65630900  1
  O  O34  1  0.17277700  0.50000000  0.89308200  1
  O  O35  1  0.49296500  0.50000000  0.69299000  1
  O  O36  1  0.49270400  0.50000000  0.19226900  1
  O  O37  1  0.08208000  0.74885100  0.39905600  1
  O  O38  1  0.24622800  0.28311000  0.65946200  1
  O  O39  1  0.24622800  0.71689000  0.65946200  1
  O  O40  1  0.16529600  0.00000000  0.90215300  1
  O  O41  1  0.33420700  0.50000000  0.39606100  1
  O  O42  1  0.26558900  0.77565200  0.16049900  1
  O  O43  1  0.26558900  0.22434800  0.16049900  1
  O  O44  1  0.34048400  0.00000000  0.39211100  1
  O  O45  1  0.41356200  0.75077700  0.89979100  1
  O  O46  1  0.48031000  0.00000000  0.16730500  1
  O  O47  1  0.41356200  0.24922300  0.89979100  1
