# generated using pymatgen
data_Li2CoCuO4
_symmetry_space_group_name_H-M   'P 1'
_cell_length_a   5.72248000
_cell_length_b   5.81560800
_cell_length_c   8.20792200
_cell_angle_alpha   90.00000000
_cell_angle_beta   90.00000000
_cell_angle_gamma   90.00000000
_symmetry_Int_Tables_number   1
_chemical_formula_structural   Li2CoCuO4
_chemical_formula_sum   'Li8 Co4 Cu4 O16'
_cell_volume   273.15718562
_cell_formula_units_Z   4
loop_
 _symmetry_equiv_pos_site_id
 _symmetry_equiv_pos_as_xyz
  1  'x, y, z'
loop_
 _atom_site_type_symbol
 _atom_site_label
 _atom_site_symmetry_multiplicity
 _atom_site_fract_x
 _atom_site_fract_y
 _atom_site_fract_z
 _atom_site_occupancy
  Li  Li0  1  0.75000000  0.25000000  0.25000000  1
  Li  Li1  1  0.50000000  0.50000000  0.00000000  1
  Li  Li2  1  0.25000000  0.25000000  0.25000000  1
  Li  Li3  1  0.50000000  0.00000000  0.00000000  1
  Li  Li4  1  0.25000000  0.75000000  0.75000000  1
  Li  Li5  1  0.00000000  0.00000000  0.50000000  1
  Li  Li6  1  0.75000000  0.75000000  0.75000000  1
  Li  Li7  1  0.00000000  0.50000000  0.50000000  1
  Co  Co8  1  0.25000000  0.25000000  0.75000000  1
  Co  Co9  1  0.75000000  0.25000000  0.75000000  1
  Co  Co10  1  0.75000000  0.75000000  0.25000000  1
  Co  Co11  1  0.25000000  0.75000000  0.25000000  1
  Cu  Cu12  1  0.00000000  0.00000000  0.00000000  1
  Cu  Cu13  1  0.00000000  0.50000000  0.00000000  1
  Cu  Cu14  1  0.50000000  0.50000000  0.50000000  1
  Cu  Cu15  1  0.50000000  0.00000000  0.50000000  1
  O  O16  1  0.50000000  0.02328250  0.74607550  1
  O  O17  1  0.24112350  0.75000000  0.01437050  1
  O  O18  1  0.00000000  0.97671750  0.24607550  1
  O  O19  1  0.75887650  0.75000000  0.01437050  1
  O  O20  1  0.24112350  0.25000000  0.98562950  1
  O  O21  1  0.00000000  0.02328250  0.75392450  1
  O  O22  1  0.75887650  0.25000000  0.98562950  1
  O  O23  1  0.50000000  0.97671750  0.25392450  1
  O  O24  1  0.00000000  0.52328250  0.24607550  1
  O  O25  1  0.74112350  0.25000000  0.51437050  1
  O  O26  1  0.50000000  0.47671750  0.74607550  1
  O  O27  1  0.25887650  0.25000000  0.51437050  1
  O  O28  1  0.74112350  0.75000000  0.48562950  1
  O  O29  1  0.50000000  0.52328250  0.25392450  1
  O  O30  1  0.25887650  0.75000000  0.48562950  1
  O  O31  1  0.00000000  0.47671750  0.75392450  1
