# generated using pymatgen
data_Li3TiS3
_symmetry_space_group_name_H-M   'P 1'
_cell_length_a   7.66084400
_cell_length_b   11.62640400
_cell_length_c   5.91519397
_cell_angle_alpha   90.00000000
_cell_angle_beta   120.55273958
_cell_angle_gamma   90.00000000
_symmetry_Int_Tables_number   1
_chemical_formula_structural   Li3TiS3
_chemical_formula_sum   'Li12 Ti4 S12'
_cell_volume   453.70721273
_cell_formula_units_Z   4
loop_
 _symmetry_equiv_pos_site_id
 _symmetry_equiv_pos_as_xyz
  1  'x, y, z'
loop_
 _atom_site_type_symbol
 _atom_site_label
 _atom_site_symmetry_multiplicity
 _atom_site_fract_x
 _atom_site_fract_y
 _atom_site_fract_z
 _atom_site_occupancy
  Li  Li0  1  0.32607000  0.22756800  0.79916200  1
  Li  Li1  1  0.00000000  0.46175200  0.75000000  1
  Li  Li2  1  0.82607000  0.27243200  0.29916200  1
  Li  Li3  1  0.67393000  0.22756800  0.70083800  1
  Li  Li4  1  0.50000000  0.03824800  0.25000000  1
  Li  Li5  1  0.17393000  0.27243200  0.20083800  1
  Li  Li6  1  0.82607000  0.72756800  0.79916200  1
  Li  Li7  1  0.50000000  0.96175200  0.75000000  1
  Li  Li8  1  0.32607000  0.77243200  0.29916200  1
  Li  Li9  1  0.17393000  0.72756800  0.70083800  1
  Li  Li10  1  0.00000000  0.53824800  0.25000000  1
  Li  Li11  1  0.67393000  0.77243200  0.20083800  1
  Ti  Ti12  1  0.00000000  0.00000000  0.50000000  1
  Ti  Ti13  1  0.00000000  0.00000000  0.00000000  1
  Ti  Ti14  1  0.50000000  0.50000000  0.50000000  1
  Ti  Ti15  1  0.50000000  0.50000000  0.00000000  1
  S  S16  1  0.73410750  0.09331650  0.07527300  1
  S  S17  1  0.00000000  0.17645500  0.75000000  1
  S  S18  1  0.76589250  0.40668350  0.92472700  1
  S  S19  1  0.50000000  0.32354500  0.25000000  1
  S  S20  1  0.23410750  0.40668350  0.57527300  1
  S  S21  1  0.26589250  0.09331650  0.42472700  1
  S  S22  1  0.23410750  0.59331650  0.07527300  1
  S  S23  1  0.50000000  0.67645500  0.75000000  1
  S  S24  1  0.26589250  0.90668350  0.92472700  1
  S  S25  1  0.00000000  0.82354500  0.25000000  1
  S  S26  1  0.73410750  0.90668350  0.57527300  1
  S  S27  1  0.76589250  0.59331650  0.42472700  1
