# generated using pymatgen
data_Ti3Mn2Sn(PO4)6
_symmetry_space_group_name_H-M   'P 1'
_cell_length_a   8.73837606
_cell_length_b   8.73837606
_cell_length_c   21.27121151
_cell_angle_alpha   90.00000000
_cell_angle_beta   90.00000000
_cell_angle_gamma   120.00000000
_symmetry_Int_Tables_number   1
_chemical_formula_structural   Ti3Mn2Sn(PO4)6
_chemical_formula_sum   'Ti9 Mn6 Sn3 P18 O72'
_cell_volume   1406.64439272
_cell_formula_units_Z   3
loop_
 _symmetry_equiv_pos_site_id
 _symmetry_equiv_pos_as_xyz
  1  'x, y, z'
loop_
 _atom_site_type_symbol
 _atom_site_label
 _atom_site_symmetry_multiplicity
 _atom_site_fract_x
 _atom_site_fract_y
 _atom_site_fract_z
 _atom_site_occupancy
  Ti  Ti0  1  0.33333333  0.66666667  0.52182467  1
  Ti  Ti1  1  0.33333333  0.66666667  0.31174967  1
  Ti  Ti2  1  0.33333333  0.66666667  0.02330267  1
  Ti  Ti3  1  0.00000000  0.00000000  0.85515800  1
  Ti  Ti4  1  0.00000000  0.00000000  0.64508300  1
  Ti  Ti5  1  0.00000000  0.00000000  0.35663600  1
  Ti  Ti6  1  0.66666667  0.33333333  0.18849133  1
  Ti  Ti7  1  0.66666667  0.33333333  0.97841633  1
  Ti  Ti8  1  0.66666667  0.33333333  0.68996933  1
  Mn  Mn9  1  0.33333333  0.66666667  0.66176667  1
  Mn  Mn10  1  0.33333333  0.66666667  0.16669867  1
  Mn  Mn11  1  0.00000000  0.00000000  0.99510000  1
  Mn  Mn12  1  0.00000000  0.00000000  0.50003200  1
  Mn  Mn13  1  0.66666667  0.33333333  0.32843333  1
  Mn  Mn14  1  0.66666667  0.33333333  0.83336533  1
  Sn  Sn15  1  0.33333333  0.66666667  0.81140067  1
  Sn  Sn16  1  0.00000000  0.00000000  0.14473400  1
  Sn  Sn17  1  0.66666667  0.33333333  0.47806733  1
  P  P18  1  0.00144033  0.29599367  0.25114867  1
  P  P19  1  0.66569533  0.04079567  0.08344567  1
  P  P20  1  0.37510033  0.33430467  0.08344567  1
  P  P21  1  0.95920433  0.62489967  0.08344567  1
  P  P22  1  0.70400633  0.70544667  0.25114867  1
  P  P23  1  0.29455333  0.99855967  0.25114867  1
  P  P24  1  0.66810700  0.62932700  0.58448200  1
  P  P25  1  0.33236200  0.37412900  0.41677900  1
  P  P26  1  0.04176700  0.66763800  0.41677900  1
  P  P27  1  0.62587100  0.95823300  0.41677900  1
  P  P28  1  0.37067300  0.03878000  0.58448200  1
  P  P29  1  0.96122000  0.33189300  0.58448200  1
  P  P30  1  0.33477367  0.96266033  0.91781533  1
  P  P31  1  0.99902867  0.70746233  0.75011233  1
  P  P32  1  0.70843367  0.00097133  0.75011233  1
  P  P33  1  0.29253767  0.29156633  0.75011233  1
  P  P34  1  0.03733967  0.37211333  0.91781533  1
  P  P35  1  0.62788667  0.66522633  0.91781533  1
  O  O36  1  0.52661967  0.85949933  0.35719233  1
  O  O37  1  0.33287967  0.47338033  0.35719233  1
  O  O38  1  0.68505800  0.51865100  0.25470300  1
  O  O39  1  0.14050067  0.66712033  0.35719233  1
  O  O40  1  0.79509567  0.79891733  0.18946933  1
  O  O41  1  0.51618200  0.68333900  0.24690900  1
  O  O42  1  0.48134900  0.16640700  0.25470300  1
  O  O43  1  0.31666100  0.83284300  0.24690900  1
  O  O44  1  0.66949367  0.14058133  0.14328733  1
  O  O45  1  0.16715700  0.48381800  0.24690900  1
  O  O46  1  0.83445967  0.02043033  0.07720933  1
  O  O47  1  0.47108767  0.33050633  0.14328733  1
  O  O48  1  0.20108267  0.99617833  0.18946933  1
  O  O49  1  0.83359300  0.31494200  0.25470300  1
  O  O50  1  0.50053100  0.85314600  0.08822800  1
  O  O51  1  0.00382167  0.20490433  0.18946933  1
  O  O52  1  0.35261500  0.49946900  0.08822800  1
  O  O53  1  0.18597067  0.16554033  0.07720933  1
  O  O54  1  0.14685400  0.64738500  0.08822800  1
  O  O55  1  0.85941867  0.52891233  0.14328733  1
  O  O56  1  0.52600967  0.66602733  0.97615933  1
  O  O57  1  0.97956967  0.81402933  0.07720933  1
  O  O58  1  0.33397267  0.85998233  0.97615933  1
  O  O59  1  0.14001767  0.47399033  0.97615933  1
  O  O60  1  0.19328633  0.19283267  0.69052567  1
  O  O61  1  0.99954633  0.80671367  0.69052567  1
  O  O62  1  0.35172467  0.85198433  0.58803633  1
  O  O63  1  0.80716733  0.00045367  0.69052567  1
  O  O64  1  0.46176233  0.13225067  0.52280267  1
  O  O65  1  0.18284867  0.01667233  0.58024233  1
  O  O66  1  0.14801567  0.49974033  0.58803633  1
  O  O67  1  0.98332767  0.16617633  0.58024233  1
  O  O68  1  0.33616033  0.47391467  0.47662067  1
  O  O69  1  0.83382367  0.81715133  0.58024233  1
  O  O70  1  0.50112633  0.35376367  0.41054267  1
  O  O71  1  0.13775433  0.66383967  0.47662067  1
  O  O72  1  0.86774933  0.32951167  0.52280267  1
  O  O73  1  0.50025967  0.64827533  0.58803633  1
  O  O74  1  0.16719767  0.18647933  0.42156133  1
  O  O75  1  0.67048833  0.53823767  0.52280267  1
  O  O76  1  0.01928167  0.83280233  0.42156133  1
  O  O77  1  0.85263733  0.49887367  0.41054267  1
  O  O78  1  0.81352067  0.98071833  0.42156133  1
  O  O79  1  0.52608533  0.86224567  0.47662067  1
  O  O80  1  0.19267633  0.99936067  0.30949267  1
  O  O81  1  0.64623633  0.14736267  0.41054267  1
  O  O82  1  0.00063933  0.19331567  0.30949267  1
  O  O83  1  0.80668433  0.80732367  0.30949267  1
  O  O84  1  0.85995300  0.52616600  0.02385900  1
  O  O85  1  0.66621300  0.14004700  0.02385900  1
  O  O86  1  0.01839133  0.18531767  0.92136967  1
  O  O87  1  0.47383400  0.33378700  0.02385900  1
  O  O88  1  0.12842900  0.46558400  0.85613600  1
  O  O89  1  0.84951533  0.35000567  0.91357567  1
  O  O90  1  0.81468233  0.83307367  0.92136967  1
  O  O91  1  0.64999433  0.49950967  0.91357567  1
  O  O92  1  0.00282700  0.80724800  0.80995400  1
  O  O93  1  0.50049033  0.15048467  0.91357567  1
  O  O94  1  0.16779300  0.68709700  0.74387600  1
  O  O95  1  0.80442100  0.99717300  0.80995400  1
  O  O96  1  0.53441600  0.66284500  0.85613600  1
  O  O97  1  0.16692633  0.98160867  0.92136967  1
  O  O98  1  0.83386433  0.51981267  0.75489467  1
  O  O99  1  0.33715500  0.87157100  0.85613600  1
  O  O100  1  0.68594833  0.16613567  0.75489467  1
  O  O101  1  0.51930400  0.83220700  0.74387600  1
  O  O102  1  0.48018733  0.31405167  0.75489467  1
  O  O103  1  0.19275200  0.19557900  0.80995400  1
  O  O104  1  0.85934300  0.33269400  0.64282600  1
  O  O105  1  0.31290300  0.48069600  0.74387600  1
  O  O106  1  0.66730600  0.52664900  0.64282600  1
  O  O107  1  0.47335100  0.14065700  0.64282600  1
