# generated using pymatgen
data_Ba2La3Ti2Cr3O15
_symmetry_space_group_name_H-M   'P 1'
_cell_length_a   5.64378301
_cell_length_b   27.90331605
_cell_length_c   3.96967600
_cell_angle_alpha   90.00000000
_cell_angle_beta   90.00000000
_cell_angle_gamma   90.00000000
_symmetry_Int_Tables_number   1
_chemical_formula_structural   Ba2La3Ti2Cr3O15
_chemical_formula_sum   'Ba4 La6 Ti4 Cr6 O30'
_cell_volume   625.14561256
_cell_formula_units_Z   2
loop_
 _symmetry_equiv_pos_site_id
 _symmetry_equiv_pos_as_xyz
  1  'x, y, z'
loop_
 _atom_site_type_symbol
 _atom_site_label
 _atom_site_symmetry_multiplicity
 _atom_site_fract_x
 _atom_site_fract_y
 _atom_site_fract_z
 _atom_site_occupancy
  Ba  Ba0  1  0.00000000  0.69846950  0.00000000  1
  Ba  Ba1  1  0.00000000  0.30153050  0.00000000  1
  Ba  Ba2  1  0.50000000  0.19846950  0.00000000  1
  Ba  Ba3  1  0.50000000  0.80153050  0.00000000  1
  La  La4  1  0.00000000  0.50000000  0.00000000  1
  La  La5  1  0.50000000  0.40306350  0.00000000  1
  La  La6  1  0.50000000  0.59693650  0.00000000  1
  La  La7  1  0.50000000  0.00000000  0.00000000  1
  La  La8  1  0.00000000  0.90306350  0.00000000  1
  La  La9  1  0.00000000  0.09693650  0.00000000  1
  Ti  Ti10  1  0.50000000  0.30180150  0.50000000  1
  Ti  Ti11  1  0.50000000  0.69819850  0.50000000  1
  Ti  Ti12  1  0.00000000  0.80180150  0.50000000  1
  Ti  Ti13  1  0.00000000  0.19819850  0.50000000  1
  Cr  Cr14  1  0.50000000  0.50000000  0.50000000  1
  Cr  Cr15  1  0.00000000  0.40137900  0.50000000  1
  Cr  Cr16  1  0.00000000  0.59862100  0.50000000  1
  Cr  Cr17  1  0.00000000  0.00000000  0.50000000  1
  Cr  Cr18  1  0.50000000  0.90137900  0.50000000  1
  Cr  Cr19  1  0.50000000  0.09862100  0.50000000  1
  O  O20  1  0.50000000  0.50000000  0.00000000  1
  O  O21  1  0.25000000  0.25000000  0.50000000  1
  O  O22  1  0.75000000  0.25000000  0.50000000  1
  O  O23  1  0.50000000  0.69637025  0.00000000  1
  O  O24  1  0.50000000  0.30362975  0.00000000  1
  O  O25  1  0.00000000  0.40541950  0.00000000  1
  O  O26  1  0.00000000  0.59458050  0.00000000  1
  O  O27  1  0.73541150  0.35292400  0.50000000  1
  O  O28  1  0.26458850  0.35292400  0.50000000  1
  O  O29  1  0.26458850  0.64707600  0.50000000  1
  O  O30  1  0.73541150  0.64707600  0.50000000  1
  O  O31  1  0.25126500  0.45051000  0.50000000  1
  O  O32  1  0.74873500  0.54949000  0.50000000  1
  O  O33  1  0.74873500  0.45051000  0.50000000  1
  O  O34  1  0.25126500  0.54949000  0.50000000  1
  O  O35  1  0.00000000  0.00000000  0.00000000  1
  O  O36  1  0.75000000  0.75000000  0.50000000  1
  O  O37  1  0.25000000  0.75000000  0.50000000  1
  O  O38  1  0.00000000  0.19637025  0.00000000  1
  O  O39  1  0.00000000  0.80362975  0.00000000  1
  O  O40  1  0.50000000  0.90541950  0.00000000  1
  O  O41  1  0.50000000  0.09458050  0.00000000  1
  O  O42  1  0.23541150  0.85292400  0.50000000  1
  O  O43  1  0.76458850  0.85292400  0.50000000  1
  O  O44  1  0.76458850  0.14707600  0.50000000  1
  O  O45  1  0.23541150  0.14707600  0.50000000  1
  O  O46  1  0.75126500  0.95051000  0.50000000  1
  O  O47  1  0.24873500  0.04949000  0.50000000  1
  O  O48  1  0.24873500  0.95051000  0.50000000  1
  O  O49  1  0.75126500  0.04949000  0.50000000  1
