# generated using pymatgen
data_Mn2OF3
_symmetry_space_group_name_H-M   'P 1'
_cell_length_a   6.38860000
_cell_length_b   13.29356400
_cell_length_c   7.08270800
_cell_angle_alpha   90.00000000
_cell_angle_beta   90.00000000
_cell_angle_gamma   90.00000000
_symmetry_Int_Tables_number   1
_chemical_formula_structural   Mn2OF3
_chemical_formula_sum   'Mn16 O8 F24'
_cell_volume   601.51500486
_cell_formula_units_Z   8
loop_
 _symmetry_equiv_pos_site_id
 _symmetry_equiv_pos_as_xyz
  1  'x, y, z'
loop_
 _atom_site_type_symbol
 _atom_site_label
 _atom_site_symmetry_multiplicity
 _atom_site_fract_x
 _atom_site_fract_y
 _atom_site_fract_z
 _atom_site_occupancy
  Mn  Mn0  1  0.24986900  0.62499000  0.75000000  1
  Mn  Mn1  1  0.75013100  0.62499000  0.75000000  1
  Mn  Mn2  1  0.00000000  0.87411400  0.75000000  1
  Mn  Mn3  1  0.00000000  0.62378600  0.25000000  1
  Mn  Mn4  1  0.50000000  0.87621400  0.75000000  1
  Mn  Mn5  1  0.50000000  0.62588600  0.25000000  1
  Mn  Mn6  1  0.25013100  0.87501000  0.25000000  1
  Mn  Mn7  1  0.74986900  0.87501000  0.25000000  1
  Mn  Mn8  1  0.74986900  0.12499000  0.75000000  1
  Mn  Mn9  1  0.25013100  0.12499000  0.75000000  1
  Mn  Mn10  1  0.50000000  0.37411400  0.75000000  1
  Mn  Mn11  1  0.50000000  0.12378600  0.25000000  1
  Mn  Mn12  1  0.00000000  0.37621400  0.75000000  1
  Mn  Mn13  1  0.00000000  0.12588600  0.25000000  1
  Mn  Mn14  1  0.75013100  0.37501000  0.25000000  1
  Mn  Mn15  1  0.24986900  0.37501000  0.25000000  1
  O  O16  1  0.00000000  0.53073800  0.75000000  1
  O  O17  1  0.50000000  0.71969400  0.75000000  1
  O  O18  1  0.50000000  0.96926200  0.25000000  1
  O  O19  1  0.00000000  0.78030600  0.25000000  1
  O  O20  1  0.50000000  0.03073800  0.75000000  1
  O  O21  1  0.00000000  0.21969400  0.75000000  1
  O  O22  1  0.00000000  0.46926200  0.25000000  1
  O  O23  1  0.50000000  0.28030600  0.25000000  1
  F  F24  1  0.50000000  0.52628500  0.75000000  1
  F  F25  1  0.24867500  0.62479000  0.05201200  1
  F  F26  1  0.75132500  0.62479000  0.05201200  1
  F  F27  1  0.74867500  0.87521000  0.94798800  1
  F  F28  1  0.24867500  0.62479000  0.44798800  1
  F  F29  1  0.75132500  0.62479000  0.44798800  1
  F  F30  1  0.25132500  0.87521000  0.94798800  1
  F  F31  1  0.00000000  0.97371500  0.25000000  1
  F  F32  1  0.00000000  0.72287300  0.75000000  1
  F  F33  1  0.50000000  0.77712700  0.25000000  1
  F  F34  1  0.74867500  0.87521000  0.55201200  1
  F  F35  1  0.25132500  0.87521000  0.55201200  1
  F  F36  1  0.00000000  0.02628500  0.75000000  1
  F  F37  1  0.74867500  0.12479000  0.05201200  1
  F  F38  1  0.25132500  0.12479000  0.05201200  1
  F  F39  1  0.24867500  0.37521000  0.94798800  1
  F  F40  1  0.74867500  0.12479000  0.44798800  1
  F  F41  1  0.25132500  0.12479000  0.44798800  1
  F  F42  1  0.75132500  0.37521000  0.94798800  1
  F  F43  1  0.50000000  0.47371500  0.25000000  1
  F  F44  1  0.50000000  0.22287300  0.75000000  1
  F  F45  1  0.00000000  0.27712700  0.25000000  1
  F  F46  1  0.24867500  0.37521000  0.55201200  1
  F  F47  1  0.75132500  0.37521000  0.55201200  1
