# generated using pymatgen
data_Li2Mn5O12
_symmetry_space_group_name_H-M   'P 1'
_cell_length_a   8.24053000
_cell_length_b   8.23790600
_cell_length_c   13.05433654
_cell_angle_alpha   90.00000000
_cell_angle_beta   108.31880114
_cell_angle_gamma   90.00000000
_symmetry_Int_Tables_number   1
_chemical_formula_structural   Li2Mn5O12
_chemical_formula_sum   'Li8 Mn20 O48'
_cell_volume   841.27988805
_cell_formula_units_Z   4
loop_
 _symmetry_equiv_pos_site_id
 _symmetry_equiv_pos_as_xyz
  1  'x, y, z'
loop_
 _atom_site_type_symbol
 _atom_site_label
 _atom_site_symmetry_multiplicity
 _atom_site_fract_x
 _atom_site_fract_y
 _atom_site_fract_z
 _atom_site_occupancy
  Li  Li0  1  0.79029750  0.13067450  0.32981100  1
  Li  Li1  1  0.79029750  0.86932550  0.82981100  1
  Li  Li2  1  0.62660400  0.62682800  0.00350500  1
  Li  Li3  1  0.62660400  0.37317200  0.50350500  1
  Li  Li4  1  0.29029750  0.63067450  0.32981100  1
  Li  Li5  1  0.29029750  0.36932550  0.82981100  1
  Li  Li6  1  0.12660400  0.12682800  0.00350500  1
  Li  Li7  1  0.12660400  0.87317200  0.50350500  1
  Mn  Mn8  1  0.46067100  0.99535500  0.41954000  1
  Mn  Mn9  1  0.79178250  0.00003750  0.58387900  1
  Mn  Mn10  1  0.12407250  0.00266850  0.74711000  1
  Mn  Mn11  1  0.70642300  0.74968600  0.41923800  1
  Mn  Mn12  1  0.79178250  0.99996250  0.08387900  1
  Mn  Mn13  1  0.46067100  0.00464500  0.91954000  1
  Mn  Mn14  1  0.70642300  0.25031400  0.91923800  1
  Mn  Mn15  1  0.37568750  0.24855550  0.24750500  1
  Mn  Mn16  1  0.12407250  0.99733150  0.24711000  1
  Mn  Mn17  1  0.37568750  0.75144450  0.74750500  1
  Mn  Mn18  1  0.96067100  0.49535500  0.41954000  1
  Mn  Mn19  1  0.29178250  0.50003750  0.58387900  1
  Mn  Mn20  1  0.62407250  0.50266850  0.74711000  1
  Mn  Mn21  1  0.20642300  0.24968600  0.41923800  1
  Mn  Mn22  1  0.29178250  0.49996250  0.08387900  1
  Mn  Mn23  1  0.96067100  0.50464500  0.91954000  1
  Mn  Mn24  1  0.20642300  0.75031400  0.91923800  1
  Mn  Mn25  1  0.87568750  0.74855550  0.24750500  1
  Mn  Mn26  1  0.62407250  0.49733150  0.24711000  1
  Mn  Mn27  1  0.87568750  0.25144450  0.74750500  1
  O  O28  1  0.60725250  0.27219950  0.25837900  1
  O  O29  1  0.36349850  0.01522750  0.25798000  1
  O  O30  1  0.60725250  0.72780050  0.75837900  1
  O  O31  1  0.88172400  0.01109000  0.74106600  1
  O  O32  1  0.70171250  0.98913550  0.42514700  1
  O  O33  1  0.47514450  0.77108150  0.40854600  1
  O  O34  1  0.55416000  0.99703200  0.06832900  1
  O  O35  1  0.28696900  0.72958600  0.06923100  1
  O  O36  1  0.02953050  0.99281650  0.59793600  1
  O  O37  1  0.28696900  0.27041400  0.56923100  1
  O  O38  1  0.21907350  0.98671250  0.91106700  1
  O  O39  1  0.88172400  0.98891000  0.24106600  1
  O  O40  1  0.64770300  0.73356200  0.26235800  1
  O  O41  1  0.47514450  0.22891850  0.90854600  1
  O  O42  1  0.29253850  0.26993250  0.09755600  1
  O  O43  1  0.02953050  0.00718350  0.09793600  1
  O  O44  1  0.36349850  0.98477250  0.75798000  1
  O  O45  1  0.64770300  0.26643800  0.76235800  1
  O  O46  1  0.43956200  0.23572400  0.40758700  1
  O  O47  1  0.21907350  0.01328750  0.41106700  1
  O  O48  1  0.43956200  0.76427600  0.90758700  1
  O  O49  1  0.70171250  0.01086450  0.92514700  1
  O  O50  1  0.29253850  0.73006750  0.59755600  1
  O  O51  1  0.55416000  0.00296800  0.56832900  1
  O  O52  1  0.10725250  0.77219950  0.25837900  1
  O  O53  1  0.86349850  0.51522750  0.25798000  1
  O  O54  1  0.10725250  0.22780050  0.75837900  1
  O  O55  1  0.38172400  0.51109000  0.74106600  1
  O  O56  1  0.20171250  0.48913550  0.42514700  1
  O  O57  1  0.97514450  0.27108150  0.40854600  1
  O  O58  1  0.05416000  0.49703200  0.06832900  1
  O  O59  1  0.78696900  0.22958600  0.06923100  1
  O  O60  1  0.52953050  0.49281650  0.59793600  1
  O  O61  1  0.78696900  0.77041400  0.56923100  1
  O  O62  1  0.71907350  0.48671250  0.91106700  1
  O  O63  1  0.38172400  0.48891000  0.24106600  1
  O  O64  1  0.14770300  0.23356200  0.26235800  1
  O  O65  1  0.97514450  0.72891850  0.90854600  1
  O  O66  1  0.79253850  0.76993250  0.09755600  1
  O  O67  1  0.52953050  0.50718350  0.09793600  1
  O  O68  1  0.86349850  0.48477250  0.75798000  1
  O  O69  1  0.14770300  0.76643800  0.76235800  1
  O  O70  1  0.93956200  0.73572400  0.40758700  1
  O  O71  1  0.71907350  0.51328750  0.41106700  1
  O  O72  1  0.93956200  0.26427600  0.90758700  1
  O  O73  1  0.20171250  0.51086450  0.92514700  1
  O  O74  1  0.79253850  0.23006750  0.59755600  1
  O  O75  1  0.05416000  0.50296800  0.56832900  1
