# generated using pymatgen
data_Fe2O3F
_symmetry_space_group_name_H-M   'P 1'
_cell_length_a   6.39100400
_cell_length_b   6.89411000
_cell_length_c   15.04797200
_cell_angle_alpha   90.00000000
_cell_angle_beta   90.00000000
_cell_angle_gamma   90.00000000
_symmetry_Int_Tables_number   1
_chemical_formula_structural   Fe2O3F
_chemical_formula_sum   'Fe20 O30 F10'
_cell_volume   663.01792877
_cell_formula_units_Z   10
loop_
 _symmetry_equiv_pos_site_id
 _symmetry_equiv_pos_as_xyz
  1  'x, y, z'
loop_
 _atom_site_type_symbol
 _atom_site_label
 _atom_site_symmetry_multiplicity
 _atom_site_fract_x
 _atom_site_fract_y
 _atom_site_fract_z
 _atom_site_occupancy
  Fe  Fe0  1  0.50000000  0.49947400  0.30008300  1
  Fe  Fe1  1  0.50000000  0.51222500  0.50000000  1
  Fe  Fe2  1  0.50000000  0.49947400  0.69991700  1
  Fe  Fe3  1  0.50000000  0.48534600  0.89983600  1
  Fe  Fe4  1  0.50000000  0.48534600  0.10016400  1
  Fe  Fe5  1  0.50000000  0.97076200  0.39986400  1
  Fe  Fe6  1  0.50000000  0.02645200  0.79914700  1
  Fe  Fe7  1  0.50000000  0.97076200  0.60013600  1
  Fe  Fe8  1  0.50000000  0.02294700  0.00000000  1
  Fe  Fe9  1  0.50000000  0.02645200  0.20085300  1
  Fe  Fe10  1  0.00000000  0.99947400  0.30008300  1
  Fe  Fe11  1  0.00000000  0.01222500  0.50000000  1
  Fe  Fe12  1  0.00000000  0.99947400  0.69991700  1
  Fe  Fe13  1  0.00000000  0.98534600  0.89983600  1
  Fe  Fe14  1  0.00000000  0.98534600  0.10016400  1
  Fe  Fe15  1  0.00000000  0.47076200  0.39986400  1
  Fe  Fe16  1  0.00000000  0.52645200  0.79914700  1
  Fe  Fe17  1  0.00000000  0.47076200  0.60013600  1
  Fe  Fe18  1  0.00000000  0.52294700  0.00000000  1
  Fe  Fe19  1  0.00000000  0.52645200  0.20085300  1
  O  O20  1  0.50000000  0.31986900  0.79683600  1
  O  O21  1  0.50000000  0.31276400  0.00000000  1
  O  O22  1  0.50000000  0.31986900  0.20316400  1
  O  O23  1  0.30714550  0.99910850  0.30003600  1
  O  O24  1  0.30555950  0.98978450  0.50000000  1
  O  O25  1  0.30714550  0.99910850  0.69996400  1
  O  O26  1  0.30817100  0.00570500  0.90008700  1
  O  O27  1  0.30817100  0.00570500  0.09991300  1
  O  O28  1  0.69285450  0.99910850  0.30003600  1
  O  O29  1  0.69444050  0.98978450  0.50000000  1
  O  O30  1  0.69285450  0.99910850  0.69996400  1
  O  O31  1  0.69182900  0.00570500  0.90008700  1
  O  O32  1  0.69182900  0.00570500  0.09991300  1
  O  O33  1  0.50000000  0.68012400  0.39695200  1
  O  O34  1  0.50000000  0.68012400  0.60304800  1
  O  O35  1  0.00000000  0.81986900  0.79683600  1
  O  O36  1  0.00000000  0.81276400  0.00000000  1
  O  O37  1  0.00000000  0.81986900  0.20316400  1
  O  O38  1  0.80714550  0.49910850  0.30003600  1
  O  O39  1  0.80555950  0.48978450  0.50000000  1
  O  O40  1  0.80714550  0.49910850  0.69996400  1
  O  O41  1  0.80817100  0.50570500  0.90008700  1
  O  O42  1  0.80817100  0.50570500  0.09991300  1
  O  O43  1  0.19285450  0.49910850  0.30003600  1
  O  O44  1  0.19444050  0.48978450  0.50000000  1
  O  O45  1  0.19285450  0.49910850  0.69996400  1
  O  O46  1  0.19182900  0.50570500  0.90008700  1
  O  O47  1  0.19182900  0.50570500  0.09991300  1
  O  O48  1  0.00000000  0.18012400  0.39695200  1
  O  O49  1  0.00000000  0.18012400  0.60304800  1
  F  F50  1  0.50000000  0.30050700  0.40212400  1
  F  F51  1  0.50000000  0.30050700  0.59787600  1
  F  F52  1  0.50000000  0.69630400  0.80158200  1
  F  F53  1  0.50000000  0.69630400  0.19841800  1
  F  F54  1  0.50000000  0.69556700  0.00000000  1
  F  F55  1  0.00000000  0.80050700  0.40212400  1
  F  F56  1  0.00000000  0.80050700  0.59787600  1
  F  F57  1  0.00000000  0.19630400  0.80158200  1
  F  F58  1  0.00000000  0.19630400  0.19841800  1
  F  F59  1  0.00000000  0.19556700  0.00000000  1
