# generated using pymatgen
data_Li4V2Cr3Co3O16
_symmetry_space_group_name_H-M   'P 1'
_cell_length_a   10.08446600
_cell_length_b   5.82860600
_cell_length_c   9.30407798
_cell_angle_alpha   90.00000000
_cell_angle_beta   90.27985145
_cell_angle_gamma   90.00000000
_symmetry_Int_Tables_number   1
_chemical_formula_structural   Li4V2Cr3Co3O16
_chemical_formula_sum   'Li8 V4 Cr6 Co6 O32'
_cell_volume   546.87209885
_cell_formula_units_Z   2
loop_
 _symmetry_equiv_pos_site_id
 _symmetry_equiv_pos_as_xyz
  1  'x, y, z'
loop_
 _atom_site_type_symbol
 _atom_site_label
 _atom_site_symmetry_multiplicity
 _atom_site_fract_x
 _atom_site_fract_y
 _atom_site_fract_z
 _atom_site_occupancy
  Li  Li0  1  0.66909400  0.00000000  0.10651600  1
  Li  Li1  1  0.99432300  0.00000000  0.00766800  1
  Li  Li2  1  0.99467300  0.00000000  0.50226900  1
  Li  Li3  1  0.33578600  0.00000000  0.60070000  1
  Li  Li4  1  0.16909400  0.50000000  0.10651600  1
  Li  Li5  1  0.49432300  0.50000000  0.00766800  1
  Li  Li6  1  0.49467300  0.50000000  0.50226900  1
  Li  Li7  1  0.83578600  0.50000000  0.60070000  1
  V  V8  1  0.66656800  0.00000000  0.50169400  1
  V  V9  1  0.33314800  0.00000000  0.00679900  1
  V  V10  1  0.16656800  0.50000000  0.50169400  1
  V  V11  1  0.83314800  0.50000000  0.00679900  1
  Cr  Cr12  1  0.58624300  0.75772500  0.78513100  1
  Cr  Cr13  1  0.58624300  0.24227500  0.78513100  1
  Cr  Cr14  1  0.17175700  0.00000000  0.28430200  1
  Cr  Cr15  1  0.08624300  0.25772500  0.78513100  1
  Cr  Cr16  1  0.08624300  0.74227500  0.78513100  1
  Cr  Cr17  1  0.67175700  0.50000000  0.28430200  1
  Co  Co18  1  0.82705800  0.00000000  0.78189000  1
  Co  Co19  1  0.41355150  0.75860350  0.28498700  1
  Co  Co20  1  0.41355150  0.24139650  0.28498700  1
  Co  Co21  1  0.32705800  0.50000000  0.78189000  1
  Co  Co22  1  0.91355150  0.25860350  0.28498700  1
  Co  Co23  1  0.91355150  0.74139650  0.28498700  1
  O  O24  1  0.58499900  0.76121600  0.40694300  1
  O  O25  1  0.52273300  0.00000000  0.65341700  1
  O  O26  1  0.66842200  0.00000000  0.89934600  1
  O  O27  1  0.99854000  0.00000000  0.69139200  1
  O  O28  1  0.99418900  0.00000000  0.19499800  1
  O  O29  1  0.58499900  0.23878400  0.40694300  1
  O  O30  1  0.74052950  0.78149550  0.65213900  1
  O  O31  1  0.74052950  0.21850450  0.65213900  1
  O  O32  1  0.17235300  0.00000000  0.91189100  1
  O  O33  1  0.82505000  0.00000000  0.40205500  1
  O  O34  1  0.26600050  0.78078450  0.15705400  1
  O  O35  1  0.26600050  0.21921550  0.15705400  1
  O  O36  1  0.33904500  0.00000000  0.39098900  1
  O  O37  1  0.41420650  0.76411450  0.90968500  1
  O  O38  1  0.47709100  0.00000000  0.16442900  1
  O  O39  1  0.41420650  0.23588550  0.90968500  1
  O  O40  1  0.08499900  0.26121600  0.40694300  1
  O  O41  1  0.02273300  0.50000000  0.65341700  1
  O  O42  1  0.16842200  0.50000000  0.89934600  1
  O  O43  1  0.49854000  0.50000000  0.69139200  1
  O  O44  1  0.49418900  0.50000000  0.19499800  1
  O  O45  1  0.08499900  0.73878400  0.40694300  1
  O  O46  1  0.24052950  0.28149550  0.65213900  1
  O  O47  1  0.24052950  0.71850450  0.65213900  1
  O  O48  1  0.67235300  0.50000000  0.91189100  1
  O  O49  1  0.32505000  0.50000000  0.40205500  1
  O  O50  1  0.76600050  0.28078450  0.15705400  1
  O  O51  1  0.76600050  0.71921550  0.15705400  1
  O  O52  1  0.83904500  0.50000000  0.39098900  1
  O  O53  1  0.91420650  0.26411450  0.90968500  1
  O  O54  1  0.97709100  0.50000000  0.16442900  1
  O  O55  1  0.91420650  0.73588550  0.90968500  1
