# generated using pymatgen
data_Li4Cr3GaO8
_symmetry_space_group_name_H-M   'P 1'
_cell_length_a   10.34301660
_cell_length_b   5.90946984
_cell_length_c   5.13115428
_cell_angle_alpha   90.00000000
_cell_angle_beta   109.25175811
_cell_angle_gamma   90.00000000
_symmetry_Int_Tables_number   1
_chemical_formula_structural   Li4Cr3GaO8
_chemical_formula_sum   'Li8 Cr6 Ga2 O16'
_cell_volume   296.08684252
_cell_formula_units_Z   2
loop_
 _symmetry_equiv_pos_site_id
 _symmetry_equiv_pos_as_xyz
  1  'x, y, z'
loop_
 _atom_site_type_symbol
 _atom_site_label
 _atom_site_symmetry_multiplicity
 _atom_site_fract_x
 _atom_site_fract_y
 _atom_site_fract_z
 _atom_site_occupancy
  Li  Li0  1  0.74999750  0.50000000  0.49979600  1
  Li  Li1  1  0.25000250  0.50000000  0.50020400  1
  Li  Li2  1  0.25000000  0.25000000  0.00000000  1
  Li  Li3  1  0.25000000  0.75000000  0.00000000  1
  Li  Li4  1  0.24999750  0.00000000  0.49979600  1
  Li  Li5  1  0.75000250  0.00000000  0.50020400  1
  Li  Li6  1  0.75000000  0.75000000  0.00000000  1
  Li  Li7  1  0.75000000  0.25000000  0.00000000  1
  Cr  Cr8  1  0.50000000  0.50000000  0.00000000  1
  Cr  Cr9  1  0.50000000  0.24997850  0.50000000  1
  Cr  Cr10  1  0.50000000  0.75002150  0.50000000  1
  Cr  Cr11  1  0.00000000  0.00000000  0.00000000  1
  Cr  Cr12  1  0.00000000  0.74997850  0.50000000  1
  Cr  Cr13  1  0.00000000  0.25002150  0.50000000  1
  Ga  Ga14  1  0.50000000  0.00000000  0.00000000  1
  Ga  Ga15  1  0.00000000  0.50000000  0.00000000  1
  O  O16  1  0.61293900  0.00000000  0.74348900  1
  O  O17  1  0.38706100  0.00000000  0.25651100  1
  O  O18  1  0.61303025  0.50000000  0.74209950  1
  O  O19  1  0.38696975  0.50000000  0.25790050  1
  O  O20  1  0.61263250  0.75076950  0.24141500  1
  O  O21  1  0.38736750  0.24923050  0.75858500  1
  O  O22  1  0.38736750  0.75076950  0.75858500  1
  O  O23  1  0.61263250  0.24923050  0.24141500  1
  O  O24  1  0.11293900  0.50000000  0.74348900  1
  O  O25  1  0.88706100  0.50000000  0.25651100  1
  O  O26  1  0.11303025  0.00000000  0.74209950  1
  O  O27  1  0.88696975  0.00000000  0.25790050  1
  O  O28  1  0.11263250  0.25076950  0.24141500  1
  O  O29  1  0.88736750  0.74923050  0.75858500  1
  O  O30  1  0.88736750  0.25076950  0.75858500  1
  O  O31  1  0.11263250  0.74923050  0.24141500  1
