# generated using pymatgen
data_Mn3Nb2Fe3O16
_symmetry_space_group_name_H-M   'P 1'
_cell_length_a   10.32164000
_cell_length_b   5.90774400
_cell_length_c   9.34218145
_cell_angle_alpha   90.00000000
_cell_angle_beta   91.26571895
_cell_angle_gamma   90.00000000
_symmetry_Int_Tables_number   1
_chemical_formula_structural   Mn3Nb2Fe3O16
_chemical_formula_sum   'Mn6 Nb4 Fe6 O32'
_cell_volume   569.52487152
_cell_formula_units_Z   2
loop_
 _symmetry_equiv_pos_site_id
 _symmetry_equiv_pos_as_xyz
  1  'x, y, z'
loop_
 _atom_site_type_symbol
 _atom_site_label
 _atom_site_symmetry_multiplicity
 _atom_site_fract_x
 _atom_site_fract_y
 _atom_site_fract_z
 _atom_site_occupancy
  Mn  Mn0  1  0.67125000  0.50000000  0.21383500  1
  Mn  Mn1  1  0.58580650  0.75300050  0.71263900  1
  Mn  Mn2  1  0.58580650  0.24699950  0.71263900  1
  Mn  Mn3  1  0.17125000  0.00000000  0.21383500  1
  Mn  Mn4  1  0.08580650  0.25300050  0.71263900  1
  Mn  Mn5  1  0.08580650  0.74699950  0.71263900  1
  Nb  Nb6  1  0.83121500  0.50000000  0.49629300  1
  Nb  Nb7  1  0.66677300  0.00000000  0.99907300  1
  Nb  Nb8  1  0.33121500  0.00000000  0.49629300  1
  Nb  Nb9  1  0.16677300  0.50000000  0.99907300  1
  Fe  Fe10  1  0.91879000  0.25187400  0.21219500  1
  Fe  Fe11  1  0.91879000  0.74812600  0.21219500  1
  Fe  Fe12  1  0.83359500  0.00000000  0.71341000  1
  Fe  Fe13  1  0.41879000  0.75187400  0.21219500  1
  Fe  Fe14  1  0.41879000  0.24812600  0.21219500  1
  Fe  Fe15  1  0.33359500  0.50000000  0.71341000  1
  O  O16  1  0.91696250  0.25376150  0.59919300  1
  O  O17  1  0.97731900  0.50000000  0.34329800  1
  O  O18  1  0.82758000  0.50000000  0.10731500  1
  O  O19  1  0.50773700  0.50000000  0.30858400  1
  O  O20  1  0.50623100  0.50000000  0.80898100  1
  O  O21  1  0.91696250  0.74623850  0.59919300  1
  O  O22  1  0.75365150  0.28625850  0.33725400  1
  O  O23  1  0.75365150  0.71374150  0.33725400  1
  O  O24  1  0.83254500  0.00000000  0.09454700  1
  O  O25  1  0.66680700  0.50000000  0.60442500  1
  O  O26  1  0.73349250  0.77840150  0.83502200  1
  O  O27  1  0.73349250  0.22159850  0.83502200  1
  O  O28  1  0.66089500  0.00000000  0.60853900  1
  O  O29  1  0.58812850  0.75026750  0.09831900  1
  O  O30  1  0.52103200  0.00000000  0.82772600  1
  O  O31  1  0.58812850  0.24973250  0.09831900  1
  O  O32  1  0.41696250  0.75376150  0.59919300  1
  O  O33  1  0.47731900  0.00000000  0.34329800  1
  O  O34  1  0.32758000  0.00000000  0.10731500  1
  O  O35  1  0.00773700  0.00000000  0.30858400  1
  O  O36  1  0.00623100  0.00000000  0.80898100  1
  O  O37  1  0.41696250  0.24623850  0.59919300  1
  O  O38  1  0.25365150  0.78625850  0.33725400  1
  O  O39  1  0.25365150  0.21374150  0.33725400  1
  O  O40  1  0.33254500  0.50000000  0.09454700  1
  O  O41  1  0.16680700  0.00000000  0.60442500  1
  O  O42  1  0.23349250  0.27840150  0.83502200  1
  O  O43  1  0.23349250  0.72159850  0.83502200  1
  O  O44  1  0.16089500  0.50000000  0.60853900  1
  O  O45  1  0.08812850  0.25026750  0.09831900  1
  O  O46  1  0.02103200  0.50000000  0.82772600  1
  O  O47  1  0.08812850  0.74973250  0.09831900  1
