# generated using pymatgen
data_Li3Mn3O3F5
_symmetry_space_group_name_H-M   'P 1'
_cell_length_a   10.83538144
_cell_length_b   5.84003238
_cell_length_c   6.09050337
_cell_angle_alpha   90.00000000
_cell_angle_beta   123.02662564
_cell_angle_gamma   90.00000000
_symmetry_Int_Tables_number   1
_chemical_formula_structural   Li3Mn3O3F5
_chemical_formula_sum   'Li6 Mn6 O6 F10'
_cell_volume   323.12675607
_cell_formula_units_Z   2
loop_
 _symmetry_equiv_pos_site_id
 _symmetry_equiv_pos_as_xyz
  1  'x, y, z'
loop_
 _atom_site_type_symbol
 _atom_site_label
 _atom_site_symmetry_multiplicity
 _atom_site_fract_x
 _atom_site_fract_y
 _atom_site_fract_z
 _atom_site_occupancy
  Li  Li0  1  0.60938450  0.00000000  0.35699350  1
  Li  Li1  1  0.76318275  0.50000000  0.75331000  1
  Li  Li2  1  0.99566525  0.00000000  0.02747500  1
  Li  Li3  1  0.10938450  0.50000000  0.35699350  1
  Li  Li4  1  0.26318275  0.00000000  0.75331000  1
  Li  Li5  1  0.49566525  0.50000000  0.02747500  1
  Mn  Mn6  1  0.62566375  0.00000000  0.87327100  1
  Mn  Mn7  1  0.87449100  0.74146450  0.36468550  1
  Mn  Mn8  1  0.87449100  0.25853550  0.36468550  1
  Mn  Mn9  1  0.12566375  0.50000000  0.87327100  1
  Mn  Mn10  1  0.37449100  0.24146450  0.36468550  1
  Mn  Mn11  1  0.37449100  0.75853550  0.36468550  1
  O  O12  1  0.85903200  0.00000000  0.14955550  1
  O  O13  1  0.89053000  0.50000000  0.59485350  1
  O  O14  1  0.88099725  0.50000000  0.16023800  1
  O  O15  1  0.35903200  0.50000000  0.14955550  1
  O  O16  1  0.39053000  0.00000000  0.59485350  1
  O  O17  1  0.38099725  0.00000000  0.16023800  1
  F  F18  1  0.87366150  0.00000000  0.59563450  1
  F  F19  1  0.62527525  0.24687325  0.61184700  1
  F  F20  1  0.62527525  0.75312675  0.61184700  1
  F  F21  1  0.62624475  0.75766675  0.14276600  1
  F  F22  1  0.62624475  0.24233325  0.14276600  1
  F  F23  1  0.37366150  0.50000000  0.59563450  1
  F  F24  1  0.12527525  0.74687325  0.61184700  1
  F  F25  1  0.12527525  0.25312675  0.61184700  1
  F  F26  1  0.12624475  0.25766675  0.14276600  1
  F  F27  1  0.12624475  0.74233325  0.14276600  1
