# generated using pymatgen
data_Nb3Ni(PO4)6
_symmetry_space_group_name_H-M   'P 1'
_cell_length_a   8.80362004
_cell_length_b   8.80362004
_cell_length_c   22.31423201
_cell_angle_alpha   90.00000000
_cell_angle_beta   90.00000000
_cell_angle_gamma   120.00000000
_symmetry_Int_Tables_number   1
_chemical_formula_structural   Nb3Ni(PO4)6
_chemical_formula_sum   'Nb9 Ni3 P18 O72'
_cell_volume   1497.73561440
_cell_formula_units_Z   3
loop_
 _symmetry_equiv_pos_site_id
 _symmetry_equiv_pos_as_xyz
  1  'x, y, z'
loop_
 _atom_site_type_symbol
 _atom_site_label
 _atom_site_symmetry_multiplicity
 _atom_site_fract_x
 _atom_site_fract_y
 _atom_site_fract_z
 _atom_site_occupancy
  Nb  Nb0  1  0.66666667  0.33333333  0.19298333  1
  Nb  Nb1  1  0.33333333  0.66666667  0.30818467  1
  Nb  Nb2  1  0.33333333  0.66666667  0.02655467  1
  Nb  Nb3  1  0.33333333  0.66666667  0.52631667  1
  Nb  Nb4  1  0.00000000  0.00000000  0.64151800  1
  Nb  Nb5  1  0.00000000  0.00000000  0.35988800  1
  Nb  Nb6  1  0.00000000  0.00000000  0.85965000  1
  Nb  Nb7  1  0.66666667  0.33333333  0.97485133  1
  Nb  Nb8  1  0.66666667  0.33333333  0.69322133  1
  Ni  Ni9  1  0.00000000  0.00000000  0.14313300  1
  Ni  Ni10  1  0.66666667  0.33333333  0.47646633  1
  Ni  Ni11  1  0.33333333  0.66666667  0.80979967  1
  P  P12  1  0.71966000  0.72074200  0.24823300  1
  P  P13  1  0.27925800  0.99891800  0.24823300  1
  P  P14  1  0.00108200  0.28034000  0.24823300  1
  P  P15  1  0.67434567  0.04981333  0.08416933  1
  P  P16  1  0.37546767  0.32565433  0.08416933  1
  P  P17  1  0.95018667  0.62453233  0.08416933  1
  P  P18  1  0.38632667  0.05407533  0.58156633  1
  P  P19  1  0.94592467  0.33225133  0.58156633  1
  P  P20  1  0.66774867  0.61367333  0.58156633  1
  P  P21  1  0.34101233  0.38314667  0.41750267  1
  P  P22  1  0.04213433  0.65898767  0.41750267  1
  P  P23  1  0.61685333  0.95786567  0.41750267  1
  P  P24  1  0.05299333  0.38740867  0.91489967  1
  P  P25  1  0.61259133  0.66558467  0.91489967  1
  P  P26  1  0.33441533  0.94700667  0.91489967  1
  P  P27  1  0.00767900  0.71648000  0.75083600  1
  P  P28  1  0.70880100  0.99232100  0.75083600  1
  P  P29  1  0.28352000  0.29119900  0.75083600  1
  O  O30  1  0.83924600  0.52705200  0.02800800  1
  O  O31  1  0.68780600  0.16075400  0.02800800  1
  O  O32  1  0.69520000  0.53228900  0.24279800  1
  O  O33  1  0.47294800  0.31219400  0.02800800  1
  O  O34  1  0.53131567  0.69155733  0.25914533  1
  O  O35  1  0.79539567  0.82684833  0.19254233  1
  O  O36  1  0.46771100  0.16291100  0.24279800  1
  O  O37  1  0.30844267  0.83975833  0.25914533  1
  O  O38  1  0.16024167  0.46868433  0.25914533  1
  O  O39  1  0.64079733  0.13662967  0.13957767  1
  O  O40  1  0.83298233  0.02877967  0.08875667  1
  O  O41  1  0.49583233  0.35920267  0.13957767  1
  O  O42  1  0.17315167  0.96854733  0.19254233  1
  O  O43  1  0.83708900  0.30480000  0.24279800  1
  O  O44  1  0.03145267  0.20460433  0.19254233  1
  O  O45  1  0.50353800  0.86662400  0.07593100  1
  O  O46  1  0.36308600  0.49646200  0.07593100  1
  O  O47  1  0.19579733  0.16701767  0.08875667  1
  O  O48  1  0.86337033  0.50416767  0.13957767  1
  O  O49  1  0.13337600  0.63691400  0.07593100  1
  O  O50  1  0.19615500  0.02535100  0.30611000  1
  O  O51  1  0.97122033  0.80420267  0.08875667  1
  O  O52  1  0.97464900  0.17080400  0.30611000  1
  O  O53  1  0.82919600  0.80384500  0.30611000  1
  O  O54  1  0.50591267  0.86038533  0.36134133  1
  O  O55  1  0.35447267  0.49408733  0.36134133  1
  O  O56  1  0.36186667  0.86562233  0.57613133  1
  O  O57  1  0.13961467  0.64552733  0.36134133  1
  O  O58  1  0.19798233  0.02489067  0.59247867  1
  O  O59  1  0.46206233  0.16018167  0.52587567  1
  O  O60  1  0.13437767  0.49624433  0.57613133  1
  O  O61  1  0.97510933  0.17309167  0.59247867  1
  O  O62  1  0.82690833  0.80201767  0.59247867  1
  O  O63  1  0.30746400  0.46996300  0.47291100  1
  O  O64  1  0.49964900  0.36211300  0.42209000  1
  O  O65  1  0.16249900  0.69253600  0.47291100  1
  O  O66  1  0.83981833  0.30188067  0.52587567  1
  O  O67  1  0.50375567  0.63813333  0.57613133  1
  O  O68  1  0.69811933  0.53793767  0.52587567  1
  O  O69  1  0.17020467  0.19995733  0.40926433  1
  O  O70  1  0.02975267  0.82979533  0.40926433  1
  O  O71  1  0.86246400  0.50035100  0.42209000  1
  O  O72  1  0.53003700  0.83750100  0.47291100  1
  O  O73  1  0.80004267  0.97024733  0.40926433  1
  O  O74  1  0.86282167  0.35868433  0.63944333  1
  O  O75  1  0.63788700  0.13753600  0.42209000  1
  O  O76  1  0.64131567  0.50413733  0.63944333  1
  O  O77  1  0.49586267  0.13717833  0.63944333  1
  O  O78  1  0.17257933  0.19371867  0.69467467  1
  O  O79  1  0.02113933  0.82742067  0.69467467  1
  O  O80  1  0.02853333  0.19895567  0.90946467  1
  O  O81  1  0.80628133  0.97886067  0.69467467  1
  O  O82  1  0.86464900  0.35822400  0.92581200  1
  O  O83  1  0.12872900  0.49351500  0.85920900  1
  O  O84  1  0.80104433  0.82957767  0.90946467  1
  O  O85  1  0.64177600  0.50642500  0.92581200  1
  O  O86  1  0.49357500  0.13535100  0.92581200  1
  O  O87  1  0.97413067  0.80329633  0.80624433  1
  O  O88  1  0.16631567  0.69544633  0.75542333  1
  O  O89  1  0.82916567  0.02586933  0.80624433  1
  O  O90  1  0.50648500  0.63521400  0.85920900  1
  O  O91  1  0.17042233  0.97146667  0.90946467  1
  O  O92  1  0.36478600  0.87127100  0.85920900  1
  O  O93  1  0.83687133  0.53329067  0.74259767  1
  O  O94  1  0.69641933  0.16312867  0.74259767  1
  O  O95  1  0.52913067  0.83368433  0.75542333  1
  O  O96  1  0.19670367  0.17083433  0.80624433  1
  O  O97  1  0.46670933  0.30358067  0.74259767  1
  O  O98  1  0.52948833  0.69201767  0.97277667  1
  O  O99  1  0.30455367  0.47086933  0.75542333  1
  O  O100  1  0.30798233  0.83747067  0.97277667  1
  O  O101  1  0.16252933  0.47051167  0.97277667  1
