# generated using pymatgen
data_Li2AlVO4
_symmetry_space_group_name_H-M   'P 1'
_cell_length_a   4.97501376
_cell_length_b   5.55131401
_cell_length_c   8.17170751
_cell_angle_alpha   90.00000000
_cell_angle_beta   127.55106741
_cell_angle_gamma   90.00000000
_symmetry_Int_Tables_number   1
_chemical_formula_structural   Li2AlVO4
_chemical_formula_sum   'Li4 Al2 V2 O8'
_cell_volume   178.92550612
_cell_formula_units_Z   2
loop_
 _symmetry_equiv_pos_site_id
 _symmetry_equiv_pos_as_xyz
  1  'x, y, z'
loop_
 _atom_site_type_symbol
 _atom_site_label
 _atom_site_symmetry_multiplicity
 _atom_site_fract_x
 _atom_site_fract_y
 _atom_site_fract_z
 _atom_site_occupancy
  Li  Li0  1  0.49286400  0.67563650  0.99839500  1
  Li  Li1  1  0.49286400  0.32436350  0.49839500  1
  Li  Li2  1  0.23916400  0.15884250  0.74542700  1
  Li  Li3  1  0.23916400  0.84115750  0.24542700  1
  Al  Al4  1  0.74949000  0.83212950  0.74736200  1
  Al  Al5  1  0.74949000  0.16787050  0.24736200  1
  V  V6  1  0.98679000  0.66468450  0.49206000  1
  V  V7  1  0.98679000  0.33531550  0.99206000  1
  O  O8  1  0.87235600  0.67259250  0.97350600  1
  O  O9  1  0.87235600  0.32740750  0.47350600  1
  O  O10  1  0.65537000  0.13922250  0.75537700  1
  O  O11  1  0.65537000  0.86077750  0.25537700  1
  O  O12  1  0.10021800  0.81843050  0.73879200  1
  O  O13  1  0.10021800  0.18156950  0.23879200  1
  O  O14  1  0.40700600  0.68225650  0.51913700  1
  O  O15  1  0.40700600  0.31774350  0.01913700  1
