# generated using pymatgen
data_LiVF6
_symmetry_space_group_name_H-M   'P 1'
_cell_length_a   9.80941200
_cell_length_b   5.44177200
_cell_length_c   4.84199490
_cell_angle_alpha   90.00000000
_cell_angle_beta   108.73596412
_cell_angle_gamma   90.00000000
_symmetry_Int_Tables_number   1
_chemical_formula_structural   LiVF6
_chemical_formula_sum   'Li2 V2 F12'
_cell_volume   244.77196841
_cell_formula_units_Z   2
loop_
 _symmetry_equiv_pos_site_id
 _symmetry_equiv_pos_as_xyz
  1  'x, y, z'
loop_
 _atom_site_type_symbol
 _atom_site_label
 _atom_site_symmetry_multiplicity
 _atom_site_fract_x
 _atom_site_fract_y
 _atom_site_fract_z
 _atom_site_occupancy
  Li  Li0  1  0.36969600  0.00000000  0.37568200  1
  Li  Li1  1  0.86969600  0.50000000  0.37568200  1
  V  V2  1  0.49679700  0.50000000  0.98996300  1
  V  V3  1  0.99679700  0.00000000  0.98996300  1
  F  F4  1  0.06618850  0.76214850  0.82077800  1
  F  F5  1  0.33295900  0.50000000  0.69510300  1
  F  F6  1  0.42598100  0.26665000  0.18409100  1
  F  F7  1  0.06618850  0.23785150  0.82077800  1
  F  F8  1  0.16733700  0.00000000  0.29835300  1
  F  F9  1  0.42598100  0.73335000  0.18409100  1
  F  F10  1  0.56618850  0.26214850  0.82077800  1
  F  F11  1  0.83295900  0.00000000  0.69510300  1
  F  F12  1  0.92598100  0.76665000  0.18409100  1
  F  F13  1  0.56618850  0.73785150  0.82077800  1
  F  F14  1  0.66733700  0.50000000  0.29835300  1
  F  F15  1  0.92598100  0.23335000  0.18409100  1
