# generated using pymatgen
data_Li5MnO3F
_symmetry_space_group_name_H-M   'P 1'
_cell_length_a   9.79632097
_cell_length_b   9.86190309
_cell_length_c   4.75778643
_cell_angle_alpha   90.00000000
_cell_angle_beta   107.46801592
_cell_angle_gamma   90.00000000
_symmetry_Int_Tables_number   1
_chemical_formula_structural   Li5MnO3F
_chemical_formula_sum   'Li20 Mn4 O12 F4'
_cell_volume   438.45451488
_cell_formula_units_Z   4
loop_
 _symmetry_equiv_pos_site_id
 _symmetry_equiv_pos_as_xyz
  1  'x, y, z'
loop_
 _atom_site_type_symbol
 _atom_site_label
 _atom_site_symmetry_multiplicity
 _atom_site_fract_x
 _atom_site_fract_y
 _atom_site_fract_z
 _atom_site_occupancy
  Li  Li0  1  0.85676200  0.00000000  0.63835800  1
  Li  Li1  1  0.14323800  0.00000000  0.36164200  1
  Li  Li2  1  0.12835700  0.77804475  0.88242900  1
  Li  Li3  1  0.87164300  0.77804475  0.11757100  1
  Li  Li4  1  0.87164300  0.22195525  0.11757100  1
  Li  Li5  1  0.12835700  0.22195525  0.88242900  1
  Li  Li6  1  0.86926675  0.72043000  0.62893950  1
  Li  Li7  1  0.86926675  0.27957000  0.62893950  1
  Li  Li8  1  0.63073325  0.77957000  0.37106050  1
  Li  Li9  1  0.63073325  0.22043000  0.37106050  1
  Li  Li10  1  0.35676200  0.50000000  0.63835800  1
  Li  Li11  1  0.64323800  0.50000000  0.36164200  1
  Li  Li12  1  0.62835700  0.27804475  0.88242900  1
  Li  Li13  1  0.37164300  0.27804475  0.11757100  1
  Li  Li14  1  0.37164300  0.72195525  0.11757100  1
  Li  Li15  1  0.62835700  0.72195525  0.88242900  1
  Li  Li16  1  0.36926675  0.22043000  0.62893950  1
  Li  Li17  1  0.36926675  0.77957000  0.62893950  1
  Li  Li18  1  0.13073325  0.27957000  0.37106050  1
  Li  Li19  1  0.13073325  0.72043000  0.37106050  1
  Mn  Mn20  1  0.62577375  0.00000000  0.86709850  1
  Mn  Mn21  1  0.37422625  0.00000000  0.13290150  1
  Mn  Mn22  1  0.12577375  0.50000000  0.86709850  1
  Mn  Mn23  1  0.87422625  0.50000000  0.13290150  1
  O  O24  1  0.00000000  0.65048750  0.00000000  1
  O  O25  1  0.00000000  0.34951250  0.00000000  1
  O  O26  1  0.74899800  0.14916575  0.74592400  1
  O  O27  1  0.74899800  0.85083425  0.74592400  1
  O  O28  1  0.75100200  0.64916575  0.25407600  1
  O  O29  1  0.75100200  0.35083425  0.25407600  1
  O  O30  1  0.50000000  0.15048750  0.00000000  1
  O  O31  1  0.50000000  0.84951250  0.00000000  1
  O  O32  1  0.24899800  0.64916575  0.74592400  1
  O  O33  1  0.24899800  0.35083425  0.74592400  1
  O  O34  1  0.25100200  0.14916575  0.25407600  1
  O  O35  1  0.25100200  0.85083425  0.25407600  1
  F  F36  1  0.00000000  0.85572900  0.50000000  1
  F  F37  1  0.00000000  0.14427100  0.50000000  1
  F  F38  1  0.50000000  0.35572900  0.50000000  1
  F  F39  1  0.50000000  0.64427100  0.50000000  1
