# generated using pymatgen
data_Li3V3O5F3
_symmetry_space_group_name_H-M   'P 1'
_cell_length_a   10.30095068
_cell_length_b   6.05069788
_cell_length_c   5.86845347
_cell_angle_alpha   90.00000000
_cell_angle_beta   124.67716411
_cell_angle_gamma   90.00000000
_symmetry_Int_Tables_number   1
_chemical_formula_structural   Li3V3O5F3
_chemical_formula_sum   'Li6 V6 O10 F6'
_cell_volume   300.79745664
_cell_formula_units_Z   2
loop_
 _symmetry_equiv_pos_site_id
 _symmetry_equiv_pos_as_xyz
  1  'x, y, z'
loop_
 _atom_site_type_symbol
 _atom_site_label
 _atom_site_symmetry_multiplicity
 _atom_site_fract_x
 _atom_site_fract_y
 _atom_site_fract_z
 _atom_site_occupancy
  Li  Li0  1  0.25415300  0.50000000  0.27003250  1
  Li  Li1  1  0.87936450  0.50000000  0.12691650  1
  Li  Li2  1  0.87397550  0.50000000  0.62363250  1
  Li  Li3  1  0.75415300  0.00000000  0.27003250  1
  Li  Li4  1  0.37936450  0.00000000  0.12691650  1
  Li  Li5  1  0.37397550  0.00000000  0.62363250  1
  V  V6  1  0.13093400  0.25414000  0.61817450  1
  V  V7  1  0.13093400  0.74586000  0.61817450  1
  V  V8  1  0.49472625  0.50000000  0.98878200  1
  V  V9  1  0.63093400  0.75414000  0.61817450  1
  V  V10  1  0.63093400  0.24586000  0.61817450  1
  V  V11  1  0.99472625  0.00000000  0.98878200  1
  O  O12  1  0.11596350  0.50000000  0.39569550  1
  O  O13  1  0.61968800  0.50000000  0.85104650  1
  O  O14  1  0.62332725  0.50000000  0.37519500  1
  O  O15  1  0.86313250  0.23915800  0.86419150  1
  O  O16  1  0.86313250  0.76084200  0.86419150  1
  O  O17  1  0.61596350  0.00000000  0.39569550  1
  O  O18  1  0.11968800  0.00000000  0.85104650  1
  O  O19  1  0.12332725  0.00000000  0.37519500  1
  O  O20  1  0.36313250  0.73915800  0.86419150  1
  O  O21  1  0.36313250  0.26084200  0.86419150  1
  F  F22  1  0.11906650  0.50000000  0.86148050  1
  F  F23  1  0.89059075  0.26109525  0.39622900  1
  F  F24  1  0.89059075  0.73890475  0.39622900  1
  F  F25  1  0.61906650  0.00000000  0.86148050  1
  F  F26  1  0.39059075  0.76109525  0.39622900  1
  F  F27  1  0.39059075  0.23890475  0.39622900  1
