# generated using pymatgen
data_LiCoPO4
_symmetry_space_group_name_H-M   'P 1'
_cell_length_a   4.89147660
_cell_length_b   4.89147660
_cell_length_c   23.60554860
_cell_angle_alpha   90.00000000
_cell_angle_beta   90.00000000
_cell_angle_gamma   120.00000000
_symmetry_Int_Tables_number   1
_chemical_formula_structural   LiCoPO4
_chemical_formula_sum   'Li6 Co6 P6 O24'
_cell_volume   489.13043916
_cell_formula_units_Z   6
loop_
 _symmetry_equiv_pos_site_id
 _symmetry_equiv_pos_as_xyz
  1  'x, y, z'
loop_
 _atom_site_type_symbol
 _atom_site_label
 _atom_site_symmetry_multiplicity
 _atom_site_fract_x
 _atom_site_fract_y
 _atom_site_fract_z
 _atom_site_occupancy
  Li  Li0  1  0.00000000  0.00000000  0.71752550  1
  Li  Li1  1  0.33333333  0.66666667  0.94914117  1
  Li  Li2  1  0.66666667  0.33333333  0.05085883  1
  Li  Li3  1  1.00000000  0.00000000  0.28247450  1
  Li  Li4  1  0.33333333  0.66666667  0.38419217  1
  Li  Li5  1  0.66666667  0.33333333  0.61580783  1
  Co  Co6  1  0.00000000  0.00000000  0.84119950  1
  Co  Co7  1  0.33333333  0.66666667  0.82546717  1
  Co  Co8  1  0.66666667  0.33333333  0.17453283  1
  Co  Co9  1  1.00000000  0.00000000  0.15880050  1
  Co  Co10  1  0.33333333  0.66666667  0.50786617  1
  Co  Co11  1  0.66666667  0.33333333  0.49213383  1
  P  P12  1  0.66666667  0.33333333  0.90881450  1
  P  P13  1  0.66666667  0.33333333  0.75785217  1
  P  P14  1  0.33333333  0.66666667  0.24214783  1
  P  P15  1  0.33333333  0.66666667  0.09118550  1
  P  P16  1  0.00000000  0.00000000  0.57548117  1
  P  P17  1  0.00000000  0.00000000  0.42451883  1
  O  O18  1  0.33333333  0.66666667  0.02766350  1
  O  O19  1  0.66666667  0.33333333  0.97233650  1
  O  O20  1  0.98168400  0.62591700  0.88605350  1
  O  O21  1  0.95925033  0.31089967  0.78061317  1
  O  O22  1  0.35164933  0.04074967  0.78061317  1
  O  O23  1  0.64423300  0.01831600  0.88605350  1
  O  O24  1  0.37408300  0.35576700  0.88605350  1
  O  O25  1  0.68910033  0.64835067  0.78061317  1
  O  O26  1  0.00000000  0.00000000  0.36099683  1
  O  O27  1  0.33333333  0.66666667  0.30566983  1
  O  O28  1  0.64835067  0.95925033  0.21938683  1
  O  O29  1  0.62591700  0.64423300  0.11394650  1
  O  O30  1  0.01831600  0.37408300  0.11394650  1
  O  O31  1  0.31089967  0.35164933  0.21938683  1
  O  O32  1  0.04074967  0.68910033  0.21938683  1
  O  O33  1  0.35576700  0.98168400  0.11394650  1
  O  O34  1  0.66666667  0.33333333  0.69433017  1
  O  O35  1  0.00000000  0.00000000  0.63900317  1
  O  O36  1  0.31501733  0.29258367  0.55272017  1
  O  O37  1  0.29258367  0.97756633  0.44727983  1
  O  O38  1  0.68498267  0.70741633  0.44727983  1
  O  O39  1  0.97756633  0.68498267  0.55272017  1
  O  O40  1  0.70741633  0.02243367  0.55272017  1
  O  O41  1  0.02243367  0.31501733  0.44727983  1
