# generated using pymatgen
data_Y6N2O5
_symmetry_space_group_name_H-M   'P 1'
_cell_length_a   10.86840200
_cell_length_b   4.78558000
_cell_length_c   7.61445695
_cell_angle_alpha   90.00000000
_cell_angle_beta   98.40136963
_cell_angle_gamma   90.00000000
_symmetry_Int_Tables_number   1
_chemical_formula_structural   Y6N2O5
_chemical_formula_sum   'Y12 N4 O10'
_cell_volume   391.79017440
_cell_formula_units_Z   2
loop_
 _symmetry_equiv_pos_site_id
 _symmetry_equiv_pos_as_xyz
  1  'x, y, z'
loop_
 _atom_site_type_symbol
 _atom_site_label
 _atom_site_symmetry_multiplicity
 _atom_site_fract_x
 _atom_site_fract_y
 _atom_site_fract_z
 _atom_site_occupancy
  Y  Y0  1  0.79114400  0.50000000  0.86105900  1
  Y  Y1  1  0.56578900  0.00000000  0.71661800  1
  Y  Y2  1  0.64561300  0.50000000  0.42336700  1
  Y  Y3  1  0.85438700  0.00000000  0.57663300  1
  Y  Y4  1  0.70885600  0.00000000  0.13894100  1
  Y  Y5  1  0.93421100  0.50000000  0.28338200  1
  Y  Y6  1  0.29114400  0.00000000  0.86105900  1
  Y  Y7  1  0.06578900  0.50000000  0.71661800  1
  Y  Y8  1  0.14561300  0.00000000  0.42336700  1
  Y  Y9  1  0.35438700  0.50000000  0.57663300  1
  Y  Y10  1  0.20885600  0.50000000  0.13894100  1
  Y  Y11  1  0.43421100  0.00000000  0.28338200  1
  N  N12  1  0.85751000  0.50000000  0.57518700  1
  N  N13  1  0.64249000  0.00000000  0.42481300  1
  N  N14  1  0.35751000  0.00000000  0.57518700  1
  N  N15  1  0.14249000  0.50000000  0.42481300  1
  O  O16  1  0.57910200  0.50000000  0.70180300  1
  O  O17  1  0.00000000  0.50000000  0.00000000  1
  O  O18  1  0.77141000  0.00000000  0.85427100  1
  O  O19  1  0.92089800  0.00000000  0.29819700  1
  O  O20  1  0.72859000  0.50000000  0.14572900  1
  O  O21  1  0.07910200  0.00000000  0.70180300  1
  O  O22  1  0.50000000  0.00000000  0.00000000  1
  O  O23  1  0.27141000  0.50000000  0.85427100  1
  O  O24  1  0.42089800  0.50000000  0.29819700  1
  O  O25  1  0.22859000  0.00000000  0.14572900  1
