# generated using pymatgen
data_Fe6O11F
_symmetry_space_group_name_H-M   'P 1'
_cell_length_a   8.91387800
_cell_length_b   6.46903000
_cell_length_c   7.25684921
_cell_angle_alpha   90.00000000
_cell_angle_beta   113.75851410
_cell_angle_gamma   90.00000000
_symmetry_Int_Tables_number   1
_chemical_formula_structural   Fe6O11F
_chemical_formula_sum   'Fe12 O22 F2'
_cell_volume   382.99619249
_cell_formula_units_Z   2
loop_
 _symmetry_equiv_pos_site_id
 _symmetry_equiv_pos_as_xyz
  1  'x, y, z'
loop_
 _atom_site_type_symbol
 _atom_site_label
 _atom_site_symmetry_multiplicity
 _atom_site_fract_x
 _atom_site_fract_y
 _atom_site_fract_z
 _atom_site_occupancy
  Fe  Fe0  1  0.16692700  0.50000000  0.16491200  1
  Fe  Fe1  1  0.83568800  0.50000000  0.33277100  1
  Fe  Fe2  1  0.15637300  0.50000000  0.66852800  1
  Fe  Fe3  1  0.83116800  0.50000000  0.83628900  1
  Fe  Fe4  1  0.50674900  0.50000000  0.49018400  1
  Fe  Fe5  1  0.50178500  0.50000000  0.00915000  1
  Fe  Fe6  1  0.66692700  0.00000000  0.16491200  1
  Fe  Fe7  1  0.33568800  0.00000000  0.33277100  1
  Fe  Fe8  1  0.65637300  0.00000000  0.66852800  1
  Fe  Fe9  1  0.33116800  0.00000000  0.83628900  1
  Fe  Fe10  1  0.00674900  0.00000000  0.49018400  1
  Fe  Fe11  1  0.00178500  0.00000000  0.00915000  1
  O  O12  1  0.83485100  0.18885100  0.33253800  1
  O  O13  1  0.16476450  0.19360050  0.66911600  1
  O  O14  1  0.73346400  0.50000000  0.04362700  1
  O  O15  1  0.05991100  0.50000000  0.37292800  1
  O  O16  1  0.27059100  0.50000000  0.95800200  1
  O  O17  1  0.92586700  0.50000000  0.62116900  1
  O  O18  1  0.61329100  0.50000000  0.30081800  1
  O  O19  1  0.16476450  0.80639950  0.66911600  1
  O  O20  1  0.83485100  0.81114900  0.33253800  1
  O  O21  1  0.00046450  0.30686550  0.99888400  1
  O  O22  1  0.00046450  0.69313450  0.99888400  1
  O  O23  1  0.33485100  0.68885100  0.33253800  1
  O  O24  1  0.66476450  0.69360050  0.66911600  1
  O  O25  1  0.23346400  0.00000000  0.04362700  1
  O  O26  1  0.55991100  0.00000000  0.37292800  1
  O  O27  1  0.77059100  0.00000000  0.95800200  1
  O  O28  1  0.42586700  0.00000000  0.62116900  1
  O  O29  1  0.11329100  0.00000000  0.30081800  1
  O  O30  1  0.66476450  0.30639950  0.66911600  1
  O  O31  1  0.33485100  0.31114900  0.33253800  1
  O  O32  1  0.50046450  0.80686550  0.99888400  1
  O  O33  1  0.50046450  0.19313450  0.99888400  1
  F  F34  1  0.39802200  0.50000000  0.70054600  1
  F  F35  1  0.89802200  0.00000000  0.70054600  1
