# generated using pymatgen
data_LiCoPO4
_symmetry_space_group_name_H-M   'P 1'
_cell_length_a   4.29277100
_cell_length_b   4.76642100
_cell_length_c   14.62690200
_cell_angle_alpha   90.00000000
_cell_angle_beta   90.00000000
_cell_angle_gamma   90.00000000
_symmetry_Int_Tables_number   1
_chemical_formula_structural   LiCoPO4
_chemical_formula_sum   'Li4 Co4 P4 O16'
_cell_volume   299.28329207
_cell_formula_units_Z   4
loop_
 _symmetry_equiv_pos_site_id
 _symmetry_equiv_pos_as_xyz
  1  'x, y, z'
loop_
 _atom_site_type_symbol
 _atom_site_label
 _atom_site_symmetry_multiplicity
 _atom_site_fract_x
 _atom_site_fract_y
 _atom_site_fract_z
 _atom_site_occupancy
  Li  Li0  1  0.50000000  0.75000000  0.24883200  1
  Li  Li1  1  0.50000000  0.25000000  0.75116800  1
  Li  Li2  1  0.00000000  0.25000000  0.25116800  1
  Li  Li3  1  0.00000000  0.75000000  0.74883200  1
  Co  Co4  1  0.50000000  0.25000000  0.06281400  1
  Co  Co5  1  0.50000000  0.75000000  0.93718600  1
  Co  Co6  1  0.00000000  0.25000000  0.56281400  1
  Co  Co7  1  0.00000000  0.75000000  0.43718600  1
  P  P8  1  0.50000000  0.25000000  0.38713700  1
  P  P9  1  0.50000000  0.75000000  0.61286300  1
  P  P10  1  0.00000000  0.75000000  0.11286300  1
  P  P11  1  0.00000000  0.25000000  0.88713700  1
  O  O12  1  0.68729950  0.46430800  0.32840100  1
  O  O13  1  0.68729950  0.96430800  0.67159900  1
  O  O14  1  0.76360750  0.58642300  0.05211300  1
  O  O15  1  0.76360750  0.08642300  0.94788700  1
  O  O16  1  0.73639250  0.08642300  0.44788700  1
  O  O17  1  0.73639250  0.58642300  0.55211300  1
  O  O18  1  0.81270050  0.96430800  0.17159900  1
  O  O19  1  0.81270050  0.46430800  0.82840100  1
  O  O20  1  0.18729950  0.53569200  0.17159900  1
  O  O21  1  0.18729950  0.03569200  0.82840100  1
  O  O22  1  0.26360750  0.91357700  0.55211300  1
  O  O23  1  0.26360750  0.41357700  0.44788700  1
  O  O24  1  0.23639250  0.91357700  0.05211300  1
  O  O25  1  0.23639250  0.41357700  0.94788700  1
  O  O26  1  0.31270050  0.03569200  0.32840100  1
  O  O27  1  0.31270050  0.53569200  0.67159900  1
