# generated using pymatgen
data_V(PO3)4
_symmetry_space_group_name_H-M   'P 1'
_cell_length_a   11.69576600
_cell_length_b   8.32159600
_cell_length_c   10.18872170
_cell_angle_alpha   90.00000000
_cell_angle_beta   119.13987873
_cell_angle_gamma   90.00000000
_symmetry_Int_Tables_number   1
_chemical_formula_structural   V(PO3)4
_chemical_formula_sum   'V4 P16 O48'
_cell_volume   866.13352766
_cell_formula_units_Z   4
loop_
 _symmetry_equiv_pos_site_id
 _symmetry_equiv_pos_as_xyz
  1  'x, y, z'
loop_
 _atom_site_type_symbol
 _atom_site_label
 _atom_site_symmetry_multiplicity
 _atom_site_fract_x
 _atom_site_fract_y
 _atom_site_fract_z
 _atom_site_occupancy
  V  V0  1  0.00000000  0.94718500  0.75000000  1
  V  V1  1  0.50000000  0.55281500  0.25000000  1
  V  V2  1  0.50000000  0.44718500  0.75000000  1
  V  V3  1  0.00000000  0.05281500  0.25000000  1
  P  P4  1  0.00910600  0.74472600  0.48151900  1
  P  P5  1  0.99089400  0.74472600  0.01848100  1
  P  P6  1  0.29828700  0.01673800  0.80440100  1
  P  P7  1  0.29828700  0.98326200  0.30440100  1
  P  P8  1  0.20171300  0.51673800  0.69559900  1
  P  P9  1  0.20171300  0.48326200  0.19559900  1
  P  P10  1  0.50910600  0.75527400  0.98151900  1
  P  P11  1  0.49089400  0.75527400  0.51848100  1
  P  P12  1  0.50910600  0.24472600  0.48151900  1
  P  P13  1  0.49089400  0.24472600  0.01848100  1
  P  P14  1  0.79828700  0.51673800  0.80440100  1
  P  P15  1  0.79828700  0.48326200  0.30440100  1
  P  P16  1  0.70171300  0.01673800  0.69559900  1
  P  P17  1  0.70171300  0.98326200  0.19559900  1
  P  P18  1  0.00910600  0.25527400  0.98151900  1
  P  P19  1  0.99089400  0.25527400  0.51848100  1
  O  O20  1  0.02895650  0.88168750  0.40009200  1
  O  O21  1  0.90673850  0.62487250  0.36019900  1
  O  O22  1  0.97104350  0.88168750  0.09990800  1
  O  O23  1  0.97290650  0.77729350  0.60192700  1
  O  O24  1  0.77438050  0.41849450  0.16093700  1
  O  O25  1  0.18057850  0.05343450  0.31475100  1
  O  O26  1  0.18057850  0.94656550  0.81475100  1
  O  O27  1  0.35910350  0.14123250  0.94475800  1
  O  O28  1  0.27438050  0.08150550  0.66093700  1
  O  O29  1  0.52709350  0.27729350  0.89807300  1
  O  O30  1  0.09326150  0.62487250  0.13980100  1
  O  O31  1  0.14089650  0.64123250  0.55524200  1
  O  O32  1  0.35910350  0.85876750  0.44475800  1
  O  O33  1  0.40673850  0.87512750  0.86019900  1
  O  O34  1  0.97290650  0.22270650  0.10192700  1
  O  O35  1  0.22561950  0.41849450  0.33906300  1
  O  O36  1  0.14089650  0.35876750  0.05524200  1
  O  O37  1  0.31942150  0.55343450  0.18524900  1
  O  O38  1  0.31942150  0.44656550  0.68524900  1
  O  O39  1  0.72561950  0.08150550  0.83906300  1
  O  O40  1  0.52709350  0.72270650  0.39807300  1
  O  O41  1  0.52895650  0.61831250  0.90009200  1
  O  O42  1  0.59326150  0.87512750  0.63980100  1
  O  O43  1  0.47104350  0.61831250  0.59990800  1
  O  O44  1  0.52895650  0.38168750  0.40009200  1
  O  O45  1  0.40673850  0.12487250  0.36019900  1
  O  O46  1  0.47104350  0.38168750  0.09990800  1
  O  O47  1  0.47290650  0.27729350  0.60192700  1
  O  O48  1  0.27438050  0.91849450  0.16093700  1
  O  O49  1  0.68057850  0.55343450  0.31475100  1
  O  O50  1  0.68057850  0.44656550  0.81475100  1
  O  O51  1  0.85910350  0.64123250  0.94475800  1
  O  O52  1  0.77438050  0.58150550  0.66093700  1
  O  O53  1  0.02709350  0.77729350  0.89807300  1
  O  O54  1  0.59326150  0.12487250  0.13980100  1
  O  O55  1  0.64089650  0.14123250  0.55524200  1
  O  O56  1  0.85910350  0.35876750  0.44475800  1
  O  O57  1  0.90673850  0.37512750  0.86019900  1
  O  O58  1  0.47290650  0.72270650  0.10192700  1
  O  O59  1  0.72561950  0.91849450  0.33906300  1
  O  O60  1  0.64089650  0.85876750  0.05524200  1
  O  O61  1  0.81942150  0.05343450  0.18524900  1
  O  O62  1  0.81942150  0.94656550  0.68524900  1
  O  O63  1  0.22561950  0.58150550  0.83906300  1
  O  O64  1  0.02709350  0.22270650  0.39807300  1
  O  O65  1  0.02895650  0.11831250  0.90009200  1
  O  O66  1  0.09326150  0.37512750  0.63980100  1
  O  O67  1  0.97104350  0.11831250  0.59990800  1
