# generated using pymatgen
data_FeH4S2NO8
_symmetry_space_group_name_H-M   'P 1'
_cell_length_a   4.90955557
_cell_length_b   4.90955557
_cell_length_c   25.08204446
_cell_angle_alpha   90.00000000
_cell_angle_beta   90.00000000
_cell_angle_gamma   120.00000000
_symmetry_Int_Tables_number   1
_chemical_formula_structural   FeH4S2NO8
_chemical_formula_sum   'Fe3 H12 S6 N3 O24'
_cell_volume   523.57382204
_cell_formula_units_Z   3
loop_
 _symmetry_equiv_pos_site_id
 _symmetry_equiv_pos_as_xyz
  1  'x, y, z'
loop_
 _atom_site_type_symbol
 _atom_site_label
 _atom_site_symmetry_multiplicity
 _atom_site_fract_x
 _atom_site_fract_y
 _atom_site_fract_z
 _atom_site_occupancy
  Fe  Fe0  1  0.66666667  0.33333333  0.33224558  1
  Fe  Fe1  1  0.33333333  0.66666667  0.66557892  1
  Fe  Fe2  1  0.00000000  0.00000000  0.99891225  1
  H  H3  1  0.33333333  0.66666667  0.20837750  1
  H  H4  1  0.10273217  0.55190283  0.15423008  1
  H  H5  1  0.44809717  0.55082933  0.15423008  1
  H  H6  1  0.44917067  0.89726783  0.15423008  1
  H  H7  1  0.00000000  0.00000000  0.54171083  1
  H  H8  1  0.76939883  0.88523617  0.48756342  1
  H  H9  1  0.11476383  0.88416267  0.48756342  1
  H  H10  1  0.11583733  0.23060117  0.48756342  1
  H  H11  1  0.66666667  0.33333333  0.87504417  1
  H  H12  1  0.43606550  0.21856950  0.82089675  1
  H  H13  1  0.78143050  0.21749600  0.82089675  1
  H  H14  1  0.78250400  0.56393450  0.82089675  1
  S  S15  1  0.00000000  0.00000000  0.26461267  1
  S  S16  1  0.66666667  0.33333333  0.06691242  1
  S  S17  1  0.66666667  0.33333333  0.59794600  1
  S  S18  1  0.33333333  0.66666667  0.40024575  1
  S  S19  1  0.33333333  0.66666667  0.93127933  1
  S  S20  1  0.00000000  0.00000000  0.73357908  1
  N  N21  1  0.33333333  0.66666667  0.16746158  1
  N  N22  1  0.00000000  0.00000000  0.50079492  1
  N  N23  1  0.66666667  0.33333333  0.83412825  1
  O  O24  1  0.00000000  0.00000000  0.20666650  1
  O  O25  1  0.66666667  0.33333333  0.12593142  1
  O  O26  1  0.73527367  0.69525508  0.28523283  1
  O  O27  1  0.95998142  0.26472633  0.28523283  1
  O  O28  1  0.30474492  0.04001858  0.28523283  1
  O  O29  1  0.35969192  0.29090658  0.04760333  1
  O  O30  1  0.70909342  0.06878533  0.04760333  1
  O  O31  1  0.93121467  0.64030808  0.04760333  1
  O  O32  1  0.66666667  0.33333333  0.53999983  1
  O  O33  1  0.33333333  0.66666667  0.45926475  1
  O  O34  1  0.40194033  0.02858842  0.61856617  1
  O  O35  1  0.62664808  0.59805967  0.61856617  1
  O  O36  1  0.97141158  0.37335192  0.61856617  1
  O  O37  1  0.02635858  0.62423992  0.38093667  1
  O  O38  1  0.37576008  0.40211867  0.38093667  1
  O  O39  1  0.59788133  0.97364142  0.38093667  1
  O  O40  1  0.33333333  0.66666667  0.87333317  1
  O  O41  1  0.00000000  0.00000000  0.79259808  1
  O  O42  1  0.06860700  0.36192175  0.95189950  1
  O  O43  1  0.29331475  0.93139300  0.95189950  1
  O  O44  1  0.63807825  0.70668525  0.95189950  1
  O  O45  1  0.69302525  0.95757325  0.71427000  1
  O  O46  1  0.04242675  0.73545200  0.71427000  1
  O  O47  1  0.26454800  0.30697475  0.71427000  1
