# generated using pymatgen
data_LiFe5(OF2)4
_symmetry_space_group_name_H-M   'P 1'
_cell_length_a   5.51821000
_cell_length_b   9.88021600
_cell_length_c   16.57667600
_cell_angle_alpha   90.00000000
_cell_angle_beta   90.00000000
_cell_angle_gamma   90.00000000
_symmetry_Int_Tables_number   1
_chemical_formula_structural   LiFe5(OF2)4
_chemical_formula_sum   'Li4 Fe20 O16 F32'
_cell_volume   903.77872148
_cell_formula_units_Z   4
loop_
 _symmetry_equiv_pos_site_id
 _symmetry_equiv_pos_as_xyz
  1  'x, y, z'
loop_
 _atom_site_type_symbol
 _atom_site_label
 _atom_site_symmetry_multiplicity
 _atom_site_fract_x
 _atom_site_fract_y
 _atom_site_fract_z
 _atom_site_occupancy
  Li  Li0  1  0.50000000  0.00000000  0.00000000  1
  Li  Li1  1  0.50000000  0.50000000  0.50000000  1
  Li  Li2  1  0.00000000  0.00000000  0.50000000  1
  Li  Li3  1  0.00000000  0.50000000  0.00000000  1
  Fe  Fe4  1  0.50000000  0.00000000  0.66136900  1
  Fe  Fe5  1  0.00000000  0.00000000  0.83863100  1
  Fe  Fe6  1  0.25000000  0.75000000  0.75000000  1
  Fe  Fe7  1  0.75000000  0.75000000  0.90903900  1
  Fe  Fe8  1  0.75000000  0.75000000  0.59096100  1
  Fe  Fe9  1  0.50000000  0.50000000  0.16136900  1
  Fe  Fe10  1  0.00000000  0.50000000  0.33863100  1
  Fe  Fe11  1  0.25000000  0.25000000  0.25000000  1
  Fe  Fe12  1  0.75000000  0.25000000  0.40903900  1
  Fe  Fe13  1  0.75000000  0.25000000  0.09096100  1
  Fe  Fe14  1  0.00000000  0.00000000  0.16136900  1
  Fe  Fe15  1  0.50000000  0.00000000  0.33863100  1
  Fe  Fe16  1  0.75000000  0.75000000  0.25000000  1
  Fe  Fe17  1  0.25000000  0.75000000  0.40903900  1
  Fe  Fe18  1  0.25000000  0.75000000  0.09096100  1
  Fe  Fe19  1  0.00000000  0.50000000  0.66136900  1
  Fe  Fe20  1  0.50000000  0.50000000  0.83863100  1
  Fe  Fe21  1  0.75000000  0.25000000  0.75000000  1
  Fe  Fe22  1  0.25000000  0.25000000  0.90903900  1
  Fe  Fe23  1  0.25000000  0.25000000  0.59096100  1
  O  O24  1  0.49556050  0.80181250  0.66716700  1
  O  O25  1  0.00443950  0.69818750  0.66716700  1
  O  O26  1  0.49556050  0.69818750  0.83283300  1
  O  O27  1  0.00443950  0.80181250  0.83283300  1
  O  O28  1  0.49556050  0.30181250  0.16716700  1
  O  O29  1  0.00443950  0.19818750  0.16716700  1
  O  O30  1  0.49556050  0.19818750  0.33283300  1
  O  O31  1  0.00443950  0.30181250  0.33283300  1
  O  O32  1  0.99556050  0.80181250  0.16716700  1
  O  O33  1  0.50443950  0.69818750  0.16716700  1
  O  O34  1  0.99556050  0.69818750  0.33283300  1
  O  O35  1  0.50443950  0.80181250  0.33283300  1
  O  O36  1  0.99556050  0.30181250  0.66716700  1
  O  O37  1  0.50443950  0.19818750  0.66716700  1
  O  O38  1  0.99556050  0.19818750  0.83283300  1
  O  O39  1  0.50443950  0.30181250  0.83283300  1
  F  F40  1  0.25000000  0.97226500  0.75000000  1
  F  F41  1  0.25000000  0.52773500  0.75000000  1
  F  F42  1  0.73938050  0.95821700  0.91770250  1
  F  F43  1  0.76061950  0.54178300  0.91770250  1
  F  F44  1  0.00000000  0.72236800  0.00000000  1
  F  F45  1  0.73938050  0.54178300  0.58229750  1
  F  F46  1  0.50000000  0.77763200  0.00000000  1
  F  F47  1  0.76061950  0.95821700  0.58229750  1
  F  F48  1  0.25000000  0.47226500  0.25000000  1
  F  F49  1  0.25000000  0.02773500  0.25000000  1
  F  F50  1  0.73938050  0.45821700  0.41770250  1
  F  F51  1  0.76061950  0.04178300  0.41770250  1
  F  F52  1  0.00000000  0.22236800  0.50000000  1
  F  F53  1  0.73938050  0.04178300  0.08229750  1
  F  F54  1  0.50000000  0.27763200  0.50000000  1
  F  F55  1  0.76061950  0.45821700  0.08229750  1
  F  F56  1  0.75000000  0.97226500  0.25000000  1
  F  F57  1  0.75000000  0.52773500  0.25000000  1
  F  F58  1  0.23938050  0.95821700  0.41770250  1
  F  F59  1  0.26061950  0.54178300  0.41770250  1
  F  F60  1  0.50000000  0.72236800  0.50000000  1
  F  F61  1  0.23938050  0.54178300  0.08229750  1
  F  F62  1  0.00000000  0.77763200  0.50000000  1
  F  F63  1  0.26061950  0.95821700  0.08229750  1
  F  F64  1  0.75000000  0.47226500  0.75000000  1
  F  F65  1  0.75000000  0.02773500  0.75000000  1
  F  F66  1  0.23938050  0.45821700  0.91770250  1
  F  F67  1  0.26061950  0.04178300  0.91770250  1
  F  F68  1  0.50000000  0.22236800  0.00000000  1
  F  F69  1  0.23938050  0.04178300  0.58229750  1
  F  F70  1  0.00000000  0.27763200  0.00000000  1
  F  F71  1  0.26061950  0.45821700  0.58229750  1
