# generated using pymatgen
data_Li2V3SbO8
_symmetry_space_group_name_H-M   'P 1'
_cell_length_a   6.00651579
_cell_length_b   6.00651579
_cell_length_c   9.77255661
_cell_angle_alpha   90.00000000
_cell_angle_beta   90.00000000
_cell_angle_gamma   120.00000000
_symmetry_Int_Tables_number   1
_chemical_formula_structural   Li2V3SbO8
_chemical_formula_sum   'Li4 V6 Sb2 O16'
_cell_volume   305.34026118
_cell_formula_units_Z   2
loop_
 _symmetry_equiv_pos_site_id
 _symmetry_equiv_pos_as_xyz
  1  'x, y, z'
loop_
 _atom_site_type_symbol
 _atom_site_label
 _atom_site_symmetry_multiplicity
 _atom_site_fract_x
 _atom_site_fract_y
 _atom_site_fract_z
 _atom_site_occupancy
  Li  Li0  1  0.33333333  0.66666667  0.09654000  1
  Li  Li1  1  0.66666667  0.33333333  0.59654000  1
  Li  Li2  1  0.00000000  0.00000000  0.00855600  1
  Li  Li3  1  0.00000000  0.00000000  0.50855600  1
  V  V4  1  0.65719000  0.82859500  0.78619600  1
  V  V5  1  0.82859500  0.17140500  0.28619600  1
  V  V6  1  0.82859500  0.65719000  0.28619600  1
  V  V7  1  0.17140500  0.34281000  0.78619600  1
  V  V8  1  0.17140500  0.82859500  0.78619600  1
  V  V9  1  0.34281000  0.17140500  0.28619600  1
  Sb  Sb10  1  0.33333333  0.66666667  0.51225600  1
  Sb  Sb11  1  0.66666667  0.33333333  0.01225600  1
  O  O12  1  0.33333333  0.66666667  0.89247800  1
  O  O13  1  0.66666667  0.33333333  0.39247800  1
  O  O14  1  0.00000000  0.00000000  0.69548000  1
  O  O15  1  0.00000000  0.00000000  0.19548000  1
  O  O16  1  0.16684050  0.33368100  0.40703500  1
  O  O17  1  0.16684050  0.83315950  0.40703500  1
  O  O18  1  0.33368100  0.16684050  0.90703500  1
  O  O19  1  0.66631900  0.83315950  0.40703500  1
  O  O20  1  0.83315950  0.16684050  0.90703500  1
  O  O21  1  0.83315950  0.66631900  0.90703500  1
  O  O22  1  0.03731000  0.51865500  0.65472500  1
  O  O23  1  0.48134500  0.51865500  0.65472500  1
  O  O24  1  0.48134500  0.96269000  0.65472500  1
  O  O25  1  0.51865500  0.03731000  0.15472500  1
  O  O26  1  0.51865500  0.48134500  0.15472500  1
  O  O27  1  0.96269000  0.48134500  0.15472500  1
