# generated using pymatgen
data_LiMnCo3O8
_symmetry_space_group_name_H-M   'P 1'
_cell_length_a   10.50979292
_cell_length_b   5.74428136
_cell_length_c   9.90158851
_cell_angle_alpha   90.00000000
_cell_angle_beta   106.94127444
_cell_angle_gamma   90.00000000
_symmetry_Int_Tables_number   1
_chemical_formula_structural   LiMnCo3O8
_chemical_formula_sum   'Li4 Mn4 Co12 O32'
_cell_volume   571.82994354
_cell_formula_units_Z   4
loop_
 _symmetry_equiv_pos_site_id
 _symmetry_equiv_pos_as_xyz
  1  'x, y, z'
loop_
 _atom_site_type_symbol
 _atom_site_label
 _atom_site_symmetry_multiplicity
 _atom_site_fract_x
 _atom_site_fract_y
 _atom_site_fract_z
 _atom_site_occupancy
  Li  Li0  1  0.75175600  0.50000000  0.25446800  1
  Li  Li1  1  0.74824400  0.00000000  0.74553200  1
  Li  Li2  1  0.25175600  0.00000000  0.25446800  1
  Li  Li3  1  0.24824400  0.50000000  0.74553200  1
  Mn  Mn4  1  0.00000000  0.50000000  0.50000000  1
  Mn  Mn5  1  0.50000000  0.50000000  0.00000000  1
  Mn  Mn6  1  0.50000000  0.00000000  0.50000000  1
  Mn  Mn7  1  0.00000000  0.00000000  0.00000000  1
  Co  Co8  1  0.00000000  0.00000000  0.50000000  1
  Co  Co9  1  0.50000000  0.00000000  0.00000000  1
  Co  Co10  1  0.99879350  0.25208650  0.24831300  1
  Co  Co11  1  0.50120650  0.24791350  0.75168700  1
  Co  Co12  1  0.99879350  0.74791350  0.24831300  1
  Co  Co13  1  0.50120650  0.75208650  0.75168700  1
  Co  Co14  1  0.50000000  0.50000000  0.50000000  1
  Co  Co15  1  0.00000000  0.50000000  0.00000000  1
  Co  Co16  1  0.49879350  0.75208650  0.24831300  1
  Co  Co17  1  0.00120650  0.74791350  0.75168700  1
  Co  Co18  1  0.49879350  0.24791350  0.24831300  1
  Co  Co19  1  0.00120650  0.25208650  0.75168700  1
  O  O20  1  0.90347100  0.00000000  0.13879400  1
  O  O21  1  0.90476000  0.50000000  0.64241400  1
  O  O22  1  0.59652900  0.50000000  0.86120600  1
  O  O23  1  0.59524000  0.00000000  0.35758600  1
  O  O24  1  0.90331800  0.00000000  0.64575300  1
  O  O25  1  0.90388450  0.50000000  0.13885800  1
  O  O26  1  0.59668200  0.50000000  0.35424700  1
  O  O27  1  0.59611550  0.00000000  0.86114200  1
  O  O28  1  0.89881550  0.26543050  0.37848400  1
  O  O29  1  0.90294650  0.75112050  0.88436000  1
  O  O30  1  0.89881550  0.73456950  0.37848400  1
  O  O31  1  0.90294650  0.24887950  0.88436000  1
  O  O32  1  0.60118450  0.76543050  0.62151600  1
  O  O33  1  0.59705350  0.25112050  0.11564000  1
  O  O34  1  0.60118450  0.23456950  0.62151600  1
  O  O35  1  0.59705350  0.74887950  0.11564000  1
  O  O36  1  0.40347100  0.50000000  0.13879400  1
  O  O37  1  0.40476000  0.00000000  0.64241400  1
  O  O38  1  0.09652900  0.00000000  0.86120600  1
  O  O39  1  0.09524000  0.50000000  0.35758600  1
  O  O40  1  0.40331800  0.50000000  0.64575300  1
  O  O41  1  0.40388450  0.00000000  0.13885800  1
  O  O42  1  0.09668200  0.00000000  0.35424700  1
  O  O43  1  0.09611550  0.50000000  0.86114200  1
  O  O44  1  0.39881550  0.76543050  0.37848400  1
  O  O45  1  0.40294650  0.25112050  0.88436000  1
  O  O46  1  0.39881550  0.23456950  0.37848400  1
  O  O47  1  0.40294650  0.74887950  0.88436000  1
  O  O48  1  0.10118450  0.26543050  0.62151600  1
  O  O49  1  0.09705350  0.75112050  0.11564000  1
  O  O50  1  0.10118450  0.73456950  0.62151600  1
  O  O51  1  0.09705350  0.24887950  0.11564000  1
