# generated using pymatgen
data_LiFeP2O7
_symmetry_space_group_name_H-M   'P 1'
_cell_length_a   8.14329500
_cell_length_b   5.16133200
_cell_length_c   13.66739286
_cell_angle_alpha   90.00000000
_cell_angle_beta   110.02156392
_cell_angle_gamma   90.00000000
_symmetry_Int_Tables_number   1
_chemical_formula_structural   LiFeP2O7
_chemical_formula_sum   'Li4 Fe4 P8 O28'
_cell_volume   539.72673603
_cell_formula_units_Z   4
loop_
 _symmetry_equiv_pos_site_id
 _symmetry_equiv_pos_as_xyz
  1  'x, y, z'
loop_
 _atom_site_type_symbol
 _atom_site_label
 _atom_site_symmetry_multiplicity
 _atom_site_fract_x
 _atom_site_fract_y
 _atom_site_fract_z
 _atom_site_occupancy
  Li  Li0  1  0.42880900  0.49280600  0.17459000  1
  Li  Li1  1  0.97520000  0.07702900  0.83595900  1
  Li  Li2  1  0.97520000  0.92297100  0.33595900  1
  Li  Li3  1  0.42880900  0.50719400  0.67459000  1
  Fe  Fe4  1  0.72876600  0.98519500  0.63339000  1
  Fe  Fe5  1  0.72876600  0.01480500  0.13339000  1
  Fe  Fe6  1  0.26916300  0.49343800  0.85545300  1
  Fe  Fe7  1  0.26916300  0.50656200  0.35545300  1
  P  P8  1  0.82087600  0.54261900  0.79974200  1
  P  P9  1  0.30063500  0.98561400  0.01895800  1
  P  P10  1  0.69645200  0.47911000  0.48001000  1
  P  P11  1  0.82087600  0.45738100  0.29974200  1
  P  P12  1  0.17779700  0.01515400  0.69624400  1
  P  P13  1  0.30063500  0.01438600  0.51895800  1
  P  P14  1  0.69645200  0.52089000  0.98001000  1
  P  P15  1  0.17779700  0.98484600  0.19624400  1
  O  O16  1  0.15565500  0.02691000  0.07507300  1
  O  O17  1  0.27570700  0.72746100  0.22861500  1
  O  O18  1  0.28053100  0.21876500  0.25644000  1
  O  O19  1  0.51973600  0.55697500  0.40305100  1
  O  O20  1  0.30694400  0.69510900  0.99647600  1
  O  O21  1  0.70221600  0.19484900  0.51300200  1
  O  O22  1  0.47070000  0.09870300  0.09535400  1
  O  O23  1  0.76878400  0.65997100  0.57287000  1
  O  O24  1  0.01058000  0.50005400  0.80818700  1
  O  O25  1  0.69455100  0.65350600  0.22869900  1
  O  O26  1  0.99201700  0.03235000  0.69824800  1
  O  O27  1  0.76360000  0.17306900  0.27635800  1
  O  O28  1  0.83418000  0.50898100  0.41925100  1
  O  O29  1  0.22244400  0.14383400  0.91900300  1
  O  O30  1  0.76878400  0.34002900  0.07287000  1
  O  O31  1  0.15565500  0.97309000  0.57507300  1
  O  O32  1  0.27570700  0.27253900  0.72861500  1
  O  O33  1  0.01058000  0.49994600  0.30818700  1
  O  O34  1  0.28053100  0.78123500  0.75644000  1
  O  O35  1  0.99201700  0.96765000  0.19824800  1
  O  O36  1  0.22244400  0.85616600  0.41900300  1
  O  O37  1  0.51973600  0.44302500  0.90305100  1
  O  O38  1  0.30694400  0.30489100  0.49647600  1
  O  O39  1  0.70221600  0.80515100  0.01300200  1
  O  O40  1  0.47070000  0.90129700  0.59535400  1
  O  O41  1  0.69455100  0.34649400  0.72869900  1
  O  O42  1  0.76360000  0.82693100  0.77635800  1
  O  O43  1  0.83418000  0.49101900  0.91925100  1
