# generated using pymatgen
data_Na3Mn8O16
_symmetry_space_group_name_H-M   'P 1'
_cell_length_a   6.16774207
_cell_length_b   8.43208646
_cell_length_c   12.37360853
_cell_angle_alpha   90.00000000
_cell_angle_beta   90.00000000
_cell_angle_gamma   90.00000000
_symmetry_Int_Tables_number   1
_chemical_formula_structural   Na3Mn8O16
_chemical_formula_sum   'Na6 Mn16 O32'
_cell_volume   643.51344713
_cell_formula_units_Z   2
loop_
 _symmetry_equiv_pos_site_id
 _symmetry_equiv_pos_as_xyz
  1  'x, y, z'
loop_
 _atom_site_type_symbol
 _atom_site_label
 _atom_site_symmetry_multiplicity
 _atom_site_fract_x
 _atom_site_fract_y
 _atom_site_fract_z
 _atom_site_occupancy
  Na  Na0  1  0.50000000  0.12148400  0.00000000  1
  Na  Na1  1  0.50000000  0.37320100  0.74914500  1
  Na  Na2  1  0.50000000  0.37320100  0.25085500  1
  Na  Na3  1  0.00000000  0.62679900  0.75085500  1
  Na  Na4  1  0.00000000  0.62679900  0.24914500  1
  Na  Na5  1  0.00000000  0.87851600  0.50000000  1
  Mn  Mn6  1  0.25000000  0.00000000  0.25000000  1
  Mn  Mn7  1  0.25000000  0.00000000  0.75000000  1
  Mn  Mn8  1  0.75000000  0.00000000  0.75000000  1
  Mn  Mn9  1  0.75000000  0.00000000  0.25000000  1
  Mn  Mn10  1  0.00000000  0.24792300  0.62316300  1
  Mn  Mn11  1  0.00000000  0.24792300  0.37683700  1
  Mn  Mn12  1  0.00000000  0.24771000  0.87554200  1
  Mn  Mn13  1  0.00000000  0.24771000  0.12445800  1
  Mn  Mn14  1  0.75149200  0.50253500  0.00000000  1
  Mn  Mn15  1  0.24850800  0.50253500  0.00000000  1
  Mn  Mn16  1  0.25149200  0.49746500  0.50000000  1
  Mn  Mn17  1  0.74850800  0.49746500  0.50000000  1
  Mn  Mn18  1  0.50000000  0.75229000  0.62445800  1
  Mn  Mn19  1  0.50000000  0.75207700  0.87683700  1
  Mn  Mn20  1  0.50000000  0.75229000  0.37554200  1
  Mn  Mn21  1  0.50000000  0.75207700  0.12316300  1
  O  O22  1  0.00000000  0.01679300  0.85584500  1
  O  O23  1  0.00000000  0.01410600  0.64739300  1
  O  O24  1  0.00000000  0.01679300  0.14415500  1
  O  O25  1  0.00000000  0.01410600  0.35260700  1
  O  O26  1  0.20955600  0.22893400  0.74709300  1
  O  O27  1  0.79044400  0.22893400  0.74709300  1
  O  O28  1  0.20955600  0.22893400  0.25290700  1
  O  O29  1  0.79044400  0.22893400  0.25290700  1
  O  O30  1  0.78858000  0.26325300  0.50000000  1
  O  O31  1  0.21142000  0.26325300  0.50000000  1
  O  O32  1  0.78356800  0.27277500  0.00000000  1
  O  O33  1  0.21643200  0.27277500  0.00000000  1
  O  O34  1  0.00000000  0.47600400  0.39367700  1
  O  O35  1  0.00000000  0.47865900  0.89314300  1
  O  O36  1  0.00000000  0.47600400  0.60632300  1
  O  O37  1  0.00000000  0.47865900  0.10685700  1
  O  O38  1  0.50000000  0.52134100  0.60685700  1
  O  O39  1  0.50000000  0.52399600  0.89367700  1
  O  O40  1  0.50000000  0.52134100  0.39314300  1
  O  O41  1  0.50000000  0.52399600  0.10632300  1
  O  O42  1  0.28858000  0.73674700  0.00000000  1
  O  O43  1  0.71142000  0.73674700  0.00000000  1
  O  O44  1  0.28356800  0.72722500  0.50000000  1
  O  O45  1  0.71643200  0.72722500  0.50000000  1
  O  O46  1  0.29044400  0.77106600  0.75290700  1
  O  O47  1  0.70955600  0.77106600  0.75290700  1
  O  O48  1  0.29044400  0.77106600  0.24709300  1
  O  O49  1  0.70955600  0.77106600  0.24709300  1
  O  O50  1  0.50000000  0.98320700  0.35584500  1
  O  O51  1  0.50000000  0.98320700  0.64415500  1
  O  O52  1  0.50000000  0.98589400  0.85260700  1
  O  O53  1  0.50000000  0.98589400  0.14739300  1
