# generated using pymatgen
data_Li4Ti3Cu3(WO8)2
_symmetry_space_group_name_H-M   'P 1'
_cell_length_a   10.44266000
_cell_length_b   5.96669800
_cell_length_c   10.03712586
_cell_angle_alpha   90.00000000
_cell_angle_beta   92.51354023
_cell_angle_gamma   90.00000000
_symmetry_Int_Tables_number   1
_chemical_formula_structural   Li4Ti3Cu3(WO8)2
_chemical_formula_sum   'Li8 Ti6 Cu6 W4 O32'
_cell_volume   624.79352927
_cell_formula_units_Z   2
loop_
 _symmetry_equiv_pos_site_id
 _symmetry_equiv_pos_as_xyz
  1  'x, y, z'
loop_
 _atom_site_type_symbol
 _atom_site_label
 _atom_site_symmetry_multiplicity
 _atom_site_fract_x
 _atom_site_fract_y
 _atom_site_fract_z
 _atom_site_occupancy
  Li  Li0  1  0.66492400  0.00000000  0.91062000  1
  Li  Li1  1  0.99246500  0.00000000  0.97553800  1
  Li  Li2  1  0.50059300  0.50000000  0.49014300  1
  Li  Li3  1  0.83194400  0.50000000  0.41493800  1
  Li  Li4  1  0.16492400  0.50000000  0.91062000  1
  Li  Li5  1  0.49246500  0.50000000  0.97553800  1
  Li  Li6  1  0.00059300  0.00000000  0.49014300  1
  Li  Li7  1  0.33194400  0.00000000  0.41493800  1
  Ti  Ti8  1  0.59621050  0.25272550  0.21899200  1
  Ti  Ti9  1  0.59621050  0.74727450  0.21899200  1
  Ti  Ti10  1  0.67808200  0.50000000  0.73440400  1
  Ti  Ti11  1  0.09621050  0.75272550  0.21899200  1
  Ti  Ti12  1  0.09621050  0.24727450  0.21899200  1
  Ti  Ti13  1  0.17808200  0.00000000  0.73440400  1
  Cu  Cu14  1  0.82925500  0.00000000  0.20470800  1
  Cu  Cu15  1  0.91761700  0.74388000  0.69989600  1
  Cu  Cu16  1  0.91761700  0.25612000  0.69989600  1
  Cu  Cu17  1  0.32925500  0.50000000  0.20470800  1
  Cu  Cu18  1  0.41761700  0.24388000  0.69989600  1
  Cu  Cu19  1  0.41761700  0.75612000  0.69989600  1
  W  W20  1  0.66550300  0.00000000  0.49014300  1
  W  W21  1  0.84903700  0.50000000  0.98438700  1
  W  W22  1  0.16550300  0.50000000  0.49014300  1
  W  W23  1  0.34903700  0.00000000  0.98438700  1
  O  O24  1  0.59812450  0.24214650  0.58502200  1
  O  O25  1  0.52017200  0.00000000  0.33754500  1
  O  O26  1  0.65256900  0.00000000  0.11148300  1
  O  O27  1  0.50365300  0.50000000  0.29909700  1
  O  O28  1  0.50403900  0.50000000  0.78450300  1
  O  O29  1  0.59812450  0.75785350  0.58502200  1
  O  O30  1  0.72865700  0.23373200  0.34865700  1
  O  O31  1  0.72865700  0.76626800  0.34865700  1
  O  O32  1  0.66845900  0.50000000  0.10985600  1
  O  O33  1  0.83001300  0.00000000  0.56378600  1
  O  O34  1  0.74362850  0.71206850  0.86554000  1
  O  O35  1  0.74362850  0.28793150  0.86554000  1
  O  O36  1  0.82062000  0.50000000  0.61743600  1
  O  O37  1  0.92021250  0.73996250  0.08857700  1
  O  O38  1  0.97913800  0.50000000  0.86602300  1
  O  O39  1  0.92021250  0.26003750  0.08857700  1
  O  O40  1  0.09812450  0.74214650  0.58502200  1
  O  O41  1  0.02017200  0.50000000  0.33754500  1
  O  O42  1  0.15256900  0.50000000  0.11148300  1
  O  O43  1  0.00365300  0.00000000  0.29909700  1
  O  O44  1  0.00403900  0.00000000  0.78450300  1
  O  O45  1  0.09812450  0.25785350  0.58502200  1
  O  O46  1  0.22865700  0.73373200  0.34865700  1
  O  O47  1  0.22865700  0.26626800  0.34865700  1
  O  O48  1  0.16845900  0.00000000  0.10985600  1
  O  O49  1  0.33001300  0.50000000  0.56378600  1
  O  O50  1  0.24362850  0.21206850  0.86554000  1
  O  O51  1  0.24362850  0.78793150  0.86554000  1
  O  O52  1  0.32062000  0.00000000  0.61743600  1
  O  O53  1  0.42021250  0.23996250  0.08857700  1
  O  O54  1  0.47913800  0.00000000  0.86602300  1
  O  O55  1  0.42021250  0.76003750  0.08857700  1
