# generated using pymatgen
data_FeOF
_symmetry_space_group_name_H-M   'P 1'
_cell_length_a   9.48813800
_cell_length_b   3.09241000
_cell_length_c   9.52111433
_cell_angle_alpha   90.00000000
_cell_angle_beta   90.54790131
_cell_angle_gamma   90.00000000
_symmetry_Int_Tables_number   1
_chemical_formula_structural   FeOF
_chemical_formula_sum   'Fe8 O8 F8'
_cell_volume   279.34826885
_cell_formula_units_Z   8
loop_
 _symmetry_equiv_pos_site_id
 _symmetry_equiv_pos_as_xyz
  1  'x, y, z'
loop_
 _atom_site_type_symbol
 _atom_site_label
 _atom_site_symmetry_multiplicity
 _atom_site_fract_x
 _atom_site_fract_y
 _atom_site_fract_z
 _atom_site_occupancy
  Fe  Fe0  1  0.01955700  0.00000000  0.99734900  1
  Fe  Fe1  1  0.00033300  0.00000000  0.49980000  1
  Fe  Fe2  1  0.25615600  0.50000000  0.22296800  1
  Fe  Fe3  1  0.22451000  0.50000000  0.74054500  1
  Fe  Fe4  1  0.52064300  0.00000000  0.49575300  1
  Fe  Fe5  1  0.50049200  0.00000000  0.00196600  1
  Fe  Fe6  1  0.75913500  0.50000000  0.27406700  1
  Fe  Fe7  1  0.71983800  0.50000000  0.75743000  1
  O  O8  1  0.09462000  0.50000000  0.89985700  1
  O  O9  1  0.14986300  0.00000000  0.15625000  1
  O  O10  1  0.14503900  0.00000000  0.64242300  1
  O  O11  1  0.40785800  0.50000000  0.09696200  1
  O  O12  1  0.59843100  0.50000000  0.39936800  1
  O  O13  1  0.59544000  0.50000000  0.91064400  1
  O  O14  1  0.65061700  0.00000000  0.65497900  1
  O  O15  1  0.85646500  0.00000000  0.35554700  1
  F  F16  1  0.10015100  0.50000000  0.40294300  1
  F  F17  1  0.34680500  0.00000000  0.35161700  1
  F  F18  1  0.34264500  0.00000000  0.83522800  1
  F  F19  1  0.39937100  0.50000000  0.59310100  1
  F  F20  1  0.66431400  0.00000000  0.15949200  1
  F  F21  1  0.84606900  0.00000000  0.85188500  1
  F  F22  1  0.89948800  0.50000000  0.09880100  1
  F  F23  1  0.90216000  0.50000000  0.60102300  1
