# generated using pymatgen
data_CrNi(PO4)2
_symmetry_space_group_name_H-M   'P 1'
_cell_length_a   8.63881045
_cell_length_b   8.63881045
_cell_length_c   20.22931085
_cell_angle_alpha   90.00000000
_cell_angle_beta   90.00000000
_cell_angle_gamma   120.00000000
_symmetry_Int_Tables_number   1
_chemical_formula_structural   CrNi(PO4)2
_chemical_formula_sum   'Cr9 Ni9 P18 O72'
_cell_volume   1307.43350215
_cell_formula_units_Z   9
loop_
 _symmetry_equiv_pos_site_id
 _symmetry_equiv_pos_as_xyz
  1  'x, y, z'
loop_
 _atom_site_type_symbol
 _atom_site_label
 _atom_site_symmetry_multiplicity
 _atom_site_fract_x
 _atom_site_fract_y
 _atom_site_fract_z
 _atom_site_occupancy
  Cr  Cr0  1  0.33333333  0.66666667  0.66514667  1
  Cr  Cr1  1  0.33333333  0.66666667  0.80896767  1
  Cr  Cr2  1  0.33333333  0.66666667  0.16588267  1
  Cr  Cr3  1  0.00000000  0.00000000  0.99848000  1
  Cr  Cr4  1  0.00000000  0.00000000  0.14230100  1
  Cr  Cr5  1  0.00000000  0.00000000  0.49921600  1
  Cr  Cr6  1  0.66666667  0.33333333  0.33181333  1
  Cr  Cr7  1  0.66666667  0.33333333  0.47563433  1
  Cr  Cr8  1  0.66666667  0.33333333  0.83254933  1
  Ni  Ni9  1  0.33333333  0.66666667  0.30838767  1
  Ni  Ni10  1  0.33333333  0.66666667  0.52352467  1
  Ni  Ni11  1  0.33333333  0.66666667  0.02456467  1
  Ni  Ni12  1  0.00000000  0.00000000  0.64172100  1
  Ni  Ni13  1  0.00000000  0.00000000  0.85685800  1
  Ni  Ni14  1  0.00000000  0.00000000  0.35789800  1
  Ni  Ni15  1  0.66666667  0.33333333  0.97505433  1
  Ni  Ni16  1  0.66666667  0.33333333  0.19019133  1
  Ni  Ni17  1  0.66666667  0.33333333  0.69123133  1
  P  P18  1  0.29625733  0.99924467  0.25045867  1
  P  P19  1  0.00075533  0.29701267  0.25045867  1
  P  P20  1  0.70298733  0.70374267  0.25045867  1
  P  P21  1  0.96451233  0.63135967  0.08346067  1
  P  P22  1  0.66684733  0.03548767  0.08346067  1
  P  P23  1  0.36864033  0.33315267  0.08346067  1
  P  P24  1  0.96292400  0.33257800  0.58379200  1
  P  P25  1  0.66742200  0.63034600  0.58379200  1
  P  P26  1  0.36965400  0.03707600  0.58379200  1
  P  P27  1  0.63117900  0.96469300  0.41679400  1
  P  P28  1  0.33351400  0.36882100  0.41679400  1
  P  P29  1  0.03530700  0.66648600  0.41679400  1
  P  P30  1  0.62959067  0.66591133  0.91712533  1
  P  P31  1  0.33408867  0.96367933  0.91712533  1
  P  P32  1  0.03632067  0.37040933  0.91712533  1
  P  P33  1  0.29784567  0.29802633  0.75012733  1
  P  P34  1  0.00018067  0.70215433  0.75012733  1
  P  P35  1  0.70197367  0.99981933  0.75012733  1
  O  O36  1  0.34900433  0.87675167  0.98002167  1
  O  O37  1  0.12324833  0.47225267  0.98002167  1
  O  O38  1  0.52774733  0.65099567  0.98002167  1
  O  O39  1  0.48773167  0.16419233  0.26180533  1
  O  O40  1  0.53316833  0.68143867  0.85513167  1
  O  O41  1  0.31858367  0.83409933  0.23493733  1
  O  O42  1  0.83580767  0.32353933  0.26180533  1
  O  O43  1  0.16590067  0.48448433  0.23493733  1
  O  O44  1  0.86098900  0.54451700  0.14617900  1
  O  O45  1  0.51551567  0.68141633  0.23493733  1
  O  O46  1  0.99402467  0.82848333  0.07306633  1
  O  O47  1  0.68352800  0.13901100  0.14617900  1
  O  O48  1  0.31856133  0.85172967  0.85513167  1
  O  O49  1  0.67646067  0.51226833  0.26180533  1
  O  O50  1  0.15623433  0.66007267  0.09614967  1
  O  O51  1  0.14827033  0.46683167  0.85513167  1
  O  O52  1  0.50383833  0.84376567  0.09614967  1
  O  O53  1  0.83445867  0.00597533  0.07306633  1
  O  O54  1  0.33992733  0.49616167  0.09614967  1
  O  O55  1  0.45548300  0.31647200  0.14617900  1
  O  O56  1  0.17151667  0.16554133  0.07306633  1
  O  O57  1  0.13106633  0.67285467  0.35329467  1
  O  O58  1  0.54178833  0.86893367  0.35329467  1
  O  O59  1  0.32714533  0.45821167  0.35329467  1
  O  O60  1  0.01567100  0.21008500  0.31335500  1
  O  O61  1  0.78991500  0.80558600  0.31335500  1
  O  O62  1  0.19441400  0.98432900  0.31335500  1
  O  O63  1  0.15439833  0.49752567  0.59513867  1
  O  O64  1  0.19983500  0.01477200  0.18846500  1
  O  O65  1  0.98525033  0.16743267  0.56827067  1
  O  O66  1  0.50247433  0.65687267  0.59513867  1
  O  O67  1  0.83256733  0.81781767  0.56827067  1
  O  O68  1  0.52765567  0.87785033  0.47951233  1
  O  O69  1  0.18218233  0.01474967  0.56827067  1
  O  O70  1  0.66069133  0.16181667  0.40639967  1
  O  O71  1  0.35019467  0.47234433  0.47951233  1
  O  O72  1  0.98522800  0.18506300  0.18846500  1
  O  O73  1  0.34312733  0.84560167  0.59513867  1
  O  O74  1  0.82290100  0.99340600  0.42948300  1
  O  O75  1  0.81493700  0.80016500  0.18846500  1
  O  O76  1  0.17050500  0.17709900  0.42948300  1
  O  O77  1  0.50112533  0.33930867  0.40639967  1
  O  O78  1  0.00659400  0.82949500  0.42948300  1
  O  O79  1  0.12214967  0.64980533  0.47951233  1
  O  O80  1  0.83818333  0.49887467  0.40639967  1
  O  O81  1  0.79773300  0.00618800  0.68662800  1
  O  O82  1  0.20845500  0.20226700  0.68662800  1
  O  O83  1  0.99381200  0.79154500  0.68662800  1
  O  O84  1  0.68233767  0.54341833  0.64668833  1
  O  O85  1  0.45658167  0.13891933  0.64668833  1
  O  O86  1  0.86108067  0.31766233  0.64668833  1
  O  O87  1  0.82106500  0.83085900  0.92847200  1
  O  O88  1  0.86650167  0.34810533  0.52179833  1
  O  O89  1  0.65191700  0.50076600  0.90160400  1
  O  O90  1  0.16914100  0.99020600  0.92847200  1
  O  O91  1  0.49923400  0.15115100  0.90160400  1
  O  O92  1  0.19432233  0.21118367  0.81284567  1
  O  O93  1  0.84884900  0.34808300  0.90160400  1
  O  O94  1  0.32735800  0.49515000  0.73973300  1
  O  O95  1  0.01686133  0.80567767  0.81284567  1
  O  O96  1  0.65189467  0.51839633  0.52179833  1
  O  O97  1  0.00979400  0.17893500  0.92847200  1
  O  O98  1  0.48956767  0.32673933  0.76281633  1
  O  O99  1  0.48160367  0.13349833  0.52179833  1
  O  O100  1  0.83717167  0.51043233  0.76281633  1
  O  O101  1  0.16779200  0.67264200  0.73973300  1
  O  O102  1  0.67326067  0.16282833  0.76281633  1
  O  O103  1  0.78881633  0.98313867  0.81284567  1
  O  O104  1  0.50485000  0.83220800  0.73973300  1
  O  O105  1  0.46439967  0.33952133  0.01996133  1
  O  O106  1  0.87512167  0.53560033  0.01996133  1
  O  O107  1  0.66047867  0.12487833  0.01996133  1
