# generated using pymatgen
data_Co2O3F
_symmetry_space_group_name_H-M   'P 1'
_cell_length_a   6.15893600
_cell_length_b   6.74055600
_cell_length_c   8.71603800
_cell_angle_alpha   90.00000000
_cell_angle_beta   90.00000000
_cell_angle_gamma   90.00000000
_symmetry_Int_Tables_number   1
_chemical_formula_structural   Co2O3F
_chemical_formula_sum   'Co12 O18 F6'
_cell_volume   361.84329318
_cell_formula_units_Z   6
loop_
 _symmetry_equiv_pos_site_id
 _symmetry_equiv_pos_as_xyz
  1  'x, y, z'
loop_
 _atom_site_type_symbol
 _atom_site_label
 _atom_site_symmetry_multiplicity
 _atom_site_fract_x
 _atom_site_fract_y
 _atom_site_fract_z
 _atom_site_occupancy
  Co  Co0  1  0.50000000  0.49707700  0.33456200  1
  Co  Co1  1  0.50000000  0.49707700  0.66543800  1
  Co  Co2  1  0.50000000  0.48754800  0.00000000  1
  Co  Co3  1  0.50000000  0.95997600  0.50000000  1
  Co  Co4  1  0.50000000  0.02977600  0.16935100  1
  Co  Co5  1  0.50000000  0.02977600  0.83064900  1
  Co  Co6  1  0.00000000  0.99707700  0.33456200  1
  Co  Co7  1  0.00000000  0.99707700  0.66543800  1
  Co  Co8  1  0.00000000  0.98754800  0.00000000  1
  Co  Co9  1  0.00000000  0.45997600  0.50000000  1
  Co  Co10  1  0.00000000  0.52977600  0.16935100  1
  Co  Co11  1  0.00000000  0.52977600  0.83064900  1
  O  O12  1  0.50000000  0.31565800  0.17138300  1
  O  O13  1  0.50000000  0.31565800  0.82861700  1
  O  O14  1  0.30849900  0.99432800  0.66608700  1
  O  O15  1  0.30849900  0.99432800  0.33391300  1
  O  O16  1  0.30928050  0.01137950  0.00000000  1
  O  O17  1  0.69071950  0.01137950  0.00000000  1
  O  O18  1  0.69150100  0.99432800  0.33391300  1
  O  O19  1  0.69150100  0.99432800  0.66608700  1
  O  O20  1  0.50000000  0.67450300  0.50000000  1
  O  O21  1  0.00000000  0.81565800  0.17138300  1
  O  O22  1  0.00000000  0.81565800  0.82861700  1
  O  O23  1  0.80849900  0.49432800  0.66608700  1
  O  O24  1  0.80849900  0.49432800  0.33391300  1
  O  O25  1  0.80928050  0.51137950  0.00000000  1
  O  O26  1  0.19071950  0.51137950  0.00000000  1
  O  O27  1  0.19150100  0.49432800  0.33391300  1
  O  O28  1  0.19150100  0.49432800  0.66608700  1
  O  O29  1  0.00000000  0.17450300  0.50000000  1
  F  F30  1  0.50000000  0.29271700  0.50000000  1
  F  F31  1  0.50000000  0.70008100  0.16739500  1
  F  F32  1  0.50000000  0.70008100  0.83260500  1
  F  F33  1  0.00000000  0.79271700  0.50000000  1
  F  F34  1  0.00000000  0.20008100  0.16739500  1
  F  F35  1  0.00000000  0.20008100  0.83260500  1
