# generated using pymatgen
data_ZnCoO3
_symmetry_space_group_name_H-M   'P 1'
_cell_length_a   9.55287200
_cell_length_b   8.58196400
_cell_length_c   5.09103003
_cell_angle_alpha   90.00000000
_cell_angle_beta   97.04081587
_cell_angle_gamma   90.00000000
_symmetry_Int_Tables_number   1
_chemical_formula_structural   ZnCoO3
_chemical_formula_sum   'Zn8 Co8 O24'
_cell_volume   414.22748975
_cell_formula_units_Z   8
loop_
 _symmetry_equiv_pos_site_id
 _symmetry_equiv_pos_as_xyz
  1  'x, y, z'
loop_
 _atom_site_type_symbol
 _atom_site_label
 _atom_site_symmetry_multiplicity
 _atom_site_fract_x
 _atom_site_fract_y
 _atom_site_fract_z
 _atom_site_occupancy
  Zn  Zn0  1  0.31530350  0.90368450  0.19880200  1
  Zn  Zn1  1  0.31530350  0.09631550  0.69880200  1
  Zn  Zn2  1  0.68469650  0.90368450  0.30119800  1
  Zn  Zn3  1  0.68469650  0.09631550  0.80119800  1
  Zn  Zn4  1  0.81530350  0.40368450  0.19880200  1
  Zn  Zn5  1  0.81530350  0.59631550  0.69880200  1
  Zn  Zn6  1  0.18469650  0.40368450  0.30119800  1
  Zn  Zn7  1  0.18469650  0.59631550  0.80119800  1
  Co  Co8  1  0.50000000  0.58857100  0.25000000  1
  Co  Co9  1  0.50000000  0.75408100  0.75000000  1
  Co  Co10  1  0.50000000  0.24591900  0.25000000  1
  Co  Co11  1  0.50000000  0.41142900  0.75000000  1
  Co  Co12  1  0.00000000  0.08857100  0.25000000  1
  Co  Co13  1  0.00000000  0.25408100  0.75000000  1
  Co  Co14  1  0.00000000  0.74591900  0.25000000  1
  Co  Co15  1  0.00000000  0.91142900  0.75000000  1
  O  O16  1  0.10128950  0.91765350  0.10753600  1
  O  O17  1  0.39828400  0.73142800  0.40808500  1
  O  O18  1  0.10128950  0.08234650  0.60753600  1
  O  O19  1  0.37275700  0.89253500  0.84769400  1
  O  O20  1  0.37275700  0.10746500  0.34769400  1
  O  O21  1  0.60171600  0.73142800  0.09191500  1
  O  O22  1  0.39828400  0.26857200  0.90808500  1
  O  O23  1  0.62724300  0.89253500  0.65230600  1
  O  O24  1  0.62724300  0.10746500  0.15230600  1
  O  O25  1  0.89871050  0.91765350  0.39246400  1
  O  O26  1  0.60171600  0.26857200  0.59191500  1
  O  O27  1  0.89871050  0.08234650  0.89246400  1
  O  O28  1  0.60128950  0.41765350  0.10753600  1
  O  O29  1  0.89828400  0.23142800  0.40808500  1
  O  O30  1  0.60128950  0.58234650  0.60753600  1
  O  O31  1  0.87275700  0.39253500  0.84769400  1
  O  O32  1  0.87275700  0.60746500  0.34769400  1
  O  O33  1  0.10171600  0.23142800  0.09191500  1
  O  O34  1  0.89828400  0.76857200  0.90808500  1
  O  O35  1  0.12724300  0.39253500  0.65230600  1
  O  O36  1  0.12724300  0.60746500  0.15230600  1
  O  O37  1  0.39871050  0.41765350  0.39246400  1
  O  O38  1  0.10171600  0.76857200  0.59191500  1
  O  O39  1  0.39871050  0.58234650  0.89246400  1
