# generated using pymatgen
data_Na7Ti16O32
_symmetry_space_group_name_H-M   'P 1'
_cell_length_a   8.67787600
_cell_length_b   8.67787600
_cell_length_c   17.36727600
_cell_angle_alpha   90.00000000
_cell_angle_beta   90.00000000
_cell_angle_gamma   90.00000000
_symmetry_Int_Tables_number   1
_chemical_formula_structural   Na7Ti16O32
_chemical_formula_sum   'Na14 Ti32 O64'
_cell_volume   1307.85195634
_cell_formula_units_Z   2
loop_
 _symmetry_equiv_pos_site_id
 _symmetry_equiv_pos_as_xyz
  1  'x, y, z'
loop_
 _atom_site_type_symbol
 _atom_site_label
 _atom_site_symmetry_multiplicity
 _atom_site_fract_x
 _atom_site_fract_y
 _atom_site_fract_z
 _atom_site_occupancy
  Na  Na0  1  0.00000000  0.00000000  0.00000000  1
  Na  Na1  1  0.24976400  0.24976400  0.12414500  1
  Na  Na2  1  0.75023600  0.75023600  0.12414500  1
  Na  Na3  1  0.00000000  0.50000000  0.25000000  1
  Na  Na4  1  0.50000000  0.00000000  0.25000000  1
  Na  Na5  1  0.74976400  0.25023600  0.37585500  1
  Na  Na6  1  0.25023600  0.74976400  0.37585500  1
  Na  Na7  1  0.50000000  0.50000000  0.50000000  1
  Na  Na8  1  0.74976400  0.74976400  0.62414500  1
  Na  Na9  1  0.25023600  0.25023600  0.62414500  1
  Na  Na10  1  0.50000000  0.00000000  0.75000000  1
  Na  Na11  1  0.00000000  0.50000000  0.75000000  1
  Na  Na12  1  0.24976400  0.75023600  0.87585500  1
  Na  Na13  1  0.75023600  0.24976400  0.87585500  1
  Ti  Ti14  1  0.87689150  0.63075050  0.43841950  1
  Ti  Ti15  1  0.36924950  0.12310850  0.43841950  1
  Ti  Ti16  1  0.12310850  0.36924950  0.43841950  1
  Ti  Ti17  1  0.63075050  0.87689150  0.43841950  1
  Ti  Ti18  1  0.62310850  0.13075050  0.06158050  1
  Ti  Ti19  1  0.37689150  0.86924950  0.06158050  1
  Ti  Ti20  1  0.13075050  0.62310850  0.06158050  1
  Ti  Ti21  1  0.86924950  0.37689150  0.06158050  1
  Ti  Ti22  1  0.37590200  0.62409800  0.18615500  1
  Ti  Ti23  1  0.12453400  0.87546600  0.18673900  1
  Ti  Ti24  1  0.87546600  0.12453400  0.18673900  1
  Ti  Ti25  1  0.62409800  0.37590200  0.18615500  1
  Ti  Ti26  1  0.12409800  0.12409800  0.31384500  1
  Ti  Ti27  1  0.62453400  0.62453400  0.31326100  1
  Ti  Ti28  1  0.87590200  0.87590200  0.31384500  1
  Ti  Ti29  1  0.37546600  0.37546600  0.31326100  1
  Ti  Ti30  1  0.37689150  0.13075050  0.93841950  1
  Ti  Ti31  1  0.86924950  0.62310850  0.93841950  1
  Ti  Ti32  1  0.62310850  0.86924950  0.93841950  1
  Ti  Ti33  1  0.13075050  0.37689150  0.93841950  1
  Ti  Ti34  1  0.12310850  0.63075050  0.56158050  1
  Ti  Ti35  1  0.87689150  0.36924950  0.56158050  1
  Ti  Ti36  1  0.63075050  0.12310850  0.56158050  1
  Ti  Ti37  1  0.36924950  0.87689150  0.56158050  1
  Ti  Ti38  1  0.87590200  0.12409800  0.68615500  1
  Ti  Ti39  1  0.62453400  0.37546600  0.68673900  1
  Ti  Ti40  1  0.37546600  0.62453400  0.68673900  1
  Ti  Ti41  1  0.12409800  0.87590200  0.68615500  1
  Ti  Ti42  1  0.62409800  0.62409800  0.81384500  1
  Ti  Ti43  1  0.12453400  0.12453400  0.81326100  1
  Ti  Ti44  1  0.37590200  0.37590200  0.81384500  1
  Ti  Ti45  1  0.87546600  0.87546600  0.81326100  1
  O  O46  1  0.39361800  0.89169500  0.44658000  1
  O  O47  1  0.89169500  0.39361800  0.44658000  1
  O  O48  1  0.10830500  0.60638200  0.44658000  1
  O  O49  1  0.60638200  0.10830500  0.44658000  1
  O  O50  1  0.10638200  0.39169500  0.05342000  1
  O  O51  1  0.60830500  0.89361800  0.05342000  1
  O  O52  1  0.89361800  0.60830500  0.05342000  1
  O  O53  1  0.39169500  0.10638200  0.05342000  1
  O  O54  1  0.85564000  0.14436000  0.07117300  1
  O  O55  1  0.64191300  0.35808700  0.07073100  1
  O  O56  1  0.35808700  0.64191300  0.07073100  1
  O  O57  1  0.14436000  0.85564000  0.07117300  1
  O  O58  1  0.64144500  0.14152400  0.17739200  1
  O  O59  1  0.85847600  0.35855500  0.17739200  1
  O  O60  1  0.35855500  0.85847600  0.17739200  1
  O  O61  1  0.14152400  0.64144500  0.17739200  1
  O  O62  1  0.39067100  0.39067100  0.19822500  1
  O  O63  1  0.60932900  0.60932900  0.19822500  1
  O  O64  1  0.89116450  0.89116450  0.19660450  1
  O  O65  1  0.10883550  0.10883550  0.19660450  1
  O  O66  1  0.89067100  0.10932900  0.30177500  1
  O  O67  1  0.39116450  0.60883550  0.30339550  1
  O  O68  1  0.10932900  0.89067100  0.30177500  1
  O  O69  1  0.60883550  0.39116450  0.30339550  1
  O  O70  1  0.35847600  0.14144500  0.32260800  1
  O  O71  1  0.64152400  0.85855500  0.32260800  1
  O  O72  1  0.14144500  0.35847600  0.32260800  1
  O  O73  1  0.85855500  0.64152400  0.32260800  1
  O  O74  1  0.14191300  0.14191300  0.42926900  1
  O  O75  1  0.85808700  0.85808700  0.42926900  1
  O  O76  1  0.35564000  0.35564000  0.42882700  1
  O  O77  1  0.64436000  0.64436000  0.42882700  1
  O  O78  1  0.89361800  0.39169500  0.94658000  1
  O  O79  1  0.39169500  0.89361800  0.94658000  1
  O  O80  1  0.60830500  0.10638200  0.94658000  1
  O  O81  1  0.10638200  0.60830500  0.94658000  1
  O  O82  1  0.60638200  0.89169500  0.55342000  1
  O  O83  1  0.10830500  0.39361800  0.55342000  1
  O  O84  1  0.39361800  0.10830500  0.55342000  1
  O  O85  1  0.89169500  0.60638200  0.55342000  1
  O  O86  1  0.35564000  0.64436000  0.57117300  1
  O  O87  1  0.14191300  0.85808700  0.57073100  1
  O  O88  1  0.85808700  0.14191300  0.57073100  1
  O  O89  1  0.64436000  0.35564000  0.57117300  1
  O  O90  1  0.14144500  0.64152400  0.67739200  1
  O  O91  1  0.35847600  0.85855500  0.67739200  1
  O  O92  1  0.85855500  0.35847600  0.67739200  1
  O  O93  1  0.64152400  0.14144500  0.67739200  1
  O  O94  1  0.89067100  0.89067100  0.69822500  1
  O  O95  1  0.10932900  0.10932900  0.69822500  1
  O  O96  1  0.39116450  0.39116450  0.69660450  1
  O  O97  1  0.60883550  0.60883550  0.69660450  1
  O  O98  1  0.39067100  0.60932900  0.80177500  1
  O  O99  1  0.89116450  0.10883550  0.80339550  1
  O  O100  1  0.60932900  0.39067100  0.80177500  1
  O  O101  1  0.10883550  0.89116450  0.80339550  1
  O  O102  1  0.85847600  0.64144500  0.82260800  1
  O  O103  1  0.14152400  0.35855500  0.82260800  1
  O  O104  1  0.64144500  0.85847600  0.82260800  1
  O  O105  1  0.35855500  0.14152400  0.82260800  1
  O  O106  1  0.64191300  0.64191300  0.92926900  1
  O  O107  1  0.35808700  0.35808700  0.92926900  1
  O  O108  1  0.85564000  0.85564000  0.92882700  1
  O  O109  1  0.14436000  0.14436000  0.92882700  1
