# generated using pymatgen
data_LiFeF3
_symmetry_space_group_name_H-M   'P 1'
_cell_length_a   10.91411200
_cell_length_b   9.06456200
_cell_length_c   5.71572528
_cell_angle_alpha   90.00000000
_cell_angle_beta   111.21545453
_cell_angle_gamma   90.00000000
_symmetry_Int_Tables_number   1
_chemical_formula_structural   LiFeF3
_chemical_formula_sum   'Li8 Fe8 F24'
_cell_volume   527.14233117
_cell_formula_units_Z   8
loop_
 _symmetry_equiv_pos_site_id
 _symmetry_equiv_pos_as_xyz
  1  'x, y, z'
loop_
 _atom_site_type_symbol
 _atom_site_label
 _atom_site_symmetry_multiplicity
 _atom_site_fract_x
 _atom_site_fract_y
 _atom_site_fract_z
 _atom_site_occupancy
  Li  Li0  1  0.20688800  0.41276000  0.70591000  1
  Li  Li1  1  0.20688800  0.58724000  0.20591000  1
  Li  Li2  1  0.79311200  0.41276000  0.79409000  1
  Li  Li3  1  0.79311200  0.58724000  0.29409000  1
  Li  Li4  1  0.70688800  0.91276000  0.70591000  1
  Li  Li5  1  0.70688800  0.08724000  0.20591000  1
  Li  Li6  1  0.29311200  0.91276000  0.79409000  1
  Li  Li7  1  0.29311200  0.08724000  0.29409000  1
  Fe  Fe8  1  0.00000000  0.08624000  0.75000000  1
  Fe  Fe9  1  0.00000000  0.70593800  0.75000000  1
  Fe  Fe10  1  0.00000000  0.29406200  0.25000000  1
  Fe  Fe11  1  0.00000000  0.91376000  0.25000000  1
  Fe  Fe12  1  0.50000000  0.58624000  0.75000000  1
  Fe  Fe13  1  0.50000000  0.20593800  0.75000000  1
  Fe  Fe14  1  0.50000000  0.79406200  0.25000000  1
  Fe  Fe15  1  0.50000000  0.41376000  0.25000000  1
  F  F16  1  0.39834600  0.40669900  0.83488900  1
  F  F17  1  0.39834600  0.59330100  0.33488900  1
  F  F18  1  0.10272150  0.23648950  0.63789200  1
  F  F19  1  0.14139650  0.55244250  0.86125400  1
  F  F20  1  0.10272150  0.76351050  0.13789200  1
  F  F21  1  0.14139650  0.44755750  0.36125400  1
  F  F22  1  0.85860350  0.55244250  0.63874600  1
  F  F23  1  0.89727850  0.23648950  0.86210800  1
  F  F24  1  0.85860350  0.44755750  0.13874600  1
  F  F25  1  0.89727850  0.76351050  0.36210800  1
  F  F26  1  0.60165400  0.40669900  0.66511100  1
  F  F27  1  0.60165400  0.59330100  0.16511100  1
  F  F28  1  0.89834600  0.90669900  0.83488900  1
  F  F29  1  0.89834600  0.09330100  0.33488900  1
  F  F30  1  0.60272150  0.73648950  0.63789200  1
  F  F31  1  0.64139650  0.05244250  0.86125400  1
  F  F32  1  0.60272150  0.26351050  0.13789200  1
  F  F33  1  0.64139650  0.94755750  0.36125400  1
  F  F34  1  0.35860350  0.05244250  0.63874600  1
  F  F35  1  0.39727850  0.73648950  0.86210800  1
  F  F36  1  0.35860350  0.94755750  0.13874600  1
  F  F37  1  0.39727850  0.26351050  0.36210800  1
  F  F38  1  0.10165400  0.90669900  0.66511100  1
  F  F39  1  0.10165400  0.09330100  0.16511100  1
