# generated using pymatgen
data_Cr2O3
_symmetry_space_group_name_H-M   'P 1'
_cell_length_a   5.12817461
_cell_length_b   5.12817461
_cell_length_c   14.38117601
_cell_angle_alpha   90.00000000
_cell_angle_beta   90.00000000
_cell_angle_gamma   120.00000000
_symmetry_Int_Tables_number   1
_chemical_formula_structural   Cr2O3
_chemical_formula_sum   'Cr12 O18'
_cell_volume   327.52966481
_cell_formula_units_Z   6
loop_
 _symmetry_equiv_pos_site_id
 _symmetry_equiv_pos_as_xyz
  1  'x, y, z'
loop_
 _atom_site_type_symbol
 _atom_site_label
 _atom_site_symmetry_multiplicity
 _atom_site_fract_x
 _atom_site_fract_y
 _atom_site_fract_z
 _atom_site_occupancy
  Cr  Cr0  1  0.66666667  0.33333333  0.33333333  1
  Cr  Cr1  1  0.33333333  0.66666667  0.16666667  1
  Cr  Cr2  1  0.00000000  0.00000000  0.31475133  1
  Cr  Cr3  1  0.66666667  0.33333333  0.01858200  1
  Cr  Cr4  1  0.33333333  0.66666667  0.66666667  1
  Cr  Cr5  1  1.00000000  0.00000000  0.50000000  1
  Cr  Cr6  1  0.66666667  0.33333333  0.64808467  1
  Cr  Cr7  1  0.33333333  0.66666667  0.35191533  1
  Cr  Cr8  1  0.00000000  1.00000000  0.00000000  1
  Cr  Cr9  1  0.66666667  0.33333333  0.83333333  1
  Cr  Cr10  1  0.33333333  0.66666667  0.98141800  1
  Cr  Cr11  1  0.00000000  0.00000000  0.68524867  1
  O  O12  1  0.03936300  0.68320900  0.07340200  1
  O  O13  1  0.02282067  0.37269633  0.25993133  1
  O  O14  1  0.34987567  0.97717933  0.25993133  1
  O  O15  1  0.31679100  0.35615400  0.07340200  1
  O  O16  1  0.64384600  0.96063700  0.07340200  1
  O  O17  1  0.62730367  0.65012433  0.25993133  1
  O  O18  1  0.70602967  0.01654233  0.40673533  1
  O  O19  1  0.68948733  0.70602967  0.59326467  1
  O  O20  1  0.01654233  0.31051267  0.59326467  1
  O  O21  1  0.98345767  0.68948733  0.40673533  1
  O  O22  1  0.31051267  0.29397033  0.40673533  1
  O  O23  1  0.29397033  0.98345767  0.59326467  1
  O  O24  1  0.37269633  0.34987567  0.74006867  1
  O  O25  1  0.35615400  0.03936300  0.92659800  1
  O  O26  1  0.68320900  0.64384600  0.92659800  1
  O  O27  1  0.65012433  0.02282067  0.74006867  1
  O  O28  1  0.97717933  0.62730367  0.74006867  1
  O  O29  1  0.96063700  0.31679100  0.92659800  1
