# generated using pymatgen
data_LiNiPO4
_symmetry_space_group_name_H-M   'P 1'
_cell_length_a   6.09682413
_cell_length_b   7.54109600
_cell_length_c   16.14872582
_cell_angle_alpha   90.00000000
_cell_angle_beta   100.21888484
_cell_angle_gamma   90.00000000
_symmetry_Int_Tables_number   1
_chemical_formula_structural   LiNiPO4
_chemical_formula_sum   'Li8 Ni8 P8 O32'
_cell_volume   730.68810950
_cell_formula_units_Z   8
loop_
 _symmetry_equiv_pos_site_id
 _symmetry_equiv_pos_as_xyz
  1  'x, y, z'
loop_
 _atom_site_type_symbol
 _atom_site_label
 _atom_site_symmetry_multiplicity
 _atom_site_fract_x
 _atom_site_fract_y
 _atom_site_fract_z
 _atom_site_occupancy
  Li  Li0  1  0.39075750  0.18237850  0.06440500  1
  Li  Li1  1  0.60924250  0.18237850  0.43559500  1
  Li  Li2  1  0.39075750  0.81762150  0.56440500  1
  Li  Li3  1  0.60924250  0.81762150  0.93559500  1
  Li  Li4  1  0.89075750  0.68237850  0.06440500  1
  Li  Li5  1  0.10924250  0.68237850  0.43559500  1
  Li  Li6  1  0.89075750  0.31762150  0.56440500  1
  Li  Li7  1  0.10924250  0.31762150  0.93559500  1
  Ni  Ni8  1  0.24676950  0.92230250  0.74935200  1
  Ni  Ni9  1  0.75323050  0.92230250  0.75064800  1
  Ni  Ni10  1  0.24676950  0.07769750  0.24935200  1
  Ni  Ni11  1  0.75323050  0.07769750  0.25064800  1
  Ni  Ni12  1  0.74676950  0.42230250  0.74935200  1
  Ni  Ni13  1  0.25323050  0.42230250  0.75064800  1
  Ni  Ni14  1  0.74676950  0.57769750  0.24935200  1
  Ni  Ni15  1  0.25323050  0.57769750  0.25064800  1
  P  P16  1  0.44886200  0.82560600  0.36101000  1
  P  P17  1  0.55113800  0.82560600  0.13899000  1
  P  P18  1  0.44886200  0.17439400  0.86101000  1
  P  P19  1  0.55113800  0.17439400  0.63899000  1
  P  P20  1  0.94886200  0.32560600  0.36101000  1
  P  P21  1  0.05113800  0.32560600  0.13899000  1
  P  P22  1  0.94886200  0.67439400  0.86101000  1
  P  P23  1  0.05113800  0.67439400  0.63899000  1
  O  O24  1  0.22361050  0.82771950  0.29450800  1
  O  O25  1  0.22361050  0.17228050  0.79450800  1
  O  O26  1  0.77638950  0.82771950  0.20549200  1
  O  O27  1  0.77638950  0.17228050  0.70549200  1
  O  O28  1  0.42874950  0.65589650  0.16084900  1
  O  O29  1  0.42874950  0.34410350  0.66084900  1
  O  O30  1  0.57125050  0.65589650  0.33915100  1
  O  O31  1  0.57125050  0.34410350  0.83915100  1
  O  O32  1  0.43581750  0.00599450  0.15612000  1
  O  O33  1  0.43581750  0.99400550  0.65612000  1
  O  O34  1  0.56418250  0.00599450  0.34388000  1
  O  O35  1  0.56418250  0.99400550  0.84388000  1
  O  O36  1  0.40009500  0.81644600  0.44970500  1
  O  O37  1  0.40009500  0.18355400  0.94970500  1
  O  O38  1  0.59990500  0.81644600  0.05029500  1
  O  O39  1  0.59990500  0.18355400  0.55029500  1
  O  O40  1  0.72361050  0.32771950  0.29450800  1
  O  O41  1  0.72361050  0.67228050  0.79450800  1
  O  O42  1  0.27638950  0.32771950  0.20549200  1
  O  O43  1  0.27638950  0.67228050  0.70549200  1
  O  O44  1  0.92874950  0.15589650  0.16084900  1
  O  O45  1  0.92874950  0.84410350  0.66084900  1
  O  O46  1  0.07125050  0.15589650  0.33915100  1
  O  O47  1  0.07125050  0.84410350  0.83915100  1
  O  O48  1  0.93581750  0.50599450  0.15612000  1
  O  O49  1  0.93581750  0.49400550  0.65612000  1
  O  O50  1  0.06418250  0.50599450  0.34388000  1
  O  O51  1  0.06418250  0.49400550  0.84388000  1
  O  O52  1  0.90009500  0.31644600  0.44970500  1
  O  O53  1  0.90009500  0.68355400  0.94970500  1
  O  O54  1  0.09990500  0.31644600  0.05029500  1
  O  O55  1  0.09990500  0.68355400  0.55029500  1
