# generated using pymatgen
data_V3O5F
_symmetry_space_group_name_H-M   'P 1'
_cell_length_a   8.98416400
_cell_length_b   6.38587600
_cell_length_c   7.26460533
_cell_angle_alpha   90.00000000
_cell_angle_beta   112.23457045
_cell_angle_gamma   90.00000000
_symmetry_Int_Tables_number   1
_chemical_formula_structural   V3O5F
_chemical_formula_sum   'V12 O20 F4'
_cell_volume   385.79219361
_cell_formula_units_Z   4
loop_
 _symmetry_equiv_pos_site_id
 _symmetry_equiv_pos_as_xyz
  1  'x, y, z'
loop_
 _atom_site_type_symbol
 _atom_site_label
 _atom_site_symmetry_multiplicity
 _atom_site_fract_x
 _atom_site_fract_y
 _atom_site_fract_z
 _atom_site_occupancy
  V  V0  1  0.83079700  0.50000000  0.84402000  1
  V  V1  1  0.14976200  0.50000000  0.66771800  1
  V  V2  1  0.85023800  0.50000000  0.33228200  1
  V  V3  1  0.16920300  0.50000000  0.15598000  1
  V  V4  1  0.00000000  0.00000000  0.50000000  1
  V  V5  1  0.00000000  0.00000000  0.00000000  1
  V  V6  1  0.33079700  0.00000000  0.84402000  1
  V  V7  1  0.64976200  0.00000000  0.66771800  1
  V  V8  1  0.35023800  0.00000000  0.33228200  1
  V  V9  1  0.66920300  0.00000000  0.15598000  1
  V  V10  1  0.50000000  0.50000000  0.50000000  1
  V  V11  1  0.50000000  0.50000000  0.00000000  1
  O  O12  1  0.16577950  0.20318150  0.67060600  1
  O  O13  1  0.83422050  0.20318150  0.32939400  1
  O  O14  1  0.26539200  0.50000000  0.96776200  1
  O  O15  1  0.92996500  0.50000000  0.62821900  1
  O  O16  1  0.73460800  0.50000000  0.03223800  1
  O  O17  1  0.07003500  0.50000000  0.37178100  1
  O  O18  1  0.00000000  0.30680400  0.00000000  1
  O  O19  1  0.16577950  0.79681850  0.67060600  1
  O  O20  1  0.83422050  0.79681850  0.32939400  1
  O  O21  1  0.00000000  0.69319600  0.00000000  1
  O  O22  1  0.66577950  0.70318150  0.67060600  1
  O  O23  1  0.33422050  0.70318150  0.32939400  1
  O  O24  1  0.76539200  0.00000000  0.96776200  1
  O  O25  1  0.42996500  0.00000000  0.62821900  1
  O  O26  1  0.23460800  0.00000000  0.03223800  1
  O  O27  1  0.57003500  0.00000000  0.37178100  1
  O  O28  1  0.50000000  0.80680400  0.00000000  1
  O  O29  1  0.66577950  0.29681850  0.67060600  1
  O  O30  1  0.33422050  0.29681850  0.32939400  1
  O  O31  1  0.50000000  0.19319600  0.00000000  1
  F  F32  1  0.60936100  0.50000000  0.30233700  1
  F  F33  1  0.39063900  0.50000000  0.69766300  1
  F  F34  1  0.10936100  0.00000000  0.30233700  1
  F  F35  1  0.89063900  0.00000000  0.69766300  1
