# generated using pymatgen
data_Fe3Cu2Sn(PO4)6
_symmetry_space_group_name_H-M   'P 1'
_cell_length_a   8.65746177
_cell_length_b   8.65746177
_cell_length_c   21.08754438
_cell_angle_alpha   90.00000000
_cell_angle_beta   90.00000000
_cell_angle_gamma   120.00000000
_symmetry_Int_Tables_number   1
_chemical_formula_structural   Fe3Cu2Sn(PO4)6
_chemical_formula_sum   'Fe9 Cu6 Sn3 P18 O72'
_cell_volume   1368.79309532
_cell_formula_units_Z   3
loop_
 _symmetry_equiv_pos_site_id
 _symmetry_equiv_pos_as_xyz
  1  'x, y, z'
loop_
 _atom_site_type_symbol
 _atom_site_label
 _atom_site_symmetry_multiplicity
 _atom_site_fract_x
 _atom_site_fract_y
 _atom_site_fract_z
 _atom_site_occupancy
  Fe  Fe0  1  0.33333333  0.66666667  0.52173167  1
  Fe  Fe1  1  0.33333333  0.66666667  0.31137067  1
  Fe  Fe2  1  0.33333333  0.66666667  0.02254767  1
  Fe  Fe3  1  0.00000000  0.00000000  0.85506500  1
  Fe  Fe4  1  0.00000000  0.00000000  0.64470400  1
  Fe  Fe5  1  0.00000000  0.00000000  0.35588100  1
  Fe  Fe6  1  0.66666667  0.33333333  0.18839833  1
  Fe  Fe7  1  0.66666667  0.33333333  0.97803733  1
  Fe  Fe8  1  0.66666667  0.33333333  0.68921433  1
  Cu  Cu9  1  0.33333333  0.66666667  0.66250967  1
  Cu  Cu10  1  0.33333333  0.66666667  0.16695567  1
  Cu  Cu11  1  0.00000000  0.00000000  0.99584300  1
  Cu  Cu12  1  0.00000000  0.00000000  0.50028900  1
  Cu  Cu13  1  0.66666667  0.33333333  0.32917633  1
  Cu  Cu14  1  0.66666667  0.33333333  0.83362233  1
  Sn  Sn15  1  0.33333333  0.66666667  0.81022967  1
  Sn  Sn16  1  0.00000000  0.00000000  0.14356300  1
  Sn  Sn17  1  0.66666667  0.33333333  0.47689633  1
  P  P18  1  0.29691667  0.29728733  0.25116633  1
  P  P19  1  0.00037067  0.70308333  0.25116633  1
  P  P20  1  0.70271267  0.99962933  0.25116633  1
  P  P21  1  0.37642300  0.03929100  0.08359400  1
  P  P22  1  0.96070900  0.33713200  0.08359400  1
  P  P23  1  0.66286800  0.62357700  0.08359400  1
  P  P24  1  0.96358333  0.63062067  0.58449967  1
  P  P25  1  0.66703733  0.03641667  0.58449967  1
  P  P26  1  0.36937933  0.33296267  0.58449967  1
  P  P27  1  0.04308967  0.37262433  0.41692733  1
  P  P28  1  0.62737567  0.67046533  0.41692733  1
  P  P29  1  0.32953467  0.95691033  0.41692733  1
  P  P30  1  0.63025000  0.96395400  0.91783300  1
  P  P31  1  0.33370400  0.36975000  0.91783300  1
  P  P32  1  0.03604600  0.66629600  0.91783300  1
  P  P33  1  0.70975633  0.70595767  0.75026067  1
  P  P34  1  0.29404233  0.00379867  0.75026067  1
  P  P35  1  0.99620133  0.29024367  0.75026067  1
  O  O36  1  0.32986133  0.86096567  0.35655967  1
  O  O37  1  0.13903433  0.46889567  0.35655967  1
  O  O38  1  0.83042800  0.51452700  0.25600800  1
  O  O39  1  0.53110433  0.67013867  0.35655967  1
  O  O40  1  0.00115600  0.79712400  0.18946700  1
  O  O41  1  0.16948633  0.68391267  0.24481467  1
  O  O42  1  0.68409900  0.16957200  0.25600800  1
  O  O43  1  0.51442633  0.83051367  0.24481467  1
  O  O44  1  0.46991667  0.13677833  0.14382333  1
  O  O45  1  0.31608733  0.48557367  0.24481467  1
  O  O46  1  0.18520433  0.01957467  0.07641267  1
  O  O47  1  0.86322167  0.33313833  0.14382333  1
  O  O48  1  0.79596800  0.99884400  0.18946700  1
  O  O49  1  0.48547300  0.31590100  0.25600800  1
  O  O50  1  0.35385433  0.84915467  0.08961067  1
  O  O51  1  0.20287600  0.20403200  0.18946700  1
  O  O52  1  0.15084533  0.50469967  0.08961067  1
  O  O53  1  0.98042533  0.16562967  0.07641267  1
  O  O54  1  0.49530033  0.64614567  0.08961067  1
  O  O55  1  0.66686167  0.53008333  0.14382333  1
  O  O56  1  0.13790233  0.66713967  0.97676167  1
  O  O57  1  0.83437033  0.81479567  0.07641267  1
  O  O58  1  0.52923733  0.86209767  0.97676167  1
  O  O59  1  0.33286033  0.47076267  0.97676167  1
  O  O60  1  0.99652800  0.19429900  0.68989300  1
  O  O61  1  0.80570100  0.80222900  0.68989300  1
  O  O62  1  0.49709467  0.84786033  0.58934133  1
  O  O63  1  0.19777100  0.00347200  0.68989300  1
  O  O64  1  0.66782267  0.13045733  0.52280033  1
  O  O65  1  0.83615300  0.01724600  0.57814800  1
  O  O66  1  0.35076567  0.50290533  0.58934133  1
  O  O67  1  0.18109300  0.16384700  0.57814800  1
  O  O68  1  0.13658333  0.47011167  0.47715667  1
  O  O69  1  0.98275400  0.81890700  0.57814800  1
  O  O70  1  0.85187100  0.35290800  0.40974600  1
  O  O71  1  0.52988833  0.66647167  0.47715667  1
  O  O72  1  0.46263467  0.33217733  0.52280033  1
  O  O73  1  0.15213967  0.64923433  0.58934133  1
  O  O74  1  0.02052100  0.18248800  0.42294400  1
  O  O75  1  0.86954267  0.53736533  0.52280033  1
  O  O76  1  0.81751200  0.83803300  0.42294400  1
  O  O77  1  0.64709200  0.49896300  0.40974600  1
  O  O78  1  0.16196700  0.97947900  0.42294400  1
  O  O79  1  0.33352833  0.86341667  0.47715667  1
  O  O80  1  0.80456900  0.00047300  0.31009500  1
  O  O81  1  0.50103700  0.14812900  0.40974600  1
  O  O82  1  0.19590400  0.19543100  0.31009500  1
  O  O83  1  0.99952700  0.80409600  0.31009500  1
  O  O84  1  0.66319467  0.52763233  0.02322633  1
  O  O85  1  0.47236767  0.13556233  0.02322633  1
  O  O86  1  0.16376133  0.18119367  0.92267467  1
  O  O87  1  0.86443767  0.33680533  0.02322633  1
  O  O88  1  0.33448933  0.46379067  0.85613367  1
  O  O89  1  0.50281967  0.35057933  0.91148133  1
  O  O90  1  0.01743233  0.83623867  0.92267467  1
  O  O91  1  0.84775967  0.49718033  0.91148133  1
  O  O92  1  0.80325000  0.80344500  0.81049000  1
  O  O93  1  0.64942067  0.15224033  0.91148133  1
  O  O94  1  0.51853767  0.68624133  0.74307933  1
  O  O95  1  0.19655500  0.99980500  0.81049000  1
  O  O96  1  0.12930133  0.66551067  0.85613367  1
  O  O97  1  0.81880633  0.98256767  0.92267467  1
  O  O98  1  0.68718767  0.51582133  0.75627733  1
  O  O99  1  0.53620933  0.87069867  0.85613367  1
  O  O100  1  0.48417867  0.17136633  0.75627733  1
  O  O101  1  0.31375867  0.83229633  0.74307933  1
  O  O102  1  0.82863367  0.31281233  0.75627733  1
  O  O103  1  0.00019500  0.19675000  0.81049000  1
  O  O104  1  0.47123567  0.33380633  0.64342833  1
  O  O105  1  0.16770367  0.48146233  0.74307933  1
  O  O106  1  0.86257067  0.52876433  0.64342833  1
  O  O107  1  0.66619367  0.13742933  0.64342833  1
