# generated using pymatgen
data_LiCo3OF5
_symmetry_space_group_name_H-M   'P 1'
_cell_length_a   5.23410992
_cell_length_b   5.26802705
_cell_length_c   5.56946847
_cell_angle_alpha   117.02176914
_cell_angle_beta   90.79364914
_cell_angle_gamma   119.43081773
_symmetry_Int_Tables_number   1
_chemical_formula_structural   LiCo3OF5
_chemical_formula_sum   'Li1 Co3 O1 F5'
_cell_volume   113.45046276
_cell_formula_units_Z   1
loop_
 _symmetry_equiv_pos_site_id
 _symmetry_equiv_pos_as_xyz
  1  'x, y, z'
loop_
 _atom_site_type_symbol
 _atom_site_label
 _atom_site_symmetry_multiplicity
 _atom_site_fract_x
 _atom_site_fract_y
 _atom_site_fract_z
 _atom_site_occupancy
  Li  Li0  1  0.31674385  0.16373857  0.56386581  1
  Co  Co1  1  0.70521541  0.33783308  0.96403065  1
  Co  Co2  1  0.27150764  0.62517539  0.06158049  1
  Co  Co3  1  0.71344893  0.87920520  0.42740103  1
  O  O4  1  0.80883559  0.25394638  0.23849398  1
  F  F5  1  0.51796768  0.45271841  0.75358662  1
  F  F6  1  0.18961172  0.93641213  0.23304578  1
  F  F7  1  0.79483144  0.03896709  0.75264124  1
  F  F8  1  0.19300898  0.75723176  0.74084797  1
  F  F9  1  0.48882875  0.55477198  0.26450543  1
