# generated using pymatgen
data_Li2CoBO4
_symmetry_space_group_name_H-M   'P 1'
_cell_length_a   7.00674000
_cell_length_b   7.14550400
_cell_length_c   6.16309652
_cell_angle_alpha   90.00000000
_cell_angle_beta   90.88278330
_cell_angle_gamma   90.00000000
_symmetry_Int_Tables_number   1
_chemical_formula_structural   Li2CoBO4
_chemical_formula_sum   'Li8 Co4 B4 O16'
_cell_volume   308.52921009
_cell_formula_units_Z   4
loop_
 _symmetry_equiv_pos_site_id
 _symmetry_equiv_pos_as_xyz
  1  'x, y, z'
loop_
 _atom_site_type_symbol
 _atom_site_label
 _atom_site_symmetry_multiplicity
 _atom_site_fract_x
 _atom_site_fract_y
 _atom_site_fract_z
 _atom_site_occupancy
  Li  Li0  1  0.32325000  0.00000000  0.71997200  1
  Li  Li1  1  0.50000000  0.67868000  0.50000000  1
  Li  Li2  1  0.50000000  0.32132000  0.50000000  1
  Li  Li3  1  0.67675000  0.00000000  0.28002800  1
  Li  Li4  1  0.82325000  0.50000000  0.71997200  1
  Li  Li5  1  0.00000000  0.17868000  0.50000000  1
  Li  Li6  1  0.00000000  0.82132000  0.50000000  1
  Li  Li7  1  0.17675000  0.50000000  0.28002800  1
  Co  Co8  1  0.50000000  0.69877100  0.00000000  1
  Co  Co9  1  0.50000000  0.30122900  0.00000000  1
  Co  Co10  1  0.00000000  0.19877100  0.00000000  1
  Co  Co11  1  0.00000000  0.80122900  0.00000000  1
  B  B12  1  0.31266400  0.00000000  0.25337200  1
  B  B13  1  0.68733600  0.00000000  0.74662800  1
  B  B14  1  0.81266400  0.50000000  0.25337200  1
  B  B15  1  0.18733600  0.50000000  0.74662800  1
  O  O16  1  0.19173900  0.00000000  0.03657500  1
  O  O17  1  0.20266900  0.00000000  0.43973000  1
  O  O18  1  0.44339250  0.16948450  0.24136700  1
  O  O19  1  0.44339250  0.83051550  0.24136700  1
  O  O20  1  0.55660750  0.83051550  0.75863300  1
  O  O21  1  0.55660750  0.16948450  0.75863300  1
  O  O22  1  0.79733100  0.00000000  0.56027000  1
  O  O23  1  0.80826100  0.00000000  0.96342500  1
  O  O24  1  0.69173900  0.50000000  0.03657500  1
  O  O25  1  0.70266900  0.50000000  0.43973000  1
  O  O26  1  0.94339250  0.66948450  0.24136700  1
  O  O27  1  0.94339250  0.33051550  0.24136700  1
  O  O28  1  0.05660750  0.33051550  0.75863300  1
  O  O29  1  0.05660750  0.66948450  0.75863300  1
  O  O30  1  0.29733100  0.50000000  0.56027000  1
  O  O31  1  0.30826100  0.50000000  0.96342500  1
