# generated using pymatgen
data_Li2Cr3Si3O10
_symmetry_space_group_name_H-M   'P 1'
_cell_length_a   16.42572000
_cell_length_b   4.88347000
_cell_length_c   10.36357738
_cell_angle_alpha   90.00000000
_cell_angle_beta   93.25461223
_cell_angle_gamma   90.00000000
_symmetry_Int_Tables_number   1
_chemical_formula_structural   Li2Cr3Si3O10
_chemical_formula_sum   'Li8 Cr12 Si12 O40'
_cell_volume   829.96847415
_cell_formula_units_Z   4
loop_
 _symmetry_equiv_pos_site_id
 _symmetry_equiv_pos_as_xyz
  1  'x, y, z'
loop_
 _atom_site_type_symbol
 _atom_site_label
 _atom_site_symmetry_multiplicity
 _atom_site_fract_x
 _atom_site_fract_y
 _atom_site_fract_z
 _atom_site_occupancy
  Li  Li0  1  0.55261550  0.28208750  0.47268900  1
  Li  Li1  1  0.55261550  0.71791250  0.97268900  1
  Li  Li2  1  0.94738450  0.78208750  0.02731100  1
  Li  Li3  1  0.94738450  0.21791250  0.52731100  1
  Li  Li4  1  0.05261550  0.78208750  0.47268900  1
  Li  Li5  1  0.05261550  0.21791250  0.97268900  1
  Li  Li6  1  0.44738450  0.28208750  0.02731100  1
  Li  Li7  1  0.44738450  0.71791250  0.52731100  1
  Cr  Cr8  1  0.65162100  0.27215000  0.21205400  1
  Cr  Cr9  1  0.65162100  0.72785000  0.71205400  1
  Cr  Cr10  1  0.75000000  0.25000000  0.50000000  1
  Cr  Cr11  1  0.75000000  0.75000000  0.00000000  1
  Cr  Cr12  1  0.84837900  0.77215000  0.28794600  1
  Cr  Cr13  1  0.84837900  0.22785000  0.78794600  1
  Cr  Cr14  1  0.15162100  0.77215000  0.21205400  1
  Cr  Cr15  1  0.15162100  0.22785000  0.71205400  1
  Cr  Cr16  1  0.25000000  0.75000000  0.50000000  1
  Cr  Cr17  1  0.25000000  0.25000000  0.00000000  1
  Cr  Cr18  1  0.34837900  0.27215000  0.28794600  1
  Cr  Cr19  1  0.34837900  0.72785000  0.78794600  1
  Si  Si20  1  0.65091800  0.80031800  0.39918500  1
  Si  Si21  1  0.65091800  0.19968200  0.89918500  1
  Si  Si22  1  0.84908200  0.30031800  0.10081500  1
  Si  Si23  1  0.84908200  0.69968200  0.60081500  1
  Si  Si24  1  0.00000000  0.17832500  0.25000000  1
  Si  Si25  1  0.00000000  0.82167500  0.75000000  1
  Si  Si26  1  0.15091800  0.30031800  0.39918500  1
  Si  Si27  1  0.15091800  0.69968200  0.89918500  1
  Si  Si28  1  0.34908200  0.80031800  0.10081500  1
  Si  Si29  1  0.34908200  0.19968200  0.60081500  1
  Si  Si30  1  0.50000000  0.67832500  0.25000000  1
  Si  Si31  1  0.50000000  0.32167500  0.75000000  1
  O  O32  1  0.54714850  0.50204550  0.14469500  1
  O  O33  1  0.55723400  0.89312800  0.34042700  1
  O  O34  1  0.54714850  0.49795450  0.64469500  1
  O  O35  1  0.55723400  0.10687200  0.84042700  1
  O  O36  1  0.65198400  0.46347200  0.39783500  1
  O  O37  1  0.65801500  0.05081600  0.04305300  1
  O  O38  1  0.65198400  0.53652800  0.89783500  1
  O  O39  1  0.65801500  0.94918400  0.54305300  1
  O  O40  1  0.71672050  0.95380350  0.31314800  1
  O  O41  1  0.71672050  0.04619650  0.81314800  1
  O  O42  1  0.78327950  0.45380350  0.18685200  1
  O  O43  1  0.78327950  0.54619650  0.68685200  1
  O  O44  1  0.84198500  0.55081600  0.45694700  1
  O  O45  1  0.84801600  0.96347200  0.10216500  1
  O  O46  1  0.84198500  0.44918400  0.95694700  1
  O  O47  1  0.84801600  0.03652800  0.60216500  1
  O  O48  1  0.94276600  0.39312800  0.15957300  1
  O  O49  1  0.95285150  0.00204550  0.35530500  1
  O  O50  1  0.94276600  0.60687200  0.65957300  1
  O  O51  1  0.95285150  0.99795450  0.85530500  1
  O  O52  1  0.04714850  0.00204550  0.14469500  1
  O  O53  1  0.05723400  0.39312800  0.34042700  1
  O  O54  1  0.04714850  0.99795450  0.64469500  1
  O  O55  1  0.05723400  0.60687200  0.84042700  1
  O  O56  1  0.15198400  0.96347200  0.39783500  1
  O  O57  1  0.15801500  0.55081600  0.04305300  1
  O  O58  1  0.15198400  0.03652800  0.89783500  1
  O  O59  1  0.15801500  0.44918400  0.54305300  1
  O  O60  1  0.21672050  0.45380350  0.31314800  1
  O  O61  1  0.21672050  0.54619650  0.81314800  1
  O  O62  1  0.28327950  0.95380350  0.18685200  1
  O  O63  1  0.28327950  0.04619650  0.68685200  1
  O  O64  1  0.34198500  0.05081600  0.45694700  1
  O  O65  1  0.34801600  0.46347200  0.10216500  1
  O  O66  1  0.34198500  0.94918400  0.95694700  1
  O  O67  1  0.34801600  0.53652800  0.60216500  1
  O  O68  1  0.44276600  0.89312800  0.15957300  1
  O  O69  1  0.45285150  0.50204550  0.35530500  1
  O  O70  1  0.44276600  0.10687200  0.65957300  1
  O  O71  1  0.45285150  0.49795450  0.85530500  1
