# generated using pymatgen
data_Cd(NiO2)2
_symmetry_space_group_name_H-M   'P 1'
_cell_length_a   5.83368950
_cell_length_b   5.83368950
_cell_length_c   9.39896600
_cell_angle_alpha   90.00000000
_cell_angle_beta   90.00000000
_cell_angle_gamma   90.00000000
_symmetry_Int_Tables_number   1
_chemical_formula_structural   Cd(NiO2)2
_chemical_formula_sum   'Cd4 Ni8 O16'
_cell_volume   319.86498294
_cell_formula_units_Z   4
loop_
 _symmetry_equiv_pos_site_id
 _symmetry_equiv_pos_as_xyz
  1  'x, y, z'
loop_
 _atom_site_type_symbol
 _atom_site_label
 _atom_site_symmetry_multiplicity
 _atom_site_fract_x
 _atom_site_fract_y
 _atom_site_fract_z
 _atom_site_occupancy
  Cd  Cd0  1  0.00000000  0.00000000  0.00000000  1
  Cd  Cd1  1  0.00000000  0.50000000  0.25000000  1
  Cd  Cd2  1  0.50000000  0.50000000  0.50000000  1
  Cd  Cd3  1  0.50000000  0.00000000  0.75000000  1
  Ni  Ni4  1  0.50000000  0.25000000  0.12500000  1
  Ni  Ni5  1  0.50000000  0.75000000  0.12500000  1
  Ni  Ni6  1  0.75000000  0.00000000  0.37500000  1
  Ni  Ni7  1  0.25000000  0.00000000  0.37500000  1
  Ni  Ni8  1  0.00000000  0.75000000  0.62500000  1
  Ni  Ni9  1  0.00000000  0.25000000  0.62500000  1
  Ni  Ni10  1  0.25000000  0.50000000  0.87500000  1
  Ni  Ni11  1  0.75000000  0.50000000  0.87500000  1
  O  O12  1  0.28572200  0.00000000  0.14621150  1
  O  O13  1  0.28572200  0.50000000  0.10378850  1
  O  O14  1  0.50000000  0.21427800  0.35378850  1
  O  O15  1  0.50000000  0.78572200  0.35378850  1
  O  O16  1  0.71427800  0.50000000  0.10378850  1
  O  O17  1  0.71427800  0.00000000  0.14621150  1
  O  O18  1  0.00000000  0.78572200  0.39621150  1
  O  O19  1  0.00000000  0.21427800  0.39621150  1
  O  O20  1  0.78572200  0.50000000  0.64621150  1
  O  O21  1  0.78572200  0.00000000  0.60378850  1
  O  O22  1  0.00000000  0.71427800  0.85378850  1
  O  O23  1  0.00000000  0.28572200  0.85378850  1
  O  O24  1  0.21427800  0.00000000  0.60378850  1
  O  O25  1  0.21427800  0.50000000  0.64621150  1
  O  O26  1  0.50000000  0.28572200  0.89621150  1
  O  O27  1  0.50000000  0.71427800  0.89621150  1
