# generated using pymatgen
data_Li2MnCo3O8
_symmetry_space_group_name_H-M   'P 1'
_cell_length_a   9.83893016
_cell_length_b   5.79233536
_cell_length_c   5.96739312
_cell_angle_alpha   90.00000000
_cell_angle_beta   124.18968163
_cell_angle_gamma   90.00000000
_symmetry_Int_Tables_number   1
_chemical_formula_structural   Li2MnCo3O8
_chemical_formula_sum   'Li4 Mn2 Co6 O16'
_cell_volume   281.31130702
_cell_formula_units_Z   2
loop_
 _symmetry_equiv_pos_site_id
 _symmetry_equiv_pos_as_xyz
  1  'x, y, z'
loop_
 _atom_site_type_symbol
 _atom_site_label
 _atom_site_symmetry_multiplicity
 _atom_site_fract_x
 _atom_site_fract_y
 _atom_site_fract_z
 _atom_site_occupancy
  Li  Li0  1  0.50000000  0.00000000  0.00000000  1
  Li  Li1  1  0.50000000  0.50000000  0.00000000  1
  Li  Li2  1  0.00000000  0.50000000  0.00000000  1
  Li  Li3  1  0.00000000  0.00000000  0.00000000  1
  Mn  Mn4  1  0.50000000  0.50000000  0.50000000  1
  Mn  Mn5  1  0.00000000  0.00000000  0.50000000  1
  Co  Co6  1  0.00000000  0.50000000  0.50000000  1
  Co  Co7  1  0.75000000  0.75000000  0.50000000  1
  Co  Co8  1  0.75000000  0.25000000  0.50000000  1
  Co  Co9  1  0.50000000  0.00000000  0.50000000  1
  Co  Co10  1  0.25000000  0.25000000  0.50000000  1
  Co  Co11  1  0.25000000  0.75000000  0.50000000  1
  O  O12  1  0.98589200  0.76152500  0.71530600  1
  O  O13  1  0.98589200  0.23847500  0.71530600  1
  O  O14  1  0.26177850  0.00000000  0.30392200  1
  O  O15  1  0.73822550  0.50000000  0.70075100  1
  O  O16  1  0.76177450  0.00000000  0.29924900  1
  O  O17  1  0.23822150  0.50000000  0.69607800  1
  O  O18  1  0.51410800  0.26152500  0.28469400  1
  O  O19  1  0.51410800  0.73847500  0.28469400  1
  O  O20  1  0.48589200  0.26152500  0.71530600  1
  O  O21  1  0.48589200  0.73847500  0.71530600  1
  O  O22  1  0.76177850  0.50000000  0.30392200  1
  O  O23  1  0.23822550  0.00000000  0.70075100  1
  O  O24  1  0.26177450  0.50000000  0.29924900  1
  O  O25  1  0.73822150  0.00000000  0.69607800  1
  O  O26  1  0.01410800  0.76152500  0.28469400  1
  O  O27  1  0.01410800  0.23847500  0.28469400  1
