# generated using pymatgen
data_NbFe5(PO4)6
_symmetry_space_group_name_H-M   'P 1'
_cell_length_a   8.71775019
_cell_length_b   8.71775019
_cell_length_c   20.86855888
_cell_angle_alpha   90.00000000
_cell_angle_beta   90.00000000
_cell_angle_gamma   120.00000000
_symmetry_Int_Tables_number   1
_chemical_formula_structural   NbFe5(PO4)6
_chemical_formula_sum   'Nb3 Fe15 P18 O72'
_cell_volume   1373.51033175
_cell_formula_units_Z   3
loop_
 _symmetry_equiv_pos_site_id
 _symmetry_equiv_pos_as_xyz
  1  'x, y, z'
loop_
 _atom_site_type_symbol
 _atom_site_label
 _atom_site_symmetry_multiplicity
 _atom_site_fract_x
 _atom_site_fract_y
 _atom_site_fract_z
 _atom_site_occupancy
  Nb  Nb0  1  0.33333333  0.66666667  0.52450167  1
  Nb  Nb1  1  0.00000000  0.00000000  0.85783500  1
  Nb  Nb2  1  0.66666667  0.33333333  0.19116833  1
  Fe  Fe3  1  0.33333333  0.66666667  0.67110167  1
  Fe  Fe4  1  0.33333333  0.66666667  0.02348967  1
  Fe  Fe5  1  0.33333333  0.66666667  0.16742167  1
  Fe  Fe6  1  0.33333333  0.66666667  0.81204267  1
  Fe  Fe7  1  0.33333333  0.66666667  0.30947667  1
  Fe  Fe8  1  0.00000000  0.00000000  0.00443500  1
  Fe  Fe9  1  0.00000000  0.00000000  0.35682300  1
  Fe  Fe10  1  0.00000000  0.00000000  0.50075500  1
  Fe  Fe11  1  0.00000000  0.00000000  0.14537600  1
  Fe  Fe12  1  0.00000000  0.00000000  0.64281000  1
  Fe  Fe13  1  0.66666667  0.33333333  0.33776833  1
  Fe  Fe14  1  0.66666667  0.33333333  0.69015633  1
  Fe  Fe15  1  0.66666667  0.33333333  0.83408833  1
  Fe  Fe16  1  0.66666667  0.33333333  0.47870933  1
  Fe  Fe17  1  0.66666667  0.33333333  0.97614333  1
  P  P18  1  0.66588233  0.63018067  0.08089367  1
  P  P19  1  0.96429833  0.33411767  0.08089367  1
  P  P20  1  0.36981933  0.03570167  0.08089367  1
  P  P21  1  0.28810167  0.29349733  0.25022533  1
  P  P22  1  0.70650267  0.99460433  0.25022533  1
  P  P23  1  0.00539567  0.71189833  0.25022533  1
  P  P24  1  0.33254900  0.96351400  0.41422700  1
  P  P25  1  0.63096500  0.66745100  0.41422700  1
  P  P26  1  0.03648600  0.36903500  0.41422700  1
  P  P27  1  0.95476833  0.62683067  0.58355867  1
  P  P28  1  0.37316933  0.32793767  0.58355867  1
  P  P29  1  0.67206233  0.04523167  0.58355867  1
  P  P30  1  0.99921567  0.29684733  0.74756033  1
  P  P31  1  0.29763167  0.00078433  0.74756033  1
  P  P32  1  0.70315267  0.70236833  0.74756033  1
  P  P33  1  0.62143500  0.96016400  0.91689200  1
  P  P34  1  0.03983600  0.66127100  0.91689200  1
  P  P35  1  0.33872900  0.37856500  0.91689200  1
  O  O36  1  0.53313133  0.67441367  0.35546567  1
  O  O37  1  0.14128233  0.46686867  0.35546567  1
  O  O38  1  0.32558633  0.85871767  0.35546567  1
  O  O39  1  0.83264667  0.81635833  0.07656633  1
  O  O40  1  0.34289533  0.86033067  0.47517767  1
  O  O41  1  0.49923233  0.64663167  0.09249167  1
  O  O42  1  0.98371167  0.16735333  0.07656633  1
  O  O43  1  0.14739933  0.50076767  0.09249167  1
  O  O44  1  0.20016833  0.19132467  0.18931867  1
  O  O45  1  0.35336833  0.85260067  0.09249167  1
  O  O46  1  0.48287100  0.31944600  0.25654100  1
  O  O47  1  0.80867533  0.00884367  0.18931867  1
  O  O48  1  0.51743533  0.65710467  0.47517767  1
  O  O49  1  0.18364167  0.01628833  0.07656633  1
  O  O50  1  0.31567333  0.48285867  0.24256267  1
  O  O51  1  0.13966933  0.48256467  0.47517767  1
  O  O52  1  0.51714133  0.83281467  0.24256267  1
  O  O53  1  0.68055400  0.16342500  0.25654100  1
  O  O54  1  0.16718533  0.68432667  0.24256267  1
  O  O55  1  0.99115633  0.79983167  0.18931867  1
  O  O56  1  0.83657500  0.51712900  0.25654100  1
  O  O57  1  0.33728600  0.47253700  0.97807900  1
  O  O58  1  0.52746300  0.86474900  0.97807900  1
  O  O59  1  0.13525100  0.66271400  0.97807900  1
  O  O60  1  0.19979800  0.00774700  0.68879900  1
  O  O61  1  0.80794900  0.80020200  0.68879900  1
  O  O62  1  0.99225300  0.19205100  0.68879900  1
  O  O63  1  0.49931333  0.14969167  0.40989967  1
  O  O64  1  0.00956200  0.19366400  0.80851100  1
  O  O65  1  0.16589900  0.97996500  0.42582500  1
  O  O66  1  0.65037833  0.50068667  0.40989967  1
  O  O67  1  0.81406600  0.83410100  0.42582500  1
  O  O68  1  0.86683500  0.52465800  0.52265200  1
  O  O69  1  0.02003500  0.18593400  0.42582500  1
  O  O70  1  0.14953767  0.65277933  0.58987433  1
  O  O71  1  0.47534200  0.34217700  0.52265200  1
  O  O72  1  0.18410200  0.99043800  0.80851100  1
  O  O73  1  0.85030833  0.34962167  0.40989967  1
  O  O74  1  0.98234000  0.81619200  0.57589600  1
  O  O75  1  0.80633600  0.81589800  0.80851100  1
  O  O76  1  0.18380800  0.16614800  0.57589600  1
  O  O77  1  0.34722067  0.49675833  0.58987433  1
  O  O78  1  0.83385200  0.01766000  0.57589600  1
  O  O79  1  0.65782300  0.13316500  0.52265200  1
  O  O80  1  0.50324167  0.85046233  0.58987433  1
  O  O81  1  0.00395267  0.80587033  0.31141233  1
  O  O82  1  0.19412967  0.19808233  0.31141233  1
  O  O83  1  0.80191767  0.99604733  0.31141233  1
  O  O84  1  0.86646467  0.34108033  0.02213233  1
  O  O85  1  0.47461567  0.13353533  0.02213233  1
  O  O86  1  0.65891967  0.52538433  0.02213233  1
  O  O87  1  0.16598000  0.48302500  0.74323300  1
  O  O88  1  0.67622867  0.52699733  0.14184433  1
  O  O89  1  0.83256567  0.31329833  0.75915833  1
  O  O90  1  0.31704500  0.83402000  0.74323300  1
  O  O91  1  0.48073267  0.16743433  0.75915833  1
  O  O92  1  0.53350167  0.85799133  0.85598533  1
  O  O93  1  0.68670167  0.51926733  0.75915833  1
  O  O94  1  0.81620433  0.98611267  0.92320767  1
  O  O95  1  0.14200867  0.67551033  0.85598533  1
  O  O96  1  0.85076867  0.32377133  0.14184433  1
  O  O97  1  0.51697500  0.68295500  0.74323300  1
  O  O98  1  0.64900667  0.14952533  0.90922933  1
  O  O99  1  0.47300267  0.14923133  0.14184433  1
  O  O100  1  0.85047467  0.49948133  0.90922933  1
  O  O101  1  0.01388733  0.83009167  0.92320767  1
  O  O102  1  0.50051867  0.35099333  0.90922933  1
  O  O103  1  0.32448967  0.46649833  0.85598533  1
  O  O104  1  0.16990833  0.18379567  0.92320767  1
  O  O105  1  0.67061933  0.13920367  0.64474567  1
  O  O106  1  0.86079633  0.53141567  0.64474567  1
  O  O107  1  0.46858433  0.32938067  0.64474567  1
