# generated using pymatgen
data_Li2Ni3(P2O7)2
_symmetry_space_group_name_H-M   'P 1'
_cell_length_a   5.51759024
_cell_length_b   6.98092607
_cell_length_c   7.27865976
_cell_angle_alpha   100.27762528
_cell_angle_beta   95.23637805
_cell_angle_gamma   111.95928035
_symmetry_Int_Tables_number   1
_chemical_formula_structural   Li2Ni3(P2O7)2
_chemical_formula_sum   'Li2 Ni3 P4 O14'
_cell_volume   251.98341073
_cell_formula_units_Z   1
loop_
 _symmetry_equiv_pos_site_id
 _symmetry_equiv_pos_as_xyz
  1  'x, y, z'
loop_
 _atom_site_type_symbol
 _atom_site_label
 _atom_site_symmetry_multiplicity
 _atom_site_fract_x
 _atom_site_fract_y
 _atom_site_fract_z
 _atom_site_occupancy
  Li  Li0  1  0.33151350  0.99493200  0.68828750  1
  Li  Li1  1  0.66848650  0.00506800  0.31171250  1
  Ni  Ni2  1  0.00000000  0.00000000  0.00000000  1
  Ni  Ni3  1  0.32988000  0.51242700  0.32645600  1
  Ni  Ni4  1  0.67012000  0.48757300  0.67354400  1
  P  P5  1  0.06009550  0.28005250  0.65285850  1
  P  P6  1  0.93990450  0.71994750  0.34714150  1
  P  P7  1  0.36450950  0.70358350  0.93792650  1
  P  P8  1  0.63549050  0.29641650  0.06207350  1
  O  O9  1  0.61892150  0.73251300  0.85116250  1
  O  O10  1  0.38107850  0.26748700  0.14883750  1
  O  O11  1  0.28916400  0.34494200  0.53765600  1
  O  O12  1  0.71083600  0.65505800  0.46234400  1
  O  O13  1  0.41093550  0.71132850  0.14867750  1
  O  O14  1  0.58906450  0.28867150  0.85132250  1
  O  O15  1  0.02902900  0.08443050  0.72814300  1
  O  O16  1  0.97097100  0.91556950  0.27185700  1
  O  O17  1  0.13940100  0.47097950  0.83893400  1
  O  O18  1  0.86059900  0.52902050  0.16106600  1
  O  O19  1  0.19486150  0.73194400  0.46239950  1
  O  O20  1  0.80513850  0.26805600  0.53760050  1
  O  O21  1  0.76566100  0.14777300  0.10775400  1
  O  O22  1  0.23433900  0.85222700  0.89224600  1
