# generated using pymatgen
data_MnCoO4
_symmetry_space_group_name_H-M   'P 1'
_cell_length_a   5.65386800
_cell_length_b   5.87007400
_cell_length_c   8.06920400
_cell_angle_alpha   90.00000000
_cell_angle_beta   90.00000000
_cell_angle_gamma   90.00000000
_symmetry_Int_Tables_number   1
_chemical_formula_structural   MnCoO4
_chemical_formula_sum   'Mn4 Co4 O16'
_cell_volume   267.80577387
_cell_formula_units_Z   4
loop_
 _symmetry_equiv_pos_site_id
 _symmetry_equiv_pos_as_xyz
  1  'x, y, z'
loop_
 _atom_site_type_symbol
 _atom_site_label
 _atom_site_symmetry_multiplicity
 _atom_site_fract_x
 _atom_site_fract_y
 _atom_site_fract_z
 _atom_site_occupancy
  Mn  Mn0  1  0.50000000  0.00000000  0.00000000  1
  Mn  Mn1  1  0.00000000  0.00000000  0.50000000  1
  Mn  Mn2  1  0.00000000  0.50000000  0.50000000  1
  Mn  Mn3  1  0.50000000  0.50000000  0.00000000  1
  Co  Co4  1  0.25000000  0.75000000  0.25000000  1
  Co  Co5  1  0.75000000  0.75000000  0.25000000  1
  Co  Co6  1  0.75000000  0.25000000  0.75000000  1
  Co  Co7  1  0.25000000  0.25000000  0.75000000  1
  O  O8  1  0.50000000  0.96517700  0.23922600  1
  O  O9  1  0.00000000  0.03482300  0.73922600  1
  O  O10  1  0.22424400  0.25000000  0.51618700  1
  O  O11  1  0.77575600  0.25000000  0.51618700  1
  O  O12  1  0.22424400  0.75000000  0.48381300  1
  O  O13  1  0.77575600  0.75000000  0.48381300  1
  O  O14  1  0.00000000  0.96517700  0.26077400  1
  O  O15  1  0.50000000  0.03482300  0.76077400  1
  O  O16  1  0.00000000  0.46517700  0.73922600  1
  O  O17  1  0.50000000  0.53482300  0.23922600  1
  O  O18  1  0.72424400  0.75000000  0.01618700  1
  O  O19  1  0.27575600  0.75000000  0.01618700  1
  O  O20  1  0.72424400  0.25000000  0.98381300  1
  O  O21  1  0.27575600  0.25000000  0.98381300  1
  O  O22  1  0.50000000  0.46517700  0.76077400  1
  O  O23  1  0.00000000  0.53482300  0.26077400  1
