# generated using pymatgen
data_Li10Si2NiO10
_symmetry_space_group_name_H-M   'P 1'
_cell_length_a   30.07063000
_cell_length_b   6.11448000
_cell_length_c   5.19333398
_cell_angle_alpha   90.00000000
_cell_angle_beta   99.59707067
_cell_angle_gamma   90.00000000
_symmetry_Int_Tables_number   1
_chemical_formula_structural   Li10Si2NiO10
_chemical_formula_sum   'Li40 Si8 Ni4 O40'
_cell_volume   941.51497744
_cell_formula_units_Z   4
loop_
 _symmetry_equiv_pos_site_id
 _symmetry_equiv_pos_as_xyz
  1  'x, y, z'
loop_
 _atom_site_type_symbol
 _atom_site_label
 _atom_site_symmetry_multiplicity
 _atom_site_fract_x
 _atom_site_fract_y
 _atom_site_fract_z
 _atom_site_occupancy
  Li  Li0  1  0.00929500  0.50000000  0.26039000  1
  Li  Li1  1  0.06693150  0.70883950  0.89742500  1
  Li  Li2  1  0.06693150  0.29116050  0.89742500  1
  Li  Li3  1  0.13244300  0.00000000  0.78009500  1
  Li  Li4  1  0.13138050  0.78339250  0.24107800  1
  Li  Li5  1  0.13138050  0.21660750  0.24107800  1
  Li  Li6  1  0.17551400  0.50000000  0.93057500  1
  Li  Li7  1  0.19496100  0.75722600  0.60122000  1
  Li  Li8  1  0.19496100  0.24277400  0.60122000  1
  Li  Li9  1  0.23050600  0.50000000  0.32414100  1
  Li  Li10  1  0.26949400  0.00000000  0.67585900  1
  Li  Li11  1  0.30503900  0.74277400  0.39878000  1
  Li  Li12  1  0.30503900  0.25722600  0.39878000  1
  Li  Li13  1  0.32448600  0.00000000  0.06942500  1
  Li  Li14  1  0.36861950  0.28339250  0.75892200  1
  Li  Li15  1  0.36861950  0.71660750  0.75892200  1
  Li  Li16  1  0.36755700  0.50000000  0.21990500  1
  Li  Li17  1  0.43306850  0.79116050  0.10257500  1
  Li  Li18  1  0.43306850  0.20883950  0.10257500  1
  Li  Li19  1  0.49070500  0.00000000  0.73961000  1
  Li  Li20  1  0.50929500  0.00000000  0.26039000  1
  Li  Li21  1  0.56693150  0.20883950  0.89742500  1
  Li  Li22  1  0.56693150  0.79116050  0.89742500  1
  Li  Li23  1  0.63244300  0.50000000  0.78009500  1
  Li  Li24  1  0.63138050  0.28339250  0.24107800  1
  Li  Li25  1  0.63138050  0.71660750  0.24107800  1
  Li  Li26  1  0.67551400  0.00000000  0.93057500  1
  Li  Li27  1  0.69496100  0.25722600  0.60122000  1
  Li  Li28  1  0.69496100  0.74277400  0.60122000  1
  Li  Li29  1  0.73050600  0.00000000  0.32414100  1
  Li  Li30  1  0.76949400  0.50000000  0.67585900  1
  Li  Li31  1  0.80503900  0.24277400  0.39878000  1
  Li  Li32  1  0.80503900  0.75722600  0.39878000  1
  Li  Li33  1  0.82448600  0.50000000  0.06942500  1
  Li  Li34  1  0.86861950  0.78339250  0.75892200  1
  Li  Li35  1  0.86861950  0.21660750  0.75892200  1
  Li  Li36  1  0.86755700  0.00000000  0.21990500  1
  Li  Li37  1  0.93306850  0.29116050  0.10257500  1
  Li  Li38  1  0.93306850  0.70883950  0.10257500  1
  Li  Li39  1  0.99070500  0.50000000  0.73961000  1
  Si  Si40  1  0.10012700  0.50000000  0.50923100  1
  Si  Si41  1  0.21896500  0.00000000  0.12949700  1
  Si  Si42  1  0.28103500  0.50000000  0.87050300  1
  Si  Si43  1  0.39987300  0.00000000  0.49076900  1
  Si  Si44  1  0.60012700  0.00000000  0.50923100  1
  Si  Si45  1  0.71896500  0.50000000  0.12949700  1
  Si  Si46  1  0.78103500  0.00000000  0.87050300  1
  Si  Si47  1  0.89987300  0.50000000  0.49076900  1
  Ni  Ni48  1  0.03773700  0.00000000  0.15718900  1
  Ni  Ni49  1  0.46226300  0.50000000  0.84281100  1
  Ni  Ni50  1  0.53773700  0.50000000  0.15718900  1
  Ni  Ni51  1  0.96226300  0.00000000  0.84281100  1
  O  O52  1  0.05043100  0.50000000  0.60440000  1
  O  O53  1  0.09334000  0.00000000  0.04892600  1
  O  O54  1  0.09487900  0.50000000  0.18537900  1
  O  O55  1  0.12945150  0.71591650  0.62366100  1
  O  O56  1  0.12945150  0.28408350  0.62366100  1
  O  O57  1  0.19357600  0.77498300  0.21750300  1
  O  O58  1  0.19357600  0.22501700  0.21750300  1
  O  O59  1  0.21351600  0.00000000  0.80930100  1
  O  O60  1  0.22833300  0.50000000  0.71850400  1
  O  O61  1  0.27166700  0.00000000  0.28149600  1
  O  O62  1  0.28648400  0.50000000  0.19069900  1
  O  O63  1  0.30642400  0.72501700  0.78249700  1
  O  O64  1  0.30642400  0.27498300  0.78249700  1
  O  O65  1  0.37054850  0.21591650  0.37633900  1
  O  O66  1  0.37054850  0.78408350  0.37633900  1
  O  O67  1  0.40512100  0.00000000  0.81462100  1
  O  O68  1  0.40666000  0.50000000  0.95107400  1
  O  O69  1  0.44956900  0.00000000  0.39560000  1
  O  O70  1  0.00000000  0.76084600  0.00000000  1
  O  O71  1  0.00000000  0.23915400  0.00000000  1
  O  O72  1  0.55043100  0.00000000  0.60440000  1
  O  O73  1  0.59334000  0.50000000  0.04892600  1
  O  O74  1  0.59487900  0.00000000  0.18537900  1
  O  O75  1  0.62945150  0.21591650  0.62366100  1
  O  O76  1  0.62945150  0.78408350  0.62366100  1
  O  O77  1  0.69357600  0.27498300  0.21750300  1
  O  O78  1  0.69357600  0.72501700  0.21750300  1
  O  O79  1  0.71351600  0.50000000  0.80930100  1
  O  O80  1  0.72833300  0.00000000  0.71850400  1
  O  O81  1  0.77166700  0.50000000  0.28149600  1
  O  O82  1  0.78648400  0.00000000  0.19069900  1
  O  O83  1  0.80642400  0.22501700  0.78249700  1
  O  O84  1  0.80642400  0.77498300  0.78249700  1
  O  O85  1  0.87054850  0.71591650  0.37633900  1
  O  O86  1  0.87054850  0.28408350  0.37633900  1
  O  O87  1  0.90512100  0.50000000  0.81462100  1
  O  O88  1  0.90666000  0.00000000  0.95107400  1
  O  O89  1  0.94956900  0.50000000  0.39560000  1
  O  O90  1  0.50000000  0.26084600  0.00000000  1
  O  O91  1  0.50000000  0.73915400  0.00000000  1
