# generated using pymatgen
data_LiFeSiO4
_symmetry_space_group_name_H-M   'P 1'
_cell_length_a   9.79597600
_cell_length_b   4.90093400
_cell_length_c   9.10939103
_cell_angle_alpha   90.00000000
_cell_angle_beta   120.09769968
_cell_angle_gamma   90.00000000
_symmetry_Int_Tables_number   1
_chemical_formula_structural   LiFeSiO4
_chemical_formula_sum   'Li4 Fe4 Si4 O16'
_cell_volume   378.37126210
_cell_formula_units_Z   4
loop_
 _symmetry_equiv_pos_site_id
 _symmetry_equiv_pos_as_xyz
  1  'x, y, z'
loop_
 _atom_site_type_symbol
 _atom_site_label
 _atom_site_symmetry_multiplicity
 _atom_site_fract_x
 _atom_site_fract_y
 _atom_site_fract_z
 _atom_site_occupancy
  Li  Li0  1  0.85817550  0.60569550  0.86739100  1
  Li  Li1  1  0.35817550  0.89430450  0.36739100  1
  Li  Li2  1  0.35817550  0.10569550  0.86739100  1
  Li  Li3  1  0.85817550  0.39430450  0.36739100  1
  Fe  Fe4  1  0.66629400  0.84137500  0.50447400  1
  Fe  Fe5  1  0.16629400  0.65862500  0.00447400  1
  Fe  Fe6  1  0.16629400  0.34137500  0.50447400  1
  Fe  Fe7  1  0.66629400  0.15862500  0.00447400  1
  Si  Si8  1  0.51790600  0.62711900  0.74721400  1
  Si  Si9  1  0.51790600  0.37288100  0.24721400  1
  Si  Si10  1  0.01790600  0.12711900  0.74721400  1
  Si  Si11  1  0.01790600  0.87288100  0.24721400  1
  O  O12  1  0.35864900  0.44486900  0.69358700  1
  O  O13  1  0.67967700  0.45254300  0.87484900  1
  O  O14  1  0.51908300  0.90300800  0.84975100  1
  O  O15  1  0.52637600  0.71349700  0.57763400  1
  O  O16  1  0.35864900  0.55513100  0.19358700  1
  O  O17  1  0.67967700  0.54745700  0.37484900  1
  O  O18  1  0.51908300  0.09699200  0.34975100  1
  O  O19  1  0.52637600  0.28650300  0.07763400  1
  O  O20  1  0.85864900  0.94486900  0.69358700  1
  O  O21  1  0.17967700  0.95254300  0.87484900  1
  O  O22  1  0.01908300  0.40300800  0.84975100  1
  O  O23  1  0.02637600  0.21349700  0.57763400  1
  O  O24  1  0.85864900  0.05513100  0.19358700  1
  O  O25  1  0.17967700  0.04745700  0.37484900  1
  O  O26  1  0.01908300  0.59699200  0.34975100  1
  O  O27  1  0.02637600  0.78650300  0.07763400  1
