# generated using pymatgen
data_Li2Mn3O6
_symmetry_space_group_name_H-M   'P 1'
_cell_length_a   9.14040200
_cell_length_b   5.02231400
_cell_length_c   10.83270831
_cell_angle_alpha   90.00000000
_cell_angle_beta   111.62276822
_cell_angle_gamma   90.00000000
_symmetry_Int_Tables_number   1
_chemical_formula_structural   Li2Mn3O6
_chemical_formula_sum   'Li8 Mn12 O24'
_cell_volume   462.29202039
_cell_formula_units_Z   4
loop_
 _symmetry_equiv_pos_site_id
 _symmetry_equiv_pos_as_xyz
  1  'x, y, z'
loop_
 _atom_site_type_symbol
 _atom_site_label
 _atom_site_symmetry_multiplicity
 _atom_site_fract_x
 _atom_site_fract_y
 _atom_site_fract_z
 _atom_site_occupancy
  Li  Li0  1  0.82040150  0.58657150  0.75833800  1
  Li  Li1  1  0.65122600  0.07112900  0.75995800  1
  Li  Li2  1  0.32040150  0.91342850  0.25833800  1
  Li  Li3  1  0.15122600  0.42887100  0.25995800  1
  Li  Li4  1  0.32040150  0.08657150  0.75833800  1
  Li  Li5  1  0.15122600  0.57112900  0.75995800  1
  Li  Li6  1  0.82040150  0.41342850  0.25833800  1
  Li  Li7  1  0.65122600  0.92887100  0.25995800  1
  Mn  Mn8  1  0.75465750  0.42356950  0.99704400  1
  Mn  Mn9  1  0.25465750  0.07643050  0.49704400  1
  Mn  Mn10  1  0.42568100  0.42309300  0.01078700  1
  Mn  Mn11  1  0.59027700  0.07606100  0.49418200  1
  Mn  Mn12  1  0.42568100  0.57690700  0.51078700  1
  Mn  Mn13  1  0.59027700  0.92393900  0.99418200  1
  Mn  Mn14  1  0.25465750  0.92356950  0.99704400  1
  Mn  Mn15  1  0.75465750  0.57643050  0.49704400  1
  Mn  Mn16  1  0.92568100  0.92309300  0.01078700  1
  Mn  Mn17  1  0.09027700  0.57606100  0.49418200  1
  Mn  Mn18  1  0.92568100  0.07690700  0.51078700  1
  Mn  Mn19  1  0.09027700  0.42393900  0.99418200  1
  O  O20  1  0.73203150  0.74918850  0.89244000  1
  O  O21  1  0.55884500  0.76293800  0.38772600  1
  O  O22  1  0.63662250  0.40564650  0.59749900  1
  O  O23  1  0.13662250  0.09435350  0.09749900  1
  O  O24  1  0.87059150  0.25606750  0.90069500  1
  O  O25  1  0.45309950  0.08830150  0.10851700  1
  O  O26  1  0.23203150  0.75081150  0.39244000  1
  O  O27  1  0.45309950  0.91169850  0.60851700  1
  O  O28  1  0.78330800  0.88109700  0.60974600  1
  O  O29  1  0.28330800  0.61890300  0.10974600  1
  O  O30  1  0.55884500  0.23706200  0.88772600  1
  O  O31  1  0.37059150  0.24393250  0.40069500  1
  O  O32  1  0.23203150  0.24918850  0.89244000  1
  O  O33  1  0.05884500  0.26293800  0.38772600  1
  O  O34  1  0.13662250  0.90564650  0.59749900  1
  O  O35  1  0.63662250  0.59435350  0.09749900  1
  O  O36  1  0.37059150  0.75606750  0.90069500  1
  O  O37  1  0.95309950  0.58830150  0.10851700  1
  O  O38  1  0.73203150  0.25081150  0.39244000  1
  O  O39  1  0.95309950  0.41169850  0.60851700  1
  O  O40  1  0.28330800  0.38109700  0.60974600  1
  O  O41  1  0.78330800  0.11890300  0.10974600  1
  O  O42  1  0.05884500  0.73706200  0.88772600  1
  O  O43  1  0.87059150  0.74393250  0.40069500  1
