# generated using pymatgen
data_VSb3(PO4)6
_symmetry_space_group_name_H-M   'P 1'
_cell_length_a   8.66276586
_cell_length_b   8.66276586
_cell_length_c   22.11716316
_cell_angle_alpha   90.00000000
_cell_angle_beta   90.00000000
_cell_angle_gamma   120.00000000
_symmetry_Int_Tables_number   1
_chemical_formula_structural   VSb3(PO4)6
_chemical_formula_sum   'V3 Sb9 P18 O72'
_cell_volume   1437.38532222
_cell_formula_units_Z   3
loop_
 _symmetry_equiv_pos_site_id
 _symmetry_equiv_pos_as_xyz
  1  'x, y, z'
loop_
 _atom_site_type_symbol
 _atom_site_label
 _atom_site_symmetry_multiplicity
 _atom_site_fract_x
 _atom_site_fract_y
 _atom_site_fract_z
 _atom_site_occupancy
  V  V0  1  0.00000000  0.00000000  0.14182600  1
  V  V1  1  0.66666667  0.33333333  0.47515933  1
  V  V2  1  0.33333333  0.66666667  0.80849267  1
  Sb  Sb3  1  0.66666667  0.33333333  0.19006333  1
  Sb  Sb4  1  0.33333333  0.66666667  0.30993767  1
  Sb  Sb5  1  0.33333333  0.66666667  0.02243767  1
  Sb  Sb6  1  0.33333333  0.66666667  0.52339667  1
  Sb  Sb7  1  0.00000000  0.00000000  0.64327100  1
  Sb  Sb8  1  0.00000000  0.00000000  0.35577100  1
  Sb  Sb9  1  0.00000000  0.00000000  0.85673000  1
  Sb  Sb10  1  0.66666667  0.33333333  0.97660433  1
  Sb  Sb11  1  0.66666667  0.33333333  0.68910433  1
  P  P12  1  0.28644233  0.99998767  0.24868667  1
  P  P13  1  0.00001233  0.28645467  0.24868667  1
  P  P14  1  0.71354533  0.71355767  0.24868667  1
  P  P15  1  0.95558400  0.62262900  0.08323200  1
  P  P16  1  0.66704500  0.04441600  0.08323200  1
  P  P17  1  0.37737100  0.33295500  0.08323200  1
  P  P18  1  0.95310900  0.33332100  0.58202000  1
  P  P19  1  0.66667900  0.61978800  0.58202000  1
  P  P20  1  0.38021200  0.04689100  0.58202000  1
  P  P21  1  0.62225067  0.95596233  0.41656533  1
  P  P22  1  0.33371167  0.37774933  0.41656533  1
  P  P23  1  0.04403767  0.66628833  0.41656533  1
  P  P24  1  0.61977567  0.66665433  0.91535333  1
  P  P25  1  0.33334567  0.95312133  0.91535333  1
  P  P26  1  0.04687867  0.38022433  0.91535333  1
  P  P27  1  0.28891733  0.28929567  0.74989867  1
  P  P28  1  0.00037833  0.71108267  0.74989867  1
  P  P29  1  0.71070433  0.99962167  0.74989867  1
  O  O30  1  0.46373367  0.30576733  0.02541233  1
  O  O31  1  0.84203367  0.53626633  0.02541233  1
  O  O32  1  0.47573600  0.16810000  0.24564400  1
  O  O33  1  0.69423267  0.15796633  0.02541233  1
  O  O34  1  0.30805200  0.83290400  0.25568900  1
  O  O35  1  0.17426600  0.97144300  0.19355300  1
  O  O36  1  0.83190000  0.30763600  0.24564400  1
  O  O37  1  0.16709600  0.47514800  0.25568900  1
  O  O38  1  0.52485200  0.69194800  0.25568900  1
  O  O39  1  0.87402800  0.50179100  0.14002100  1
  O  O40  1  0.97196400  0.80281900  0.08923100  1
  O  O41  1  0.62776300  0.12597200  0.14002100  1
  O  O42  1  0.02855700  0.20282300  0.19355300  1
  O  O43  1  0.69236400  0.52426400  0.24564400  1
  O  O44  1  0.79717700  0.82573400  0.19355300  1
  O  O45  1  0.13900233  0.63232367  0.07768767  1
  O  O46  1  0.49332133  0.86099767  0.07768767  1
  O  O47  1  0.83085500  0.02803600  0.08923100  1
  O  O48  1  0.49820900  0.37223700  0.14002100  1
  O  O49  1  0.36767633  0.50667867  0.07768767  1
  O  O50  1  0.96720733  0.17737467  0.30830967  1
  O  O51  1  0.19718100  0.16914500  0.08923100  1
  O  O52  1  0.82262533  0.78983267  0.30830967  1
  O  O53  1  0.21016733  0.03279267  0.30830967  1
  O  O54  1  0.13040033  0.63910067  0.35874567  1
  O  O55  1  0.50870033  0.86959967  0.35874567  1
  O  O56  1  0.14240267  0.50143333  0.57897733  1
  O  O57  1  0.36089933  0.49129967  0.35874567  1
  O  O58  1  0.97471867  0.16623733  0.58902233  1
  O  O59  1  0.84093267  0.30477633  0.52688633  1
  O  O60  1  0.49856667  0.64096933  0.57897733  1
  O  O61  1  0.83376267  0.80848133  0.58902233  1
  O  O62  1  0.19151867  0.02528133  0.58902233  1
  O  O63  1  0.54069467  0.83512433  0.47335433  1
  O  O64  1  0.63863067  0.13615233  0.42256433  1
  O  O65  1  0.29442967  0.45930533  0.47335433  1
  O  O66  1  0.69522367  0.53615633  0.52688633  1
  O  O67  1  0.35903067  0.85759733  0.57897733  1
  O  O68  1  0.46384367  0.15906733  0.52688633  1
  O  O69  1  0.80566900  0.96565700  0.41102100  1
  O  O70  1  0.15998800  0.19433100  0.41102100  1
  O  O71  1  0.49752167  0.36136933  0.42256433  1
  O  O72  1  0.16487567  0.70557033  0.47335433  1
  O  O73  1  0.03434300  0.84001200  0.41102100  1
  O  O74  1  0.63387400  0.51070800  0.64164300  1
  O  O75  1  0.86384767  0.50247833  0.42256433  1
  O  O76  1  0.48929200  0.12316600  0.64164300  1
  O  O77  1  0.87683400  0.36612600  0.64164300  1
  O  O78  1  0.79706700  0.97243400  0.69207900  1
  O  O79  1  0.17536700  0.20293300  0.69207900  1
  O  O80  1  0.80906933  0.83476667  0.91231067  1
  O  O81  1  0.02756600  0.82463300  0.69207900  1
  O  O82  1  0.64138533  0.49957067  0.92235567  1
  O  O83  1  0.50759933  0.63810967  0.86021967  1
  O  O84  1  0.16523333  0.97430267  0.91231067  1
  O  O85  1  0.50042933  0.14181467  0.92235567  1
  O  O86  1  0.85818533  0.35861467  0.92235567  1
  O  O87  1  0.20736133  0.16845767  0.80668767  1
  O  O88  1  0.30529733  0.46948567  0.75589767  1
  O  O89  1  0.96109633  0.79263867  0.80668767  1
  O  O90  1  0.36189033  0.86948967  0.86021967  1
  O  O91  1  0.02569733  0.19093067  0.91231067  1
  O  O92  1  0.13051033  0.49240067  0.86021967  1
  O  O93  1  0.47233567  0.29899033  0.74435433  1
  O  O94  1  0.82665467  0.52766433  0.74435433  1
  O  O95  1  0.16418833  0.69470267  0.75589767  1
  O  O96  1  0.83154233  0.03890367  0.80668767  1
  O  O97  1  0.70100967  0.17334533  0.74435433  1
  O  O98  1  0.30054067  0.84404133  0.97497633  1
  O  O99  1  0.53051433  0.83581167  0.75589767  1
  O  O100  1  0.15595867  0.45649933  0.97497633  1
  O  O101  1  0.54350067  0.69945933  0.97497633  1
