# generated using pymatgen
data_Li3FePCO7
_symmetry_space_group_name_H-M   'P 1'
_cell_length_a   4.92737477
_cell_length_b   6.64018942
_cell_length_c   8.84971329
_cell_angle_alpha   101.96131952
_cell_angle_beta   92.38387387
_cell_angle_gamma   90.59382428
_symmetry_Int_Tables_number   1
_chemical_formula_structural   Li3FePCO7
_chemical_formula_sum   'Li6 Fe2 P2 C2 O14'
_cell_volume   282.96578923
_cell_formula_units_Z   2
loop_
 _symmetry_equiv_pos_site_id
 _symmetry_equiv_pos_as_xyz
  1  'x, y, z'
loop_
 _atom_site_type_symbol
 _atom_site_label
 _atom_site_symmetry_multiplicity
 _atom_site_fract_x
 _atom_site_fract_y
 _atom_site_fract_z
 _atom_site_occupancy
  Li  Li0  1  0.65234550  0.34489900  0.07449350  1
  Li  Li1  1  0.34765450  0.65510100  0.92550650  1
  Li  Li2  1  0.26761700  0.00248550  0.22545100  1
  Li  Li3  1  0.73238300  0.99751450  0.77454900  1
  Li  Li4  1  0.28567400  0.41535300  0.30776000  1
  Li  Li5  1  0.71432600  0.58464700  0.69224000  1
  Fe  Fe6  1  0.71242350  0.73275650  0.35635850  1
  Fe  Fe7  1  0.28757650  0.26724350  0.64364150  1
  P  P8  1  0.79697250  0.23493800  0.41601950  1
  P  P9  1  0.20302750  0.76506200  0.58398050  1
  C  C10  1  0.17554950  0.26154900  0.97308950  1
  C  C11  1  0.82445050  0.73845100  0.02691050  1
  O  O12  1  0.65801500  0.65990100  0.11302300  1
  O  O13  1  0.34198500  0.34009900  0.88697700  1
  O  O14  1  0.07301300  0.78188200  0.07083500  1
  O  O15  1  0.92698700  0.21811800  0.92916500  1
  O  O16  1  0.27751800  0.23617800  0.10559800  1
  O  O17  1  0.72248200  0.76382200  0.89440200  1
  O  O18  1  0.65712500  0.03069300  0.33186900  1
  O  O19  1  0.34287500  0.96930700  0.66813100  1
  O  O20  1  0.71049100  0.40515850  0.32657500  1
  O  O21  1  0.28950900  0.59484150  0.67342500  1
  O  O22  1  0.11343300  0.21509450  0.41457700  1
  O  O23  1  0.88656700  0.78490550  0.58542300  1
  O  O24  1  0.28111850  0.70490450  0.41171450  1
  O  O25  1  0.71888150  0.29509550  0.58828550  1
