# generated using pymatgen
data_Mg3Fe3O8
_symmetry_space_group_name_H-M   'P 1'
_cell_length_a   5.98932018
_cell_length_b   5.98932018
_cell_length_c   14.74379545
_cell_angle_alpha   90.00000000
_cell_angle_beta   90.00000000
_cell_angle_gamma   120.00000000
_symmetry_Int_Tables_number   1
_chemical_formula_structural   Mg3Fe3O8
_chemical_formula_sum   'Mg9 Fe9 O24'
_cell_volume   458.03112311
_cell_formula_units_Z   3
loop_
 _symmetry_equiv_pos_site_id
 _symmetry_equiv_pos_as_xyz
  1  'x, y, z'
loop_
 _atom_site_type_symbol
 _atom_site_label
 _atom_site_symmetry_multiplicity
 _atom_site_fract_x
 _atom_site_fract_y
 _atom_site_fract_z
 _atom_site_occupancy
  Mg  Mg0  1  0.83333333  0.66666667  0.16666667  1
  Mg  Mg1  1  0.33333333  0.16666667  0.16666667  1
  Mg  Mg2  1  0.83333333  0.16666667  0.16666667  1
  Mg  Mg3  1  0.50000000  0.00000000  0.50000000  1
  Mg  Mg4  1  0.00000000  0.50000000  0.50000000  1
  Mg  Mg5  1  0.50000000  0.50000000  0.50000000  1
  Mg  Mg6  1  0.16666667  0.33333333  0.83333333  1
  Mg  Mg7  1  0.66666667  0.83333333  0.83333333  1
  Mg  Mg8  1  0.16666667  0.83333333  0.83333333  1
  Fe  Fe9  1  0.33333333  0.66666667  0.29848467  1
  Fe  Fe10  1  0.33333333  0.66666667  0.03484867  1
  Fe  Fe11  1  0.00000000  0.00000000  0.00000000  1
  Fe  Fe12  1  0.00000000  0.00000000  0.63181800  1
  Fe  Fe13  1  0.00000000  0.00000000  0.36818200  1
  Fe  Fe14  1  0.66666667  0.33333333  0.33333333  1
  Fe  Fe15  1  0.66666667  0.33333333  0.96515133  1
  Fe  Fe16  1  0.66666667  0.33333333  0.70151533  1
  Fe  Fe17  1  0.33333333  0.66666667  0.66666667  1
  O  O18  1  0.15703567  0.84296433  0.08083433  1
  O  O19  1  0.00000000  0.00000000  0.24224400  1
  O  O20  1  0.15703567  0.31407133  0.08083433  1
  O  O21  1  0.68592867  0.84296433  0.08083433  1
  O  O22  1  0.50963100  0.01926200  0.25249900  1
  O  O23  1  0.98073800  0.49036900  0.25249900  1
  O  O24  1  0.50963100  0.49036900  0.25249900  1
  O  O25  1  0.66666667  0.33333333  0.09108933  1
  O  O26  1  0.82370233  0.17629767  0.41416767  1
  O  O27  1  0.66666667  0.33333333  0.57557733  1
  O  O28  1  0.82370233  0.64740467  0.41416767  1
  O  O29  1  0.35259533  0.17629767  0.41416767  1
  O  O30  1  0.17629767  0.35259533  0.58583233  1
  O  O31  1  0.64740467  0.82370233  0.58583233  1
  O  O32  1  0.17629767  0.82370233  0.58583233  1
  O  O33  1  0.33333333  0.66666667  0.42442267  1
  O  O34  1  0.49036900  0.50963100  0.74750100  1
  O  O35  1  0.33333333  0.66666667  0.90891067  1
  O  O36  1  0.49036900  0.98073800  0.74750100  1
  O  O37  1  0.01926200  0.50963100  0.74750100  1
  O  O38  1  0.84296433  0.68592867  0.91916567  1
  O  O39  1  0.31407133  0.15703567  0.91916567  1
  O  O40  1  0.84296433  0.15703567  0.91916567  1
  O  O41  1  0.00000000  0.00000000  0.75775600  1
