# generated using pymatgen
data_Li2V(CO3)2
_symmetry_space_group_name_H-M   'P 1'
_cell_length_a   9.72117000
_cell_length_b   15.11082400
_cell_length_c   15.26530600
_cell_angle_alpha   90.00000000
_cell_angle_beta   90.00000000
_cell_angle_gamma   90.00000000
_symmetry_Int_Tables_number   1
_chemical_formula_structural   Li2V(CO3)2
_chemical_formula_sum   'Li32 V16 C32 O96'
_cell_volume   2242.39542957
_cell_formula_units_Z   16
loop_
 _symmetry_equiv_pos_site_id
 _symmetry_equiv_pos_as_xyz
  1  'x, y, z'
loop_
 _atom_site_type_symbol
 _atom_site_label
 _atom_site_symmetry_multiplicity
 _atom_site_fract_x
 _atom_site_fract_y
 _atom_site_fract_z
 _atom_site_occupancy
  Li  Li0  1  0.12542000  0.90934700  0.66212900  1
  Li  Li1  1  0.37542000  0.15934700  0.58787100  1
  Li  Li2  1  0.37542000  0.34065300  0.91212900  1
  Li  Li3  1  0.11871750  0.14844950  0.86089000  1
  Li  Li4  1  0.86871750  0.10155050  0.61089000  1
  Li  Li5  1  0.62542000  0.09065300  0.83787100  1
  Li  Li6  1  0.11871750  0.35155050  0.63911000  1
  Li  Li7  1  0.36871750  0.89844950  0.88911000  1
  Li  Li8  1  0.62542000  0.90934700  0.16212900  1
  Li  Li9  1  0.87542000  0.15934700  0.08787100  1
  Li  Li10  1  0.87542000  0.34065300  0.41212900  1
  Li  Li11  1  0.61871750  0.14844950  0.36089000  1
  Li  Li12  1  0.36871750  0.10155050  0.11089000  1
  Li  Li13  1  0.12542000  0.09065300  0.33787100  1
  Li  Li14  1  0.61871750  0.35155050  0.13911000  1
  Li  Li15  1  0.86871750  0.89844950  0.38911000  1
  Li  Li16  1  0.62542000  0.40934700  0.66212900  1
  Li  Li17  1  0.87542000  0.65934700  0.58787100  1
  Li  Li18  1  0.87542000  0.84065300  0.91212900  1
  Li  Li19  1  0.61871750  0.64844950  0.86089000  1
  Li  Li20  1  0.36871750  0.60155050  0.61089000  1
  Li  Li21  1  0.12542000  0.59065300  0.83787100  1
  Li  Li22  1  0.61871750  0.85155050  0.63911000  1
  Li  Li23  1  0.86871750  0.39844950  0.88911000  1
  Li  Li24  1  0.12542000  0.40934700  0.16212900  1
  Li  Li25  1  0.37542000  0.65934700  0.08787100  1
  Li  Li26  1  0.37542000  0.84065300  0.41212900  1
  Li  Li27  1  0.11871750  0.64844950  0.36089000  1
  Li  Li28  1  0.86871750  0.60155050  0.11089000  1
  Li  Li29  1  0.62542000  0.59065300  0.33787100  1
  Li  Li30  1  0.11871750  0.85155050  0.13911000  1
  Li  Li31  1  0.36871750  0.39844950  0.38911000  1
  V  V32  1  0.87560200  0.98387050  0.76617550  1
  V  V33  1  0.12560200  0.76612950  0.51617550  1
  V  V34  1  0.37560200  0.01612950  0.73382450  1
  V  V35  1  0.62560200  0.23387050  0.98382450  1
  V  V36  1  0.37560200  0.98387050  0.26617550  1
  V  V37  1  0.62560200  0.76612950  0.01617550  1
  V  V38  1  0.87560200  0.01612950  0.23382450  1
  V  V39  1  0.12560200  0.23387050  0.48382450  1
  V  V40  1  0.37560200  0.48387050  0.76617550  1
  V  V41  1  0.62560200  0.26612950  0.51617550  1
  V  V42  1  0.87560200  0.51612950  0.73382450  1
  V  V43  1  0.12560200  0.73387050  0.98382450  1
  V  V44  1  0.87560200  0.48387050  0.26617550  1
  V  V45  1  0.12560200  0.26612950  0.01617550  1
  V  V46  1  0.37560200  0.51612950  0.23382450  1
  V  V47  1  0.62560200  0.73387050  0.48382450  1
  C  C48  1  0.10665450  0.08133500  0.62700250  1
  C  C49  1  0.39140500  0.63024500  0.91585100  1
  C  C50  1  0.85665450  0.83133500  0.62299750  1
  C  C51  1  0.60665450  0.91866500  0.87299750  1
  C  C52  1  0.39140500  0.86975500  0.58414900  1
  C  C53  1  0.14140500  0.88024500  0.83414900  1
  C  C54  1  0.14140500  0.61975500  0.66585100  1
  C  C55  1  0.35665450  0.16866500  0.87700250  1
  C  C56  1  0.60665450  0.08133500  0.12700250  1
  C  C57  1  0.89140500  0.63024500  0.41585100  1
  C  C58  1  0.35665450  0.83133500  0.12299750  1
  C  C59  1  0.10665450  0.91866500  0.37299750  1
  C  C60  1  0.89140500  0.86975500  0.08414900  1
  C  C61  1  0.64140500  0.88024500  0.33414900  1
  C  C62  1  0.64140500  0.61975500  0.16585100  1
  C  C63  1  0.85665450  0.16866500  0.37700250  1
  C  C64  1  0.60665450  0.58133500  0.62700250  1
  C  C65  1  0.89140500  0.13024500  0.91585100  1
  C  C66  1  0.35665450  0.33133500  0.62299750  1
  C  C67  1  0.10665450  0.41866500  0.87299750  1
  C  C68  1  0.89140500  0.36975500  0.58414900  1
  C  C69  1  0.64140500  0.38024500  0.83414900  1
  C  C70  1  0.64140500  0.11975500  0.66585100  1
  C  C71  1  0.85665450  0.66866500  0.87700250  1
  C  C72  1  0.10665450  0.58133500  0.12700250  1
  C  C73  1  0.39140500  0.13024500  0.41585100  1
  C  C74  1  0.85665450  0.33133500  0.12299750  1
  C  C75  1  0.60665450  0.41866500  0.37299750  1
  C  C76  1  0.39140500  0.36975500  0.08414900  1
  C  C77  1  0.14140500  0.38024500  0.33414900  1
  C  C78  1  0.14140500  0.11975500  0.16585100  1
  C  C79  1  0.35665450  0.66866500  0.37700250  1
  O  O80  1  0.75942950  0.13370200  0.92543450  1
  O  O81  1  0.02260550  0.02424200  0.66338250  1
  O  O82  1  0.80018500  0.89169150  0.67153450  1
  O  O83  1  0.23772650  0.07569300  0.63740150  1
  O  O84  1  0.94812750  0.08587100  0.85241350  1
  O  O85  1  0.27260550  0.27424200  0.58661750  1
  O  O86  1  0.55018500  0.85830850  0.92153450  1
  O  O87  1  0.73772650  0.92430700  0.86259850  1
  O  O88  1  0.98772650  0.82569300  0.61259850  1
  O  O89  1  0.25942950  0.86629800  0.57456550  1
  O  O90  1  0.47283550  0.67059500  0.97045050  1
  O  O91  1  0.00942950  0.88370200  0.82456550  1
  O  O92  1  0.97283550  0.32940500  0.52954950  1
  O  O93  1  0.22283550  0.92059500  0.77954950  1
  O  O94  1  0.27260550  0.22575800  0.91338250  1
  O  O95  1  0.50942950  0.11629800  0.67543450  1
  O  O96  1  0.19812750  0.66412900  0.60241350  1
  O  O97  1  0.19812750  0.83587100  0.89758650  1
  O  O98  1  0.30018500  0.10830850  0.82846550  1
  O  O99  1  0.22283550  0.57940500  0.72045050  1
  O  O100  1  0.48772650  0.17430700  0.88740150  1
  O  O101  1  0.44812750  0.91412900  0.64758650  1
  O  O102  1  0.05018500  0.14169150  0.57846550  1
  O  O103  1  0.52260550  0.97575800  0.83661750  1
  O  O104  1  0.25942950  0.13370200  0.42543450  1
  O  O105  1  0.52260550  0.02424200  0.16338250  1
  O  O106  1  0.30018500  0.89169150  0.17153450  1
  O  O107  1  0.73772650  0.07569300  0.13740150  1
  O  O108  1  0.44812750  0.08587100  0.35241350  1
  O  O109  1  0.77260550  0.27424200  0.08661750  1
  O  O110  1  0.05018500  0.85830850  0.42153450  1
  O  O111  1  0.23772650  0.92430700  0.36259850  1
  O  O112  1  0.48772650  0.82569300  0.11259850  1
  O  O113  1  0.75942950  0.86629800  0.07456550  1
  O  O114  1  0.97283550  0.67059500  0.47045050  1
  O  O115  1  0.50942950  0.88370200  0.32456550  1
  O  O116  1  0.47283550  0.32940500  0.02954950  1
  O  O117  1  0.72283550  0.92059500  0.27954950  1
  O  O118  1  0.77260550  0.22575800  0.41338250  1
  O  O119  1  0.00942950  0.11629800  0.17543450  1
  O  O120  1  0.69812750  0.66412900  0.10241350  1
  O  O121  1  0.69812750  0.83587100  0.39758650  1
  O  O122  1  0.80018500  0.10830850  0.32846550  1
  O  O123  1  0.72283550  0.57940500  0.22045050  1
  O  O124  1  0.98772650  0.17430700  0.38740150  1
  O  O125  1  0.94812750  0.91412900  0.14758650  1
  O  O126  1  0.55018500  0.14169150  0.07846550  1
  O  O127  1  0.02260550  0.97575800  0.33661750  1
  O  O128  1  0.25942950  0.63370200  0.92543450  1
  O  O129  1  0.52260550  0.52424200  0.66338250  1
  O  O130  1  0.30018500  0.39169150  0.67153450  1
  O  O131  1  0.73772650  0.57569300  0.63740150  1
  O  O132  1  0.44812750  0.58587100  0.85241350  1
  O  O133  1  0.77260550  0.77424200  0.58661750  1
  O  O134  1  0.05018500  0.35830850  0.92153450  1
  O  O135  1  0.23772650  0.42430700  0.86259850  1
  O  O136  1  0.48772650  0.32569300  0.61259850  1
  O  O137  1  0.75942950  0.36629800  0.57456550  1
  O  O138  1  0.97283550  0.17059500  0.97045050  1
  O  O139  1  0.50942950  0.38370200  0.82456550  1
  O  O140  1  0.47283550  0.82940500  0.52954950  1
  O  O141  1  0.72283550  0.42059500  0.77954950  1
  O  O142  1  0.77260550  0.72575800  0.91338250  1
  O  O143  1  0.00942950  0.61629800  0.67543450  1
  O  O144  1  0.69812750  0.16412900  0.60241350  1
  O  O145  1  0.69812750  0.33587100  0.89758650  1
  O  O146  1  0.80018500  0.60830850  0.82846550  1
  O  O147  1  0.72283550  0.07940500  0.72045050  1
  O  O148  1  0.98772650  0.67430700  0.88740150  1
  O  O149  1  0.94812750  0.41412900  0.64758650  1
  O  O150  1  0.55018500  0.64169150  0.57846550  1
  O  O151  1  0.02260550  0.47575800  0.83661750  1
  O  O152  1  0.75942950  0.63370200  0.42543450  1
  O  O153  1  0.02260550  0.52424200  0.16338250  1
  O  O154  1  0.80018500  0.39169150  0.17153450  1
  O  O155  1  0.23772650  0.57569300  0.13740150  1
  O  O156  1  0.94812750  0.58587100  0.35241350  1
  O  O157  1  0.27260550  0.77424200  0.08661750  1
  O  O158  1  0.55018500  0.35830850  0.42153450  1
  O  O159  1  0.73772650  0.42430700  0.36259850  1
  O  O160  1  0.98772650  0.32569300  0.11259850  1
  O  O161  1  0.25942950  0.36629800  0.07456550  1
  O  O162  1  0.47283550  0.17059500  0.47045050  1
  O  O163  1  0.00942950  0.38370200  0.32456550  1
  O  O164  1  0.97283550  0.82940500  0.02954950  1
  O  O165  1  0.22283550  0.42059500  0.27954950  1
  O  O166  1  0.27260550  0.72575800  0.41338250  1
  O  O167  1  0.50942950  0.61629800  0.17543450  1
  O  O168  1  0.19812750  0.16412900  0.10241350  1
  O  O169  1  0.19812750  0.33587100  0.39758650  1
  O  O170  1  0.30018500  0.60830850  0.32846550  1
  O  O171  1  0.22283550  0.07940500  0.22045050  1
  O  O172  1  0.48772650  0.67430700  0.38740150  1
  O  O173  1  0.44812750  0.41412900  0.14758650  1
  O  O174  1  0.05018500  0.64169150  0.07846550  1
  O  O175  1  0.52260550  0.47575800  0.33661750  1
