# generated using pymatgen
data_LiFeF4
_symmetry_space_group_name_H-M   'P 1'
_cell_length_a   5.82094400
_cell_length_b   8.65385400
_cell_length_c   6.43142000
_cell_angle_alpha   90.00000000
_cell_angle_beta   90.00000000
_cell_angle_gamma   90.00000000
_symmetry_Int_Tables_number   1
_chemical_formula_structural   LiFeF4
_chemical_formula_sum   'Li4 Fe4 F16'
_cell_volume   323.97377541
_cell_formula_units_Z   4
loop_
 _symmetry_equiv_pos_site_id
 _symmetry_equiv_pos_as_xyz
  1  'x, y, z'
loop_
 _atom_site_type_symbol
 _atom_site_label
 _atom_site_symmetry_multiplicity
 _atom_site_fract_x
 _atom_site_fract_y
 _atom_site_fract_z
 _atom_site_occupancy
  Li  Li0  1  0.00000000  0.00000000  0.00000000  1
  Li  Li1  1  0.00000000  0.00000000  0.50000000  1
  Li  Li2  1  0.50000000  0.50000000  0.00000000  1
  Li  Li3  1  0.50000000  0.50000000  0.50000000  1
  Fe  Fe4  1  0.50000000  0.14712200  0.75000000  1
  Fe  Fe5  1  0.50000000  0.85287800  0.25000000  1
  Fe  Fe6  1  0.00000000  0.64712200  0.75000000  1
  Fe  Fe7  1  0.00000000  0.35287800  0.25000000  1
  F  F8  1  0.24378850  0.01746150  0.75000000  1
  F  F9  1  0.24378850  0.98253850  0.25000000  1
  F  F10  1  0.50000000  0.27101000  0.51957700  1
  F  F11  1  0.50000000  0.72899000  0.01957700  1
  F  F12  1  0.50000000  0.72899000  0.48042300  1
  F  F13  1  0.50000000  0.27101000  0.98042300  1
  F  F14  1  0.75621150  0.98253850  0.25000000  1
  F  F15  1  0.75621150  0.01746150  0.75000000  1
  F  F16  1  0.74378850  0.51746150  0.75000000  1
  F  F17  1  0.74378850  0.48253850  0.25000000  1
  F  F18  1  0.00000000  0.77101000  0.51957700  1
  F  F19  1  0.00000000  0.22899000  0.01957700  1
  F  F20  1  0.00000000  0.22899000  0.48042300  1
  F  F21  1  0.00000000  0.77101000  0.98042300  1
  F  F22  1  0.25621150  0.48253850  0.25000000  1
  F  F23  1  0.25621150  0.51746150  0.75000000  1
