# generated using pymatgen
data_LiMn7(O3F)3
_symmetry_space_group_name_H-M   'P 1'
_cell_length_a   8.69607831
_cell_length_b   8.69607831
_cell_length_c   10.23388650
_cell_angle_alpha   90.00000000
_cell_angle_beta   90.00000000
_cell_angle_gamma   120.00000000
_symmetry_Int_Tables_number   1
_chemical_formula_structural   LiMn7(O3F)3
_chemical_formula_sum   'Li3 Mn21 O27 F9'
_cell_volume   670.22112352
_cell_formula_units_Z   3
loop_
 _symmetry_equiv_pos_site_id
 _symmetry_equiv_pos_as_xyz
  1  'x, y, z'
loop_
 _atom_site_type_symbol
 _atom_site_label
 _atom_site_symmetry_multiplicity
 _atom_site_fract_x
 _atom_site_fract_y
 _atom_site_fract_z
 _atom_site_occupancy
  Li  Li0  1  0.00000000  0.00000000  0.52555600  1
  Li  Li1  1  0.66666667  0.33333333  0.85888933  1
  Li  Li2  1  0.33333333  0.66666667  0.19222267  1
  Mn  Mn3  1  0.61336400  0.70264400  0.46271500  1
  Mn  Mn4  1  0.88537533  0.59560167  0.53620567  1
  Mn  Mn5  1  0.71022633  0.11462467  0.53620567  1
  Mn  Mn6  1  0.00000000  0.00000000  0.98548200  1
  Mn  Mn7  1  0.29735600  0.91072000  0.46271500  1
  Mn  Mn8  1  0.08928000  0.38663600  0.46271500  1
  Mn  Mn9  1  0.40439833  0.28977367  0.53620567  1
  Mn  Mn10  1  0.28003067  0.03597733  0.79604833  1
  Mn  Mn11  1  0.55204200  0.92893500  0.86953900  1
  Mn  Mn12  1  0.37689300  0.44795800  0.86953900  1
  Mn  Mn13  1  0.66666667  0.33333333  0.31881533  1
  Mn  Mn14  1  0.96402267  0.24405333  0.79604833  1
  Mn  Mn15  1  0.75594667  0.71996933  0.79604833  1
  Mn  Mn16  1  0.07106500  0.62310700  0.86953900  1
  Mn  Mn17  1  0.94669733  0.36931067  0.12938167  1
  Mn  Mn18  1  0.21870867  0.26226833  0.20287233  1
  Mn  Mn19  1  0.04355967  0.78129133  0.20287233  1
  Mn  Mn20  1  0.33333333  0.66666667  0.65214867  1
  Mn  Mn21  1  0.63068933  0.57738667  0.12938167  1
  Mn  Mn22  1  0.42261333  0.05330267  0.12938167  1
  Mn  Mn23  1  0.73773167  0.95644033  0.20287233  1
  O  O24  1  0.63766200  0.48838400  0.45049500  1
  O  O25  1  0.51198700  0.84875300  0.53966700  1
  O  O26  1  0.79449033  0.76280467  0.60744167  1
  O  O27  1  0.15124700  0.66323400  0.53966700  1
  O  O28  1  0.96831433  0.20550967  0.60744167  1
  O  O29  1  0.85072200  0.36233800  0.45049500  1
  O  O30  1  0.23719533  0.03168567  0.60744167  1
  O  O31  1  0.51161600  0.14927800  0.45049500  1
  O  O32  1  0.33676600  0.48801300  0.53966700  1
  O  O33  1  0.30432867  0.82171733  0.78382833  1
  O  O34  1  0.17865367  0.18208633  0.87300033  1
  O  O35  1  0.46115700  0.09613800  0.94077500  1
  O  O36  1  0.81791367  0.99656733  0.87300033  1
  O  O37  1  0.63498100  0.53884300  0.94077500  1
  O  O38  1  0.51738867  0.69567133  0.78382833  1
  O  O39  1  0.90386200  0.36501900  0.94077500  1
  O  O40  1  0.17828267  0.48261133  0.78382833  1
  O  O41  1  0.00343267  0.82134633  0.87300033  1
  O  O42  1  0.97099533  0.15505067  0.11716167  1
  O  O43  1  0.84532033  0.51541967  0.20633367  1
  O  O44  1  0.12782367  0.42947133  0.27410833  1
  O  O45  1  0.48458033  0.32990067  0.20633367  1
  O  O46  1  0.30164767  0.87217633  0.27410833  1
  O  O47  1  0.18405533  0.02900467  0.11716167  1
  O  O48  1  0.57052867  0.69835233  0.27410833  1
  O  O49  1  0.84494933  0.81594467  0.11716167  1
  O  O50  1  0.67009933  0.15467967  0.20633367  1
  F  F51  1  0.81457033  0.99939967  0.39979567  1
  F  F52  1  0.00060033  0.81517067  0.39979567  1
  F  F53  1  0.18482933  0.18542967  0.39979567  1
  F  F54  1  0.48123700  0.33273300  0.73312900  1
  F  F55  1  0.66726700  0.14850400  0.73312900  1
  F  F56  1  0.85149600  0.51876300  0.73312900  1
  F  F57  1  0.14790367  0.66606633  0.06646233  1
  F  F58  1  0.33393367  0.48183733  0.06646233  1
  F  F59  1  0.51816267  0.85209633  0.06646233  1
