# generated using pymatgen
data_Mn5CoO12
_symmetry_space_group_name_H-M   'P 1'
_cell_length_a   5.03217485
_cell_length_b   8.73065352
_cell_length_c   9.62442702
_cell_angle_alpha   90.00000000
_cell_angle_beta   90.00411301
_cell_angle_gamma   90.00000000
_symmetry_Int_Tables_number   1
_chemical_formula_structural   Mn5CoO12
_chemical_formula_sum   'Mn10 Co2 O24'
_cell_volume   422.84126001
_cell_formula_units_Z   2
loop_
 _symmetry_equiv_pos_site_id
 _symmetry_equiv_pos_as_xyz
  1  'x, y, z'
loop_
 _atom_site_type_symbol
 _atom_site_label
 _atom_site_symmetry_multiplicity
 _atom_site_fract_x
 _atom_site_fract_y
 _atom_site_fract_z
 _atom_site_occupancy
  Mn  Mn0  1  0.50000000  0.66663600  0.50000000  1
  Mn  Mn1  1  0.00000000  0.66669700  0.00000000  1
  Mn  Mn2  1  0.50000000  0.83330300  0.00000000  1
  Mn  Mn3  1  0.00000000  0.83336400  0.50000000  1
  Mn  Mn4  1  0.50000000  0.00000000  0.50000000  1
  Mn  Mn5  1  0.00000000  0.16663600  0.50000000  1
  Mn  Mn6  1  0.50000000  0.16669700  0.00000000  1
  Mn  Mn7  1  0.00000000  0.33330300  0.00000000  1
  Mn  Mn8  1  0.50000000  0.33336400  0.50000000  1
  Mn  Mn9  1  0.00000000  0.50000000  0.50000000  1
  Co  Co10  1  0.00000000  0.00000000  0.00000000  1
  Co  Co11  1  0.50000000  0.50000000  0.00000000  1
  O  O12  1  0.66367500  0.66403700  0.90144600  1
  O  O13  1  0.33632500  0.66403700  0.09855400  1
  O  O14  1  0.66651050  0.83327950  0.60040100  1
  O  O15  1  0.16651050  0.66672050  0.60040100  1
  O  O16  1  0.33348950  0.83327950  0.39959900  1
  O  O17  1  0.83333100  0.00000000  0.39974300  1
  O  O18  1  0.83348950  0.66672050  0.39959900  1
  O  O19  1  0.16367500  0.83596300  0.90144600  1
  O  O20  1  0.67234900  0.00000000  0.90174800  1
  O  O21  1  0.83632500  0.83596300  0.09855400  1
  O  O22  1  0.32765100  0.00000000  0.09825200  1
  O  O23  1  0.16666900  0.00000000  0.60025700  1
  O  O24  1  0.16367500  0.16403700  0.90144600  1
  O  O25  1  0.83632500  0.16403700  0.09855400  1
  O  O26  1  0.16651050  0.33327950  0.60040100  1
  O  O27  1  0.66651050  0.16672050  0.60040100  1
  O  O28  1  0.83348950  0.33327950  0.39959900  1
  O  O29  1  0.33333100  0.50000000  0.39974300  1
  O  O30  1  0.33348950  0.16672050  0.39959900  1
  O  O31  1  0.66367500  0.33596300  0.90144600  1
  O  O32  1  0.17234900  0.50000000  0.90174800  1
  O  O33  1  0.33632500  0.33596300  0.09855400  1
  O  O34  1  0.82765100  0.50000000  0.09825200  1
  O  O35  1  0.66666900  0.50000000  0.60025700  1
