# generated using pymatgen
data_LiFe2P2HO8
_symmetry_space_group_name_H-M   'P 1'
_cell_length_a   5.02681599
_cell_length_b   8.63524306
_cell_length_c   7.78195758
_cell_angle_alpha   90.00000000
_cell_angle_beta   104.77225861
_cell_angle_gamma   90.00000000
_symmetry_Int_Tables_number   1
_chemical_formula_structural   LiFe2P2HO8
_chemical_formula_sum   'Li2 Fe4 P4 H2 O16'
_cell_volume   326.63225109
_cell_formula_units_Z   2
loop_
 _symmetry_equiv_pos_site_id
 _symmetry_equiv_pos_as_xyz
  1  'x, y, z'
loop_
 _atom_site_type_symbol
 _atom_site_label
 _atom_site_symmetry_multiplicity
 _atom_site_fract_x
 _atom_site_fract_y
 _atom_site_fract_z
 _atom_site_occupancy
  Li  Li0  1  0.24155950  0.00395900  0.75291250  1
  Li  Li1  1  0.75844050  0.50395900  0.24708750  1
  Fe  Fe2  1  0.87054150  0.15740400  0.41396150  1
  Fe  Fe3  1  0.35654550  0.34601200  0.92947850  1
  Fe  Fe4  1  0.12945850  0.65740400  0.58603850  1
  Fe  Fe5  1  0.64345450  0.84601200  0.07052150  1
  P  P6  1  0.12469550  0.64394800  0.97072650  1
  P  P7  1  0.87530450  0.14394800  0.02927350  1
  P  P8  1  0.61318850  0.85429200  0.47234250  1
  P  P9  1  0.38681150  0.35429200  0.52765750  1
  H  H10  1  0.72647350  0.48088200  0.74665750  1
  H  H11  1  0.27352650  0.98088200  0.25334250  1
  O  O12  1  0.16505650  0.46842000  0.43059750  1
  O  O13  1  0.83494350  0.96842000  0.56940250  1
  O  O14  1  0.24254350  0.79654500  0.91615950  1
  O  O15  1  0.75745650  0.29654500  0.08384050  1
  O  O16  1  0.10130950  0.17080800  0.93079250  1
  O  O17  1  0.89869050  0.67080800  0.06920750  1
  O  O18  1  0.00085450  0.55052100  0.79094550  1
  O  O19  1  0.99914550  0.05052100  0.20905450  1
  O  O20  1  0.74141850  0.70463900  0.42210450  1
  O  O21  1  0.25858150  0.20463900  0.57789550  1
  O  O22  1  0.61335150  0.32875500  0.43131950  1
  O  O23  1  0.38664850  0.82875500  0.56868050  1
  O  O24  1  0.47390650  0.93453900  0.28016650  1
  O  O25  1  0.52609350  0.43453900  0.71983350  1
  O  O26  1  0.64154050  0.04069600  0.91990850  1
  O  O27  1  0.35845950  0.54069600  0.08009150  1
