# generated using pymatgen
data_LiFe2O2F3
_symmetry_space_group_name_H-M   'P 1'
_cell_length_a   9.99395200
_cell_length_b   3.87234000
_cell_length_c   10.09602733
_cell_angle_alpha   90.00000000
_cell_angle_beta   90.54116681
_cell_angle_gamma   90.00000000
_symmetry_Int_Tables_number   1
_chemical_formula_structural   LiFe2O2F3
_chemical_formula_sum   'Li4 Fe8 O8 F12'
_cell_volume   390.69862887
_cell_formula_units_Z   4
loop_
 _symmetry_equiv_pos_site_id
 _symmetry_equiv_pos_as_xyz
  1  'x, y, z'
loop_
 _atom_site_type_symbol
 _atom_site_label
 _atom_site_symmetry_multiplicity
 _atom_site_fract_x
 _atom_site_fract_y
 _atom_site_fract_z
 _atom_site_occupancy
  Li  Li0  1  0.69115700  0.00000000  0.26279300  1
  Li  Li1  1  0.86447800  0.50000000  0.42633300  1
  Li  Li2  1  0.19115700  0.50000000  0.26279300  1
  Li  Li3  1  0.36447800  0.00000000  0.42633300  1
  Fe  Fe4  1  0.64661200  0.00000000  0.55974500  1
  Fe  Fe5  1  0.62958800  0.00000000  0.91989200  1
  Fe  Fe6  1  0.79996200  0.50000000  0.74629800  1
  Fe  Fe7  1  0.85632400  0.50000000  0.05480200  1
  Fe  Fe8  1  0.14661200  0.50000000  0.55974500  1
  Fe  Fe9  1  0.12958800  0.50000000  0.91989200  1
  Fe  Fe10  1  0.29996200  0.00000000  0.74629800  1
  Fe  Fe11  1  0.35632400  0.00000000  0.05480200  1
  O  O12  1  0.73942200  0.00000000  0.75542100  1
  O  O13  1  0.94415600  0.50000000  0.88420400  1
  O  O14  1  0.68805100  0.50000000  0.93790300  1
  O  O15  1  0.67822500  0.50000000  0.58872900  1
  O  O16  1  0.23942200  0.50000000  0.75542100  1
  O  O17  1  0.44415600  0.00000000  0.88420400  1
  O  O18  1  0.18805100  0.00000000  0.93790300  1
  O  O19  1  0.17822500  0.00000000  0.58872900  1
  F  F20  1  0.55078100  0.00000000  0.11229200  1
  F  F21  1  0.80601000  0.00000000  0.43857600  1
  F  F22  1  0.55214500  0.00000000  0.38885700  1
  F  F23  1  0.82492700  0.00000000  0.07071900  1
  F  F24  1  0.77458300  0.50000000  0.23257600  1
  F  F25  1  0.95358500  0.50000000  0.62085800  1
  F  F26  1  0.05078100  0.50000000  0.11229200  1
  F  F27  1  0.30601000  0.50000000  0.43857600  1
  F  F28  1  0.05214500  0.50000000  0.38885700  1
  F  F29  1  0.32492700  0.50000000  0.07071900  1
  F  F30  1  0.27458300  0.00000000  0.23257600  1
  F  F31  1  0.45358500  0.00000000  0.62085800  1
