# generated using pymatgen
data_Mn9FeO10
_symmetry_space_group_name_H-M   'P 1'
_cell_length_a   13.96378400
_cell_length_b   3.17615000
_cell_length_c   10.59678254
_cell_angle_alpha   90.00000000
_cell_angle_beta   102.10650680
_cell_angle_gamma   90.00000000
_symmetry_Int_Tables_number   1
_chemical_formula_structural   Mn9FeO10
_chemical_formula_sum   'Mn18 Fe2 O20'
_cell_volume   459.52607522
_cell_formula_units_Z   2
loop_
 _symmetry_equiv_pos_site_id
 _symmetry_equiv_pos_as_xyz
  1  'x, y, z'
loop_
 _atom_site_type_symbol
 _atom_site_label
 _atom_site_symmetry_multiplicity
 _atom_site_fract_x
 _atom_site_fract_y
 _atom_site_fract_z
 _atom_site_occupancy
  Mn  Mn0  1  0.00000000  0.50000000  0.50000000  1
  Mn  Mn1  1  0.89999200  0.00000000  0.70004600  1
  Mn  Mn2  1  0.79977900  0.00000000  0.39892400  1
  Mn  Mn3  1  0.89949000  0.50000000  0.19771400  1
  Mn  Mn4  1  0.80140400  0.50000000  0.90162400  1
  Mn  Mn5  1  0.70022100  0.50000000  0.60107600  1
  Mn  Mn6  1  0.60051000  0.00000000  0.80228600  1
  Mn  Mn7  1  0.69859600  0.00000000  0.09837600  1
  Mn  Mn8  1  0.60000800  0.50000000  0.29995400  1
  Mn  Mn9  1  0.50000000  0.00000000  0.50000000  1
  Mn  Mn10  1  0.39999200  0.50000000  0.70004600  1
  Mn  Mn11  1  0.29977900  0.50000000  0.39892400  1
  Mn  Mn12  1  0.39949000  0.00000000  0.19771400  1
  Mn  Mn13  1  0.30140400  0.00000000  0.90162400  1
  Mn  Mn14  1  0.20022100  0.00000000  0.60107600  1
  Mn  Mn15  1  0.10051000  0.50000000  0.80228600  1
  Mn  Mn16  1  0.19859600  0.50000000  0.09837600  1
  Mn  Mn17  1  0.10000800  0.00000000  0.29995400  1
  Fe  Fe18  1  0.00000000  0.00000000  0.00000000  1
  Fe  Fe19  1  0.50000000  0.50000000  0.00000000  1
  O  O20  1  0.94995600  0.00000000  0.34916500  1
  O  O21  1  0.55004400  0.50000000  0.65083500  1
  O  O22  1  0.54840200  0.00000000  0.14600600  1
  O  O23  1  0.95159800  0.50000000  0.85399400  1
  O  O24  1  0.84988900  0.50000000  0.55039600  1
  O  O25  1  0.75086700  0.00000000  0.75047600  1
  O  O26  1  0.65011100  0.00000000  0.44960400  1
  O  O27  1  0.85040800  0.00000000  0.04964100  1
  O  O28  1  0.64959200  0.50000000  0.95035900  1
  O  O29  1  0.74913300  0.50000000  0.24952400  1
  O  O30  1  0.44995600  0.50000000  0.34916500  1
  O  O31  1  0.05004400  0.00000000  0.65083500  1
  O  O32  1  0.04840200  0.50000000  0.14600600  1
  O  O33  1  0.45159800  0.00000000  0.85399400  1
  O  O34  1  0.34988900  0.00000000  0.55039600  1
  O  O35  1  0.25086700  0.50000000  0.75047600  1
  O  O36  1  0.15011100  0.50000000  0.44960400  1
  O  O37  1  0.35040800  0.50000000  0.04964100  1
  O  O38  1  0.14959200  0.00000000  0.95035900  1
  O  O39  1  0.24913300  0.00000000  0.24952400  1
