# generated using pymatgen
data_Ti3Nb(CuO4)3
_symmetry_space_group_name_H-M   'P 1'
_cell_length_a   10.58667384
_cell_length_b   10.58667384
_cell_length_c   6.41599188
_cell_angle_alpha   90.00000000
_cell_angle_beta   90.00000000
_cell_angle_gamma   120.00000000
_symmetry_Int_Tables_number   1
_chemical_formula_structural   Ti3Nb(CuO4)3
_chemical_formula_sum   'Ti9 Nb3 Cu9 O36'
_cell_volume   622.74966689
_cell_formula_units_Z   3
loop_
 _symmetry_equiv_pos_site_id
 _symmetry_equiv_pos_as_xyz
  1  'x, y, z'
loop_
 _atom_site_type_symbol
 _atom_site_label
 _atom_site_symmetry_multiplicity
 _atom_site_fract_x
 _atom_site_fract_y
 _atom_site_fract_z
 _atom_site_occupancy
  Ti  Ti0  1  0.16666667  0.33333333  0.83333333  1
  Ti  Ti1  1  0.16666667  0.83333333  0.83333333  1
  Ti  Ti2  1  0.33333333  0.16666667  0.16666667  1
  Ti  Ti3  1  0.83333333  0.66666667  0.16666667  1
  Ti  Ti4  1  0.83333333  0.16666667  0.16666667  1
  Ti  Ti5  1  0.00000000  0.50000000  0.50000000  1
  Ti  Ti6  1  0.50000000  0.00000000  0.50000000  1
  Ti  Ti7  1  0.50000000  0.50000000  0.50000000  1
  Ti  Ti8  1  0.66666667  0.83333333  0.83333333  1
  Nb  Nb9  1  0.00000000  0.00000000  0.50000000  1
  Nb  Nb10  1  0.66666667  0.33333333  0.83333333  1
  Nb  Nb11  1  0.33333333  0.66666667  0.16666667  1
  Cu  Cu12  1  0.33333333  0.16666667  0.66666667  1
  Cu  Cu13  1  0.16666667  0.83333333  0.33333333  1
  Cu  Cu14  1  0.16666667  0.33333333  0.33333333  1
  Cu  Cu15  1  0.00000000  0.50000000  0.00000000  1
  Cu  Cu16  1  0.83333333  0.16666667  0.66666667  1
  Cu  Cu17  1  0.83333333  0.66666667  0.66666667  1
  Cu  Cu18  1  0.66666667  0.83333333  0.33333333  1
  Cu  Cu19  1  0.50000000  0.50000000  0.00000000  1
  Cu  Cu20  1  0.50000000  0.00000000  0.00000000  1
  O  O21  1  0.37790900  0.93562900  0.75568500  1
  O  O22  1  0.31879500  0.50132600  0.99321200  1
  O  O23  1  0.44228000  0.37790900  0.24431500  1
  O  O24  1  0.26896233  0.22438667  0.91098167  1
  O  O25  1  0.51586433  0.34787167  0.65987867  1
  O  O26  1  0.50132600  0.18253100  0.00678800  1
  O  O27  1  0.16534067  0.15080233  0.32654533  1
  O  O28  1  0.39770433  0.10894667  0.42235167  1
  O  O29  1  0.15080233  0.98546167  0.67345467  1
  O  O30  1  0.22438667  0.95542433  0.08901833  1
  O  O31  1  0.34787167  0.83200733  0.34012133  1
  O  O32  1  0.28875767  0.39770433  0.57764833  1
  O  O33  1  0.04457567  0.26896233  0.08901833  1
  O  O34  1  0.98546167  0.83465933  0.32654533  1
  O  O35  1  0.10894667  0.71124233  0.57764833  1
  O  O36  1  0.93562900  0.55772000  0.24431500  1
  O  O37  1  0.18253100  0.68120500  0.99321200  1
  O  O38  1  0.16799267  0.51586433  0.34012133  1
  O  O39  1  0.83200733  0.48413567  0.65987867  1
  O  O40  1  0.06437100  0.44228000  0.75568500  1
  O  O41  1  0.81746900  0.31879500  0.00678800  1
  O  O42  1  0.89105333  0.28875767  0.42235167  1
  O  O43  1  0.01453833  0.16534067  0.67345467  1
  O  O44  1  0.95542433  0.73103767  0.91098167  1
  O  O45  1  0.71124233  0.60229567  0.42235167  1
  O  O46  1  0.65212833  0.16799267  0.65987867  1
  O  O47  1  0.77561333  0.04457567  0.91098167  1
  O  O48  1  0.60229567  0.89105333  0.57764833  1
  O  O49  1  0.84919767  0.01453833  0.32654533  1
  O  O50  1  0.83465933  0.84919767  0.67345467  1
  O  O51  1  0.49867400  0.81746900  0.99321200  1
  O  O52  1  0.73103767  0.77561333  0.08901833  1
  O  O53  1  0.48413567  0.65212833  0.34012133  1
  O  O54  1  0.55772000  0.62209100  0.75568500  1
  O  O55  1  0.68120500  0.49867400  0.00678800  1
  O  O56  1  0.62209100  0.06437100  0.24431500  1
