# generated using pymatgen
data_Bi8Rh8O27
_symmetry_space_group_name_H-M   'P 1'
_cell_length_a   7.31483807
_cell_length_b   7.31483807
_cell_length_c   35.82576225
_cell_angle_alpha   90.00000000
_cell_angle_beta   90.00000000
_cell_angle_gamma   120.00000000
_symmetry_Int_Tables_number   1
_chemical_formula_structural   Bi8Rh8O27
_chemical_formula_sum   'Bi24 Rh24 O81'
_cell_volume   1660.10479733
_cell_formula_units_Z   3
loop_
 _symmetry_equiv_pos_site_id
 _symmetry_equiv_pos_as_xyz
  1  'x, y, z'
loop_
 _atom_site_type_symbol
 _atom_site_label
 _atom_site_symmetry_multiplicity
 _atom_site_fract_x
 _atom_site_fract_y
 _atom_site_fract_z
 _atom_site_occupancy
  Bi  Bi0  1  0.33333333  0.66666667  0.16271567  1
  Bi  Bi1  1  0.17118400  0.34236800  0.08506200  1
  Bi  Bi2  1  0.17118400  0.82881600  0.08506200  1
  Bi  Bi3  1  0.00000000  0.00000000  0.00098700  1
  Bi  Bi4  1  0.65763200  0.82881600  0.08506200  1
  Bi  Bi5  1  0.49962733  0.50037267  0.24899467  1
  Bi  Bi6  1  0.49962733  0.99925467  0.24899467  1
  Bi  Bi7  1  0.00074533  0.50037267  0.24899467  1
  Bi  Bi8  1  0.00000000  0.00000000  0.49604900  1
  Bi  Bi9  1  0.83785067  0.67570133  0.41839533  1
  Bi  Bi10  1  0.83785067  0.16214933  0.41839533  1
  Bi  Bi11  1  0.66666667  0.33333333  0.33432033  1
  Bi  Bi12  1  0.32429867  0.16214933  0.41839533  1
  Bi  Bi13  1  0.16629400  0.83370600  0.58232800  1
  Bi  Bi14  1  0.16629400  0.33258800  0.58232800  1
  Bi  Bi15  1  0.66741200  0.83370600  0.58232800  1
  Bi  Bi16  1  0.66666667  0.33333333  0.82938233  1
  Bi  Bi17  1  0.50451733  0.00903467  0.75172867  1
  Bi  Bi18  1  0.50451733  0.49548267  0.75172867  1
  Bi  Bi19  1  0.33333333  0.66666667  0.66765367  1
  Bi  Bi20  1  0.99096533  0.49548267  0.75172867  1
  Bi  Bi21  1  0.83296067  0.16703933  0.91566133  1
  Bi  Bi22  1  0.83296067  0.66592133  0.91566133  1
  Bi  Bi23  1  0.33407867  0.16703933  0.91566133  1
  Rh  Rh24  1  0.33257533  0.16628767  0.16693867  1
  Rh  Rh25  1  0.83371233  0.66742467  0.16693867  1
  Rh  Rh26  1  0.83371233  0.16628767  0.16693867  1
  Rh  Rh27  1  0.66666667  0.33333333  0.08260733  1
  Rh  Rh28  1  0.99770800  0.49885400  0.00001200  1
  Rh  Rh29  1  0.50114600  0.00229200  0.00001200  1
  Rh  Rh30  1  0.50114600  0.49885400  0.00001200  1
  Rh  Rh31  1  0.00000000  0.00000000  0.24999100  1
  Rh  Rh32  1  0.99924200  0.49962100  0.50027200  1
  Rh  Rh33  1  0.50037900  0.00075800  0.50027200  1
  Rh  Rh34  1  0.50037900  0.49962100  0.50027200  1
  Rh  Rh35  1  0.33333333  0.66666667  0.41594067  1
  Rh  Rh36  1  0.66437467  0.83218733  0.33334533  1
  Rh  Rh37  1  0.16781267  0.33562533  0.33334533  1
  Rh  Rh38  1  0.16781267  0.83218733  0.33334533  1
  Rh  Rh39  1  0.66666667  0.33333333  0.58332433  1
  Rh  Rh40  1  0.66590867  0.83295433  0.83360533  1
  Rh  Rh41  1  0.16704567  0.33409133  0.83360533  1
  Rh  Rh42  1  0.16704567  0.83295433  0.83360533  1
  Rh  Rh43  1  0.00000000  0.00000000  0.74927400  1
  Rh  Rh44  1  0.33104133  0.16552067  0.66667867  1
  Rh  Rh45  1  0.83447933  0.66895867  0.66667867  1
  Rh  Rh46  1  0.83447933  0.16552067  0.66667867  1
  Rh  Rh47  1  0.33333333  0.66666667  0.91665767  1
  O  O48  1  0.72275133  0.86137567  0.15333567  1
  O  O49  1  0.38264800  0.19132400  0.11037500  1
  O  O50  1  0.52918933  0.05837867  0.05527467  1
  O  O51  1  0.13862433  0.27724867  0.15333567  1
  O  O52  1  0.52918933  0.47081067  0.05527467  1
  O  O53  1  0.13862433  0.86137567  0.15333567  1
  O  O54  1  0.05662533  0.52831267  0.31927567  1
  O  O55  1  0.80867600  0.61735200  0.11037500  1
  O  O56  1  0.19312667  0.80687333  0.01502633  1
  O  O57  1  0.19312667  0.38625333  0.01502633  1
  O  O58  1  0.80867600  0.19132400  0.11037500  1
  O  O59  1  0.00000000  0.00000000  0.06857700  1
  O  O60  1  0.94162133  0.47081067  0.05527467  1
  O  O61  1  0.72238400  0.86119200  0.27770500  1
  O  O62  1  0.47168733  0.52831267  0.31927567  1
  O  O63  1  0.66666667  0.33333333  0.27169633  1
  O  O64  1  0.47168733  0.94337467  0.31927567  1
  O  O65  1  0.86032900  0.13967100  0.22228300  1
  O  O66  1  0.86032900  0.72065800  0.22228300  1
  O  O67  1  0.61374667  0.80687333  0.01502633  1
  O  O68  1  0.13880800  0.27761600  0.27770500  1
  O  O69  1  0.52622133  0.05244267  0.18014267  1
  O  O70  1  0.13880800  0.86119200  0.27770500  1
  O  O71  1  0.52622133  0.47377867  0.18014267  1
  O  O72  1  0.33333333  0.66666667  0.22263767  1
  O  O73  1  0.27934200  0.13967100  0.22228300  1
  O  O74  1  0.94755733  0.47377867  0.18014267  1
  O  O75  1  0.38941800  0.19470900  0.48666900  1
  O  O76  1  0.04931467  0.52465733  0.44370833  1
  O  O77  1  0.19585600  0.39171200  0.38860800  1
  O  O78  1  0.80529100  0.61058200  0.48666900  1
  O  O79  1  0.19585600  0.80414400  0.38860800  1
  O  O80  1  0.80529100  0.19470900  0.48666900  1
  O  O81  1  0.72329200  0.86164600  0.65260900  1
  O  O82  1  0.47534267  0.95068533  0.44370833  1
  O  O83  1  0.85979333  0.14020667  0.34835967  1
  O  O84  1  0.85979333  0.71958667  0.34835967  1
  O  O85  1  0.47534267  0.52465733  0.44370833  1
  O  O86  1  0.66666667  0.33333333  0.40191033  1
  O  O87  1  0.60828800  0.80414400  0.38860800  1
  O  O88  1  0.38905067  0.19452533  0.61103833  1
  O  O89  1  0.13835400  0.86164600  0.65260900  1
  O  O90  1  0.33333333  0.66666667  0.60502967  1
  O  O91  1  0.13835400  0.27670800  0.65260900  1
  O  O92  1  0.52699567  0.47300433  0.55561633  1
  O  O93  1  0.52699567  0.05399133  0.55561633  1
  O  O94  1  0.28041333  0.14020667  0.34835967  1
  O  O95  1  0.80547467  0.61094933  0.61103833  1
  O  O96  1  0.19288800  0.38577600  0.51347600  1
  O  O97  1  0.80547467  0.19452533  0.61103833  1
  O  O98  1  0.19288800  0.80711200  0.51347600  1
  O  O99  1  0.00000000  0.00000000  0.55597100  1
  O  O100  1  0.94600867  0.47300433  0.55561633  1
  O  O101  1  0.61422400  0.80711200  0.51347600  1
  O  O102  1  0.05608467  0.52804233  0.82000233  1
  O  O103  1  0.71598133  0.85799067  0.77704167  1
  O  O104  1  0.86252267  0.72504533  0.72194133  1
  O  O105  1  0.47195767  0.94391533  0.82000233  1
  O  O106  1  0.86252267  0.13747733  0.72194133  1
  O  O107  1  0.47195767  0.52804233  0.82000233  1
  O  O108  1  0.38995867  0.19497933  0.98594233  1
  O  O109  1  0.14200933  0.28401867  0.77704167  1
  O  O110  1  0.52646000  0.47354000  0.68169300  1
  O  O111  1  0.52646000  0.05292000  0.68169300  1
  O  O112  1  0.14200933  0.85799067  0.77704167  1
  O  O113  1  0.33333333  0.66666667  0.73524367  1
  O  O114  1  0.27495467  0.13747733  0.72194133  1
  O  O115  1  0.05571733  0.52785867  0.94437167  1
  O  O116  1  0.80502067  0.19497933  0.98594233  1
  O  O117  1  0.00000000  0.00000000  0.93836300  1
  O  O118  1  0.80502067  0.61004133  0.98594233  1
  O  O119  1  0.19366233  0.80633767  0.88894967  1
  O  O120  1  0.19366233  0.38732467  0.88894967  1
  O  O121  1  0.94708000  0.47354000  0.68169300  1
  O  O122  1  0.47214133  0.94428267  0.94437167  1
  O  O123  1  0.85955467  0.71910933  0.84680933  1
  O  O124  1  0.47214133  0.52785867  0.94437167  1
  O  O125  1  0.85955467  0.14044533  0.84680933  1
  O  O126  1  0.66666667  0.33333333  0.88930433  1
  O  O127  1  0.61267533  0.80633767  0.88894967  1
  O  O128  1  0.28089067  0.14044533  0.84680933  1
