# generated using pymatgen
data_Li(FeO2)2
_symmetry_space_group_name_H-M   'P 1'
_cell_length_a   5.85440000
_cell_length_b   10.16512600
_cell_length_c   9.50295400
_cell_angle_alpha   90.00000000
_cell_angle_beta   90.00000000
_cell_angle_gamma   90.00000000
_symmetry_Int_Tables_number   1
_chemical_formula_structural   Li(FeO2)2
_chemical_formula_sum   'Li8 Fe16 O32'
_cell_volume   565.52757436
_cell_formula_units_Z   8
loop_
 _symmetry_equiv_pos_site_id
 _symmetry_equiv_pos_as_xyz
  1  'x, y, z'
loop_
 _atom_site_type_symbol
 _atom_site_label
 _atom_site_symmetry_multiplicity
 _atom_site_fract_x
 _atom_site_fract_y
 _atom_site_fract_z
 _atom_site_occupancy
  Li  Li0  1  0.50000000  0.33121500  0.89354900  1
  Li  Li1  1  0.00000000  0.49927000  0.99652800  1
  Li  Li2  1  0.50000000  0.00073000  0.49652800  1
  Li  Li3  1  0.00000000  0.16878500  0.39354900  1
  Li  Li4  1  0.00000000  0.83121500  0.89354900  1
  Li  Li5  1  0.50000000  0.99927000  0.99652800  1
  Li  Li6  1  0.00000000  0.50073000  0.49652800  1
  Li  Li7  1  0.50000000  0.66878500  0.39354900  1
  Fe  Fe8  1  0.74513350  0.41485050  0.21408100  1
  Fe  Fe9  1  0.50000000  0.33831200  0.49038600  1
  Fe  Fe10  1  0.25486650  0.41485050  0.21408100  1
  Fe  Fe11  1  0.50000000  0.16902600  0.21525200  1
  Fe  Fe12  1  0.00000000  0.33097400  0.71525200  1
  Fe  Fe13  1  0.00000000  0.16168800  0.99038600  1
  Fe  Fe14  1  0.24513350  0.08514950  0.71408100  1
  Fe  Fe15  1  0.75486650  0.08514950  0.71408100  1
  Fe  Fe16  1  0.24513350  0.91485050  0.21408100  1
  Fe  Fe17  1  0.00000000  0.83831200  0.49038600  1
  Fe  Fe18  1  0.75486650  0.91485050  0.21408100  1
  Fe  Fe19  1  0.00000000  0.66902600  0.21525200  1
  Fe  Fe20  1  0.50000000  0.83097400  0.71525200  1
  Fe  Fe21  1  0.50000000  0.66168800  0.99038600  1
  Fe  Fe22  1  0.74513350  0.58514950  0.71408100  1
  Fe  Fe23  1  0.25486650  0.58514950  0.71408100  1
  O  O24  1  0.74998450  0.42714450  0.60131200  1
  O  O25  1  0.50000000  0.48338400  0.33096700  1
  O  O26  1  0.50000000  0.33842500  0.10692100  1
  O  O27  1  0.00000000  0.49464600  0.30938500  1
  O  O28  1  0.50000000  0.00535400  0.80938500  1
  O  O29  1  0.25001550  0.42714450  0.60131200  1
  O  O30  1  0.72711600  0.26757500  0.33945200  1
  O  O31  1  0.27288400  0.26757500  0.33945200  1
  O  O32  1  0.00000000  0.33555100  0.10287600  1
  O  O33  1  0.50000000  0.16444900  0.60287600  1
  O  O34  1  0.22711600  0.23242500  0.83945200  1
  O  O35  1  0.77288400  0.23242500  0.83945200  1
  O  O36  1  0.00000000  0.16157500  0.60692100  1
  O  O37  1  0.24998450  0.07285550  0.10131200  1
  O  O38  1  0.00000000  0.01661600  0.83096700  1
  O  O39  1  0.75001550  0.07285550  0.10131200  1
  O  O40  1  0.24998450  0.92714450  0.60131200  1
  O  O41  1  0.00000000  0.98338400  0.33096700  1
  O  O42  1  0.00000000  0.83842500  0.10692100  1
  O  O43  1  0.50000000  0.99464600  0.30938500  1
  O  O44  1  0.00000000  0.50535400  0.80938500  1
  O  O45  1  0.75001550  0.92714450  0.60131200  1
  O  O46  1  0.22711600  0.76757500  0.33945200  1
  O  O47  1  0.77288400  0.76757500  0.33945200  1
  O  O48  1  0.50000000  0.83555100  0.10287600  1
  O  O49  1  0.00000000  0.66444900  0.60287600  1
  O  O50  1  0.72711600  0.73242500  0.83945200  1
  O  O51  1  0.27288400  0.73242500  0.83945200  1
  O  O52  1  0.50000000  0.66157500  0.60692100  1
  O  O53  1  0.74998450  0.57285550  0.10131200  1
  O  O54  1  0.50000000  0.51661600  0.83096700  1
  O  O55  1  0.25001550  0.57285550  0.10131200  1
