# generated using pymatgen
data_Li4Fe3Co(PO4)4
_symmetry_space_group_name_H-M   'P 1'
_cell_length_a   4.74079400
_cell_length_b   6.05977500
_cell_length_c   10.40131973
_cell_angle_alpha   90.00000000
_cell_angle_beta   90.09964901
_cell_angle_gamma   90.00000000
_symmetry_Int_Tables_number   1
_chemical_formula_structural   Li4Fe3Co(PO4)4
_chemical_formula_sum   'Li4 Fe3 Co1 P4 O16'
_cell_volume   298.81016910
_cell_formula_units_Z   1
loop_
 _symmetry_equiv_pos_site_id
 _symmetry_equiv_pos_as_xyz
  1  'x, y, z'
loop_
 _atom_site_type_symbol
 _atom_site_label
 _atom_site_symmetry_multiplicity
 _atom_site_fract_x
 _atom_site_fract_y
 _atom_site_fract_z
 _atom_site_occupancy
  Li  Li0  1  0.00028900  0.75034700  0.99951100  1
  Li  Li1  1  0.00028900  0.24965300  0.99951100  1
  Li  Li2  1  0.50004800  0.24984700  0.50041300  1
  Li  Li3  1  0.50004800  0.75015300  0.50041300  1
  Fe  Fe4  1  0.47448500  0.00000000  0.21850500  1
  Fe  Fe5  1  0.52519500  0.50000000  0.78054600  1
  Fe  Fe6  1  0.97408200  0.50000000  0.28197700  1
  Co  Co7  1  0.02444800  0.00000000  0.71967200  1
  P  P8  1  0.08290000  0.50000000  0.59534600  1
  P  P9  1  0.41756300  0.50000000  0.09449200  1
  P  P10  1  0.58235100  0.00000000  0.90472800  1
  P  P11  1  0.91773600  0.00000000  0.40589700  1
  O  O12  1  0.20620300  0.50000000  0.45639500  1
  O  O13  1  0.21700300  0.70422600  0.66585100  1
  O  O14  1  0.21700300  0.29577400  0.66585100  1
  O  O15  1  0.24199400  0.00000000  0.40250800  1
  O  O16  1  0.25797700  0.00000000  0.90227500  1
  O  O17  1  0.28298400  0.70380100  0.16548400  1
  O  O18  1  0.28298400  0.29619900  0.16548400  1
  O  O19  1  0.29364500  0.50000000  0.95620100  1
  O  O20  1  0.70645200  0.00000000  0.04350200  1
  O  O21  1  0.71719400  0.20382300  0.83396500  1
  O  O22  1  0.71719400  0.79617700  0.83396500  1
  O  O23  1  0.74195400  0.50000000  0.09738300  1
  O  O24  1  0.75827100  0.50000000  0.59725300  1
  O  O25  1  0.78292800  0.20380800  0.33444400  1
  O  O26  1  0.78292800  0.79619200  0.33444400  1
  O  O27  1  0.79385400  0.00000000  0.54398500  1
