# generated using pymatgen
data_FeHO2
_symmetry_space_group_name_H-M   'P 1'
_cell_length_a   3.09552900
_cell_length_b   12.00600307
_cell_length_c   3.90951790
_cell_angle_alpha   90.00000000
_cell_angle_beta   90.00000000
_cell_angle_gamma   90.00000000
_symmetry_Int_Tables_number   1
_chemical_formula_structural   FeHO2
_chemical_formula_sum   'Fe4 H4 O8'
_cell_volume   145.29696164
_cell_formula_units_Z   4
loop_
 _symmetry_equiv_pos_site_id
 _symmetry_equiv_pos_as_xyz
  1  'x, y, z'
loop_
 _atom_site_type_symbol
 _atom_site_label
 _atom_site_symmetry_multiplicity
 _atom_site_fract_x
 _atom_site_fract_y
 _atom_site_fract_z
 _atom_site_occupancy
  Fe  Fe0  1  0.50000000  0.32706675  0.25000000  1
  Fe  Fe1  1  0.00000000  0.17293325  0.75000000  1
  Fe  Fe2  1  0.00000000  0.82706675  0.25000000  1
  Fe  Fe3  1  0.50000000  0.67293325  0.75000000  1
  H  H4  1  0.00000000  0.50000000  0.50000000  1
  H  H5  1  0.00000000  0.50000000  0.00000000  1
  H  H6  1  0.50000000  0.00000000  0.50000000  1
  H  H7  1  0.50000000  0.00000000  0.00000000  1
  O  O8  1  0.00000000  0.20770125  0.25000000  1
  O  O9  1  0.50000000  0.29229875  0.75000000  1
  O  O10  1  0.00000000  0.43876750  0.25000000  1
  O  O11  1  0.50000000  0.06123250  0.75000000  1
  O  O12  1  0.50000000  0.70770125  0.25000000  1
  O  O13  1  0.00000000  0.79229875  0.75000000  1
  O  O14  1  0.50000000  0.93876750  0.25000000  1
  O  O15  1  0.00000000  0.56123250  0.75000000  1
