# generated using pymatgen
data_Li2VCr3O8
_symmetry_space_group_name_H-M   'P 1'
_cell_length_a   5.90699448
_cell_length_b   5.90699448
_cell_length_c   9.38588200
_cell_angle_alpha   90.00000000
_cell_angle_beta   90.00000000
_cell_angle_gamma   120.00000000
_symmetry_Int_Tables_number   1
_chemical_formula_structural   Li2VCr3O8
_chemical_formula_sum   'Li4 V2 Cr6 O16'
_cell_volume   283.62130532
_cell_formula_units_Z   2
loop_
 _symmetry_equiv_pos_site_id
 _symmetry_equiv_pos_as_xyz
  1  'x, y, z'
loop_
 _atom_site_type_symbol
 _atom_site_label
 _atom_site_symmetry_multiplicity
 _atom_site_fract_x
 _atom_site_fract_y
 _atom_site_fract_z
 _atom_site_occupancy
  Li  Li0  1  0.33333333  0.66666667  0.89825900  1
  Li  Li1  1  0.66666667  0.33333333  0.39825900  1
  Li  Li2  1  0.00000000  0.00000000  0.99341600  1
  Li  Li3  1  0.00000000  0.00000000  0.49341600  1
  V  V4  1  0.33333333  0.66666667  0.49442300  1
  V  V5  1  0.66666667  0.33333333  0.99442300  1
  Cr  Cr6  1  0.17213100  0.34426200  0.21519000  1
  Cr  Cr7  1  0.65573800  0.82786900  0.21519000  1
  Cr  Cr8  1  0.34426200  0.17213100  0.71519000  1
  Cr  Cr9  1  0.82786900  0.65573800  0.71519000  1
  Cr  Cr10  1  0.17213100  0.82786900  0.21519000  1
  Cr  Cr11  1  0.82786900  0.17213100  0.71519000  1
  O  O12  1  0.33333333  0.66666667  0.10353900  1
  O  O13  1  0.66666667  0.33333333  0.60353900  1
  O  O14  1  0.00000000  0.00000000  0.30616300  1
  O  O15  1  0.00000000  0.00000000  0.80616300  1
  O  O16  1  0.17439350  0.82560650  0.59117000  1
  O  O17  1  0.17439350  0.34878700  0.59117000  1
  O  O18  1  0.34878700  0.17439350  0.09117000  1
  O  O19  1  0.65121300  0.82560650  0.59117000  1
  O  O20  1  0.82560650  0.65121300  0.09117000  1
  O  O21  1  0.82560650  0.17439350  0.09117000  1
  O  O22  1  0.04419200  0.52209600  0.34709500  1
  O  O23  1  0.47790400  0.95580800  0.34709500  1
  O  O24  1  0.47790400  0.52209600  0.34709500  1
  O  O25  1  0.52209600  0.47790400  0.84709500  1
  O  O26  1  0.52209600  0.04419200  0.84709500  1
  O  O27  1  0.95580800  0.47790400  0.84709500  1
