# generated using pymatgen
data_Li3V12O29
_symmetry_space_group_name_H-M   'P 1'
_cell_length_a   28.45346800
_cell_length_b   3.69749800
_cell_length_c   10.38060531
_cell_angle_alpha   90.00000000
_cell_angle_beta   103.94511440
_cell_angle_gamma   90.00000000
_symmetry_Int_Tables_number   1
_chemical_formula_structural   Li3V12O29
_chemical_formula_sum   'Li6 V24 O58'
_cell_volume   1059.92092764
_cell_formula_units_Z   2
loop_
 _symmetry_equiv_pos_site_id
 _symmetry_equiv_pos_as_xyz
  1  'x, y, z'
loop_
 _atom_site_type_symbol
 _atom_site_label
 _atom_site_symmetry_multiplicity
 _atom_site_fract_x
 _atom_site_fract_y
 _atom_site_fract_z
 _atom_site_occupancy
  Li  Li0  1  0.00727200  0.00000000  0.32491200  1
  Li  Li1  1  0.23310900  0.50000000  0.48129200  1
  Li  Li2  1  0.49352300  0.50000000  0.67396100  1
  Li  Li3  1  0.50727200  0.50000000  0.32491200  1
  Li  Li4  1  0.73310900  0.00000000  0.48129200  1
  Li  Li5  1  0.99352300  0.00000000  0.67396100  1
  V  V6  1  0.06358500  0.00000000  0.07884700  1
  V  V7  1  0.14684100  0.00000000  0.33835400  1
  V  V8  1  0.17722600  0.00000000  0.01628200  1
  V  V9  1  0.30254700  0.00000000  0.20478800  1
  V  V10  1  0.39104700  0.00000000  0.46706800  1
  V  V11  1  0.41537900  0.00000000  0.14407500  1
  V  V12  1  0.08475200  0.50000000  0.85631700  1
  V  V13  1  0.10903100  0.50000000  0.53340400  1
  V  V14  1  0.19613700  0.50000000  0.78931000  1
  V  V15  1  0.32327700  0.50000000  0.97892100  1
  V  V16  1  0.35339300  0.50000000  0.65974700  1
  V  V17  1  0.43590000  0.50000000  0.92052400  1
  V  V18  1  0.56358500  0.50000000  0.07884700  1
  V  V19  1  0.64684100  0.50000000  0.33835400  1
  V  V20  1  0.67722600  0.50000000  0.01628200  1
  V  V21  1  0.80254700  0.50000000  0.20478800  1
  V  V22  1  0.89104700  0.50000000  0.46706800  1
  V  V23  1  0.91537900  0.50000000  0.14407500  1
  V  V24  1  0.58475200  0.00000000  0.85631700  1
  V  V25  1  0.60903100  0.00000000  0.53340400  1
  V  V26  1  0.69613700  0.00000000  0.78931000  1
  V  V27  1  0.82327700  0.00000000  0.97892100  1
  V  V28  1  0.85339300  0.00000000  0.65974700  1
  V  V29  1  0.93590000  0.00000000  0.92052400  1
  O  O30  1  0.09894000  0.00000000  0.91477200  1
  O  O31  1  0.06275400  0.00000000  0.24047400  1
  O  O32  1  0.12276800  0.00000000  0.50689500  1
  O  O33  1  0.14109300  0.00000000  0.16247400  1
  O  O34  1  0.19287700  0.00000000  0.84131100  1
  O  O35  1  0.20639000  0.00000000  0.39823000  1
  O  O36  1  0.23604500  0.00000000  0.11958000  1
  O  O37  1  0.29952500  0.00000000  0.36057700  1
  O  O38  1  0.36823700  0.00000000  0.63474600  1
  O  O39  1  0.33537700  0.00000000  0.03548700  1
  O  O40  1  0.37746400  0.00000000  0.28652400  1
  O  O41  1  0.43111700  0.00000000  0.96282500  1
  O  O42  1  0.45026200  0.00000000  0.51452700  1
  O  O43  1  0.47034100  0.00000000  0.25019200  1
  O  O44  1  0.02977100  0.50000000  0.75025000  1
  O  O45  1  0.00045200  0.00000000  0.00216000  1
  O  O46  1  0.04976300  0.50000000  0.48384300  1
  O  O47  1  0.06996400  0.50000000  0.03766000  1
  O  O48  1  0.12098100  0.50000000  0.71198000  1
  O  O49  1  0.16491200  0.50000000  0.96490800  1
  O  O50  1  0.13386900  0.50000000  0.36488200  1
  O  O51  1  0.19964500  0.50000000  0.63130400  1
  O  O52  1  0.26579700  0.50000000  0.88045100  1
  O  O53  1  0.29479900  0.50000000  0.60573600  1
  O  O54  1  0.30711400  0.50000000  0.16189800  1
  O  O55  1  0.36061100  0.50000000  0.83775400  1
  O  O56  1  0.37676300  0.50000000  0.49016200  1
  O  O57  1  0.43896100  0.50000000  0.76123600  1
  O  O58  1  0.40157700  0.50000000  0.08606400  1
  O  O59  1  0.59894000  0.50000000  0.91477200  1
  O  O60  1  0.56275400  0.50000000  0.24047400  1
  O  O61  1  0.62276800  0.50000000  0.50689500  1
  O  O62  1  0.64109300  0.50000000  0.16247400  1
  O  O63  1  0.69287700  0.50000000  0.84131100  1
  O  O64  1  0.70639000  0.50000000  0.39823000  1
  O  O65  1  0.73604500  0.50000000  0.11958000  1
  O  O66  1  0.79952500  0.50000000  0.36057700  1
  O  O67  1  0.86823700  0.50000000  0.63474600  1
  O  O68  1  0.83537700  0.50000000  0.03548700  1
  O  O69  1  0.87746400  0.50000000  0.28652400  1
  O  O70  1  0.93111700  0.50000000  0.96282500  1
  O  O71  1  0.95026200  0.50000000  0.51452700  1
  O  O72  1  0.97034100  0.50000000  0.25019200  1
  O  O73  1  0.52977100  0.00000000  0.75025000  1
  O  O74  1  0.50045200  0.50000000  0.00216000  1
  O  O75  1  0.54976300  0.00000000  0.48384300  1
  O  O76  1  0.56996400  0.00000000  0.03766000  1
  O  O77  1  0.62098100  0.00000000  0.71198000  1
  O  O78  1  0.66491200  0.00000000  0.96490800  1
  O  O79  1  0.63386900  0.00000000  0.36488200  1
  O  O80  1  0.69964500  0.00000000  0.63130400  1
  O  O81  1  0.76579700  0.00000000  0.88045100  1
  O  O82  1  0.79479900  0.00000000  0.60573600  1
  O  O83  1  0.80711400  0.00000000  0.16189800  1
  O  O84  1  0.86061100  0.00000000  0.83775400  1
  O  O85  1  0.87676300  0.00000000  0.49016200  1
  O  O86  1  0.93896100  0.00000000  0.76123600  1
  O  O87  1  0.90157700  0.00000000  0.08606400  1
