# generated using pymatgen
data_Li4Ti3Mn2Nb3O16
_symmetry_space_group_name_H-M   'P 1'
_cell_length_a   10.58931000
_cell_length_b   6.02754400
_cell_length_c   10.12993531
_cell_angle_alpha   90.00000000
_cell_angle_beta   90.36478604
_cell_angle_gamma   90.00000000
_symmetry_Int_Tables_number   1
_chemical_formula_structural   Li4Ti3Mn2Nb3O16
_chemical_formula_sum   'Li8 Ti6 Mn4 Nb6 O32'
_cell_volume   646.55566527
_cell_formula_units_Z   2
loop_
 _symmetry_equiv_pos_site_id
 _symmetry_equiv_pos_as_xyz
  1  'x, y, z'
loop_
 _atom_site_type_symbol
 _atom_site_label
 _atom_site_symmetry_multiplicity
 _atom_site_fract_x
 _atom_site_fract_y
 _atom_site_fract_z
 _atom_site_occupancy
  Li  Li0  1  0.66666300  0.00000000  0.10418900  1
  Li  Li1  1  0.50698200  0.50000000  0.00343300  1
  Li  Li2  1  0.50479300  0.50000000  0.50268100  1
  Li  Li3  1  0.83154900  0.50000000  0.61163600  1
  Li  Li4  1  0.16666300  0.50000000  0.10418900  1
  Li  Li5  1  0.00698200  0.00000000  0.00343300  1
  Li  Li6  1  0.00479300  0.00000000  0.50268100  1
  Li  Li7  1  0.33154900  0.00000000  0.61163600  1
  Ti  Ti8  1  0.58406050  0.75296950  0.78398600  1
  Ti  Ti9  1  0.58406050  0.24703050  0.78398600  1
  Ti  Ti10  1  0.66427000  0.50000000  0.27839400  1
  Ti  Ti11  1  0.08406050  0.25296950  0.78398600  1
  Ti  Ti12  1  0.08406050  0.74703050  0.78398600  1
  Ti  Ti13  1  0.16427000  0.00000000  0.27839400  1
  Mn  Mn14  1  0.67245200  0.00000000  0.50460500  1
  Mn  Mn15  1  0.83300200  0.50000000  0.99942700  1
  Mn  Mn16  1  0.17245200  0.50000000  0.50460500  1
  Mn  Mn17  1  0.33300200  0.00000000  0.99942700  1
  Nb  Nb18  1  0.83127000  0.00000000  0.78504100  1
  Nb  Nb19  1  0.91694700  0.27138000  0.28904600  1
  Nb  Nb20  1  0.91694700  0.72862000  0.28904600  1
  Nb  Nb21  1  0.33127000  0.50000000  0.78504100  1
  Nb  Nb22  1  0.41694700  0.77138000  0.28904600  1
  Nb  Nb23  1  0.41694700  0.22862000  0.28904600  1
  O  O24  1  0.57768500  0.73740600  0.39333700  1
  O  O25  1  0.51820500  0.00000000  0.67660700  1
  O  O26  1  0.66586900  0.00000000  0.89401400  1
  O  O27  1  0.50233000  0.50000000  0.68377400  1
  O  O28  1  0.50387400  0.50000000  0.18472300  1
  O  O29  1  0.57768500  0.26259400  0.39333700  1
  O  O30  1  0.74023150  0.77160750  0.67246800  1
  O  O31  1  0.74023150  0.22839250  0.67246800  1
  O  O32  1  0.65489100  0.50000000  0.89026000  1
  O  O33  1  0.84709700  0.00000000  0.40113300  1
  O  O34  1  0.75595150  0.27632650  0.17496400  1
  O  O35  1  0.75595150  0.72367350  0.17496400  1
  O  O36  1  0.81463600  0.50000000  0.40373400  1
  O  O37  1  0.92454600  0.23294000  0.89438100  1
  O  O38  1  0.98470500  0.50000000  0.15217600  1
  O  O39  1  0.92454600  0.76706000  0.89438100  1
  O  O40  1  0.07768500  0.23740600  0.39333700  1
  O  O41  1  0.01820500  0.50000000  0.67660700  1
  O  O42  1  0.16586900  0.50000000  0.89401400  1
  O  O43  1  0.00233000  0.00000000  0.68377400  1
  O  O44  1  0.00387400  0.00000000  0.18472300  1
  O  O45  1  0.07768500  0.76259400  0.39333700  1
  O  O46  1  0.24023150  0.27160750  0.67246800  1
  O  O47  1  0.24023150  0.72839250  0.67246800  1
  O  O48  1  0.15489100  0.00000000  0.89026000  1
  O  O49  1  0.34709700  0.50000000  0.40113300  1
  O  O50  1  0.25595150  0.77632650  0.17496400  1
  O  O51  1  0.25595150  0.22367350  0.17496400  1
  O  O52  1  0.31463600  0.00000000  0.40373400  1
  O  O53  1  0.42454600  0.73294000  0.89438100  1
  O  O54  1  0.48470500  0.00000000  0.15217600  1
  O  O55  1  0.42454600  0.26706000  0.89438100  1
