# generated using pymatgen
data_Li2MnCo3O8
_symmetry_space_group_name_H-M   'P 1'
_cell_length_a   9.77447200
_cell_length_b   5.69379600
_cell_length_c   5.82807691
_cell_angle_alpha   90.00000000
_cell_angle_beta   122.46194445
_cell_angle_gamma   90.00000000
_symmetry_Int_Tables_number   1
_chemical_formula_structural   Li2MnCo3O8
_chemical_formula_sum   'Li4 Mn2 Co6 O16'
_cell_volume   273.67385387
_cell_formula_units_Z   2
loop_
 _symmetry_equiv_pos_site_id
 _symmetry_equiv_pos_as_xyz
  1  'x, y, z'
loop_
 _atom_site_type_symbol
 _atom_site_label
 _atom_site_symmetry_multiplicity
 _atom_site_fract_x
 _atom_site_fract_y
 _atom_site_fract_z
 _atom_site_occupancy
  Li  Li0  1  0.25000000  0.25000000  0.50000000  1
  Li  Li1  1  0.25000000  0.75000000  0.50000000  1
  Li  Li2  1  0.75000000  0.75000000  0.50000000  1
  Li  Li3  1  0.75000000  0.25000000  0.50000000  1
  Mn  Mn4  1  0.00000000  0.00000000  0.00000000  1
  Mn  Mn5  1  0.50000000  0.50000000  0.00000000  1
  Co  Co6  1  0.50000000  0.00000000  0.00000000  1
  Co  Co7  1  0.25000000  0.25000000  0.00000000  1
  Co  Co8  1  0.25000000  0.75000000  0.00000000  1
  Co  Co9  1  0.00000000  0.50000000  0.00000000  1
  Co  Co10  1  0.75000000  0.75000000  0.00000000  1
  Co  Co11  1  0.75000000  0.25000000  0.00000000  1
  O  O12  1  0.48419950  0.24547250  0.20224100  1
  O  O13  1  0.48419950  0.75452750  0.20224100  1
  O  O14  1  0.72994300  0.00000000  0.20458800  1
  O  O15  1  0.23233800  0.00000000  0.20992700  1
  O  O16  1  0.76766200  0.00000000  0.79007300  1
  O  O17  1  0.27005700  0.00000000  0.79541200  1
  O  O18  1  0.51580050  0.24547250  0.79775900  1
  O  O19  1  0.51580050  0.75452750  0.79775900  1
  O  O20  1  0.98419950  0.74547250  0.20224100  1
  O  O21  1  0.98419950  0.25452750  0.20224100  1
  O  O22  1  0.22994300  0.50000000  0.20458800  1
  O  O23  1  0.73233800  0.50000000  0.20992700  1
  O  O24  1  0.26766200  0.50000000  0.79007300  1
  O  O25  1  0.77005700  0.50000000  0.79541200  1
  O  O26  1  0.01580050  0.74547250  0.79775900  1
  O  O27  1  0.01580050  0.25452750  0.79775900  1
