# generated using pymatgen
data_Li4Mn3SnO8
_symmetry_space_group_name_H-M   'P 1'
_cell_length_a   10.39279820
_cell_length_b   6.23405006
_cell_length_c   6.17867293
_cell_angle_alpha   90.00000000
_cell_angle_beta   125.33765768
_cell_angle_gamma   90.00000000
_symmetry_Int_Tables_number   1
_chemical_formula_structural   Li4Mn3SnO8
_chemical_formula_sum   'Li8 Mn6 Sn2 O16'
_cell_volume   326.55709484
_cell_formula_units_Z   2
loop_
 _symmetry_equiv_pos_site_id
 _symmetry_equiv_pos_as_xyz
  1  'x, y, z'
loop_
 _atom_site_type_symbol
 _atom_site_label
 _atom_site_symmetry_multiplicity
 _atom_site_fract_x
 _atom_site_fract_y
 _atom_site_fract_z
 _atom_site_occupancy
  Li  Li0  1  0.50000000  0.00000000  0.00000000  1
  Li  Li1  1  0.00000000  0.00000000  0.00000000  1
  Li  Li2  1  0.75000000  0.25000000  0.50000000  1
  Li  Li3  1  0.75000000  0.75000000  0.50000000  1
  Li  Li4  1  0.00000000  0.50000000  0.00000000  1
  Li  Li5  1  0.50000000  0.50000000  0.00000000  1
  Li  Li6  1  0.25000000  0.75000000  0.50000000  1
  Li  Li7  1  0.25000000  0.25000000  0.50000000  1
  Mn  Mn8  1  0.50000000  0.00000000  0.50000000  1
  Mn  Mn9  1  0.75000000  0.75000000  0.00000000  1
  Mn  Mn10  1  0.75000000  0.25000000  0.00000000  1
  Mn  Mn11  1  0.00000000  0.50000000  0.50000000  1
  Mn  Mn12  1  0.25000000  0.25000000  0.00000000  1
  Mn  Mn13  1  0.25000000  0.75000000  0.00000000  1
  Sn  Sn14  1  0.50000000  0.50000000  0.50000000  1
  Sn  Sn15  1  0.00000000  0.00000000  0.50000000  1
  O  O16  1  0.75345600  0.00000000  0.80370500  1
  O  O17  1  0.74654400  0.50000000  0.19629500  1
  O  O18  1  0.24401175  0.00000000  0.72093450  1
  O  O19  1  0.25598825  0.50000000  0.27906550  1
  O  O20  1  0.48536875  0.74103225  0.24395350  1
  O  O21  1  0.98536875  0.75896775  0.24395350  1
  O  O22  1  0.01463125  0.75896775  0.75604650  1
  O  O23  1  0.51463125  0.74103225  0.75604650  1
  O  O24  1  0.25345600  0.50000000  0.80370500  1
  O  O25  1  0.24654400  0.00000000  0.19629500  1
  O  O26  1  0.74401175  0.50000000  0.72093450  1
  O  O27  1  0.75598825  0.00000000  0.27906550  1
  O  O28  1  0.98536875  0.24103225  0.24395350  1
  O  O29  1  0.48536875  0.25896775  0.24395350  1
  O  O30  1  0.51463125  0.25896775  0.75604650  1
  O  O31  1  0.01463125  0.24103225  0.75604650  1
