# generated using pymatgen
data_Li2V3SbO8
_symmetry_space_group_name_H-M   'P 1'
_cell_length_a   6.03902107
_cell_length_b   6.03902107
_cell_length_c   15.19827586
_cell_angle_alpha   90.00000000
_cell_angle_beta   90.00000000
_cell_angle_gamma   120.00000000
_symmetry_Int_Tables_number   1
_chemical_formula_structural   Li2V3SbO8
_chemical_formula_sum   'Li6 V9 Sb3 O24'
_cell_volume   480.01857626
_cell_formula_units_Z   3
loop_
 _symmetry_equiv_pos_site_id
 _symmetry_equiv_pos_as_xyz
  1  'x, y, z'
loop_
 _atom_site_type_symbol
 _atom_site_label
 _atom_site_symmetry_multiplicity
 _atom_site_fract_x
 _atom_site_fract_y
 _atom_site_fract_z
 _atom_site_occupancy
  Li  Li0  1  0.66666667  0.33333333  0.20248133  1
  Li  Li1  1  0.00000000  0.00000000  0.13085200  1
  Li  Li2  1  0.33333333  0.66666667  0.53581467  1
  Li  Li3  1  0.66666667  0.33333333  0.46418533  1
  Li  Li4  1  0.00000000  0.00000000  0.86914800  1
  Li  Li5  1  0.33333333  0.66666667  0.79751867  1
  V  V6  1  0.50000000  0.50000000  0.00000000  1
  V  V7  1  0.00000000  0.50000000  0.00000000  1
  V  V8  1  0.50000000  0.00000000  0.00000000  1
  V  V9  1  0.16666667  0.83333333  0.33333333  1
  V  V10  1  0.66666667  0.83333333  0.33333333  1
  V  V11  1  0.16666667  0.33333333  0.33333333  1
  V  V12  1  0.83333333  0.16666667  0.66666667  1
  V  V13  1  0.33333333  0.16666667  0.66666667  1
  V  V14  1  0.83333333  0.66666667  0.66666667  1
  Sb  Sb15  1  0.33333333  0.66666667  0.16666667  1
  Sb  Sb16  1  1.00000000  1.00000000  0.50000000  1
  Sb  Sb17  1  0.66666667  0.33333333  0.83333333  1
  O  O18  1  0.66666667  0.33333333  0.06751000  1
  O  O19  1  0.00000000  0.00000000  0.26582333  1
  O  O20  1  0.48421617  0.96843233  0.25083033  1
  O  O21  1  0.03156767  0.51578383  0.25083033  1
  O  O22  1  0.48421617  0.51578383  0.25083033  1
  O  O23  1  0.18245050  0.81754950  0.08250300  1
  O  O24  1  0.63509900  0.81754950  0.08250300  1
  O  O25  1  0.18245050  0.36490100  0.08250300  1
  O  O26  1  0.33333333  0.66666667  0.40084333  1
  O  O27  1  0.66666667  0.33333333  0.59915667  1
  O  O28  1  0.15088283  0.30176567  0.58416367  1
  O  O29  1  0.69823433  0.84911717  0.58416367  1
  O  O30  1  0.15088283  0.84911717  0.58416367  1
  O  O31  1  0.84911717  0.15088283  0.41583633  1
  O  O32  1  0.30176567  0.15088283  0.41583633  1
  O  O33  1  0.84911717  0.69823433  0.41583633  1
  O  O34  1  0.00000000  0.00000000  0.73417667  1
  O  O35  1  0.33333333  0.66666667  0.93249000  1
  O  O36  1  0.81754950  0.63509900  0.91749700  1
  O  O37  1  0.36490100  0.18245050  0.91749700  1
  O  O38  1  0.81754950  0.18245050  0.91749700  1
  O  O39  1  0.51578383  0.48421617  0.74916967  1
  O  O40  1  0.96843233  0.48421617  0.74916967  1
  O  O41  1  0.51578383  0.03156767  0.74916967  1
