# generated using pymatgen
data_AgAuO3
_symmetry_space_group_name_H-M   'P 1'
_cell_length_a   7.46770200
_cell_length_b   10.45370000
_cell_length_c   7.53973300
_cell_angle_alpha   90.00000000
_cell_angle_beta   90.00000000
_cell_angle_gamma   90.00000000
_symmetry_Int_Tables_number   1
_chemical_formula_structural   AgAuO3
_chemical_formula_sum   'Ag8 Au8 O24'
_cell_volume   588.59013425
_cell_formula_units_Z   8
loop_
 _symmetry_equiv_pos_site_id
 _symmetry_equiv_pos_as_xyz
  1  'x, y, z'
loop_
 _atom_site_type_symbol
 _atom_site_label
 _atom_site_symmetry_multiplicity
 _atom_site_fract_x
 _atom_site_fract_y
 _atom_site_fract_z
 _atom_site_occupancy
  Ag  Ag0  1  0.50000000  0.86190700  0.25000000  1
  Ag  Ag1  1  0.50000000  0.50049700  0.75000000  1
  Ag  Ag2  1  0.50000000  0.13809300  0.75000000  1
  Ag  Ag3  1  0.50000000  0.49950300  0.25000000  1
  Ag  Ag4  1  0.00000000  0.36190700  0.25000000  1
  Ag  Ag5  1  0.00000000  0.00049700  0.75000000  1
  Ag  Ag6  1  0.00000000  0.63809300  0.75000000  1
  Ag  Ag7  1  0.00000000  0.99950300  0.25000000  1
  Au  Au8  1  0.25000000  0.75000000  0.00000000  1
  Au  Au9  1  0.25000000  0.75000000  0.50000000  1
  Au  Au10  1  0.25000000  0.25000000  0.00000000  1
  Au  Au11  1  0.25000000  0.25000000  0.50000000  1
  Au  Au12  1  0.75000000  0.25000000  0.00000000  1
  Au  Au13  1  0.75000000  0.25000000  0.50000000  1
  Au  Au14  1  0.75000000  0.75000000  0.00000000  1
  Au  Au15  1  0.75000000  0.75000000  0.50000000  1
  O  O16  1  0.33147600  0.85453300  0.75000000  1
  O  O17  1  0.33147600  0.14546700  0.25000000  1
  O  O18  1  0.28750350  0.01952450  0.25000000  1
  O  O19  1  0.28750350  0.98047550  0.75000000  1
  O  O20  1  0.50000000  0.66101200  0.01878400  1
  O  O21  1  0.50000000  0.66101200  0.48121600  1
  O  O22  1  0.50000000  0.33898800  0.51878400  1
  O  O23  1  0.50000000  0.33898800  0.98121600  1
  O  O24  1  0.71249650  0.98047550  0.75000000  1
  O  O25  1  0.71249650  0.01952450  0.25000000  1
  O  O26  1  0.66852400  0.14546700  0.25000000  1
  O  O27  1  0.66852400  0.85453300  0.75000000  1
  O  O28  1  0.83147600  0.35453300  0.75000000  1
  O  O29  1  0.83147600  0.64546700  0.25000000  1
  O  O30  1  0.78750350  0.51952450  0.25000000  1
  O  O31  1  0.78750350  0.48047550  0.75000000  1
  O  O32  1  0.00000000  0.16101200  0.01878400  1
  O  O33  1  0.00000000  0.16101200  0.48121600  1
  O  O34  1  0.00000000  0.83898800  0.51878400  1
  O  O35  1  0.00000000  0.83898800  0.98121600  1
  O  O36  1  0.21249650  0.48047550  0.75000000  1
  O  O37  1  0.21249650  0.51952450  0.25000000  1
  O  O38  1  0.16852400  0.64546700  0.25000000  1
  O  O39  1  0.16852400  0.35453300  0.75000000  1
