# generated using pymatgen
data_LiFe(PO3)4
_symmetry_space_group_name_H-M   'P 1'
_cell_length_a   16.33044000
_cell_length_b   7.52707000
_cell_length_c   9.96470854
_cell_angle_alpha   90.00000000
_cell_angle_beta   124.56798954
_cell_angle_gamma   90.00000000
_symmetry_Int_Tables_number   1
_chemical_formula_structural   LiFe(PO3)4
_chemical_formula_sum   'Li4 Fe4 P16 O48'
_cell_volume   1008.61985917
_cell_formula_units_Z   4
loop_
 _symmetry_equiv_pos_site_id
 _symmetry_equiv_pos_as_xyz
  1  'x, y, z'
loop_
 _atom_site_type_symbol
 _atom_site_label
 _atom_site_symmetry_multiplicity
 _atom_site_fract_x
 _atom_site_fract_y
 _atom_site_fract_z
 _atom_site_occupancy
  Li  Li0  1  0.00000000  0.16531100  0.25000000  1
  Li  Li1  1  0.00000000  0.83468900  0.75000000  1
  Li  Li2  1  0.50000000  0.66531100  0.25000000  1
  Li  Li3  1  0.50000000  0.33468900  0.75000000  1
  Fe  Fe4  1  0.00000000  0.71822000  0.25000000  1
  Fe  Fe5  1  0.00000000  0.28178000  0.75000000  1
  Fe  Fe6  1  0.50000000  0.21822000  0.25000000  1
  Fe  Fe7  1  0.50000000  0.78178000  0.75000000  1
  P  P8  1  0.64011700  0.68027300  0.11108500  1
  P  P9  1  0.64706450  0.08283450  0.16163100  1
  P  P10  1  0.85293550  0.58283450  0.33836900  1
  P  P11  1  0.85988300  0.18027300  0.38891500  1
  P  P12  1  0.14011700  0.81972700  0.61108500  1
  P  P13  1  0.14706450  0.41716550  0.66163100  1
  P  P14  1  0.35293550  0.91716550  0.83836900  1
  P  P15  1  0.35988300  0.31972700  0.88891500  1
  P  P16  1  0.14011700  0.18027300  0.11108500  1
  P  P17  1  0.14706450  0.58283450  0.16163100  1
  P  P18  1  0.35293550  0.08283450  0.33836900  1
  P  P19  1  0.35988300  0.68027300  0.38891500  1
  P  P20  1  0.64011700  0.31972700  0.61108500  1
  P  P21  1  0.64706450  0.91716550  0.66163100  1
  P  P22  1  0.85293550  0.41716550  0.83836900  1
  P  P23  1  0.85988300  0.81972700  0.88891500  1
  O  O24  1  0.62416300  0.22001300  0.03928000  1
  O  O25  1  0.65622800  0.89074100  0.10130000  1
  O  O26  1  0.10789300  0.13175200  0.21777400  1
  O  O27  1  0.74620550  0.60321350  0.16649600  1
  O  O28  1  0.92661750  0.87295050  0.07029000  1
  O  O29  1  0.75379450  0.10321350  0.33350400  1
  O  O30  1  0.89210700  0.13175200  0.28222600  1
  O  O31  1  0.92388950  0.56052750  0.28423400  1
  O  O32  1  0.07611050  0.56052750  0.21576600  1
  O  O33  1  0.84377200  0.39074100  0.39870000  1
  O  O34  1  0.87583700  0.72001300  0.46072000  1
  O  O35  1  0.07338250  0.87295050  0.42971000  1
  O  O36  1  0.92661750  0.12704950  0.57029000  1
  O  O37  1  0.12416300  0.27998700  0.53928000  1
  O  O38  1  0.15622800  0.60925900  0.60130000  1
  O  O39  1  0.92388950  0.43947250  0.78423400  1
  O  O40  1  0.07611050  0.43947250  0.71576600  1
  O  O41  1  0.10789300  0.86824800  0.71777400  1
  O  O42  1  0.24620550  0.89678650  0.66649600  1
  O  O43  1  0.07338250  0.12704950  0.92971000  1
  O  O44  1  0.25379450  0.39678650  0.83350400  1
  O  O45  1  0.89210700  0.86824800  0.78222600  1
  O  O46  1  0.34377200  0.10925900  0.89870000  1
  O  O47  1  0.37583700  0.77998700  0.96072000  1
  O  O48  1  0.12416300  0.72001300  0.03928000  1
  O  O49  1  0.15622800  0.39074100  0.10130000  1
  O  O50  1  0.60789300  0.63175200  0.21777400  1
  O  O51  1  0.24620550  0.10321350  0.16649600  1
  O  O52  1  0.42661750  0.37295050  0.07029000  1
  O  O53  1  0.25379450  0.60321350  0.33350400  1
  O  O54  1  0.39210700  0.63175200  0.28222600  1
  O  O55  1  0.42388950  0.06052750  0.28423400  1
  O  O56  1  0.57611050  0.06052750  0.21576600  1
  O  O57  1  0.34377200  0.89074100  0.39870000  1
  O  O58  1  0.37583700  0.22001300  0.46072000  1
  O  O59  1  0.57338250  0.37295050  0.42971000  1
  O  O60  1  0.42661750  0.62704950  0.57029000  1
  O  O61  1  0.62416300  0.77998700  0.53928000  1
  O  O62  1  0.65622800  0.10925900  0.60130000  1
  O  O63  1  0.42388950  0.93947250  0.78423400  1
  O  O64  1  0.57611050  0.93947250  0.71576600  1
  O  O65  1  0.60789300  0.36824800  0.71777400  1
  O  O66  1  0.74620550  0.39678650  0.66649600  1
  O  O67  1  0.57338250  0.62704950  0.92971000  1
  O  O68  1  0.75379450  0.89678650  0.83350400  1
  O  O69  1  0.39210700  0.36824800  0.78222600  1
  O  O70  1  0.84377200  0.60925900  0.89870000  1
  O  O71  1  0.87583700  0.27998700  0.96072000  1
