# generated using pymatgen
data_Li5Ti2Mn8O20
_symmetry_space_group_name_H-M   'P 1'
_cell_length_a   10.60413000
_cell_length_b   5.84097800
_cell_length_c   24.81875204
_cell_angle_alpha   90.00000000
_cell_angle_beta   101.25954168
_cell_angle_gamma   90.00000000
_symmetry_Int_Tables_number   1
_chemical_formula_structural   Li5Ti2Mn8O20
_chemical_formula_sum   'Li20 Ti8 Mn32 O80'
_cell_volume   1507.64850235
_cell_formula_units_Z   4
loop_
 _symmetry_equiv_pos_site_id
 _symmetry_equiv_pos_as_xyz
  1  'x, y, z'
loop_
 _atom_site_type_symbol
 _atom_site_label
 _atom_site_symmetry_multiplicity
 _atom_site_fract_x
 _atom_site_fract_y
 _atom_site_fract_z
 _atom_site_occupancy
  Li  Li0  1  0.48258700  0.00000000  0.42440400  1
  Li  Li1  1  0.51741300  0.00000000  0.57559600  1
  Li  Li2  1  0.62786700  0.50000000  0.37423100  1
  Li  Li3  1  0.37213300  0.50000000  0.62576900  1
  Li  Li4  1  0.43174900  0.50000000  0.77478800  1
  Li  Li5  1  0.77591900  0.50000000  0.82457600  1
  Li  Li6  1  0.82257700  0.50000000  0.97751400  1
  Li  Li7  1  0.56825100  0.50000000  0.22521200  1
  Li  Li8  1  0.17742300  0.50000000  0.02248600  1
  Li  Li9  1  0.22408100  0.50000000  0.17542400  1
  Li  Li10  1  0.98258700  0.50000000  0.42440400  1
  Li  Li11  1  0.01741300  0.50000000  0.57559600  1
  Li  Li12  1  0.12786700  0.00000000  0.37423100  1
  Li  Li13  1  0.87213300  0.00000000  0.62576900  1
  Li  Li14  1  0.93174900  0.00000000  0.77478800  1
  Li  Li15  1  0.27591900  0.00000000  0.82457600  1
  Li  Li16  1  0.32257700  0.00000000  0.97751400  1
  Li  Li17  1  0.06825100  0.00000000  0.22521200  1
  Li  Li18  1  0.67742300  0.00000000  0.02248600  1
  Li  Li19  1  0.72408100  0.00000000  0.17542400  1
  Ti  Ti20  1  0.31192200  0.50000000  0.40156100  1
  Ti  Ti21  1  0.68807800  0.50000000  0.59843900  1
  Ti  Ti22  1  0.79835300  0.00000000  0.90019500  1
  Ti  Ti23  1  0.20164700  0.00000000  0.09980500  1
  Ti  Ti24  1  0.81192200  0.00000000  0.40156100  1
  Ti  Ti25  1  0.18807800  0.00000000  0.59843900  1
  Ti  Ti26  1  0.29835300  0.50000000  0.90019500  1
  Ti  Ti27  1  0.70164700  0.50000000  0.09980500  1
  Mn  Mn28  1  0.50000000  0.50000000  0.50000000  1
  Mn  Mn29  1  0.25000000  0.25000000  0.50000000  1
  Mn  Mn30  1  0.25000000  0.75000000  0.50000000  1
  Mn  Mn31  1  0.40169900  0.00000000  0.69971300  1
  Mn  Mn32  1  0.60542700  0.00000000  0.80021500  1
  Mn  Mn33  1  0.65323600  0.24858000  0.69991000  1
  Mn  Mn34  1  0.54714200  0.24829200  0.90013400  1
  Mn  Mn35  1  0.65323600  0.75142000  0.69991000  1
  Mn  Mn36  1  0.54714200  0.75170800  0.90013400  1
  Mn  Mn37  1  0.00000000  0.00000000  0.00000000  1
  Mn  Mn38  1  0.45285800  0.75170800  0.09986600  1
  Mn  Mn39  1  0.45285800  0.24829200  0.09986600  1
  Mn  Mn40  1  0.59830100  0.00000000  0.30028700  1
  Mn  Mn41  1  0.39457300  0.00000000  0.19978500  1
  Mn  Mn42  1  0.34676400  0.24858000  0.30009000  1
  Mn  Mn43  1  0.34676400  0.75142000  0.30009000  1
  Mn  Mn44  1  0.00000000  0.00000000  0.50000000  1
  Mn  Mn45  1  0.75000000  0.75000000  0.50000000  1
  Mn  Mn46  1  0.75000000  0.25000000  0.50000000  1
  Mn  Mn47  1  0.90169900  0.50000000  0.69971300  1
  Mn  Mn48  1  0.10542700  0.50000000  0.80021500  1
  Mn  Mn49  1  0.15323600  0.74858000  0.69991000  1
  Mn  Mn50  1  0.04714200  0.74829200  0.90013400  1
  Mn  Mn51  1  0.15323600  0.25142000  0.69991000  1
  Mn  Mn52  1  0.04714200  0.25170800  0.90013400  1
  Mn  Mn53  1  0.50000000  0.50000000  0.00000000  1
  Mn  Mn54  1  0.95285800  0.25170800  0.09986600  1
  Mn  Mn55  1  0.95285800  0.74829200  0.09986600  1
  Mn  Mn56  1  0.09830100  0.50000000  0.30028700  1
  Mn  Mn57  1  0.89457300  0.50000000  0.19978500  1
  Mn  Mn58  1  0.84676400  0.74858000  0.30009000  1
  Mn  Mn59  1  0.84676400  0.25142000  0.30009000  1
  O  O60  1  0.59650700  0.27676700  0.55118900  1
  O  O61  1  0.59650700  0.72323300  0.55118900  1
  O  O62  1  0.40349300  0.27676700  0.44881100  1
  O  O63  1  0.40349300  0.72323300  0.44881100  1
  O  O64  1  0.56844800  0.50000000  0.65338200  1
  O  O65  1  0.34307800  0.50000000  0.54195100  1
  O  O66  1  0.67547200  0.00000000  0.44841800  1
  O  O67  1  0.56532300  0.00000000  0.65663700  1
  O  O68  1  0.32452800  0.00000000  0.55158200  1
  O  O69  1  0.65692200  0.50000000  0.45804900  1
  O  O70  1  0.51806700  0.77413700  0.74429100  1
  O  O71  1  0.51806700  0.22586300  0.74429100  1
  O  O72  1  0.78680700  0.72567100  0.65502700  1
  O  O73  1  0.78680700  0.27432900  0.65502700  1
  O  O74  1  0.73916100  0.50000000  0.74281000  1
  O  O75  1  0.46703600  0.00000000  0.85216100  1
  O  O76  1  0.44873000  0.50000000  0.85861100  1
  O  O77  1  0.73885000  0.00000000  0.74370600  1
  O  O78  1  0.90033200  0.77926400  0.95086600  1
  O  O79  1  0.90033200  0.22073600  0.95086600  1
  O  O80  1  0.70013600  0.22308900  0.85100200  1
  O  O81  1  0.70013600  0.77691100  0.85100200  1
  O  O82  1  0.09966800  0.77926400  0.04913400  1
  O  O83  1  0.09966800  0.22073600  0.04913400  1
  O  O84  1  0.37616600  0.50000000  0.04977700  1
  O  O85  1  0.55127000  0.50000000  0.14138900  1
  O  O86  1  0.64899200  0.00000000  0.94067000  1
  O  O87  1  0.53296400  0.00000000  0.14783900  1
  O  O88  1  0.62383400  0.50000000  0.95022300  1
  O  O89  1  0.35100800  0.00000000  0.05933000  1
  O  O90  1  0.29986400  0.77691100  0.14899800  1
  O  O91  1  0.29986400  0.22308900  0.14899800  1
  O  O92  1  0.48193300  0.77413700  0.25570900  1
  O  O93  1  0.48193300  0.22586300  0.25570900  1
  O  O94  1  0.26115000  0.00000000  0.25629400  1
  O  O95  1  0.43467700  0.00000000  0.34336300  1
  O  O96  1  0.26083900  0.50000000  0.25719000  1
  O  O97  1  0.43155200  0.50000000  0.34661800  1
  O  O98  1  0.21319300  0.72567100  0.34497300  1
  O  O99  1  0.21319300  0.27432900  0.34497300  1
  O  O100  1  0.09650700  0.77676700  0.55118900  1
  O  O101  1  0.09650700  0.22323300  0.55118900  1
  O  O102  1  0.90349300  0.77676700  0.44881100  1
  O  O103  1  0.90349300  0.22323300  0.44881100  1
  O  O104  1  0.06844800  0.00000000  0.65338200  1
  O  O105  1  0.84307800  0.00000000  0.54195100  1
  O  O106  1  0.17547200  0.50000000  0.44841800  1
  O  O107  1  0.06532300  0.50000000  0.65663700  1
  O  O108  1  0.82452800  0.50000000  0.55158200  1
  O  O109  1  0.15692200  0.00000000  0.45804900  1
  O  O110  1  0.01806700  0.27413700  0.74429100  1
  O  O111  1  0.01806700  0.72586300  0.74429100  1
  O  O112  1  0.28680700  0.22567100  0.65502700  1
  O  O113  1  0.28680700  0.77432900  0.65502700  1
  O  O114  1  0.23916100  0.00000000  0.74281000  1
  O  O115  1  0.96703600  0.50000000  0.85216100  1
  O  O116  1  0.94873000  0.00000000  0.85861100  1
  O  O117  1  0.23885000  0.50000000  0.74370600  1
  O  O118  1  0.40033200  0.27926400  0.95086600  1
  O  O119  1  0.40033200  0.72073600  0.95086600  1
  O  O120  1  0.20013600  0.72308900  0.85100200  1
  O  O121  1  0.20013600  0.27691100  0.85100200  1
  O  O122  1  0.59966800  0.27926400  0.04913400  1
  O  O123  1  0.59966800  0.72073600  0.04913400  1
  O  O124  1  0.87616600  0.00000000  0.04977700  1
  O  O125  1  0.05127000  0.00000000  0.14138900  1
  O  O126  1  0.14899200  0.50000000  0.94067000  1
  O  O127  1  0.03296400  0.50000000  0.14783900  1
  O  O128  1  0.12383400  0.00000000  0.95022300  1
  O  O129  1  0.85100800  0.50000000  0.05933000  1
  O  O130  1  0.79986400  0.27691100  0.14899800  1
  O  O131  1  0.79986400  0.72308900  0.14899800  1
  O  O132  1  0.98193300  0.27413700  0.25570900  1
  O  O133  1  0.98193300  0.72586300  0.25570900  1
  O  O134  1  0.76115000  0.50000000  0.25629400  1
  O  O135  1  0.93467700  0.50000000  0.34336300  1
  O  O136  1  0.76083900  0.00000000  0.25719000  1
  O  O137  1  0.93155200  0.00000000  0.34661800  1
  O  O138  1  0.71319300  0.22567100  0.34497300  1
  O  O139  1  0.71319300  0.77432900  0.34497300  1
