# generated using pymatgen
data_LiP4WO12
_symmetry_space_group_name_H-M   'P 1'
_cell_length_a   17.21041400
_cell_length_b   12.10034600
_cell_length_c   5.42936312
_cell_angle_alpha   90.00000000
_cell_angle_beta   100.44320965
_cell_angle_gamma   90.00000000
_symmetry_Int_Tables_number   1
_chemical_formula_structural   LiP4WO12
_chemical_formula_sum   'Li4 P16 W4 O48'
_cell_volume   1111.94595222
_cell_formula_units_Z   4
loop_
 _symmetry_equiv_pos_site_id
 _symmetry_equiv_pos_as_xyz
  1  'x, y, z'
loop_
 _atom_site_type_symbol
 _atom_site_label
 _atom_site_symmetry_multiplicity
 _atom_site_fract_x
 _atom_site_fract_y
 _atom_site_fract_z
 _atom_site_occupancy
  Li  Li0  1  0.43302700  0.00000000  0.39407900  1
  Li  Li1  1  0.56697300  0.00000000  0.60592100  1
  Li  Li2  1  0.93302700  0.50000000  0.39407900  1
  Li  Li3  1  0.06697300  0.50000000  0.60592100  1
  P  P4  1  0.57379200  0.20133200  0.18045000  1
  P  P5  1  0.57379200  0.79866800  0.18045000  1
  P  P6  1  0.82320550  0.87915550  0.53885800  1
  P  P7  1  0.82320550  0.12084450  0.53885800  1
  P  P8  1  0.17679450  0.12084450  0.46114200  1
  P  P9  1  0.17679450  0.87915550  0.46114200  1
  P  P10  1  0.42620800  0.20133200  0.81955000  1
  P  P11  1  0.42620800  0.79866800  0.81955000  1
  P  P12  1  0.07379200  0.70133200  0.18045000  1
  P  P13  1  0.07379200  0.29866800  0.18045000  1
  P  P14  1  0.32320550  0.37915550  0.53885800  1
  P  P15  1  0.32320550  0.62084450  0.53885800  1
  P  P16  1  0.67679450  0.62084450  0.46114200  1
  P  P17  1  0.67679450  0.37915550  0.46114200  1
  P  P18  1  0.92620800  0.70133200  0.81955000  1
  P  P19  1  0.92620800  0.29866800  0.81955000  1
  W  W20  1  0.25000000  0.25000000  0.00000000  1
  W  W21  1  0.25000000  0.75000000  0.00000000  1
  W  W22  1  0.75000000  0.75000000  0.00000000  1
  W  W23  1  0.75000000  0.25000000  0.00000000  1
  O  O24  1  0.50000000  0.74061800  0.00000000  1
  O  O25  1  0.50000000  0.25938200  0.00000000  1
  O  O26  1  0.80348800  0.12538700  0.25875000  1
  O  O27  1  0.80348800  0.87461300  0.25875000  1
  O  O28  1  0.36303250  0.17759550  0.97358600  1
  O  O29  1  0.36303250  0.82240450  0.97358600  1
  O  O30  1  0.54688400  0.10931300  0.32426600  1
  O  O31  1  0.54688400  0.89068700  0.32426600  1
  O  O32  1  0.60016350  0.30571150  0.36533500  1
  O  O33  1  0.60016350  0.69428850  0.36533500  1
  O  O34  1  0.85843500  0.00000000  0.61560500  1
  O  O35  1  0.24264250  0.14624850  0.32001900  1
  O  O36  1  0.24264250  0.85375150  0.32001900  1
  O  O37  1  0.75735750  0.14624850  0.67998100  1
  O  O38  1  0.75735750  0.85375150  0.67998100  1
  O  O39  1  0.14156500  0.00000000  0.38439500  1
  O  O40  1  0.39983650  0.30571150  0.63466500  1
  O  O41  1  0.39983650  0.69428850  0.63466500  1
  O  O42  1  0.45311600  0.89068700  0.67573400  1
  O  O43  1  0.45311600  0.10931300  0.67573400  1
  O  O44  1  0.63696750  0.17759550  0.02641400  1
  O  O45  1  0.63696750  0.82240450  0.02641400  1
  O  O46  1  0.19651200  0.12538700  0.74125000  1
  O  O47  1  0.19651200  0.87461300  0.74125000  1
  O  O48  1  0.00000000  0.24061800  0.00000000  1
  O  O49  1  0.00000000  0.75938200  0.00000000  1
  O  O50  1  0.30348800  0.62538700  0.25875000  1
  O  O51  1  0.30348800  0.37461300  0.25875000  1
  O  O52  1  0.86303250  0.67759550  0.97358600  1
  O  O53  1  0.86303250  0.32240450  0.97358600  1
  O  O54  1  0.04688400  0.60931300  0.32426600  1
  O  O55  1  0.04688400  0.39068700  0.32426600  1
  O  O56  1  0.10016350  0.80571150  0.36533500  1
  O  O57  1  0.10016350  0.19428850  0.36533500  1
  O  O58  1  0.35843500  0.50000000  0.61560500  1
  O  O59  1  0.74264250  0.64624850  0.32001900  1
  O  O60  1  0.74264250  0.35375150  0.32001900  1
  O  O61  1  0.25735750  0.64624850  0.67998100  1
  O  O62  1  0.25735750  0.35375150  0.67998100  1
  O  O63  1  0.64156500  0.50000000  0.38439500  1
  O  O64  1  0.89983650  0.80571150  0.63466500  1
  O  O65  1  0.89983650  0.19428850  0.63466500  1
  O  O66  1  0.95311600  0.39068700  0.67573400  1
  O  O67  1  0.95311600  0.60931300  0.67573400  1
  O  O68  1  0.13696750  0.67759550  0.02641400  1
  O  O69  1  0.13696750  0.32240450  0.02641400  1
  O  O70  1  0.69651200  0.62538700  0.74125000  1
  O  O71  1  0.69651200  0.37461300  0.74125000  1
