# generated using pymatgen
data_Li2VP2O7
_symmetry_space_group_name_H-M   'P 1'
_cell_length_a   8.85360243
_cell_length_b   5.12388320
_cell_length_c   13.33500217
_cell_angle_alpha   90.00000000
_cell_angle_beta   100.64230924
_cell_angle_gamma   90.00000000
_symmetry_Int_Tables_number   1
_chemical_formula_structural   Li2VP2O7
_chemical_formula_sum   'Li8 V4 P8 O28'
_cell_volume   594.53461067
_cell_formula_units_Z   4
loop_
 _symmetry_equiv_pos_site_id
 _symmetry_equiv_pos_as_xyz
  1  'x, y, z'
loop_
 _atom_site_type_symbol
 _atom_site_label
 _atom_site_symmetry_multiplicity
 _atom_site_fract_x
 _atom_site_fract_y
 _atom_site_fract_z
 _atom_site_occupancy
  Li  Li0  1  0.39095150  0.70805350  0.40402000  1
  Li  Li1  1  0.60904850  0.70805350  0.09598000  1
  Li  Li2  1  0.39095150  0.29194650  0.90402000  1
  Li  Li3  1  0.60904850  0.29194650  0.59598000  1
  Li  Li4  1  0.89095150  0.20805350  0.40402000  1
  Li  Li5  1  0.10904850  0.20805350  0.09598000  1
  Li  Li6  1  0.89095150  0.79194650  0.90402000  1
  Li  Li7  1  0.10904850  0.79194650  0.59598000  1
  V  V8  1  0.25000000  0.25000000  0.50000000  1
  V  V9  1  0.25000000  0.75000000  0.00000000  1
  V  V10  1  0.75000000  0.75000000  0.50000000  1
  V  V11  1  0.75000000  0.25000000  0.00000000  1
  P  P12  1  0.45479050  0.77727850  0.63151600  1
  P  P13  1  0.54520950  0.77727850  0.86848400  1
  P  P14  1  0.45479050  0.22272150  0.13151600  1
  P  P15  1  0.54520950  0.22272150  0.36848400  1
  P  P16  1  0.95479050  0.27727850  0.63151600  1
  P  P17  1  0.04520950  0.27727850  0.86848400  1
  P  P18  1  0.95479050  0.72272150  0.13151600  1
  P  P19  1  0.04520950  0.72272150  0.36848400  1
  O  O20  1  0.40628750  0.08484250  0.40002300  1
  O  O21  1  0.68811400  0.95257000  0.88305500  1
  O  O22  1  0.07507550  0.01409250  0.92118100  1
  O  O23  1  0.50000000  0.70002750  0.75000000  1
  O  O24  1  0.59371250  0.08484250  0.09997700  1
  O  O25  1  0.92492450  0.01409250  0.57881900  1
  O  O26  1  0.31188600  0.95257000  0.61694500  1
  O  O27  1  0.68811400  0.04743000  0.38305500  1
  O  O28  1  0.07507550  0.98590750  0.42118100  1
  O  O29  1  0.40628750  0.91515750  0.90002300  1
  O  O30  1  0.50000000  0.29997250  0.25000000  1
  O  O31  1  0.92492450  0.98590750  0.07881900  1
  O  O32  1  0.31188600  0.04743000  0.11694500  1
  O  O33  1  0.59371250  0.91515750  0.59997700  1
  O  O34  1  0.90628750  0.58484250  0.40002300  1
  O  O35  1  0.18811400  0.45257000  0.88305500  1
  O  O36  1  0.57507550  0.51409250  0.92118100  1
  O  O37  1  0.00000000  0.20002750  0.75000000  1
  O  O38  1  0.09371250  0.58484250  0.09997700  1
  O  O39  1  0.42492450  0.51409250  0.57881900  1
  O  O40  1  0.81188600  0.45257000  0.61694500  1
  O  O41  1  0.18811400  0.54743000  0.38305500  1
  O  O42  1  0.57507550  0.48590750  0.42118100  1
  O  O43  1  0.90628750  0.41515750  0.90002300  1
  O  O44  1  0.00000000  0.79997250  0.25000000  1
  O  O45  1  0.42492450  0.48590750  0.07881900  1
  O  O46  1  0.81188600  0.54743000  0.11694500  1
  O  O47  1  0.09371250  0.41515750  0.59997700  1
