# generated using pymatgen
data_Li3CrBAsO7
_symmetry_space_group_name_H-M   'P 1'
_cell_length_a   5.12133227
_cell_length_b   6.53239600
_cell_length_c   8.56205459
_cell_angle_alpha   90.00000000
_cell_angle_beta   95.30954609
_cell_angle_gamma   90.00000000
_symmetry_Int_Tables_number   1
_chemical_formula_structural   Li3CrBAsO7
_chemical_formula_sum   'Li6 Cr2 B2 As2 O14'
_cell_volume   285.21082910
_cell_formula_units_Z   2
loop_
 _symmetry_equiv_pos_site_id
 _symmetry_equiv_pos_as_xyz
  1  'x, y, z'
loop_
 _atom_site_type_symbol
 _atom_site_label
 _atom_site_symmetry_multiplicity
 _atom_site_fract_x
 _atom_site_fract_y
 _atom_site_fract_z
 _atom_site_occupancy
  Li  Li0  1  0.23874575  0.75000000  0.59367075  1
  Li  Li1  1  0.76125425  0.25000000  0.40632925  1
  Li  Li2  1  0.74844075  0.00982000  0.72527275  1
  Li  Li3  1  0.74844075  0.49018000  0.72527275  1
  Li  Li4  1  0.25155925  0.50982000  0.27472725  1
  Li  Li5  1  0.25155925  0.99018000  0.27472725  1
  Cr  Cr6  1  0.21206575  0.25000000  0.81201275  1
  Cr  Cr7  1  0.78793425  0.75000000  0.18798725  1
  B  B8  1  0.29704675  0.25000000  0.53688375  1
  B  B9  1  0.70295325  0.75000000  0.46311625  1
  As  As10  1  0.27252975  0.75000000  0.92230075  1
  As  As11  1  0.72747025  0.25000000  0.07769925  1
  O  O12  1  0.63961475  0.75000000  0.61314575  1
  O  O13  1  0.36038525  0.25000000  0.38685425  1
  O  O14  1  0.04192075  0.25000000  0.58587475  1
  O  O15  1  0.95807925  0.75000000  0.41412525  1
  O  O16  1  0.49046125  0.25000000  0.66530425  1
  O  O17  1  0.50953875  0.75000000  0.33469575  1
  O  O18  1  0.60671025  0.75000000  0.96717325  1
  O  O19  1  0.39328975  0.25000000  0.03282675  1
  O  O20  1  0.86081175  0.25000000  0.90196275  1
  O  O21  1  0.13918825  0.75000000  0.09803725  1
  O  O22  1  0.17481675  0.94531100  0.79423375  1
  O  O23  1  0.17481675  0.55468900  0.79423375  1
  O  O24  1  0.82518325  0.44531100  0.20576625  1
  O  O25  1  0.82518325  0.05468900  0.20576625  1
