# generated using pymatgen
data_Li2CrSi4O11
_symmetry_space_group_name_H-M   'P 1'
_cell_length_a   10.62735000
_cell_length_b   10.62735000
_cell_length_c   7.69241600
_cell_angle_alpha   90.00000000
_cell_angle_beta   90.00000000
_cell_angle_gamma   90.00000000
_symmetry_Int_Tables_number   1
_chemical_formula_structural   Li2CrSi4O11
_chemical_formula_sum   'Li8 Cr4 Si16 O44'
_cell_volume   868.78583251
_cell_formula_units_Z   4
loop_
 _symmetry_equiv_pos_site_id
 _symmetry_equiv_pos_as_xyz
  1  'x, y, z'
loop_
 _atom_site_type_symbol
 _atom_site_label
 _atom_site_symmetry_multiplicity
 _atom_site_fract_x
 _atom_site_fract_y
 _atom_site_fract_z
 _atom_site_occupancy
  Li  Li0  1  0.84484800  0.12133800  0.50000000  1
  Li  Li1  1  0.62133800  0.65515200  0.00000000  1
  Li  Li2  1  0.37866200  0.34484800  0.00000000  1
  Li  Li3  1  0.15515200  0.87866200  0.50000000  1
  Li  Li4  1  0.34484800  0.62133800  0.00000000  1
  Li  Li5  1  0.12133800  0.15515200  0.50000000  1
  Li  Li6  1  0.87866200  0.84484800  0.50000000  1
  Li  Li7  1  0.65515200  0.37866200  0.00000000  1
  Cr  Cr8  1  0.00000000  0.00000000  0.75534000  1
  Cr  Cr9  1  0.00000000  0.00000000  0.24466000  1
  Cr  Cr10  1  0.50000000  0.50000000  0.25534000  1
  Cr  Cr11  1  0.50000000  0.50000000  0.74466000  1
  Si  Si12  1  0.69619650  0.98174750  0.80394350  1
  Si  Si13  1  0.69619650  0.98174750  0.19605650  1
  Si  Si14  1  0.51825250  0.19619650  0.30394350  1
  Si  Si15  1  0.51825250  0.19619650  0.69605650  1
  Si  Si16  1  0.48174750  0.80380350  0.69605650  1
  Si  Si17  1  0.48174750  0.80380350  0.30394350  1
  Si  Si18  1  0.30380350  0.01825250  0.80394350  1
  Si  Si19  1  0.30380350  0.01825250  0.19605650  1
  Si  Si20  1  0.19619650  0.48174750  0.30394350  1
  Si  Si21  1  0.19619650  0.48174750  0.69605650  1
  Si  Si22  1  0.01825250  0.69619650  0.80394350  1
  Si  Si23  1  0.01825250  0.69619650  0.19605650  1
  Si  Si24  1  0.98174750  0.30380350  0.19605650  1
  Si  Si25  1  0.98174750  0.30380350  0.80394350  1
  Si  Si26  1  0.80380350  0.51825250  0.30394350  1
  Si  Si27  1  0.80380350  0.51825250  0.69605650  1
  O  O28  1  0.00000000  0.00000000  0.00000000  1
  O  O29  1  0.00000000  0.00000000  0.50000000  1
  O  O30  1  0.82640950  0.93435650  0.71948450  1
  O  O31  1  0.82640950  0.93435650  0.28051550  1
  O  O32  1  0.71402350  0.03741650  0.00000000  1
  O  O33  1  0.63650800  0.09615900  0.68602700  1
  O  O34  1  0.63650800  0.09615900  0.31397300  1
  O  O35  1  0.59615900  0.86349200  0.81397300  1
  O  O36  1  0.59615900  0.86349200  0.18602700  1
  O  O37  1  0.56564350  0.32640950  0.21948450  1
  O  O38  1  0.56564350  0.32640950  0.78051550  1
  O  O39  1  0.53741650  0.78597650  0.50000000  1
  O  O40  1  0.46258350  0.21402350  0.50000000  1
  O  O41  1  0.43435650  0.67359050  0.21948450  1
  O  O42  1  0.43435650  0.67359050  0.78051550  1
  O  O43  1  0.40384100  0.13650800  0.81397300  1
  O  O44  1  0.40384100  0.13650800  0.18602700  1
  O  O45  1  0.36349200  0.90384100  0.68602700  1
  O  O46  1  0.36349200  0.90384100  0.31397300  1
  O  O47  1  0.28597650  0.96258350  0.00000000  1
  O  O48  1  0.17359050  0.06564350  0.71948450  1
  O  O49  1  0.17359050  0.06564350  0.28051550  1
  O  O50  1  0.50000000  0.50000000  0.50000000  1
  O  O51  1  0.50000000  0.50000000  0.00000000  1
  O  O52  1  0.32640950  0.43435650  0.21948450  1
  O  O53  1  0.32640950  0.43435650  0.78051550  1
  O  O54  1  0.21402350  0.53741650  0.50000000  1
  O  O55  1  0.13650800  0.59615900  0.18602700  1
  O  O56  1  0.13650800  0.59615900  0.81397300  1
  O  O57  1  0.09615900  0.36349200  0.31397300  1
  O  O58  1  0.09615900  0.36349200  0.68602700  1
  O  O59  1  0.06564350  0.82640950  0.71948450  1
  O  O60  1  0.06564350  0.82640950  0.28051550  1
  O  O61  1  0.03741650  0.28597650  0.00000000  1
  O  O62  1  0.96258350  0.71402350  0.00000000  1
  O  O63  1  0.93435650  0.17359050  0.71948450  1
  O  O64  1  0.93435650  0.17359050  0.28051550  1
  O  O65  1  0.90384100  0.63650800  0.31397300  1
  O  O66  1  0.90384100  0.63650800  0.68602700  1
  O  O67  1  0.86349200  0.40384100  0.18602700  1
  O  O68  1  0.86349200  0.40384100  0.81397300  1
  O  O69  1  0.78597650  0.46258350  0.50000000  1
  O  O70  1  0.67359050  0.56564350  0.21948450  1
  O  O71  1  0.67359050  0.56564350  0.78051550  1
