# generated using pymatgen
data_Co7O12
_symmetry_space_group_name_H-M   'P 1'
_cell_length_a   4.91047200
_cell_length_b   8.62940800
_cell_length_c   9.62267720
_cell_angle_alpha   90.00000000
_cell_angle_beta   102.55764912
_cell_angle_gamma   90.00000000
_symmetry_Int_Tables_number   1
_chemical_formula_structural   Co7O12
_chemical_formula_sum   'Co14 O24'
_cell_volume   398.00137018
_cell_formula_units_Z   2
loop_
 _symmetry_equiv_pos_site_id
 _symmetry_equiv_pos_as_xyz
  1  'x, y, z'
loop_
 _atom_site_type_symbol
 _atom_site_label
 _atom_site_symmetry_multiplicity
 _atom_site_fract_x
 _atom_site_fract_y
 _atom_site_fract_z
 _atom_site_occupancy
  Co  Co0  1  0.50000000  0.59012500  0.50000000  1
  Co  Co1  1  0.77525550  0.76942850  0.77293600  1
  Co  Co2  1  0.50000000  0.73642600  0.00000000  1
  Co  Co3  1  0.22474450  0.76942850  0.22706400  1
  Co  Co4  1  0.50000000  0.92406800  0.50000000  1
  Co  Co5  1  0.00000000  0.55935400  0.00000000  1
  Co  Co6  1  0.00000000  0.75627700  0.50000000  1
  Co  Co7  1  0.00000000  0.09012500  0.50000000  1
  Co  Co8  1  0.27525550  0.26942850  0.77293600  1
  Co  Co9  1  0.00000000  0.23642600  0.00000000  1
  Co  Co10  1  0.72474450  0.26942850  0.22706400  1
  Co  Co11  1  0.00000000  0.42406800  0.50000000  1
  Co  Co12  1  0.50000000  0.05935400  0.00000000  1
  Co  Co13  1  0.50000000  0.25627700  0.50000000  1
  O  O14  1  0.65354500  0.59776800  0.88397000  1
  O  O15  1  0.34645500  0.59776800  0.11603000  1
  O  O16  1  0.58892900  0.76952800  0.38411200  1
  O  O17  1  0.41107100  0.76952800  0.61588800  1
  O  O18  1  0.61128350  0.89566450  0.89630600  1
  O  O19  1  0.38871650  0.89566450  0.10369400  1
  O  O20  1  0.12947800  0.59337400  0.39838600  1
  O  O21  1  0.87052200  0.59337400  0.60161400  1
  O  O22  1  0.12701250  0.71671850  0.89000800  1
  O  O23  1  0.87298750  0.71671850  0.10999200  1
  O  O24  1  0.13043500  0.91368500  0.38961000  1
  O  O25  1  0.86956500  0.91368500  0.61039000  1
  O  O26  1  0.15354500  0.09776800  0.88397000  1
  O  O27  1  0.84645500  0.09776800  0.11603000  1
  O  O28  1  0.08892900  0.26952800  0.38411200  1
  O  O29  1  0.91107100  0.26952800  0.61588800  1
  O  O30  1  0.11128350  0.39566450  0.89630600  1
  O  O31  1  0.88871650  0.39566450  0.10369400  1
  O  O32  1  0.62947800  0.09337400  0.39838600  1
  O  O33  1  0.37052200  0.09337400  0.60161400  1
  O  O34  1  0.62701250  0.21671850  0.89000800  1
  O  O35  1  0.37298750  0.21671850  0.10999200  1
  O  O36  1  0.63043500  0.41368500  0.38961000  1
  O  O37  1  0.36956500  0.41368500  0.61039000  1
