# generated using pymatgen
data_LiV3P5O19
_symmetry_space_group_name_H-M   'P 1'
_cell_length_a   9.26933400
_cell_length_b   14.25873000
_cell_length_c   6.35293541
_cell_angle_alpha   90.00000000
_cell_angle_beta   105.57491378
_cell_angle_gamma   90.00000000
_symmetry_Int_Tables_number   1
_chemical_formula_structural   LiV3P5O19
_chemical_formula_sum   'Li2 V6 P10 O38'
_cell_volume   808.82852247
_cell_formula_units_Z   2
loop_
 _symmetry_equiv_pos_site_id
 _symmetry_equiv_pos_as_xyz
  1  'x, y, z'
loop_
 _atom_site_type_symbol
 _atom_site_label
 _atom_site_symmetry_multiplicity
 _atom_site_fract_x
 _atom_site_fract_y
 _atom_site_fract_z
 _atom_site_occupancy
  Li  Li0  1  0.90419900  0.00000000  0.47137300  1
  Li  Li1  1  0.40419900  0.50000000  0.47137300  1
  V  V2  1  0.23474700  0.00000000  0.15567000  1
  V  V3  1  0.63371300  0.87788500  0.82077500  1
  V  V4  1  0.63371300  0.12211500  0.82077500  1
  V  V5  1  0.73474700  0.50000000  0.15567000  1
  V  V6  1  0.13371300  0.37788500  0.82077500  1
  V  V7  1  0.13371300  0.62211500  0.82077500  1
  P  P8  1  0.32741900  0.00000000  0.69570500  1
  P  P9  1  0.53851800  0.85374300  0.27213300  1
  P  P10  1  0.53851800  0.14625700  0.27213300  1
  P  P11  1  0.50139150  0.68523850  0.99972100  1
  P  P12  1  0.50139150  0.31476150  0.99972100  1
  P  P13  1  0.82741900  0.50000000  0.69570500  1
  P  P14  1  0.03851800  0.35374300  0.27213300  1
  P  P15  1  0.03851800  0.64625700  0.27213300  1
  P  P16  1  0.00139150  0.18523850  0.99972100  1
  P  P17  1  0.00139150  0.81476150  0.99972100  1
  O  O18  1  0.21982400  0.00000000  0.84507800  1
  O  O19  1  0.22176900  0.00000000  0.46126300  1
  O  O20  1  0.33979300  0.66218800  0.88478600  1
  O  O21  1  0.33979300  0.33781200  0.88478600  1
  O  O22  1  0.42276700  0.90930400  0.73800000  1
  O  O23  1  0.42276700  0.09069600  0.73800000  1
  O  O24  1  0.38758000  0.09595100  0.22170200  1
  O  O25  1  0.38758000  0.90404900  0.22170200  1
  O  O26  1  0.57679800  0.74057800  0.85630900  1
  O  O27  1  0.57679800  0.25942200  0.85630900  1
  O  O28  1  0.49864600  0.25449700  0.21460200  1
  O  O29  1  0.49864600  0.74550300  0.21460200  1
  O  O30  1  0.62424250  0.85641650  0.51086800  1
  O  O31  1  0.62424250  0.14358350  0.51086800  1
  O  O32  1  0.67987800  0.00000000  0.81025200  1
  O  O33  1  0.58110200  0.40500800  0.09870000  1
  O  O34  1  0.58110200  0.59499200  0.09870000  1
  O  O35  1  0.64196950  0.88951050  0.13696500  1
  O  O36  1  0.64196950  0.11048950  0.13696500  1
  O  O37  1  0.71982400  0.50000000  0.84507800  1
  O  O38  1  0.72176900  0.50000000  0.46126300  1
  O  O39  1  0.83979300  0.16218800  0.88478600  1
  O  O40  1  0.83979300  0.83781200  0.88478600  1
  O  O41  1  0.92276700  0.40930400  0.73800000  1
  O  O42  1  0.92276700  0.59069600  0.73800000  1
  O  O43  1  0.88758000  0.59595100  0.22170200  1
  O  O44  1  0.88758000  0.40404900  0.22170200  1
  O  O45  1  0.07679800  0.24057800  0.85630900  1
  O  O46  1  0.07679800  0.75942200  0.85630900  1
  O  O47  1  0.99864600  0.75449700  0.21460200  1
  O  O48  1  0.99864600  0.24550300  0.21460200  1
  O  O49  1  0.12424250  0.35641650  0.51086800  1
  O  O50  1  0.12424250  0.64358350  0.51086800  1
  O  O51  1  0.17987800  0.50000000  0.81025200  1
  O  O52  1  0.08110200  0.90500800  0.09870000  1
  O  O53  1  0.08110200  0.09499200  0.09870000  1
  O  O54  1  0.14196950  0.38951050  0.13696500  1
  O  O55  1  0.14196950  0.61048950  0.13696500  1
