# generated using pymatgen
data_TiMn2Fe3(PO4)6
_symmetry_space_group_name_H-M   'P 1'
_cell_length_a   8.65615666
_cell_length_b   8.65615666
_cell_length_c   21.06355545
_cell_angle_alpha   90.00000000
_cell_angle_beta   90.00000000
_cell_angle_gamma   120.00000000
_symmetry_Int_Tables_number   1
_chemical_formula_structural   TiMn2Fe3(PO4)6
_chemical_formula_sum   'Ti3 Mn6 Fe9 P18 O72'
_cell_volume   1366.82378309
_cell_formula_units_Z   3
loop_
 _symmetry_equiv_pos_site_id
 _symmetry_equiv_pos_as_xyz
  1  'x, y, z'
loop_
 _atom_site_type_symbol
 _atom_site_label
 _atom_site_symmetry_multiplicity
 _atom_site_fract_x
 _atom_site_fract_y
 _atom_site_fract_z
 _atom_site_occupancy
  Ti  Ti0  1  0.33333333  0.66666667  0.81184467  1
  Ti  Ti1  1  0.00000000  0.00000000  0.14517800  1
  Ti  Ti2  1  0.66666667  0.33333333  0.47851133  1
  Mn  Mn3  1  0.33333333  0.66666667  0.66557067  1
  Mn  Mn4  1  0.33333333  0.66666667  0.16601867  1
  Mn  Mn5  1  0.00000000  0.00000000  0.99890400  1
  Mn  Mn6  1  0.00000000  0.00000000  0.49935200  1
  Mn  Mn7  1  0.66666667  0.33333333  0.33223733  1
  Mn  Mn8  1  0.66666667  0.33333333  0.83268533  1
  Fe  Fe9  1  0.33333333  0.66666667  0.52116667  1
  Fe  Fe10  1  0.33333333  0.66666667  0.31197267  1
  Fe  Fe11  1  0.33333333  0.66666667  0.02141167  1
  Fe  Fe12  1  0.00000000  0.00000000  0.85450000  1
  Fe  Fe13  1  0.00000000  0.00000000  0.64530600  1
  Fe  Fe14  1  0.00000000  0.00000000  0.35474500  1
  Fe  Fe15  1  0.66666667  0.33333333  0.18783333  1
  Fe  Fe16  1  0.66666667  0.33333333  0.97863933  1
  Fe  Fe17  1  0.66666667  0.33333333  0.68807833  1
  P  P18  1  0.37264400  0.33352200  0.08358500  1
  P  P19  1  0.96087800  0.62735600  0.08358500  1
  P  P20  1  0.66647800  0.03912200  0.08358500  1
  P  P21  1  0.00022200  0.29421900  0.25032600  1
  P  P22  1  0.70578100  0.70600300  0.25032600  1
  P  P23  1  0.29399700  0.99977800  0.25032600  1
  P  P24  1  0.03931067  0.66685533  0.41691833  1
  P  P25  1  0.62754467  0.96068933  0.41691833  1
  P  P26  1  0.33314467  0.37245533  0.41691833  1
  P  P27  1  0.66688867  0.62755233  0.58365933  1
  P  P28  1  0.37244767  0.03933633  0.58365933  1
  P  P29  1  0.96066367  0.33311133  0.58365933  1
  P  P30  1  0.70597733  0.00018867  0.75025167  1
  P  P31  1  0.29421133  0.29402267  0.75025167  1
  P  P32  1  0.99981133  0.70578867  0.75025167  1
  P  P33  1  0.33355533  0.96088567  0.91699267  1
  P  P34  1  0.03911433  0.37266967  0.91699267  1
  P  P35  1  0.62733033  0.66644467  0.91699267  1
  O  O36  1  0.33254267  0.46837333  0.35608533  1
  O  O37  1  0.13583067  0.66745733  0.35608533  1
  O  O38  1  0.83283533  0.31507467  0.25520367  1
  O  O39  1  0.53162667  0.86416933  0.35608533  1
  O  O40  1  0.32728000  0.85122900  0.85744000  1
  O  O41  1  0.17008067  0.48073833  0.24179233  1
  O  O42  1  0.68492533  0.51776067  0.25520367  1
  O  O43  1  0.51926167  0.68934233  0.24179233  1
  O  O44  1  0.46877133  0.33100167  0.14382667  1
  O  O45  1  0.31065767  0.82991933  0.24179233  1
  O  O46  1  0.18097033  0.16526667  0.07889867  1
  O  O47  1  0.86223033  0.53122867  0.14382667  1
  O  O48  1  0.14877100  0.47605100  0.85744000  1
  O  O49  1  0.48223933  0.16716467  0.25520367  1
  O  O50  1  0.34950933  0.50105067  0.08962567  1
  O  O51  1  0.52394900  0.67272000  0.85744000  1
  O  O52  1  0.15154133  0.65049067  0.08962567  1
  O  O53  1  0.98429633  0.81902967  0.07889867  1
  O  O54  1  0.49894933  0.84845867  0.08962567  1
  O  O55  1  0.66899833  0.13776967  0.14382667  1
  O  O56  1  0.13332267  0.47287633  0.97722333  1
  O  O57  1  0.83473333  0.01570367  0.07889867  1
  O  O58  1  0.52712367  0.66044633  0.97722333  1
  O  O59  1  0.33955367  0.86667733  0.97722333  1
  O  O60  1  0.99920933  0.80170667  0.68941867  1
  O  O61  1  0.80249733  0.00079067  0.68941867  1
  O  O62  1  0.49950200  0.64840800  0.58853700  1
  O  O63  1  0.19829333  0.19750267  0.68941867  1
  O  O64  1  0.99394667  0.18456233  0.19077333  1
  O  O65  1  0.83674733  0.81407167  0.57512567  1
  O  O66  1  0.35159200  0.85109400  0.58853700  1
  O  O67  1  0.18592833  0.02267567  0.57512567  1
  O  O68  1  0.13543800  0.66433500  0.47716000  1
  O  O69  1  0.97732433  0.16325267  0.57512567  1
  O  O70  1  0.84763700  0.49860000  0.41223200  1
  O  O71  1  0.52889700  0.86456200  0.47716000  1
  O  O72  1  0.81543767  0.80938433  0.19077333  1
  O  O73  1  0.14890600  0.50049800  0.58853700  1
  O  O74  1  0.01617600  0.83438400  0.42295900  1
  O  O75  1  0.19061567  0.00605333  0.19077333  1
  O  O76  1  0.81820800  0.98382400  0.42295900  1
  O  O77  1  0.65096300  0.15236300  0.41223200  1
  O  O78  1  0.16561600  0.18179200  0.42295900  1
  O  O79  1  0.33566500  0.47110300  0.47716000  1
  O  O80  1  0.79998933  0.80620967  0.31055667  1
  O  O81  1  0.50140000  0.34903700  0.41223200  1
  O  O82  1  0.19379033  0.99377967  0.31055667  1
  O  O83  1  0.00622033  0.20001067  0.31055667  1
  O  O84  1  0.66587600  0.13504000  0.02275200  1
  O  O85  1  0.46916400  0.33412400  0.02275200  1
  O  O86  1  0.16616867  0.98174133  0.92187033  1
  O  O87  1  0.86496000  0.53083600  0.02275200  1
  O  O88  1  0.66061333  0.51789567  0.52410667  1
  O  O89  1  0.50341400  0.14740500  0.90845900  1
  O  O90  1  0.01825867  0.18442733  0.92187033  1
  O  O91  1  0.85259500  0.35600900  0.90845900  1
  O  O92  1  0.80210467  0.99766833  0.81049333  1
  O  O93  1  0.64399100  0.49658600  0.90845900  1
  O  O94  1  0.51430367  0.83193333  0.74556533  1
  O  O95  1  0.19556367  0.19789533  0.81049333  1
  O  O96  1  0.48210433  0.14271767  0.52410667  1
  O  O97  1  0.81557267  0.83383133  0.92187033  1
  O  O98  1  0.68284267  0.16771733  0.75629233  1
  O  O99  1  0.85728233  0.33938667  0.52410667  1
  O  O100  1  0.48487467  0.31715733  0.75629233  1
  O  O101  1  0.31762967  0.48569633  0.74556533  1
  O  O102  1  0.83228267  0.51512533  0.75629233  1
  O  O103  1  0.00233167  0.80443633  0.81049333  1
  O  O104  1  0.46665600  0.13954300  0.64389000  1
  O  O105  1  0.16806667  0.68237033  0.74556533  1
  O  O106  1  0.86045700  0.32711300  0.64389000  1
  O  O107  1  0.67288700  0.53334400  0.64389000  1
