# generated using pymatgen
data_Li2FeO2F
_symmetry_space_group_name_H-M   'P 1'
_cell_length_a   5.12943200
_cell_length_b   9.05636000
_cell_length_c   9.88584279
_cell_angle_alpha   90.00000000
_cell_angle_beta   100.26834167
_cell_angle_gamma   90.00000000
_symmetry_Int_Tables_number   1
_chemical_formula_structural   Li2FeO2F
_chemical_formula_sum   'Li16 Fe8 O16 F8'
_cell_volume   451.88148920
_cell_formula_units_Z   8
loop_
 _symmetry_equiv_pos_site_id
 _symmetry_equiv_pos_as_xyz
  1  'x, y, z'
loop_
 _atom_site_type_symbol
 _atom_site_label
 _atom_site_symmetry_multiplicity
 _atom_site_fract_x
 _atom_site_fract_y
 _atom_site_fract_z
 _atom_site_occupancy
  Li  Li0  1  0.75834300  0.93895500  0.50081700  1
  Li  Li1  1  0.75000000  0.75000000  0.00000000  1
  Li  Li2  1  0.50000000  0.56933400  0.75000000  1
  Li  Li3  1  0.24165700  0.93895500  0.99918300  1
  Li  Li4  1  0.25000000  0.75000000  0.50000000  1
  Li  Li5  1  0.25834300  0.56104500  0.00081700  1
  Li  Li6  1  0.00000000  0.93066600  0.25000000  1
  Li  Li7  1  0.74165700  0.56104500  0.49918300  1
  Li  Li8  1  0.25834300  0.43895500  0.50081700  1
  Li  Li9  1  0.25000000  0.25000000  0.00000000  1
  Li  Li10  1  0.00000000  0.06933400  0.75000000  1
  Li  Li11  1  0.74165700  0.43895500  0.99918300  1
  Li  Li12  1  0.75000000  0.25000000  0.50000000  1
  Li  Li13  1  0.75834300  0.06104500  0.00081700  1
  Li  Li14  1  0.50000000  0.43066600  0.25000000  1
  Li  Li15  1  0.24165700  0.06104500  0.49918300  1
  Fe  Fe16  1  0.50000000  0.74819200  0.25000000  1
  Fe  Fe17  1  0.50000000  0.93874700  0.75000000  1
  Fe  Fe18  1  0.00000000  0.56125300  0.25000000  1
  Fe  Fe19  1  0.00000000  0.75180800  0.75000000  1
  Fe  Fe20  1  0.00000000  0.24819200  0.25000000  1
  Fe  Fe21  1  0.00000000  0.43874700  0.75000000  1
  Fe  Fe22  1  0.50000000  0.06125300  0.25000000  1
  Fe  Fe23  1  0.50000000  0.25180800  0.75000000  1
  O  O24  1  0.86038900  0.90358800  0.86427500  1
  O  O25  1  0.61307150  0.91202650  0.13236000  1
  O  O26  1  0.38692850  0.91202650  0.36764000  1
  O  O27  1  0.36038900  0.59641200  0.36427500  1
  O  O28  1  0.13961100  0.90358800  0.63572500  1
  O  O29  1  0.11307150  0.58797350  0.63236000  1
  O  O30  1  0.88692850  0.58797350  0.86764000  1
  O  O31  1  0.63961100  0.59641200  0.13572500  1
  O  O32  1  0.36038900  0.40358800  0.86427500  1
  O  O33  1  0.11307150  0.41202650  0.13236000  1
  O  O34  1  0.88692850  0.41202650  0.36764000  1
  O  O35  1  0.86038900  0.09641200  0.36427500  1
  O  O36  1  0.63961100  0.40358800  0.63572500  1
  O  O37  1  0.61307150  0.08797350  0.63236000  1
  O  O38  1  0.38692850  0.08797350  0.86764000  1
  O  O39  1  0.13961100  0.09641200  0.13572500  1
  F  F40  1  0.62528550  0.75115550  0.62511400  1
  F  F41  1  0.12528550  0.74884450  0.12511400  1
  F  F42  1  0.37471450  0.75115550  0.87488600  1
  F  F43  1  0.87471450  0.74884450  0.37488600  1
  F  F44  1  0.12528550  0.25115550  0.62511400  1
  F  F45  1  0.62528550  0.24884450  0.12511400  1
  F  F46  1  0.87471450  0.25115550  0.87488600  1
  F  F47  1  0.37471450  0.24884450  0.37488600  1
