# generated using pymatgen
data_FeOF
_symmetry_space_group_name_H-M   'P 1'
_cell_length_a   9.49817300
_cell_length_b   3.09587500
_cell_length_c   14.28270542
_cell_angle_alpha   90.00000000
_cell_angle_beta   90.53790454
_cell_angle_gamma   90.00000000
_symmetry_Int_Tables_number   1
_chemical_formula_structural   FeOF
_chemical_formula_sum   'Fe12 O12 F12'
_cell_volume   419.96667759
_cell_formula_units_Z   12
loop_
 _symmetry_equiv_pos_site_id
 _symmetry_equiv_pos_as_xyz
  1  'x, y, z'
loop_
 _atom_site_type_symbol
 _atom_site_label
 _atom_site_symmetry_multiplicity
 _atom_site_fract_x
 _atom_site_fract_y
 _atom_site_fract_z
 _atom_site_occupancy
  Fe  Fe0  1  0.01386600  0.00000000  0.99593500  1
  Fe  Fe1  1  0.00907000  0.00000000  0.33603700  1
  Fe  Fe2  1  0.00856800  0.00000000  0.66035400  1
  Fe  Fe3  1  0.28977800  0.50000000  0.16345800  1
  Fe  Fe4  1  0.22949100  0.50000000  0.49933200  1
  Fe  Fe5  1  0.22471000  0.50000000  0.82896200  1
  Fe  Fe6  1  0.50471500  0.00000000  0.32466700  1
  Fe  Fe7  1  0.51011000  0.00000000  0.00009000  1
  Fe  Fe8  1  0.51584600  0.00000000  0.66690900  1
  Fe  Fe9  1  0.72683100  0.50000000  0.16569200  1
  Fe  Fe10  1  0.74764700  0.50000000  0.52097900  1
  Fe  Fe11  1  0.72496700  0.50000000  0.83369600  1
  O  O12  1  0.09863500  0.50000000  0.59940300  1
  O  O13  1  0.09882400  0.50000000  0.94037000  1
  O  O14  1  0.14350000  0.00000000  0.76787400  1
  O  O15  1  0.15085400  0.00000000  0.42826100  1
  O  O16  1  0.34589400  0.00000000  0.23752400  1
  O  O17  1  0.40495100  0.50000000  0.05973100  1
  O  O18  1  0.60222500  0.50000000  0.27401200  1
  O  O19  1  0.59834500  0.50000000  0.93462700  1
  O  O20  1  0.58461000  0.50000000  0.59926200  1
  O  O21  1  0.65996000  0.00000000  0.10231300  1
  O  O22  1  0.65272800  0.00000000  0.76670800  1
  O  O23  1  0.84857100  0.00000000  0.56596000  1
  F  F24  1  0.09087000  0.50000000  0.26507100  1
  F  F25  1  0.15165400  0.00000000  0.10798000  1
  F  F26  1  0.34365500  0.00000000  0.56155600  1
  F  F27  1  0.34349300  0.00000000  0.89139600  1
  F  F28  1  0.40491000  0.50000000  0.40500600  1
  F  F29  1  0.39586200  0.50000000  0.72936200  1
  F  F30  1  0.65591700  0.00000000  0.43601900  1
  F  F31  1  0.85705700  0.00000000  0.23511300  1
  F  F32  1  0.85041900  0.00000000  0.90119500  1
  F  F33  1  0.90989300  0.50000000  0.06973000  1
  F  F34  1  0.90077800  0.50000000  0.39200400  1
  F  F35  1  0.90079700  0.50000000  0.73341000  1
