# generated using pymatgen
data_Li3V2(O2F)2
_symmetry_space_group_name_H-M   'P 1'
_cell_length_a   5.13273800
_cell_length_b   8.93544000
_cell_length_c   14.85375339
_cell_angle_alpha   90.00000000
_cell_angle_beta   90.69773821
_cell_angle_gamma   90.00000000
_symmetry_Int_Tables_number   1
_chemical_formula_structural   Li3V2(O2F)2
_chemical_formula_sum   'Li18 V12 O24 F12'
_cell_volume   681.19122505
_cell_formula_units_Z   6
loop_
 _symmetry_equiv_pos_site_id
 _symmetry_equiv_pos_as_xyz
  1  'x, y, z'
loop_
 _atom_site_type_symbol
 _atom_site_label
 _atom_site_symmetry_multiplicity
 _atom_site_fract_x
 _atom_site_fract_y
 _atom_site_fract_z
 _atom_site_occupancy
  Li  Li0  1  0.50000000  0.84301100  0.50000000  1
  Li  Li1  1  0.50000000  0.83337700  0.00000000  1
  Li  Li2  1  0.00000000  0.00000000  0.50000000  1
  Li  Li3  1  0.17035300  0.83279100  0.64066300  1
  Li  Li4  1  0.32964700  0.66720900  0.35933700  1
  Li  Li5  1  0.00000000  0.66662300  0.00000000  1
  Li  Li6  1  0.00000000  0.65698900  0.50000000  1
  Li  Li7  1  0.82964700  0.83279100  0.35933700  1
  Li  Li8  1  0.67035300  0.66720900  0.64066300  1
  Li  Li9  1  0.00000000  0.34301100  0.50000000  1
  Li  Li10  1  0.00000000  0.33337700  0.00000000  1
  Li  Li11  1  0.50000000  0.50000000  0.50000000  1
  Li  Li12  1  0.67035300  0.33279100  0.64066300  1
  Li  Li13  1  0.82964700  0.16720900  0.35933700  1
  Li  Li14  1  0.50000000  0.16662300  0.00000000  1
  Li  Li15  1  0.50000000  0.15698900  0.50000000  1
  Li  Li16  1  0.32964700  0.33279100  0.35933700  1
  Li  Li17  1  0.17035300  0.16720900  0.64066300  1
  V  V18  1  0.66696400  0.00000000  0.16878200  1
  V  V19  1  0.33303600  0.00000000  0.83121800  1
  V  V20  1  0.16645200  0.83658700  0.16730400  1
  V  V21  1  0.33354800  0.66341300  0.83269600  1
  V  V22  1  0.83354800  0.83658700  0.83269600  1
  V  V23  1  0.66645200  0.66341300  0.16730400  1
  V  V24  1  0.16696400  0.50000000  0.16878200  1
  V  V25  1  0.83303600  0.50000000  0.83121800  1
  V  V26  1  0.66645200  0.33658700  0.16730400  1
  V  V27  1  0.83354800  0.16341300  0.83269600  1
  V  V28  1  0.33354800  0.33658700  0.83269600  1
  V  V29  1  0.16645200  0.16341300  0.16730400  1
  O  O30  1  0.64561700  0.00000000  0.90652100  1
  O  O31  1  0.50711650  0.83235550  0.23501300  1
  O  O32  1  0.49288350  0.83235550  0.76498700  1
  O  O33  1  0.35438300  0.00000000  0.09347900  1
  O  O34  1  0.97962100  0.00000000  0.23650100  1
  O  O35  1  0.02037900  0.00000000  0.76349900  1
  O  O36  1  0.17623100  0.82949000  0.90559700  1
  O  O37  1  0.32376900  0.67051000  0.09440300  1
  O  O38  1  0.99288350  0.66764450  0.76498700  1
  O  O39  1  0.00711650  0.66764450  0.23501300  1
  O  O40  1  0.82376900  0.82949000  0.09440300  1
  O  O41  1  0.67623100  0.67051000  0.90559700  1
  O  O42  1  0.14561700  0.50000000  0.90652100  1
  O  O43  1  0.00711650  0.33235550  0.23501300  1
  O  O44  1  0.99288350  0.33235550  0.76498700  1
  O  O45  1  0.85438300  0.50000000  0.09347900  1
  O  O46  1  0.47962100  0.50000000  0.23650100  1
  O  O47  1  0.52037900  0.50000000  0.76349900  1
  O  O48  1  0.67623100  0.32949000  0.90559700  1
  O  O49  1  0.82376900  0.17051000  0.09440300  1
  O  O50  1  0.49288350  0.16764450  0.76498700  1
  O  O51  1  0.50711650  0.16764450  0.23501300  1
  O  O52  1  0.32376900  0.32949000  0.09440300  1
  O  O53  1  0.17623100  0.17051000  0.90559700  1
  F  F54  1  0.68709000  0.00000000  0.42346400  1
  F  F55  1  0.31291000  0.00000000  0.57653600  1
  F  F56  1  0.15304000  0.82170300  0.42037600  1
  F  F57  1  0.34696000  0.67829700  0.57962400  1
  F  F58  1  0.84696000  0.82170300  0.57962400  1
  F  F59  1  0.65304000  0.67829700  0.42037600  1
  F  F60  1  0.18709000  0.50000000  0.42346400  1
  F  F61  1  0.81291000  0.50000000  0.57653600  1
  F  F62  1  0.65304000  0.32170300  0.42037600  1
  F  F63  1  0.84696000  0.17829700  0.57962400  1
  F  F64  1  0.34696000  0.32170300  0.57962400  1
  F  F65  1  0.15304000  0.17829700  0.42037600  1
