# generated using pymatgen
data_LiMo2(PO4)3
_symmetry_space_group_name_H-M   'P 1'
_cell_length_a   15.35368800
_cell_length_b   8.83265400
_cell_length_c   8.92124773
_cell_angle_alpha   90.00000000
_cell_angle_beta   124.85831133
_cell_angle_gamma   90.00000000
_symmetry_Int_Tables_number   1
_chemical_formula_structural   LiMo2(PO4)3
_chemical_formula_sum   'Li4 Mo8 P12 O48'
_cell_volume   992.75956726
_cell_formula_units_Z   4
loop_
 _symmetry_equiv_pos_site_id
 _symmetry_equiv_pos_as_xyz
  1  'x, y, z'
loop_
 _atom_site_type_symbol
 _atom_site_label
 _atom_site_symmetry_multiplicity
 _atom_site_fract_x
 _atom_site_fract_y
 _atom_site_fract_z
 _atom_site_occupancy
  Li  Li0  1  0.30079250  0.65847150  0.95439200  1
  Li  Li1  1  0.30079250  0.34152850  0.45439200  1
  Li  Li2  1  0.80079250  0.15847150  0.95439200  1
  Li  Li3  1  0.80079250  0.84152850  0.45439200  1
  Mo  Mo4  1  0.39166900  0.24782100  0.92232700  1
  Mo  Mo5  1  0.10470050  0.75020950  0.57346500  1
  Mo  Mo6  1  0.39166900  0.75217900  0.42232700  1
  Mo  Mo7  1  0.10470050  0.24979050  0.07346500  1
  Mo  Mo8  1  0.89166900  0.74782100  0.92232700  1
  Mo  Mo9  1  0.60470050  0.25020950  0.57346500  1
  Mo  Mo10  1  0.89166900  0.25217900  0.42232700  1
  Mo  Mo11  1  0.60470050  0.74979050  0.07346500  1
  P  P12  1  0.35668150  0.89060650  0.75721800  1
  P  P13  1  0.49761850  0.45984050  0.74162700  1
  P  P14  1  0.14338450  0.38993350  0.74874100  1
  P  P15  1  0.35668150  0.10939350  0.25721800  1
  P  P16  1  0.49761850  0.54015950  0.24162700  1
  P  P17  1  0.14338450  0.61006650  0.24874100  1
  P  P18  1  0.85668150  0.39060650  0.75721800  1
  P  P19  1  0.99761850  0.95984050  0.74162700  1
  P  P20  1  0.64338450  0.88993350  0.74874100  1
  P  P21  1  0.85668150  0.60939350  0.25721800  1
  P  P22  1  0.99761850  0.04015950  0.24162700  1
  P  P23  1  0.64338450  0.11006650  0.24874100  1
  O  O24  1  0.43294450  0.45024850  0.05794400  1
  O  O25  1  0.05538450  0.94086250  0.41028300  1
  O  O26  1  0.14165050  0.64580450  0.41640500  1
  O  O27  1  0.08182350  0.85923650  0.74578900  1
  O  O28  1  0.34477150  0.06376950  0.76017500  1
  O  O29  1  0.43294450  0.54975150  0.55794400  1
  O  O30  1  0.15957600  0.56370100  0.75373100  1
  O  O31  1  0.45773050  0.83752950  0.94006600  1
  O  O32  1  0.23896000  0.31569100  0.76413500  1
  O  O33  1  0.35899600  0.14864200  0.09400000  1
  O  O34  1  0.08182350  0.14076350  0.24578900  1
  O  O35  1  0.23896000  0.68430900  0.26413500  1
  O  O36  1  0.45773050  0.16247050  0.44006600  1
  O  O37  1  0.04338050  0.33261450  0.56925200  1
  O  O38  1  0.26427700  0.80942800  0.75035900  1
  O  O39  1  0.41196850  0.35542650  0.72914500  1
  O  O40  1  0.14165050  0.35419550  0.91640500  1
  O  O41  1  0.04338050  0.66738550  0.06925200  1
  O  O42  1  0.26427700  0.19057200  0.25035900  1
  O  O43  1  0.34477150  0.93623050  0.26017500  1
  O  O44  1  0.15957600  0.43629900  0.25373100  1
  O  O45  1  0.41196850  0.64457350  0.22914500  1
  O  O46  1  0.35899600  0.85135800  0.59400000  1
  O  O47  1  0.05538450  0.05913750  0.91028300  1
  O  O48  1  0.93294450  0.95024850  0.05794400  1
  O  O49  1  0.55538450  0.44086250  0.41028300  1
  O  O50  1  0.64165050  0.14580450  0.41640500  1
  O  O51  1  0.58182350  0.35923650  0.74578900  1
  O  O52  1  0.84477150  0.56376950  0.76017500  1
  O  O53  1  0.93294450  0.04975150  0.55794400  1
  O  O54  1  0.65957600  0.06370100  0.75373100  1
  O  O55  1  0.95773050  0.33752950  0.94006600  1
  O  O56  1  0.73896000  0.81569100  0.76413500  1
  O  O57  1  0.85899600  0.64864200  0.09400000  1
  O  O58  1  0.58182350  0.64076350  0.24578900  1
  O  O59  1  0.73896000  0.18430900  0.26413500  1
  O  O60  1  0.95773050  0.66247050  0.44006600  1
  O  O61  1  0.54338050  0.83261450  0.56925200  1
  O  O62  1  0.76427700  0.30942800  0.75035900  1
  O  O63  1  0.91196850  0.85542650  0.72914500  1
  O  O64  1  0.64165050  0.85419550  0.91640500  1
  O  O65  1  0.54338050  0.16738550  0.06925200  1
  O  O66  1  0.76427700  0.69057200  0.25035900  1
  O  O67  1  0.84477150  0.43623050  0.26017500  1
  O  O68  1  0.65957600  0.93629900  0.25373100  1
  O  O69  1  0.91196850  0.14457350  0.22914500  1
  O  O70  1  0.85899600  0.35135800  0.59400000  1
  O  O71  1  0.55538450  0.55913750  0.91028300  1
