# generated using pymatgen
data_Li3FeO2F
_symmetry_space_group_name_H-M   'P 1'
_cell_length_a   3.59196900
_cell_length_b   8.78852200
_cell_length_c   9.70746800
_cell_angle_alpha   90.00000000
_cell_angle_beta   90.00000000
_cell_angle_gamma   90.00000000
_symmetry_Int_Tables_number   1
_chemical_formula_structural   Li3FeO2F
_chemical_formula_sum   'Li12 Fe4 O8 F4'
_cell_volume   306.44630692
_cell_formula_units_Z   4
loop_
 _symmetry_equiv_pos_site_id
 _symmetry_equiv_pos_as_xyz
  1  'x, y, z'
loop_
 _atom_site_type_symbol
 _atom_site_label
 _atom_site_symmetry_multiplicity
 _atom_site_fract_x
 _atom_site_fract_y
 _atom_site_fract_z
 _atom_site_occupancy
  Li  Li0  1  0.50000000  0.60086900  0.84096350  1
  Li  Li1  1  0.00000000  0.89913100  0.34096350  1
  Li  Li2  1  0.00000000  0.10086900  0.65903650  1
  Li  Li3  1  0.50000000  0.39913100  0.15903650  1
  Li  Li4  1  0.00000000  0.64329700  0.07779450  1
  Li  Li5  1  0.50000000  0.85670300  0.57779450  1
  Li  Li6  1  0.50000000  0.14329700  0.42220550  1
  Li  Li7  1  0.00000000  0.35670300  0.92220550  1
  Li  Li8  1  0.00000000  0.66335200  0.67729150  1
  Li  Li9  1  0.50000000  0.83664800  0.17729150  1
  Li  Li10  1  0.50000000  0.16335200  0.82270850  1
  Li  Li11  1  0.00000000  0.33664800  0.32270850  1
  Fe  Fe12  1  0.00000000  0.11739200  0.09541550  1
  Fe  Fe13  1  0.50000000  0.38260800  0.59541550  1
  Fe  Fe14  1  0.50000000  0.61739200  0.40458450  1
  Fe  Fe15  1  0.00000000  0.88260800  0.90458450  1
  O  O16  1  0.50000000  0.60500700  0.61616350  1
  O  O17  1  0.00000000  0.89499300  0.11616350  1
  O  O18  1  0.00000000  0.10500700  0.88383650  1
  O  O19  1  0.50000000  0.39499300  0.38383650  1
  O  O20  1  0.00000000  0.66723100  0.87991850  1
  O  O21  1  0.50000000  0.83276900  0.37991850  1
  O  O22  1  0.50000000  0.16723100  0.62008150  1
  O  O23  1  0.00000000  0.33276900  0.12008150  1
  F  F24  1  0.50000000  0.61709500  0.15209950  1
  F  F25  1  0.00000000  0.88290500  0.65209950  1
  F  F26  1  0.00000000  0.11709500  0.34790050  1
  F  F27  1  0.50000000  0.38290500  0.84790050  1
