# generated using pymatgen
data_FeNi3(PO4)4
_symmetry_space_group_name_H-M   'P 1'
_cell_length_a   4.81806400
_cell_length_b   5.82864100
_cell_length_c   9.95478420
_cell_angle_alpha   90.00000000
_cell_angle_beta   90.03812511
_cell_angle_gamma   90.00000000
_symmetry_Int_Tables_number   1
_chemical_formula_structural   FeNi3(PO4)4
_chemical_formula_sum   'Fe1 Ni3 P4 O16'
_cell_volume   279.55780723
_cell_formula_units_Z   1
loop_
 _symmetry_equiv_pos_site_id
 _symmetry_equiv_pos_as_xyz
  1  'x, y, z'
loop_
 _atom_site_type_symbol
 _atom_site_label
 _atom_site_symmetry_multiplicity
 _atom_site_fract_x
 _atom_site_fract_y
 _atom_site_fract_z
 _atom_site_occupancy
  Fe  Fe0  1  0.96191200  0.00000000  0.72749000  1
  Ni  Ni1  1  0.04195500  0.50000000  0.27283800  1
  Ni  Ni2  1  0.45467900  0.50000000  0.77337300  1
  Ni  Ni3  1  0.54359500  0.00000000  0.22700100  1
  P  P4  1  0.09163000  0.00000000  0.40300100  1
  P  P5  1  0.40673900  0.00000000  0.90781600  1
  P  P6  1  0.59081400  0.50000000  0.09552800  1
  P  P7  1  0.91177500  0.50000000  0.59473700  1
  O  O8  1  0.16106200  0.00000000  0.55383200  1
  O  O9  1  0.23777200  0.79420000  0.33038300  1
  O  O10  1  0.23777200  0.20580000  0.33038300  1
  O  O11  1  0.22772800  0.50000000  0.60841200  1
  O  O12  1  0.27494600  0.50000000  0.10961400  1
  O  O13  1  0.25762400  0.79642600  0.83219300  1
  O  O14  1  0.25762400  0.20357400  0.83219300  1
  O  O15  1  0.33297900  0.00000000  0.05701400  1
  O  O16  1  0.66310500  0.50000000  0.94587300  1
  O  O17  1  0.73846100  0.29456500  0.16917200  1
  O  O18  1  0.73846100  0.70543500  0.16917200  1
  O  O19  1  0.72130400  0.00000000  0.88664200  1
  O  O20  1  0.77445600  0.00000000  0.38983800  1
  O  O21  1  0.76977200  0.29251400  0.66908500  1
  O  O22  1  0.76977200  0.70748600  0.66908500  1
  O  O23  1  0.83405900  0.50000000  0.44532700  1
