# generated using pymatgen
data_Li5Fe5(NiO6)2
_symmetry_space_group_name_H-M   'P 1'
_cell_length_a   5.17543400
_cell_length_b   8.91719000
_cell_length_c   9.84090961
_cell_angle_alpha   90.00000000
_cell_angle_beta   100.00694067
_cell_angle_gamma   90.00000000
_symmetry_Int_Tables_number   1
_chemical_formula_structural   Li5Fe5(NiO6)2
_chemical_formula_sum   'Li10 Fe10 Ni4 O24'
_cell_volume   447.25192327
_cell_formula_units_Z   2
loop_
 _symmetry_equiv_pos_site_id
 _symmetry_equiv_pos_as_xyz
  1  'x, y, z'
loop_
 _atom_site_type_symbol
 _atom_site_label
 _atom_site_symmetry_multiplicity
 _atom_site_fract_x
 _atom_site_fract_y
 _atom_site_fract_z
 _atom_site_occupancy
  Li  Li0  1  0.25394800  0.91374400  0.76010400  1
  Li  Li1  1  0.23538700  0.08258000  0.23826100  1
  Li  Li2  1  0.74605200  0.91374400  0.23989600  1
  Li  Li3  1  0.76461300  0.08258000  0.76173900  1
  Li  Li4  1  0.50000000  0.41955000  0.00000000  1
  Li  Li5  1  0.75394800  0.41374400  0.76010400  1
  Li  Li6  1  0.73538700  0.58258000  0.23826100  1
  Li  Li7  1  0.24605200  0.41374400  0.23989600  1
  Li  Li8  1  0.26461300  0.58258000  0.76173900  1
  Li  Li9  1  0.00000000  0.91955000  0.00000000  1
  Fe  Fe10  1  0.50000000  0.58339400  0.50000000  1
  Fe  Fe11  1  0.73975600  0.25528800  0.23685400  1
  Fe  Fe12  1  0.26024400  0.25528800  0.76314600  1
  Fe  Fe13  1  0.50000000  0.92058700  0.50000000  1
  Fe  Fe14  1  0.50000000  0.07621100  0.00000000  1
  Fe  Fe15  1  0.00000000  0.08339400  0.50000000  1
  Fe  Fe16  1  0.23975600  0.75528800  0.23685400  1
  Fe  Fe17  1  0.76024400  0.75528800  0.76314600  1
  Fe  Fe18  1  0.00000000  0.42058700  0.50000000  1
  Fe  Fe19  1  0.00000000  0.57621100  0.00000000  1
  Ni  Ni20  1  0.50000000  0.74960600  0.00000000  1
  Ni  Ni21  1  0.50000000  0.25152600  0.50000000  1
  Ni  Ni22  1  0.00000000  0.24960600  0.00000000  1
  Ni  Ni23  1  0.00000000  0.75152600  0.50000000  1
  O  O24  1  0.85669100  0.09129000  0.12464200  1
  O  O25  1  0.14330900  0.09129000  0.87535800  1
  O  O26  1  0.39709050  0.75142850  0.62150200  1
  O  O27  1  0.60290950  0.75142850  0.37849800  1
  O  O28  1  0.37314000  0.91320500  0.12328900  1
  O  O29  1  0.62686000  0.91320500  0.87671100  1
  O  O30  1  0.36321750  0.08523150  0.61585300  1
  O  O31  1  0.63678250  0.08523150  0.38414700  1
  O  O32  1  0.38590250  0.24095050  0.12683300  1
  O  O33  1  0.61409750  0.24095050  0.87316700  1
  O  O34  1  0.86473200  0.91584500  0.61872800  1
  O  O35  1  0.13526800  0.91584500  0.38127200  1
  O  O36  1  0.35669100  0.59129000  0.12464200  1
  O  O37  1  0.64330900  0.59129000  0.87535800  1
  O  O38  1  0.89709050  0.25142850  0.62150200  1
  O  O39  1  0.10290950  0.25142850  0.37849800  1
  O  O40  1  0.87314000  0.41320500  0.12328900  1
  O  O41  1  0.12686000  0.41320500  0.87671100  1
  O  O42  1  0.86321750  0.58523150  0.61585300  1
  O  O43  1  0.13678250  0.58523150  0.38414700  1
  O  O44  1  0.88590250  0.74095050  0.12683300  1
  O  O45  1  0.11409750  0.74095050  0.87316700  1
  O  O46  1  0.36473200  0.41584500  0.61872800  1
  O  O47  1  0.63526800  0.41584500  0.38127200  1
