# generated using pymatgen
data_Li4Mn5(NiO6)2
_symmetry_space_group_name_H-M   'P 1'
_cell_length_a   5.18731900
_cell_length_b   8.91998200
_cell_length_c   9.83410023
_cell_angle_alpha   90.00000000
_cell_angle_beta   100.70250157
_cell_angle_gamma   90.00000000
_symmetry_Int_Tables_number   1
_chemical_formula_structural   Li4Mn5(NiO6)2
_chemical_formula_sum   'Li8 Mn10 Ni4 O24'
_cell_volume   447.11619108
_cell_formula_units_Z   2
loop_
 _symmetry_equiv_pos_site_id
 _symmetry_equiv_pos_as_xyz
  1  'x, y, z'
loop_
 _atom_site_type_symbol
 _atom_site_label
 _atom_site_symmetry_multiplicity
 _atom_site_fract_x
 _atom_site_fract_y
 _atom_site_fract_z
 _atom_site_occupancy
  Li  Li0  1  0.48681800  0.08205400  0.73653400  1
  Li  Li1  1  0.00737400  0.41099400  0.25741800  1
  Li  Li2  1  0.75050800  0.42424600  0.50456500  1
  Li  Li3  1  0.49537200  0.41968200  0.74121700  1
  Li  Li4  1  0.51318200  0.58205400  0.26346600  1
  Li  Li5  1  0.24949200  0.92424600  0.49543500  1
  Li  Li6  1  0.99262600  0.91099400  0.74258200  1
  Li  Li7  1  0.50462800  0.91968200  0.25878300  1
  Mn  Mn8  1  0.24189500  0.07257500  0.00158500  1
  Mn  Mn9  1  0.75551300  0.08152100  0.49942800  1
  Mn  Mn10  1  0.98995300  0.26335200  0.73955700  1
  Mn  Mn11  1  0.51539100  0.25405500  0.25916400  1
  Mn  Mn12  1  0.25363400  0.41553000  0.99664600  1
  Mn  Mn13  1  0.24448700  0.58152100  0.50057200  1
  Mn  Mn14  1  0.75810500  0.57257500  0.99841500  1
  Mn  Mn15  1  0.01004700  0.76335200  0.26044300  1
  Mn  Mn16  1  0.48460900  0.75405500  0.74083600  1
  Mn  Mn17  1  0.74636600  0.91553000  0.00335400  1
  Ni  Ni18  1  0.24727100  0.25320100  0.49419200  1
  Ni  Ni19  1  0.75449500  0.24474300  0.00557400  1
  Ni  Ni20  1  0.24550500  0.74474300  0.99442600  1
  Ni  Ni21  1  0.75272900  0.75320100  0.50580800  1
  O  O22  1  0.10008200  0.10047400  0.62281700  1
  O  O23  1  0.88661100  0.07421000  0.89492500  1
  O  O24  1  0.59511000  0.07465500  0.10509900  1
  O  O25  1  0.85208000  0.24618200  0.38192600  1
  O  O26  1  0.16509800  0.25766500  0.12079700  1
  O  O27  1  0.41522800  0.09762500  0.38125200  1
  O  O28  1  0.64506200  0.24155700  0.62480200  1
  O  O29  1  0.13585300  0.42077600  0.60967500  1
  O  O30  1  0.85945200  0.39897600  0.87531400  1
  O  O31  1  0.33907000  0.25217400  0.87293600  1
  O  O32  1  0.64004900  0.40652900  0.13254700  1
  O  O33  1  0.11338900  0.57421000  0.10507500  1
  O  O34  1  0.89991800  0.60047400  0.37718300  1
  O  O35  1  0.36748700  0.42723700  0.38302400  1
  O  O36  1  0.14792000  0.74618200  0.61807400  1
  O  O37  1  0.58477200  0.59762500  0.61874800  1
  O  O38  1  0.40489000  0.57465500  0.89490100  1
  O  O39  1  0.83490200  0.75766500  0.87920300  1
  O  O40  1  0.14054800  0.89897600  0.12468600  1
  O  O41  1  0.35493800  0.74155700  0.37519800  1
  O  O42  1  0.66093000  0.75217400  0.12706400  1
  O  O43  1  0.86414700  0.92077600  0.39032500  1
  O  O44  1  0.63251300  0.92723700  0.61697600  1
  O  O45  1  0.35995100  0.90652900  0.86745300  1
