# generated using pymatgen
data_LiFeSiO4
_symmetry_space_group_name_H-M   'P 1'
_cell_length_a   13.86324160
_cell_length_b   13.86324160
_cell_length_c   9.47244790
_cell_angle_alpha   90.00000000
_cell_angle_beta   90.00000000
_cell_angle_gamma   120.00000000
_symmetry_Int_Tables_number   1
_chemical_formula_structural   LiFeSiO4
_chemical_formula_sum   'Li18 Fe18 Si18 O72'
_cell_volume   1576.60333498
_cell_formula_units_Z   18
loop_
 _symmetry_equiv_pos_site_id
 _symmetry_equiv_pos_as_xyz
  1  'x, y, z'
loop_
 _atom_site_type_symbol
 _atom_site_label
 _atom_site_symmetry_multiplicity
 _atom_site_fract_x
 _atom_site_fract_y
 _atom_site_fract_z
 _atom_site_occupancy
  Li  Li0  1  0.19107400  0.98004900  0.75304200  1
  Li  Li1  1  0.21102500  0.19107400  0.24695800  1
  Li  Li2  1  0.98004900  0.78897500  0.24695800  1
  Li  Li3  1  0.01995100  0.21102500  0.75304200  1
  Li  Li4  1  0.78897500  0.80892600  0.75304200  1
  Li  Li5  1  0.80892600  0.01995100  0.24695800  1
  Li  Li6  1  0.85774067  0.31338233  0.08637533  1
  Li  Li7  1  0.87769167  0.52440733  0.58029133  1
  Li  Li8  1  0.64671567  0.12230833  0.58029133  1
  Li  Li9  1  0.68661767  0.54435833  0.08637533  1
  Li  Li10  1  0.45564167  0.14225933  0.08637533  1
  Li  Li11  1  0.47559267  0.35328433  0.58029133  1
  Li  Li12  1  0.52440733  0.64671567  0.41970867  1
  Li  Li13  1  0.54435833  0.85774067  0.91362467  1
  Li  Li14  1  0.31338233  0.45564167  0.91362467  1
  Li  Li15  1  0.35328433  0.87769167  0.41970867  1
  Li  Li16  1  0.12230833  0.47559267  0.41970867  1
  Li  Li17  1  0.14225933  0.68661767  0.91362467  1
  Fe  Fe18  1  0.19742200  0.98663900  0.40978700  1
  Fe  Fe19  1  0.21078300  0.19742200  0.59021300  1
  Fe  Fe20  1  0.98663900  0.78921700  0.59021300  1
  Fe  Fe21  1  0.01336100  0.21078300  0.40978700  1
  Fe  Fe22  1  0.78921700  0.80257800  0.40978700  1
  Fe  Fe23  1  0.80257800  0.01336100  0.59021300  1
  Fe  Fe24  1  0.86408867  0.31997233  0.74312033  1
  Fe  Fe25  1  0.87744967  0.53075533  0.92354633  1
  Fe  Fe26  1  0.65330567  0.12255033  0.92354633  1
  Fe  Fe27  1  0.68002767  0.54411633  0.74312033  1
  Fe  Fe28  1  0.45588367  0.13591133  0.74312033  1
  Fe  Fe29  1  0.46924467  0.34669433  0.92354633  1
  Fe  Fe30  1  0.53075533  0.65330567  0.07645367  1
  Fe  Fe31  1  0.54411633  0.86408867  0.25687967  1
  Fe  Fe32  1  0.31997233  0.45588367  0.25687967  1
  Fe  Fe33  1  0.34669433  0.87744967  0.07645367  1
  Fe  Fe34  1  0.12255033  0.46924467  0.07645367  1
  Fe  Fe35  1  0.13591133  0.68002767  0.25687967  1
  Si  Si36  1  0.45856500  0.14379600  0.40988500  1
  Si  Si37  1  0.14379600  0.68523100  0.59011500  1
  Si  Si38  1  0.31476900  0.45856500  0.59011500  1
  Si  Si39  1  0.68523100  0.54143500  0.40988500  1
  Si  Si40  1  0.85620400  0.31476900  0.40988500  1
  Si  Si41  1  0.54143500  0.85620400  0.59011500  1
  Si  Si42  1  0.12523167  0.47712933  0.74321833  1
  Si  Si43  1  0.81046267  0.01856433  0.92344833  1
  Si  Si44  1  0.98143567  0.79189833  0.92344833  1
  Si  Si45  1  0.35189767  0.87476833  0.74321833  1
  Si  Si46  1  0.52287067  0.64810233  0.74321833  1
  Si  Si47  1  0.20810167  0.18953733  0.92344833  1
  Si  Si48  1  0.79189833  0.81046267  0.07655167  1
  Si  Si49  1  0.47712933  0.35189767  0.25678167  1
  Si  Si50  1  0.64810233  0.12523167  0.25678167  1
  Si  Si51  1  0.01856433  0.20810167  0.07655167  1
  Si  Si52  1  0.18953733  0.98143567  0.07655167  1
  Si  Si53  1  0.87476833  0.52287067  0.25678167  1
  O  O54  1  0.46328467  0.22475233  0.27533833  1
  O  O55  1  0.22475233  0.76146767  0.72466167  1
  O  O56  1  0.35035600  0.01970700  0.40052100  1
  O  O57  1  0.01970700  0.66935100  0.59947900  1
  O  O58  1  0.12848100  0.92705100  0.22690100  1
  O  O59  1  0.12807067  0.91379133  0.57682333  1
  O  O60  1  0.33064900  0.35035600  0.59947900  1
  O  O61  1  0.21427933  0.12807067  0.42317667  1
  O  O62  1  0.20143000  0.12848100  0.77309900  1
  O  O63  1  0.92705100  0.79857000  0.77309900  1
  O  O64  1  0.91379133  0.78572067  0.42317667  1
  O  O65  1  0.23853233  0.46328467  0.72466167  1
  O  O66  1  0.76146767  0.53671533  0.27533833  1
  O  O67  1  0.08620867  0.21427933  0.57682333  1
  O  O68  1  0.07294900  0.20143000  0.22690100  1
  O  O69  1  0.79857000  0.87151900  0.22690100  1
  O  O70  1  0.78572067  0.87192933  0.57682333  1
  O  O71  1  0.66935100  0.64964400  0.40052100  1
  O  O72  1  0.87192933  0.08620867  0.42317667  1
  O  O73  1  0.87151900  0.07294900  0.77309900  1
  O  O74  1  0.98029300  0.33064900  0.40052100  1
  O  O75  1  0.64964400  0.98029300  0.59947900  1
  O  O76  1  0.77524767  0.23853233  0.27533833  1
  O  O77  1  0.53671533  0.77524767  0.72466167  1
  O  O78  1  0.12995133  0.55808567  0.60867167  1
  O  O79  1  0.89141900  0.09480100  0.05799500  1
  O  O80  1  0.01702267  0.35304033  0.73385433  1
  O  O81  1  0.68637367  0.00268433  0.93281233  1
  O  O82  1  0.79514767  0.26038433  0.56023433  1
  O  O83  1  0.79473733  0.24712467  0.91015667  1
  O  O84  1  0.99731567  0.68368933  0.93281233  1
  O  O85  1  0.88094600  0.46140400  0.75651000  1
  O  O86  1  0.86809667  0.46181433  0.10643233  1
  O  O87  1  0.59371767  0.13190333  0.10643233  1
  O  O88  1  0.58045800  0.11905400  0.75651000  1
  O  O89  1  0.90519900  0.79661800  0.05799500  1
  O  O90  1  0.42813433  0.87004867  0.60867167  1
  O  O91  1  0.75287533  0.54761267  0.91015667  1
  O  O92  1  0.73961567  0.53476333  0.56023433  1
  O  O93  1  0.46523667  0.20485233  0.56023433  1
  O  O94  1  0.45238733  0.20526267  0.91015667  1
  O  O95  1  0.33601767  0.98297733  0.73385433  1
  O  O96  1  0.53859600  0.41954200  0.75651000  1
  O  O97  1  0.53818567  0.40628233  0.10643233  1
  O  O98  1  0.64695967  0.66398233  0.73385433  1
  O  O99  1  0.31631067  0.31362633  0.93281233  1
  O  O100  1  0.44191433  0.57186567  0.60867167  1
  O  O101  1  0.20338200  0.10858100  0.05799500  1
  O  O102  1  0.79661800  0.89141900  0.94200500  1
  O  O103  1  0.55808567  0.42813433  0.39132833  1
  O  O104  1  0.68368933  0.68637367  0.06718767  1
  O  O105  1  0.35304033  0.33601767  0.26614567  1
  O  O106  1  0.46181433  0.59371767  0.89356767  1
  O  O107  1  0.46140400  0.58045800  0.24349000  1
  O  O108  1  0.66398233  0.01702267  0.26614567  1
  O  O109  1  0.54761267  0.79473733  0.08984333  1
  O  O110  1  0.53476333  0.79514767  0.43976567  1
  O  O111  1  0.26038433  0.46523667  0.43976567  1
  O  O112  1  0.24712467  0.45238733  0.08984333  1
  O  O113  1  0.57186567  0.12995133  0.39132833  1
  O  O114  1  0.09480100  0.20338200  0.94200500  1
  O  O115  1  0.41954200  0.88094600  0.24349000  1
  O  O116  1  0.40628233  0.86809667  0.89356767  1
  O  O117  1  0.13190333  0.53818567  0.89356767  1
  O  O118  1  0.11905400  0.53859600  0.24349000  1
  O  O119  1  0.00268433  0.31631067  0.06718767  1
  O  O120  1  0.20526267  0.75287533  0.08984333  1
  O  O121  1  0.20485233  0.73961567  0.43976567  1
  O  O122  1  0.31362633  0.99731567  0.06718767  1
  O  O123  1  0.98297733  0.64695967  0.26614567  1
  O  O124  1  0.10858100  0.90519900  0.94200500  1
  O  O125  1  0.87004867  0.44191433  0.39132833  1
