# generated using pymatgen
data_Li4Ni3Sb5O16
_symmetry_space_group_name_H-M   'P 1'
_cell_length_a   10.67567600
_cell_length_b   6.18576600
_cell_length_c   10.22520371
_cell_angle_alpha   90.00000000
_cell_angle_beta   90.29081146
_cell_angle_gamma   90.00000000
_symmetry_Int_Tables_number   1
_chemical_formula_structural   Li4Ni3Sb5O16
_chemical_formula_sum   'Li8 Ni6 Sb10 O32'
_cell_volume   675.23546853
_cell_formula_units_Z   2
loop_
 _symmetry_equiv_pos_site_id
 _symmetry_equiv_pos_as_xyz
  1  'x, y, z'
loop_
 _atom_site_type_symbol
 _atom_site_label
 _atom_site_symmetry_multiplicity
 _atom_site_fract_x
 _atom_site_fract_y
 _atom_site_fract_z
 _atom_site_occupancy
  Li  Li0  1  0.33563900  0.00000000  0.11257800  1
  Li  Li1  1  0.00872600  0.00000000  0.01371700  1
  Li  Li2  1  0.00568700  0.00000000  0.49716700  1
  Li  Li3  1  0.67566500  0.00000000  0.59631300  1
  Li  Li4  1  0.83563900  0.50000000  0.11257800  1
  Li  Li5  1  0.50872600  0.50000000  0.01371700  1
  Li  Li6  1  0.50568700  0.50000000  0.49716700  1
  Li  Li7  1  0.17566500  0.50000000  0.59631300  1
  Ni  Ni8  1  0.16912000  0.00000000  0.78540600  1
  Ni  Ni9  1  0.58217050  0.24671750  0.28595700  1
  Ni  Ni10  1  0.58217050  0.75328250  0.28595700  1
  Ni  Ni11  1  0.66912000  0.50000000  0.78540600  1
  Ni  Ni12  1  0.08217050  0.74671750  0.28595700  1
  Ni  Ni13  1  0.08217050  0.25328250  0.28595700  1
  Sb  Sb14  1  0.41690200  0.24809500  0.78412400  1
  Sb  Sb15  1  0.32227300  0.00000000  0.48921600  1
  Sb  Sb16  1  0.41690200  0.75190500  0.78412400  1
  Sb  Sb17  1  0.82949200  0.00000000  0.28324100  1
  Sb  Sb18  1  0.65112300  0.00000000  0.02786700  1
  Sb  Sb19  1  0.91690200  0.74809500  0.78412400  1
  Sb  Sb20  1  0.82227300  0.50000000  0.48921600  1
  Sb  Sb21  1  0.91690200  0.25190500  0.78412400  1
  Sb  Sb22  1  0.32949200  0.50000000  0.28324100  1
  Sb  Sb23  1  0.15112300  0.50000000  0.02786700  1
  O  O24  1  0.41307100  0.26848200  0.39641800  1
  O  O25  1  0.49589900  0.00000000  0.68110900  1
  O  O26  1  0.33947700  0.00000000  0.89210300  1
  O  O27  1  0.99800400  0.00000000  0.68104200  1
  O  O28  1  0.99285100  0.00000000  0.19162600  1
  O  O29  1  0.41307100  0.73151800  0.39641800  1
  O  O30  1  0.26506500  0.23352700  0.67250300  1
  O  O31  1  0.26506500  0.76647300  0.67250300  1
  O  O32  1  0.84873300  0.00000000  0.89259000  1
  O  O33  1  0.15774900  0.00000000  0.39937800  1
  O  O34  1  0.74500850  0.22085850  0.16188900  1
  O  O35  1  0.74500850  0.77914150  0.16188900  1
  O  O36  1  0.67410000  0.00000000  0.39041100  1
  O  O37  1  0.56904500  0.26736100  0.89826800  1
  O  O38  1  0.51376600  0.00000000  0.16009900  1
  O  O39  1  0.56904500  0.73263900  0.89826800  1
  O  O40  1  0.91307100  0.76848200  0.39641800  1
  O  O41  1  0.99589900  0.50000000  0.68110900  1
  O  O42  1  0.83947700  0.50000000  0.89210300  1
  O  O43  1  0.49800400  0.50000000  0.68104200  1
  O  O44  1  0.49285100  0.50000000  0.19162600  1
  O  O45  1  0.91307100  0.23151800  0.39641800  1
  O  O46  1  0.76506500  0.73352700  0.67250300  1
  O  O47  1  0.76506500  0.26647300  0.67250300  1
  O  O48  1  0.34873300  0.50000000  0.89259000  1
  O  O49  1  0.65774900  0.50000000  0.39937800  1
  O  O50  1  0.24500850  0.72085850  0.16188900  1
  O  O51  1  0.24500850  0.27914150  0.16188900  1
  O  O52  1  0.17410000  0.50000000  0.39041100  1
  O  O53  1  0.06904500  0.76736100  0.89826800  1
  O  O54  1  0.01376600  0.50000000  0.16009900  1
  O  O55  1  0.06904500  0.23263900  0.89826800  1
