# generated using pymatgen
data_Mn6O7F5
_symmetry_space_group_name_H-M   'P 1'
_cell_length_a   6.26917054
_cell_length_b   7.06450728
_cell_length_c   9.11144300
_cell_angle_alpha   90.00000000
_cell_angle_beta   90.00000000
_cell_angle_gamma   90.00000000
_symmetry_Int_Tables_number   1
_chemical_formula_structural   Mn6O7F5
_chemical_formula_sum   'Mn12 O14 F10'
_cell_volume   403.53306244
_cell_formula_units_Z   2
loop_
 _symmetry_equiv_pos_site_id
 _symmetry_equiv_pos_as_xyz
  1  'x, y, z'
loop_
 _atom_site_type_symbol
 _atom_site_label
 _atom_site_symmetry_multiplicity
 _atom_site_fract_x
 _atom_site_fract_y
 _atom_site_fract_z
 _atom_site_occupancy
  Mn  Mn0  1  0.50000000  0.51036600  0.65848350  1
  Mn  Mn1  1  0.50000000  0.51036600  0.34151650  1
  Mn  Mn2  1  0.50000000  0.49942000  0.00000000  1
  Mn  Mn3  1  0.50000000  0.00219500  0.83229150  1
  Mn  Mn4  1  0.50000000  0.98034100  0.50000000  1
  Mn  Mn5  1  0.50000000  0.00219500  0.16770850  1
  Mn  Mn6  1  0.00000000  0.01036600  0.65848350  1
  Mn  Mn7  1  0.00000000  0.01036600  0.34151650  1
  Mn  Mn8  1  0.00000000  0.99942000  0.00000000  1
  Mn  Mn9  1  0.00000000  0.50219500  0.83229150  1
  Mn  Mn10  1  0.00000000  0.48034100  0.50000000  1
  Mn  Mn11  1  0.00000000  0.50219500  0.16770850  1
  O  O12  1  0.50000000  0.69119500  0.50000000  1
  O  O13  1  0.30487050  0.99498950  0.66466650  1
  O  O14  1  0.30487050  0.99498950  0.33533350  1
  O  O15  1  0.30283850  0.00397750  0.00000000  1
  O  O16  1  0.69512950  0.99498950  0.66466650  1
  O  O17  1  0.69512950  0.99498950  0.33533350  1
  O  O18  1  0.69716150  0.00397750  0.00000000  1
  O  O19  1  0.00000000  0.19119500  0.50000000  1
  O  O20  1  0.80487050  0.49498950  0.66466650  1
  O  O21  1  0.80487050  0.49498950  0.33533350  1
  O  O22  1  0.80283850  0.50397750  0.00000000  1
  O  O23  1  0.19512950  0.49498950  0.66466650  1
  O  O24  1  0.19512950  0.49498950  0.33533350  1
  O  O25  1  0.19716150  0.50397750  0.00000000  1
  F  F26  1  0.50000000  0.69391000  0.16541150  1
  F  F27  1  0.50000000  0.69391000  0.83458850  1
  F  F28  1  0.50000000  0.29096100  0.50000000  1
  F  F29  1  0.50000000  0.31861200  0.17535850  1
  F  F30  1  0.50000000  0.31861200  0.82464150  1
  F  F31  1  0.00000000  0.19391000  0.16541150  1
  F  F32  1  0.00000000  0.19391000  0.83458850  1
  F  F33  1  0.00000000  0.79096100  0.50000000  1
  F  F34  1  0.00000000  0.81861200  0.17535850  1
  F  F35  1  0.00000000  0.81861200  0.82464150  1
