# generated using pymatgen
data_SrLi4La15(CoO8)4
_symmetry_space_group_name_H-M   'P 1'
_cell_length_a   11.96349044
_cell_length_b   12.90743800
_cell_length_c   10.69213100
_cell_angle_alpha   90.00000000
_cell_angle_beta   116.54455377
_cell_angle_gamma   90.00000000
_symmetry_Int_Tables_number   1
_chemical_formula_structural   SrLi4La15(CoO8)4
_chemical_formula_sum   'Sr2 Li8 La30 Co8 O64'
_cell_volume   1477.01487203
_cell_formula_units_Z   2
loop_
 _symmetry_equiv_pos_site_id
 _symmetry_equiv_pos_as_xyz
  1  'x, y, z'
loop_
 _atom_site_type_symbol
 _atom_site_label
 _atom_site_symmetry_multiplicity
 _atom_site_fract_x
 _atom_site_fract_y
 _atom_site_fract_z
 _atom_site_occupancy
  Sr  Sr0  1  0.00000000  0.38987600  0.00000000  1
  Sr  Sr1  1  0.50000000  0.88987600  0.00000000  1
  Li  Li2  1  0.24969200  0.25093000  0.62436600  1
  Li  Li3  1  0.24873450  0.25185250  0.12484100  1
  Li  Li4  1  0.25030800  0.75093000  0.37563400  1
  Li  Li5  1  0.25126550  0.75185250  0.87515900  1
  Li  Li6  1  0.74969200  0.75093000  0.62436600  1
  Li  Li7  1  0.74873450  0.75185250  0.12484100  1
  Li  Li8  1  0.75030800  0.25093000  0.37563400  1
  Li  Li9  1  0.75126550  0.25185250  0.87515900  1
  La  La10  1  0.49966950  0.38778150  0.25194600  1
  La  La11  1  0.49939700  0.11256200  0.74710600  1
  La  La12  1  0.50060300  0.11256200  0.25289400  1
  La  La13  1  0.50033050  0.38778150  0.74805400  1
  La  La14  1  0.24657950  0.38767050  0.87482600  1
  La  La15  1  0.25186850  0.88808150  0.62748200  1
  La  La16  1  0.25342050  0.88767050  0.12517400  1
  La  La17  1  0.24813150  0.38808150  0.37251800  1
  La  La18  1  0.25027700  0.61120200  0.62532900  1
  La  La19  1  0.24717750  0.11174050  0.87370800  1
  La  La20  1  0.24972300  0.11120200  0.37467100  1
  La  La21  1  0.25282250  0.61174050  0.12629200  1
  La  La22  1  0.00000000  0.38760500  0.50000000  1
  La  La23  1  0.00000000  0.11280900  0.50000000  1
  La  La24  1  0.00000000  0.11716500  0.00000000  1
  La  La25  1  0.99966950  0.88778150  0.25194600  1
  La  La26  1  0.99939700  0.61256200  0.74710600  1
  La  La27  1  0.00060300  0.61256200  0.25289400  1
  La  La28  1  0.00033050  0.88778150  0.74805400  1
  La  La29  1  0.74657950  0.88767050  0.87482600  1
  La  La30  1  0.75186850  0.38808150  0.62748200  1
  La  La31  1  0.75342050  0.38767050  0.12517400  1
  La  La32  1  0.74813150  0.88808150  0.37251800  1
  La  La33  1  0.75027700  0.11120200  0.62532900  1
  La  La34  1  0.74717750  0.61174050  0.87370800  1
  La  La35  1  0.74972300  0.61120200  0.37467100  1
  La  La36  1  0.75282250  0.11174050  0.12629200  1
  La  La37  1  0.50000000  0.88760500  0.50000000  1
  La  La38  1  0.50000000  0.61280900  0.50000000  1
  La  La39  1  0.50000000  0.61716500  0.00000000  1
  Co  Co40  1  0.50000000  0.25029300  0.00000000  1
  Co  Co41  1  0.50000000  0.24980300  0.50000000  1
  Co  Co42  1  0.99955650  0.24950750  0.75036200  1
  Co  Co43  1  0.00044350  0.24950750  0.24963800  1
  Co  Co44  1  0.00000000  0.75029300  0.00000000  1
  Co  Co45  1  0.00000000  0.74980300  0.50000000  1
  Co  Co46  1  0.49955650  0.74950750  0.75036200  1
  Co  Co47  1  0.50044350  0.74950750  0.24963800  1
  O  O48  1  0.62099800  0.25019200  0.93826700  1
  O  O49  1  0.62208000  0.24997500  0.43843800  1
  O  O50  1  0.62134250  0.25076650  0.18236500  1
  O  O51  1  0.62184750  0.24932950  0.68400800  1
  O  O52  1  0.50000000  0.42969900  0.50000000  1
  O  O53  1  0.50000000  0.41133000  0.00000000  1
  O  O54  1  0.50000000  0.09504500  0.00000000  1
  O  O55  1  0.50000000  0.07148200  0.50000000  1
  O  O56  1  0.37865750  0.25076650  0.81763500  1
  O  O57  1  0.37900200  0.25019200  0.06173300  1
  O  O58  1  0.37792000  0.24997500  0.56156200  1
  O  O59  1  0.37815250  0.24932950  0.31599200  1
  O  O60  1  0.25117600  0.06921400  0.62627700  1
  O  O61  1  0.24882400  0.56921400  0.37372300  1
  O  O62  1  0.24856650  0.06756350  0.12362100  1
  O  O63  1  0.25143350  0.56756350  0.87637900  1
  O  O64  1  0.25037500  0.93028900  0.37542200  1
  O  O65  1  0.25728000  0.43167400  0.12896300  1
  O  O66  1  0.24272000  0.93167400  0.87103700  1
  O  O67  1  0.24962500  0.43028900  0.62457800  1
  O  O68  1  0.12188600  0.24926900  0.68826000  1
  O  O69  1  0.12196950  0.24942150  0.43374000  1
  O  O70  1  0.12279350  0.24659550  0.18912400  1
  O  O71  1  0.12267050  0.24640250  0.93351000  1
  O  O72  1  0.99974250  0.43008650  0.74547600  1
  O  O73  1  0.00025750  0.43008650  0.25452400  1
  O  O74  1  0.00144300  0.07034200  0.24913500  1
  O  O75  1  0.99855700  0.07034200  0.75086500  1
  O  O76  1  0.87720650  0.24659550  0.81087600  1
  O  O77  1  0.87803050  0.24942150  0.56626000  1
  O  O78  1  0.87811400  0.24926900  0.31174000  1
  O  O79  1  0.87732950  0.24640250  0.06649000  1
  O  O80  1  0.12099800  0.75019200  0.93826700  1
  O  O81  1  0.12208000  0.74997500  0.43843800  1
  O  O82  1  0.12134250  0.75076650  0.18236500  1
  O  O83  1  0.12184750  0.74932950  0.68400800  1
  O  O84  1  0.00000000  0.92969900  0.50000000  1
  O  O85  1  0.00000000  0.91133000  0.00000000  1
  O  O86  1  0.00000000  0.59504500  0.00000000  1
  O  O87  1  0.00000000  0.57148200  0.50000000  1
  O  O88  1  0.87865750  0.75076650  0.81763500  1
  O  O89  1  0.87900200  0.75019200  0.06173300  1
  O  O90  1  0.87792000  0.74997500  0.56156200  1
  O  O91  1  0.87815250  0.74932950  0.31599200  1
  O  O92  1  0.75117600  0.56921400  0.62627700  1
  O  O93  1  0.74882400  0.06921400  0.37372300  1
  O  O94  1  0.74856650  0.56756350  0.12362100  1
  O  O95  1  0.75143350  0.06756350  0.87637900  1
  O  O96  1  0.75037500  0.43028900  0.37542200  1
  O  O97  1  0.75728000  0.93167400  0.12896300  1
  O  O98  1  0.74272000  0.43167400  0.87103700  1
  O  O99  1  0.74962500  0.93028900  0.62457800  1
  O  O100  1  0.62188600  0.74926900  0.68826000  1
  O  O101  1  0.62196950  0.74942150  0.43374000  1
  O  O102  1  0.62279350  0.74659550  0.18912400  1
  O  O103  1  0.62267050  0.74640250  0.93351000  1
  O  O104  1  0.49974250  0.93008650  0.74547600  1
  O  O105  1  0.50025750  0.93008650  0.25452400  1
  O  O106  1  0.50144300  0.57034200  0.24913500  1
  O  O107  1  0.49855700  0.57034200  0.75086500  1
  O  O108  1  0.37720650  0.74659550  0.81087600  1
  O  O109  1  0.37803050  0.74942150  0.56626000  1
  O  O110  1  0.37811400  0.74926900  0.31174000  1
  O  O111  1  0.37732950  0.74640250  0.06649000  1
