# generated using pymatgen
data_Li3Mn2CoO6
_symmetry_space_group_name_H-M   'P 1'
_cell_length_a   12.70119083
_cell_length_b   3.00305145
_cell_length_c   6.01653150
_cell_angle_alpha   90.00000000
_cell_angle_beta   103.70486016
_cell_angle_gamma   90.00000000
_symmetry_Int_Tables_number   1
_chemical_formula_structural   Li3Mn2CoO6
_chemical_formula_sum   'Li6 Mn4 Co2 O12'
_cell_volume   222.95087932
_cell_formula_units_Z   2
loop_
 _symmetry_equiv_pos_site_id
 _symmetry_equiv_pos_as_xyz
  1  'x, y, z'
loop_
 _atom_site_type_symbol
 _atom_site_label
 _atom_site_symmetry_multiplicity
 _atom_site_fract_x
 _atom_site_fract_y
 _atom_site_fract_z
 _atom_site_occupancy
  Li  Li0  1  0.00000000  0.00000000  0.00000000  1
  Li  Li1  1  0.16382250  0.50000000  0.33589400  1
  Li  Li2  1  0.83617750  0.50000000  0.66410600  1
  Li  Li3  1  0.50000000  0.50000000  0.00000000  1
  Li  Li4  1  0.66382250  0.00000000  0.33589400  1
  Li  Li5  1  0.33617750  0.00000000  0.66410600  1
  Mn  Mn6  1  0.16617625  0.50000000  0.83012300  1
  Mn  Mn7  1  0.83382375  0.50000000  0.16987700  1
  Mn  Mn8  1  0.66617625  0.00000000  0.83012300  1
  Mn  Mn9  1  0.33382375  0.00000000  0.16987700  1
  Co  Co10  1  0.00000000  0.00000000  0.50000000  1
  Co  Co11  1  0.50000000  0.50000000  0.50000000  1
  O  O12  1  0.66932975  0.50000000  0.60730500  1
  O  O13  1  0.83067025  0.00000000  0.39269500  1
  O  O14  1  0.82584800  0.00000000  0.92920800  1
  O  O15  1  0.67415200  0.50000000  0.07079200  1
  O  O16  1  0.98800975  0.50000000  0.24967200  1
  O  O17  1  0.01199025  0.50000000  0.75032800  1
  O  O18  1  0.16932975  0.00000000  0.60730500  1
  O  O19  1  0.33067025  0.50000000  0.39269500  1
  O  O20  1  0.32584800  0.50000000  0.92920800  1
  O  O21  1  0.17415200  0.00000000  0.07079200  1
  O  O22  1  0.48800975  0.00000000  0.24967200  1
  O  O23  1  0.51199025  0.00000000  0.75032800  1
