# generated using pymatgen
data_Li4Ti3V3(SnO8)2
_symmetry_space_group_name_H-M   'P 1'
_cell_length_a   10.41548800
_cell_length_b   6.01119000
_cell_length_c   9.85820461
_cell_angle_alpha   90.00000000
_cell_angle_beta   90.78303301
_cell_angle_gamma   90.00000000
_symmetry_Int_Tables_number   1
_chemical_formula_structural   Li4Ti3V3(SnO8)2
_chemical_formula_sum   'Li8 Ti6 V6 Sn4 O32'
_cell_volume   617.15939894
_cell_formula_units_Z   2
loop_
 _symmetry_equiv_pos_site_id
 _symmetry_equiv_pos_as_xyz
  1  'x, y, z'
loop_
 _atom_site_type_symbol
 _atom_site_label
 _atom_site_symmetry_multiplicity
 _atom_site_fract_x
 _atom_site_fract_y
 _atom_site_fract_z
 _atom_site_occupancy
  Li  Li0  1  0.66569600  0.00000000  0.89557100  1
  Li  Li1  1  0.99803200  0.00000000  0.99319500  1
  Li  Li2  1  0.50259600  0.50000000  0.49134000  1
  Li  Li3  1  0.83248300  0.50000000  0.39755000  1
  Li  Li4  1  0.16569600  0.50000000  0.89557100  1
  Li  Li5  1  0.49803200  0.50000000  0.99319500  1
  Li  Li6  1  0.00259600  0.00000000  0.49134000  1
  Li  Li7  1  0.33248300  0.00000000  0.39755000  1
  Ti  Ti8  1  0.58753400  0.24589000  0.21513400  1
  Ti  Ti9  1  0.58753400  0.75411000  0.21513400  1
  Ti  Ti10  1  0.67022800  0.50000000  0.71752600  1
  Ti  Ti11  1  0.08753400  0.74589000  0.21513400  1
  Ti  Ti12  1  0.08753400  0.25411000  0.21513400  1
  Ti  Ti13  1  0.17022800  0.00000000  0.71752600  1
  V  V14  1  0.82435100  0.00000000  0.21190500  1
  V  V15  1  0.91505350  0.74439050  0.71311900  1
  V  V16  1  0.91505350  0.25560950  0.71311900  1
  V  V17  1  0.32435100  0.50000000  0.21190500  1
  V  V18  1  0.41505350  0.24439050  0.71311900  1
  V  V19  1  0.41505350  0.75560950  0.71311900  1
  Sn  Sn20  1  0.66925100  0.00000000  0.49371100  1
  Sn  Sn21  1  0.83824300  0.50000000  0.99025500  1
  Sn  Sn22  1  0.16925100  0.50000000  0.49371100  1
  Sn  Sn23  1  0.33824300  0.00000000  0.99025500  1
  O  O24  1  0.58552000  0.25891100  0.60104600  1
  O  O25  1  0.51846000  0.00000000  0.33369900  1
  O  O26  1  0.65166500  0.00000000  0.10260400  1
  O  O27  1  0.50538500  0.50000000  0.30471500  1
  O  O28  1  0.50395100  0.50000000  0.80800700  1
  O  O29  1  0.58552000  0.74108900  0.60104600  1
  O  O30  1  0.73436750  0.22953550  0.34328000  1
  O  O31  1  0.73436750  0.77046450  0.34328000  1
  O  O32  1  0.66552700  0.50000000  0.10389300  1
  O  O33  1  0.84283800  0.00000000  0.59715600  1
  O  O34  1  0.75406850  0.71934750  0.83965900  1
  O  O35  1  0.75406850  0.28065250  0.83965900  1
  O  O36  1  0.82650900  0.50000000  0.60610900  1
  O  O37  1  0.92397550  0.75476450  0.09927400  1
  O  O38  1  0.98271300  0.50000000  0.83745000  1
  O  O39  1  0.92397550  0.24523550  0.09927400  1
  O  O40  1  0.08552000  0.75891100  0.60104600  1
  O  O41  1  0.01846000  0.50000000  0.33369900  1
  O  O42  1  0.15166500  0.50000000  0.10260400  1
  O  O43  1  0.00538500  0.00000000  0.30471500  1
  O  O44  1  0.00395100  0.00000000  0.80800700  1
  O  O45  1  0.08552000  0.24108900  0.60104600  1
  O  O46  1  0.23436750  0.72953550  0.34328000  1
  O  O47  1  0.23436750  0.27046450  0.34328000  1
  O  O48  1  0.16552700  0.00000000  0.10389300  1
  O  O49  1  0.34283800  0.50000000  0.59715600  1
  O  O50  1  0.25406850  0.21934750  0.83965900  1
  O  O51  1  0.25406850  0.78065250  0.83965900  1
  O  O52  1  0.32650900  0.00000000  0.60610900  1
  O  O53  1  0.42397550  0.25476450  0.09927400  1
  O  O54  1  0.48271300  0.00000000  0.83745000  1
  O  O55  1  0.42397550  0.74523550  0.09927400  1
