# generated using pymatgen
data_LiFeBO3
_symmetry_space_group_name_H-M   'P 1'
_cell_length_a   8.34787035
_cell_length_b   8.34787035
_cell_length_c   3.12563702
_cell_angle_alpha   90.00000000
_cell_angle_beta   90.00000000
_cell_angle_gamma   120.00000000
_symmetry_Int_Tables_number   1
_chemical_formula_structural   LiFeBO3
_chemical_formula_sum   'Li3 Fe3 B3 O9'
_cell_volume   188.63425653
_cell_formula_units_Z   3
loop_
 _symmetry_equiv_pos_site_id
 _symmetry_equiv_pos_as_xyz
  1  'x, y, z'
loop_
 _atom_site_type_symbol
 _atom_site_label
 _atom_site_symmetry_multiplicity
 _atom_site_fract_x
 _atom_site_fract_y
 _atom_site_fract_z
 _atom_site_occupancy
  Li  Li0  1  0.36834467  0.35796433  0.00000000  1
  Li  Li1  1  0.64203567  0.01038033  0.00000000  1
  Li  Li2  1  0.98961967  0.63165533  0.00000000  1
  Fe  Fe3  1  0.30679967  0.98903533  0.50000000  1
  Fe  Fe4  1  0.01096467  0.31776433  0.50000000  1
  Fe  Fe5  1  0.68223567  0.69320033  0.50000000  1
  B  B6  1  0.33333333  0.66666667  0.50000000  1
  B  B7  1  0.00000000  0.00000000  0.00000000  1
  B  B8  1  0.66666667  0.33333333  0.50000000  1
  O  O9  1  0.10741367  0.91472433  0.00000000  1
  O  O10  1  0.08527567  0.19268933  0.00000000  1
  O  O11  1  0.80731067  0.89258633  0.00000000  1
  O  O12  1  0.14408917  0.59244033  0.50000000  1
  O  O13  1  0.44835117  0.85591083  0.50000000  1
  O  O14  1  0.40755967  0.55164883  0.50000000  1
  O  O15  1  0.47626567  0.25865733  0.50000000  1
  O  O16  1  0.78239167  0.52373433  0.50000000  1
  O  O17  1  0.74134267  0.21760833  0.50000000  1
