# generated using pymatgen
data_LiVSiO4
_symmetry_space_group_name_H-M   'P 1'
_cell_length_a   14.02034312
_cell_length_b   14.02034312
_cell_length_c   9.42036928
_cell_angle_alpha   90.00000000
_cell_angle_beta   90.00000000
_cell_angle_gamma   120.00000000
_symmetry_Int_Tables_number   1
_chemical_formula_structural   LiVSiO4
_chemical_formula_sum   'Li18 V18 Si18 O72'
_cell_volume   1603.67309712
_cell_formula_units_Z   18
loop_
 _symmetry_equiv_pos_site_id
 _symmetry_equiv_pos_as_xyz
  1  'x, y, z'
loop_
 _atom_site_type_symbol
 _atom_site_label
 _atom_site_symmetry_multiplicity
 _atom_site_fract_x
 _atom_site_fract_y
 _atom_site_fract_z
 _atom_site_occupancy
  Li  Li0  1  0.54533000  0.68940400  0.58034200  1
  Li  Li1  1  0.79504467  0.98450933  0.41654233  1
  Li  Li2  1  0.01549067  0.81053533  0.41654233  1
  Li  Li3  1  0.31059600  0.85592600  0.58034200  1
  Li  Li4  1  0.18946467  0.20495533  0.41654233  1
  Li  Li5  1  0.14407400  0.45467000  0.58034200  1
  Li  Li6  1  0.21199667  0.02273733  0.91367533  1
  Li  Li7  1  0.46171133  0.31784267  0.74987567  1
  Li  Li8  1  0.68215733  0.14386867  0.74987567  1
  Li  Li9  1  0.97726267  0.18925933  0.91367533  1
  Li  Li10  1  0.85613133  0.53828867  0.74987567  1
  Li  Li11  1  0.81074067  0.78800333  0.91367533  1
  Li  Li12  1  0.87866333  0.35607067  0.24700867  1
  Li  Li13  1  0.12837800  0.65117600  0.08320900  1
  Li  Li14  1  0.34882400  0.47720200  0.08320900  1
  Li  Li15  1  0.64392933  0.52259267  0.24700867  1
  Li  Li16  1  0.52279800  0.87162200  0.08320900  1
  Li  Li17  1  0.47740733  0.12133667  0.24700867  1
  V  V18  1  0.80473733  0.78902667  0.24952767  1
  V  V19  1  0.78221000  0.97962900  0.74942100  1
  V  V20  1  0.02037100  0.80258100  0.74942100  1
  V  V21  1  0.98428933  0.19526267  0.24952767  1
  V  V22  1  0.21097333  0.01571067  0.24952767  1
  V  V23  1  0.19741900  0.21779000  0.74942100  1
  V  V24  1  0.47140400  0.12236000  0.58286100  1
  V  V25  1  0.44887667  0.31296233  0.08275433  1
  V  V26  1  0.68703767  0.13591433  0.08275433  1
  V  V27  1  0.65095600  0.52859600  0.58286100  1
  V  V28  1  0.87764000  0.34904400  0.58286100  1
  V  V29  1  0.86408567  0.55112333  0.08275433  1
  V  V30  1  0.13807067  0.45569333  0.91619433  1
  V  V31  1  0.11554333  0.64629567  0.41608767  1
  V  V32  1  0.35370433  0.46924767  0.41608767  1
  V  V33  1  0.31762267  0.86192933  0.91619433  1
  V  V34  1  0.54430667  0.68237733  0.91619433  1
  V  V35  1  0.53075233  0.88445667  0.41608767  1
  Si  Si36  1  0.86256967  0.54380633  0.41705733  1
  Si  Si37  1  0.80482667  0.78895033  0.58405833  1
  Si  Si38  1  0.68123667  0.13743033  0.41705733  1
  Si  Si39  1  0.98412367  0.19517333  0.58405833  1
  Si  Si40  1  0.21104967  0.01587633  0.58405833  1
  Si  Si41  1  0.45619367  0.31876333  0.41705733  1
  Si  Si42  1  0.52923633  0.87713967  0.75039067  1
  Si  Si43  1  0.47149333  0.12228367  0.91739167  1
  Si  Si44  1  0.34790333  0.47076367  0.75039067  1
  Si  Si45  1  0.65079033  0.52850667  0.91739167  1
  Si  Si46  1  0.87771633  0.34920967  0.91739167  1
  Si  Si47  1  0.12286033  0.65209667  0.75039067  1
  Si  Si48  1  0.19590300  0.21047300  0.08372400  1
  Si  Si49  1  0.13816000  0.45561700  0.25072500  1
  Si  Si50  1  0.01457000  0.80409700  0.08372400  1
  Si  Si51  1  0.31745700  0.86184000  0.25072500  1
  Si  Si52  1  0.54438300  0.68254300  0.25072500  1
  Si  Si53  1  0.78952700  0.98543000  0.08372400  1
  O  O54  1  0.55397633  0.77361167  0.75517267  1
  O  O55  1  0.79612367  0.53833433  0.26940433  1
  O  O56  1  0.68129100  0.67754300  0.58522600  1
  O  O57  1  0.98438400  0.65748400  0.41716700  1
  O  O58  1  0.87619033  0.78884367  0.72356667  1
  O  O59  1  0.86880967  0.79583633  0.43409933  1
  O  O60  1  0.67310000  0.01561600  0.41716700  1
  O  O61  1  0.78678700  0.89638200  0.58980300  1
  O  O62  1  0.79601500  0.92138600  0.22615700  1
  O  O63  1  0.74221067  0.20387633  0.26940433  1
  O  O64  1  0.07861400  0.87462900  0.22615700  1
  O  O65  1  0.10361800  0.89040500  0.58980300  1
  O  O66  1  0.22638833  0.78036467  0.75517267  1
  O  O67  1  0.91265333  0.12380967  0.72356667  1
  O  O68  1  0.92702667  0.13119033  0.43409933  1
  O  O69  1  0.20416367  0.07297333  0.43409933  1
  O  O70  1  0.21115633  0.08734667  0.72356667  1
  O  O71  1  0.99625200  0.31870900  0.58522600  1
  O  O72  1  0.10959500  0.21321300  0.58980300  1
  O  O73  1  0.12537100  0.20398500  0.22615700  1
  O  O74  1  0.32245700  0.00374800  0.58522600  1
  O  O75  1  0.21963533  0.44602367  0.75517267  1
  O  O76  1  0.34251600  0.32690000  0.41716700  1
  O  O77  1  0.46166567  0.25778933  0.26940433  1
  O  O78  1  0.22064300  0.10694500  0.08850600  1
  O  O79  1  0.46279033  0.87166767  0.60273767  1
  O  O80  1  0.34795767  0.01087633  0.91855933  1
  O  O81  1  0.65105067  0.99081733  0.75050033  1
  O  O82  1  0.54285700  0.12217700  0.05690000  1
  O  O83  1  0.53547633  0.12916967  0.76743267  1
  O  O84  1  0.33976667  0.34894933  0.75050033  1
  O  O85  1  0.45345367  0.22971533  0.92313633  1
  O  O86  1  0.46268167  0.25471933  0.55949033  1
  O  O87  1  0.40887733  0.53720967  0.60273767  1
  O  O88  1  0.74528067  0.20796233  0.55949033  1
  O  O89  1  0.77028467  0.22373833  0.92313633  1
  O  O90  1  0.89305500  0.11369800  0.08850600  1
  O  O91  1  0.57932000  0.45714300  0.05690000  1
  O  O92  1  0.59369333  0.46452367  0.76743267  1
  O  O93  1  0.87083033  0.40630667  0.76743267  1
  O  O94  1  0.87782300  0.42068000  0.05690000  1
  O  O95  1  0.66291867  0.65204233  0.91855933  1
  O  O96  1  0.77626167  0.54654633  0.92313633  1
  O  O97  1  0.79203767  0.53731833  0.55949033  1
  O  O98  1  0.98912367  0.33708133  0.91855933  1
  O  O99  1  0.88630200  0.77935700  0.08850600  1
  O  O100  1  0.00918267  0.66023333  0.75050033  1
  O  O101  1  0.12833233  0.59112267  0.60273767  1
  O  O102  1  0.88730967  0.44027833  0.42183933  1
  O  O103  1  0.12945700  0.20500100  0.93607100  1
  O  O104  1  0.01462433  0.34420967  0.25189267  1
  O  O105  1  0.31771733  0.32415067  0.08383367  1
  O  O106  1  0.20952367  0.45551033  0.39023333  1
  O  O107  1  0.20214300  0.46250300  0.10076600  1
  O  O108  1  0.00643333  0.68228267  0.08383367  1
  O  O109  1  0.12012033  0.56304867  0.25646967  1
  O  O110  1  0.12934833  0.58805267  0.89282367  1
  O  O111  1  0.07554400  0.87054300  0.93607100  1
  O  O112  1  0.41194733  0.54129567  0.89282367  1
  O  O113  1  0.43695133  0.55707167  0.25646967  1
  O  O114  1  0.55972167  0.44703133  0.42183933  1
  O  O115  1  0.24598667  0.79047633  0.39023333  1
  O  O116  1  0.26036000  0.79785700  0.10076600  1
  O  O117  1  0.53749700  0.73964000  0.10076600  1
  O  O118  1  0.54448967  0.75401333  0.39023333  1
  O  O119  1  0.32958533  0.98537567  0.25189267  1
  O  O120  1  0.44292833  0.87987967  0.25646967  1
  O  O121  1  0.45870433  0.87065167  0.89282367  1
  O  O122  1  0.65579033  0.67041467  0.25189267  1
  O  O123  1  0.55296867  0.11269033  0.42183933  1
  O  O124  1  0.67584933  0.99356667  0.08383367  1
  O  O125  1  0.79499900  0.92445600  0.93607100  1
