# generated using pymatgen
data_Li7V(O2F)2
_symmetry_space_group_name_H-M   'P 1'
_cell_length_a   5.41997309
_cell_length_b   5.95187325
_cell_length_c   9.60617568
_cell_angle_alpha   102.66017752
_cell_angle_beta   92.55231973
_cell_angle_gamma   116.99975216
_symmetry_Int_Tables_number   1
_chemical_formula_structural   Li7V(O2F)2
_chemical_formula_sum   'Li14 V2 O8 F4'
_cell_volume   265.67452714
_cell_formula_units_Z   2
loop_
 _symmetry_equiv_pos_site_id
 _symmetry_equiv_pos_as_xyz
  1  'x, y, z'
loop_
 _atom_site_type_symbol
 _atom_site_label
 _atom_site_symmetry_multiplicity
 _atom_site_fract_x
 _atom_site_fract_y
 _atom_site_fract_z
 _atom_site_occupancy
  Li  Li0  1  0.14667750  0.63070600  0.24800000  1
  Li  Li1  1  0.17218950  0.62542050  0.93386200  1
  Li  Li2  1  0.52765950  0.95234050  0.81026600  1
  Li  Li3  1  0.96707800  0.06284800  0.68877200  1
  Li  Li4  1  0.32278750  0.39999100  0.55321000  1
  Li  Li5  1  0.37283050  0.37257650  0.25210300  1
  Li  Li6  1  0.36955550  0.35586350  0.89238100  1
  Li  Li7  1  0.62811200  0.64775700  0.11647000  1
  Li  Li8  1  0.68747200  0.62324200  0.75217000  1
  Li  Li9  1  0.70037000  0.66130200  0.45473400  1
  Li  Li10  1  0.99191100  0.95895150  0.32992600  1
  Li  Li11  1  0.45860850  0.00629550  0.17933100  1
  Li  Li12  1  0.80056150  0.35381350  0.03989600  1
  Li  Li13  1  0.86184250  0.36802650  0.40022500  1
  V  V14  1  0.00248250  0.00121750  0.00128800  1
  V  V15  1  0.45789300  0.95547000  0.48810200  1
  O  O16  1  0.03212100  0.75646150  0.11123300  1
  O  O17  1  0.06405600  0.73472850  0.43342300  1
  O  O18  1  0.57113450  0.78205100  0.61895700  1
  O  O19  1  0.53991250  0.76027850  0.30258300  1
  O  O20  1  0.58036100  0.74378700  0.94090300  1
  O  O21  1  0.42336350  0.24621500  0.06081600  1
  O  O22  1  0.46640200  0.24033150  0.39627200  1
  O  O23  1  0.96725900  0.23663350  0.89053800  1
  F  F24  1  0.08071000  0.80236800  0.81324200  1
  F  F25  1  0.41658750  0.24405800  0.69570600  1
  F  F26  1  0.93526800  0.20515250  0.52514200  1
  F  F27  1  0.95449100  0.24247300  0.20307400  1
