# generated using pymatgen
data_Li3VPCO7
_symmetry_space_group_name_H-M   'P 1'
_cell_length_a   4.90870030
_cell_length_b   6.52076201
_cell_length_c   8.63999587
_cell_angle_alpha   90.00000000
_cell_angle_beta   91.57902558
_cell_angle_gamma   90.00000000
_symmetry_Int_Tables_number   1
_chemical_formula_structural   Li3VPCO7
_chemical_formula_sum   'Li6 V2 P2 C2 O14'
_cell_volume   276.44800216
_cell_formula_units_Z   2
loop_
 _symmetry_equiv_pos_site_id
 _symmetry_equiv_pos_as_xyz
  1  'x, y, z'
loop_
 _atom_site_type_symbol
 _atom_site_label
 _atom_site_symmetry_multiplicity
 _atom_site_fract_x
 _atom_site_fract_y
 _atom_site_fract_z
 _atom_site_occupancy
  Li  Li0  1  0.22478200  0.28892200  0.88281650  1
  Li  Li1  1  0.77521800  0.78892200  0.11718350  1
  Li  Li2  1  0.71045600  0.44765800  0.69650800  1
  Li  Li3  1  0.28954400  0.94765800  0.30349200  1
  Li  Li4  1  0.27189050  0.73013650  0.63259100  1
  Li  Li5  1  0.72810950  0.23013650  0.36740900  1
  V  V6  1  0.73743400  0.97910700  0.75434650  1
  V  V7  1  0.26256600  0.47910700  0.24565350  1
  P  P8  1  0.21151650  0.23222850  0.58058650  1
  P  P9  1  0.78848350  0.73222850  0.41941350  1
  C  C10  1  0.26498350  0.79046450  0.96235350  1
  C  C11  1  0.73501650  0.29046450  0.03764650  1
  O  O12  1  0.52450100  0.81127700  0.94004550  1
  O  O13  1  0.47549900  0.31127700  0.05995450  1
  O  O14  1  0.81569250  0.26178750  0.89441250  1
  O  O15  1  0.18430750  0.76178750  0.10558750  1
  O  O16  1  0.08745050  0.79333250  0.85125050  1
  O  O17  1  0.91254950  0.29333250  0.14874950  1
  O  O18  1  0.34177400  0.04731600  0.66560400  1
  O  O19  1  0.65822600  0.54731600  0.33439600  1
  O  O20  1  0.30210550  0.42548050  0.67369050  1
  O  O21  1  0.69789450  0.92548050  0.32630950  1
  O  O22  1  0.70587450  0.73118250  0.59238550  1
  O  O23  1  0.29412550  0.23118250  0.40761450  1
  O  O24  1  0.89427300  0.21082200  0.58561000  1
  O  O25  1  0.10572700  0.71082200  0.41439000  1
