# generated using pymatgen
data_LiFe3OF5
_symmetry_space_group_name_H-M   'P 1'
_cell_length_a   9.55789600
_cell_length_b   7.06261000
_cell_length_c   7.60411402
_cell_angle_alpha   90.00000000
_cell_angle_beta   112.87826156
_cell_angle_gamma   90.00000000
_symmetry_Int_Tables_number   1
_chemical_formula_structural   LiFe3OF5
_chemical_formula_sum   'Li4 Fe12 O4 F20'
_cell_volume   472.92553244
_cell_formula_units_Z   4
loop_
 _symmetry_equiv_pos_site_id
 _symmetry_equiv_pos_as_xyz
  1  'x, y, z'
loop_
 _atom_site_type_symbol
 _atom_site_label
 _atom_site_symmetry_multiplicity
 _atom_site_fract_x
 _atom_site_fract_y
 _atom_site_fract_z
 _atom_site_occupancy
  Li  Li0  1  0.12401700  0.76041200  0.87652400  1
  Li  Li1  1  0.12401700  0.23958800  0.87652400  1
  Li  Li2  1  0.62401700  0.26041200  0.87652400  1
  Li  Li3  1  0.62401700  0.73958800  0.87652400  1
  Fe  Fe4  1  0.17366400  0.50000000  0.17668400  1
  Fe  Fe5  1  0.49928000  0.50000000  0.51283300  1
  Fe  Fe6  1  0.83665800  0.50000000  0.33582300  1
  Fe  Fe7  1  0.85186500  0.50000000  0.82738200  1
  Fe  Fe8  1  0.21169800  0.50000000  0.66243200  1
  Fe  Fe9  1  0.45711900  0.50000000  0.01331300  1
  Fe  Fe10  1  0.67366400  0.00000000  0.17668400  1
  Fe  Fe11  1  0.99928000  0.00000000  0.51283300  1
  Fe  Fe12  1  0.33665800  0.00000000  0.33582300  1
  Fe  Fe13  1  0.35186500  0.00000000  0.82738200  1
  Fe  Fe14  1  0.71169800  0.00000000  0.66243200  1
  Fe  Fe15  1  0.95711900  0.00000000  0.01331300  1
  O  O16  1  0.43538900  0.50000000  0.73183400  1
  O  O17  1  0.23100500  0.50000000  0.95370500  1
  O  O18  1  0.93538900  0.00000000  0.73183400  1
  O  O19  1  0.73100500  0.00000000  0.95370500  1
  F  F20  1  0.99769150  0.29767150  0.01099200  1
  F  F21  1  0.99769150  0.70232850  0.01099200  1
  F  F22  1  0.73797900  0.50000000  0.02107300  1
  F  F23  1  0.07227700  0.50000000  0.36842400  1
  F  F24  1  0.83538600  0.78804300  0.33695100  1
  F  F25  1  0.83538600  0.21195700  0.33695100  1
  F  F26  1  0.59717100  0.50000000  0.30827100  1
  F  F27  1  0.18268950  0.80444050  0.67065400  1
  F  F28  1  0.18268950  0.19555950  0.67065400  1
  F  F29  1  0.95145800  0.50000000  0.63812500  1
  F  F30  1  0.49769150  0.79767150  0.01099200  1
  F  F31  1  0.49769150  0.20232850  0.01099200  1
  F  F32  1  0.23797900  0.00000000  0.02107300  1
  F  F33  1  0.57227700  0.00000000  0.36842400  1
  F  F34  1  0.33538600  0.28804300  0.33695100  1
  F  F35  1  0.33538600  0.71195700  0.33695100  1
  F  F36  1  0.09717100  0.00000000  0.30827100  1
  F  F37  1  0.68268950  0.30444050  0.67065400  1
  F  F38  1  0.68268950  0.69555950  0.67065400  1
  F  F39  1  0.45145800  0.00000000  0.63812500  1
