# generated using pymatgen
data_Li2Ti2FeO6
_symmetry_space_group_name_H-M   'P 1'
_cell_length_a   5.16707954
_cell_length_b   9.07344289
_cell_length_c   10.41042009
_cell_angle_alpha   90.00000000
_cell_angle_beta   90.00000000
_cell_angle_gamma   90.00000000
_symmetry_Int_Tables_number   1
_chemical_formula_structural   Li2Ti2FeO6
_chemical_formula_sum   'Li8 Ti8 Fe4 O24'
_cell_volume   488.07381942
_cell_formula_units_Z   4
loop_
 _symmetry_equiv_pos_site_id
 _symmetry_equiv_pos_as_xyz
  1  'x, y, z'
loop_
 _atom_site_type_symbol
 _atom_site_label
 _atom_site_symmetry_multiplicity
 _atom_site_fract_x
 _atom_site_fract_y
 _atom_site_fract_z
 _atom_site_occupancy
  Li  Li0  1  0.42429550  0.75000000  0.25000000  1
  Li  Li1  1  0.57570450  0.75000000  0.75000000  1
  Li  Li2  1  0.92429550  0.75000000  0.25000000  1
  Li  Li3  1  0.07570450  0.75000000  0.75000000  1
  Li  Li4  1  0.92429550  0.25000000  0.25000000  1
  Li  Li5  1  0.07570450  0.25000000  0.75000000  1
  Li  Li6  1  0.42429550  0.25000000  0.25000000  1
  Li  Li7  1  0.57570450  0.25000000  0.75000000  1
  Ti  Ti8  1  0.50000000  0.66019400  0.00000000  1
  Ti  Ti9  1  0.50000000  0.83980600  0.50000000  1
  Ti  Ti10  1  0.00000000  0.66019400  0.50000000  1
  Ti  Ti11  1  0.00000000  0.83980600  0.00000000  1
  Ti  Ti12  1  0.00000000  0.16019400  0.00000000  1
  Ti  Ti13  1  0.00000000  0.33980600  0.50000000  1
  Ti  Ti14  1  0.50000000  0.16019400  0.50000000  1
  Ti  Ti15  1  0.50000000  0.33980600  0.00000000  1
  Fe  Fe16  1  0.50000000  0.50000000  0.50000000  1
  Fe  Fe17  1  0.50000000  0.00000000  0.00000000  1
  Fe  Fe18  1  0.00000000  0.00000000  0.50000000  1
  Fe  Fe19  1  0.00000000  0.50000000  0.00000000  1
  O  O20  1  0.31804350  0.68414100  0.60728700  1
  O  O21  1  0.18195650  0.81585900  0.39271300  1
  O  O22  1  0.31804350  0.81585900  0.89271300  1
  O  O23  1  0.68195650  0.81585900  0.10728700  1
  O  O24  1  0.14290850  0.00000000  0.09980100  1
  O  O25  1  0.35709150  0.00000000  0.59980100  1
  O  O26  1  0.14290850  0.50000000  0.40019900  1
  O  O27  1  0.68195650  0.68414100  0.39271300  1
  O  O28  1  0.35709150  0.50000000  0.90019900  1
  O  O29  1  0.81804350  0.68414100  0.89271300  1
  O  O30  1  0.18195650  0.68414100  0.10728700  1
  O  O31  1  0.81804350  0.81585900  0.60728700  1
  O  O32  1  0.81804350  0.18414100  0.60728700  1
  O  O33  1  0.68195650  0.31585900  0.39271300  1
  O  O34  1  0.81804350  0.31585900  0.89271300  1
  O  O35  1  0.18195650  0.31585900  0.10728700  1
  O  O36  1  0.64290850  0.50000000  0.09980100  1
  O  O37  1  0.85709150  0.50000000  0.59980100  1
  O  O38  1  0.64290850  0.00000000  0.40019900  1
  O  O39  1  0.18195650  0.18414100  0.39271300  1
  O  O40  1  0.85709150  0.00000000  0.90019900  1
  O  O41  1  0.31804350  0.18414100  0.89271300  1
  O  O42  1  0.68195650  0.18414100  0.10728700  1
  O  O43  1  0.31804350  0.31585900  0.60728700  1
