# generated using pymatgen
data_Li2MnVO4
_symmetry_space_group_name_H-M   'P 1'
_cell_length_a   8.25941130
_cell_length_b   8.30488535
_cell_length_c   6.04219108
_cell_angle_alpha   90.00000000
_cell_angle_beta   132.52165215
_cell_angle_gamma   90.00000000
_symmetry_Int_Tables_number   1
_chemical_formula_structural   Li2MnVO4
_chemical_formula_sum   'Li8 Mn4 V4 O16'
_cell_volume   305.46230787
_cell_formula_units_Z   4
loop_
 _symmetry_equiv_pos_site_id
 _symmetry_equiv_pos_as_xyz
  1  'x, y, z'
loop_
 _atom_site_type_symbol
 _atom_site_label
 _atom_site_symmetry_multiplicity
 _atom_site_fract_x
 _atom_site_fract_y
 _atom_site_fract_z
 _atom_site_occupancy
  Li  Li0  1  0.75000000  0.25000000  0.00000000  1
  Li  Li1  1  0.25000000  0.25000000  0.50000000  1
  Li  Li2  1  0.00000000  0.50000000  0.50000000  1
  Li  Li3  1  0.00000000  0.50000000  0.00000000  1
  Li  Li4  1  0.25000000  0.75000000  0.00000000  1
  Li  Li5  1  0.75000000  0.75000000  0.50000000  1
  Li  Li6  1  0.50000000  0.00000000  0.50000000  1
  Li  Li7  1  0.50000000  0.00000000  0.00000000  1
  Mn  Mn8  1  0.25000000  0.25000000  0.00000000  1
  Mn  Mn9  1  0.75000000  0.25000000  0.50000000  1
  Mn  Mn10  1  0.75000000  0.75000000  0.00000000  1
  Mn  Mn11  1  0.25000000  0.75000000  0.50000000  1
  V  V12  1  0.50000000  0.50000000  0.00000000  1
  V  V13  1  0.50000000  0.50000000  0.50000000  1
  V  V14  1  0.00000000  0.00000000  0.00000000  1
  V  V15  1  0.00000000  0.00000000  0.50000000  1
  O  O16  1  0.98183850  0.75640450  0.98846400  1
  O  O17  1  0.01816150  0.75640450  0.51153600  1
  O  O18  1  0.98183850  0.24359550  0.48846400  1
  O  O19  1  0.01816150  0.24359550  0.01153600  1
  O  O20  1  0.26447000  0.48873700  0.02030500  1
  O  O21  1  0.73553000  0.48873700  0.47969500  1
  O  O22  1  0.26447000  0.51126300  0.52030500  1
  O  O23  1  0.73553000  0.51126300  0.97969500  1
  O  O24  1  0.48183850  0.25640450  0.98846400  1
  O  O25  1  0.51816150  0.25640450  0.51153600  1
  O  O26  1  0.48183850  0.74359550  0.48846400  1
  O  O27  1  0.51816150  0.74359550  0.01153600  1
  O  O28  1  0.76447000  0.98873700  0.02030500  1
  O  O29  1  0.23553000  0.98873700  0.47969500  1
  O  O30  1  0.76447000  0.01126300  0.52030500  1
  O  O31  1  0.23553000  0.01126300  0.97969500  1
