# generated using pymatgen
data_VF5
_symmetry_space_group_name_H-M   'P 1'
_cell_length_a   8.77312000
_cell_length_b   6.22502000
_cell_length_c   8.29379231
_cell_angle_alpha   90.00000000
_cell_angle_beta   119.67817685
_cell_angle_gamma   90.00000000
_symmetry_Int_Tables_number   1
_chemical_formula_structural   VF5
_chemical_formula_sum   'V4 F20'
_cell_volume   393.53002082
_cell_formula_units_Z   4
loop_
 _symmetry_equiv_pos_site_id
 _symmetry_equiv_pos_as_xyz
  1  'x, y, z'
loop_
 _atom_site_type_symbol
 _atom_site_label
 _atom_site_symmetry_multiplicity
 _atom_site_fract_x
 _atom_site_fract_y
 _atom_site_fract_z
 _atom_site_occupancy
  V  V0  1  0.99796200  0.98673900  0.96338900  1
  V  V1  1  0.49796200  0.51326100  0.46338900  1
  V  V2  1  0.49796200  0.48673900  0.96338900  1
  V  V3  1  0.99796200  0.01326100  0.46338900  1
  F  F4  1  0.97709900  0.73710100  0.05159600  1
  F  F5  1  0.72429100  0.47762700  0.12866500  1
  F  F6  1  0.27285250  0.47425350  0.38537500  1
  F  F7  1  0.49856900  0.58701100  0.25892100  1
  F  F8  1  0.47709900  0.76289900  0.55159600  1
  F  F9  1  0.01908650  0.73081150  0.46797500  1
  F  F10  1  0.99856900  0.91298900  0.75892100  1
  F  F11  1  0.22429100  0.02237300  0.62866500  1
  F  F12  1  0.77285250  0.02574650  0.88537500  1
  F  F13  1  0.51908650  0.76918850  0.96797500  1
  F  F14  1  0.47709900  0.23710100  0.05159600  1
  F  F15  1  0.22429100  0.97762700  0.12866500  1
  F  F16  1  0.77285250  0.97425350  0.38537500  1
  F  F17  1  0.99856900  0.08701100  0.25892100  1
  F  F18  1  0.97709900  0.26289900  0.55159600  1
  F  F19  1  0.51908650  0.23081150  0.46797500  1
  F  F20  1  0.49856900  0.41298900  0.75892100  1
  F  F21  1  0.72429100  0.52237300  0.62866500  1
  F  F22  1  0.27285250  0.52574650  0.88537500  1
  F  F23  1  0.01908650  0.26918850  0.96797500  1
