# generated using pymatgen
data_Fe3O5F
_symmetry_space_group_name_H-M   'P 1'
_cell_length_a   9.05145400
_cell_length_b   6.41830600
_cell_length_c   7.36891398
_cell_angle_alpha   90.00000000
_cell_angle_beta   114.08427679
_cell_angle_gamma   90.00000000
_symmetry_Int_Tables_number   1
_chemical_formula_structural   Fe3O5F
_chemical_formula_sum   'Fe12 O20 F4'
_cell_volume   390.82959129
_cell_formula_units_Z   4
loop_
 _symmetry_equiv_pos_site_id
 _symmetry_equiv_pos_as_xyz
  1  'x, y, z'
loop_
 _atom_site_type_symbol
 _atom_site_label
 _atom_site_symmetry_multiplicity
 _atom_site_fract_x
 _atom_site_fract_y
 _atom_site_fract_z
 _atom_site_occupancy
  Fe  Fe0  1  0.17585600  0.50000000  0.15297000  1
  Fe  Fe1  1  0.82614500  0.50000000  0.33672000  1
  Fe  Fe2  1  0.15617800  0.50000000  0.67672900  1
  Fe  Fe3  1  0.83075100  0.50000000  0.83717200  1
  Fe  Fe4  1  0.50400200  0.50000000  0.49023500  1
  Fe  Fe5  1  0.50401000  0.50000000  0.00792000  1
  Fe  Fe6  1  0.67585600  0.00000000  0.15297000  1
  Fe  Fe7  1  0.32614500  0.00000000  0.33672000  1
  Fe  Fe8  1  0.65617800  0.00000000  0.67672900  1
  Fe  Fe9  1  0.33075100  0.00000000  0.83717200  1
  Fe  Fe10  1  0.00400200  0.00000000  0.49023500  1
  Fe  Fe11  1  0.00401000  0.00000000  0.00792000  1
  O  O12  1  0.83806050  0.19365550  0.33382700  1
  O  O13  1  0.16311200  0.19437400  0.67060100  1
  O  O14  1  0.72958000  0.50000000  0.04615200  1
  O  O15  1  0.27740700  0.50000000  0.96075000  1
  O  O16  1  0.92860500  0.50000000  0.62219100  1
  O  O17  1  0.60186000  0.50000000  0.29937400  1
  O  O18  1  0.16311200  0.80562600  0.67060100  1
  O  O19  1  0.83806050  0.80634450  0.33382700  1
  O  O20  1  0.99972200  0.30810100  0.99610800  1
  O  O21  1  0.99972200  0.69189900  0.99610800  1
  O  O22  1  0.33806050  0.69365550  0.33382700  1
  O  O23  1  0.66311200  0.69437400  0.67060100  1
  O  O24  1  0.22958000  0.00000000  0.04615200  1
  O  O25  1  0.77740700  0.00000000  0.96075000  1
  O  O26  1  0.42860500  0.00000000  0.62219100  1
  O  O27  1  0.10186000  0.00000000  0.29937400  1
  O  O28  1  0.66311200  0.30562600  0.67060100  1
  O  O29  1  0.33806050  0.30634450  0.33382700  1
  O  O30  1  0.49972200  0.80810100  0.99610800  1
  O  O31  1  0.49972200  0.19189900  0.99610800  1
  F  F32  1  0.39478600  0.50000000  0.69736900  1
  F  F33  1  0.06903200  0.50000000  0.37134700  1
  F  F34  1  0.89478600  0.00000000  0.69736900  1
  F  F35  1  0.56903200  0.00000000  0.37134700  1
