# generated using pymatgen
data_Li3Fe2CuO6
_symmetry_space_group_name_H-M   'P 1'
_cell_length_a   13.04114800
_cell_length_b   2.97919000
_cell_length_c   5.96686729
_cell_angle_alpha   90.00000000
_cell_angle_beta   103.87361115
_cell_angle_gamma   90.00000000
_symmetry_Int_Tables_number   1
_chemical_formula_structural   Li3Fe2CuO6
_chemical_formula_sum   'Li6 Fe4 Cu2 O12'
_cell_volume   225.06204449
_cell_formula_units_Z   2
loop_
 _symmetry_equiv_pos_site_id
 _symmetry_equiv_pos_as_xyz
  1  'x, y, z'
loop_
 _atom_site_type_symbol
 _atom_site_label
 _atom_site_symmetry_multiplicity
 _atom_site_fract_x
 _atom_site_fract_y
 _atom_site_fract_z
 _atom_site_occupancy
  Li  Li0  1  0.00000000  0.00000000  0.00000000  1
  Li  Li1  1  0.16346800  0.50000000  0.33321100  1
  Li  Li2  1  0.33653200  0.00000000  0.66678900  1
  Li  Li3  1  0.50000000  0.50000000  0.00000000  1
  Li  Li4  1  0.66346800  0.00000000  0.33321100  1
  Li  Li5  1  0.83653200  0.50000000  0.66678900  1
  Fe  Fe6  1  0.16510600  0.50000000  0.83117300  1
  Fe  Fe7  1  0.33489400  0.00000000  0.16882700  1
  Fe  Fe8  1  0.66510600  0.00000000  0.83117300  1
  Fe  Fe9  1  0.83489400  0.50000000  0.16882700  1
  Cu  Cu10  1  0.00000000  0.00000000  0.50000000  1
  Cu  Cu11  1  0.50000000  0.50000000  0.50000000  1
  O  O12  1  0.16118800  0.00000000  0.59403000  1
  O  O13  1  0.32970200  0.50000000  0.92786600  1
  O  O14  1  0.33881200  0.50000000  0.40597000  1
  O  O15  1  0.49686700  0.00000000  0.26303200  1
  O  O16  1  0.00313300  0.50000000  0.73696800  1
  O  O17  1  0.17029800  0.00000000  0.07213400  1
  O  O18  1  0.66118800  0.50000000  0.59403000  1
  O  O19  1  0.82970200  0.00000000  0.92786600  1
  O  O20  1  0.83881200  0.00000000  0.40597000  1
  O  O21  1  0.99686700  0.50000000  0.26303200  1
  O  O22  1  0.50313300  0.00000000  0.73696800  1
  O  O23  1  0.67029800  0.50000000  0.07213400  1
