# generated using pymatgen
data_Na4Ni3O7
_symmetry_space_group_name_H-M   'P 1'
_cell_length_a   7.96398437
_cell_length_b   7.96398437
_cell_length_c   15.85897948
_cell_angle_alpha   90.00000000
_cell_angle_beta   90.00000000
_cell_angle_gamma   120.00000000
_symmetry_Int_Tables_number   1
_chemical_formula_structural   Na4Ni3O7
_chemical_formula_sum   'Na24 Ni18 O42'
_cell_volume   871.09729799
_cell_formula_units_Z   6
loop_
 _symmetry_equiv_pos_site_id
 _symmetry_equiv_pos_as_xyz
  1  'x, y, z'
loop_
 _atom_site_type_symbol
 _atom_site_label
 _atom_site_symmetry_multiplicity
 _atom_site_fract_x
 _atom_site_fract_y
 _atom_site_fract_z
 _atom_site_occupancy
  Na  Na0  1  0.57062700  0.72185600  0.00520400  1
  Na  Na1  1  0.15122900  0.42937300  0.00520400  1
  Na  Na2  1  0.38852267  0.48456233  0.32812933  1
  Na  Na3  1  0.33333333  0.66666667  0.16666667  1
  Na  Na4  1  0.27814400  0.84877100  0.00520400  1
  Na  Na5  1  0.51543767  0.90396033  0.32812933  1
  Na  Na6  1  0.09603967  0.61147733  0.32812933  1
  Na  Na7  1  0.00000000  0.00000000  0.00000000  1
  Na  Na8  1  0.23729367  0.05518933  0.33853733  1
  Na  Na9  1  0.81789567  0.76270633  0.33853733  1
  Na  Na10  1  0.05518933  0.81789567  0.66146267  1
  Na  Na11  1  1.00000000  0.00000000  0.50000000  1
  Na  Na12  1  0.94481067  0.18210433  0.33853733  1
  Na  Na13  1  0.18210433  0.23729367  0.66146267  1
  Na  Na14  1  0.76270633  0.94481067  0.66146267  1
  Na  Na15  1  0.66666667  0.33333333  0.33333333  1
  Na  Na16  1  0.90396033  0.38852267  0.67187067  1
  Na  Na17  1  0.48456233  0.09603967  0.67187067  1
  Na  Na18  1  0.72185600  0.15122900  0.99479600  1
  Na  Na19  1  0.66666667  0.33333333  0.83333333  1
  Na  Na20  1  0.61147733  0.51543767  0.67187067  1
  Na  Na21  1  0.84877100  0.57062700  0.99479600  1
  Na  Na22  1  0.42937300  0.27814400  0.99479600  1
  Na  Na23  1  0.33333333  0.66666667  0.66666667  1
  Ni  Ni24  1  0.19040333  0.23419967  0.16586567  1
  Ni  Ni25  1  0.76580033  0.95620367  0.16586567  1
  Ni  Ni26  1  0.62287033  0.52373667  0.16746767  1
  Ni  Ni27  1  0.47626333  0.09913367  0.16746767  1
  Ni  Ni28  1  0.04379633  0.80959667  0.16586567  1
  Ni  Ni29  1  0.90086633  0.37712967  0.16746767  1
  Ni  Ni30  1  0.85707000  0.56753300  0.49919900  1
  Ni  Ni31  1  0.43246700  0.28953700  0.49919900  1
  Ni  Ni32  1  0.28953700  0.85707000  0.50080100  1
  Ni  Ni33  1  0.14293000  0.43246700  0.50080100  1
  Ni  Ni34  1  0.71046300  0.14293000  0.49919900  1
  Ni  Ni35  1  0.56753300  0.71046300  0.50080100  1
  Ni  Ni36  1  0.52373667  0.90086633  0.83253233  1
  Ni  Ni37  1  0.09913367  0.62287033  0.83253233  1
  Ni  Ni38  1  0.95620367  0.19040333  0.83413433  1
  Ni  Ni39  1  0.80959667  0.76580033  0.83413433  1
  Ni  Ni40  1  0.37712967  0.47626333  0.83253233  1
  Ni  Ni41  1  0.23419967  0.04379633  0.83413433  1
  O  O42  1  0.43065000  0.27922300  0.23316800  1
  O  O43  1  0.39288533  0.45437067  0.09971167  1
  O  O44  1  0.33333333  0.66666667  0.89511867  1
  O  O45  1  0.54562933  0.93851467  0.09971167  1
  O  O46  1  0.12103733  0.39481867  0.23362167  1
  O  O47  1  0.60518133  0.72621867  0.23362167  1
  O  O48  1  0.27378133  0.87896267  0.23362167  1
  O  O49  1  0.33333333  0.66666667  0.43821467  1
  O  O50  1  0.94588967  0.18190633  0.10016533  1
  O  O51  1  0.06148533  0.60711467  0.09971167  1
  O  O52  1  0.72077700  0.15142700  0.23316800  1
  O  O53  1  0.23601667  0.05411033  0.10016533  1
  O  O54  1  0.84857300  0.56935000  0.23316800  1
  O  O55  1  0.81809367  0.76398333  0.10016533  1
  O  O56  1  0.09731667  0.61255633  0.56650133  1
  O  O57  1  0.05955200  0.78770400  0.43304500  1
  O  O58  1  0.00000000  0.00000000  0.22845200  1
  O  O59  1  0.21229600  0.27184800  0.43304500  1
  O  O60  1  0.78770400  0.72815200  0.56695500  1
  O  O61  1  0.27184800  0.05955200  0.56695500  1
  O  O62  1  0.94044800  0.21229600  0.56695500  1
  O  O63  1  0.00000000  0.00000000  0.77154800  1
  O  O64  1  0.61255633  0.51523967  0.43349867  1
  O  O65  1  0.72815200  0.94044800  0.43304500  1
  O  O66  1  0.38744367  0.48476033  0.56650133  1
  O  O67  1  0.90268333  0.38744367  0.43349867  1
  O  O68  1  0.51523967  0.90268333  0.56650133  1
  O  O69  1  0.48476033  0.09731667  0.43349867  1
  O  O70  1  0.76398333  0.94588967  0.89983467  1
  O  O71  1  0.72621867  0.12103733  0.76637833  1
  O  O72  1  0.66666667  0.33333333  0.56178533  1
  O  O73  1  0.87896267  0.60518133  0.76637833  1
  O  O74  1  0.45437067  0.06148533  0.90028833  1
  O  O75  1  0.93851467  0.39288533  0.90028833  1
  O  O76  1  0.60711467  0.54562933  0.90028833  1
  O  O77  1  0.66666667  0.33333333  0.10488133  1
  O  O78  1  0.27922300  0.84857300  0.76683200  1
  O  O79  1  0.39481867  0.27378133  0.76637833  1
  O  O80  1  0.05411033  0.81809367  0.89983467  1
  O  O81  1  0.56935000  0.72077700  0.76683200  1
  O  O82  1  0.18190633  0.23601667  0.89983467  1
  O  O83  1  0.15142700  0.43065000  0.76683200  1
