# generated using pymatgen
data_Mn6O5F7
_symmetry_space_group_name_H-M   'P 1'
_cell_length_a   9.20315400
_cell_length_b   6.86443000
_cell_length_c   7.36258387
_cell_angle_alpha   90.00000000
_cell_angle_beta   111.70379829
_cell_angle_gamma   90.00000000
_symmetry_Int_Tables_number   1
_chemical_formula_structural   Mn6O5F7
_chemical_formula_sum   'Mn12 O10 F14'
_cell_volume   432.15311878
_cell_formula_units_Z   2
loop_
 _symmetry_equiv_pos_site_id
 _symmetry_equiv_pos_as_xyz
  1  'x, y, z'
loop_
 _atom_site_type_symbol
 _atom_site_label
 _atom_site_symmetry_multiplicity
 _atom_site_fract_x
 _atom_site_fract_y
 _atom_site_fract_z
 _atom_site_occupancy
  Mn  Mn0  1  0.19245000  0.50000000  0.16878800  1
  Mn  Mn1  1  0.83827500  0.50000000  0.33117900  1
  Mn  Mn2  1  0.15103900  0.50000000  0.68326900  1
  Mn  Mn3  1  0.83008100  0.50000000  0.83510600  1
  Mn  Mn4  1  0.48219200  0.50000000  0.48662500  1
  Mn  Mn5  1  0.50754700  0.50000000  0.00028100  1
  Mn  Mn6  1  0.69245000  0.00000000  0.16878800  1
  Mn  Mn7  1  0.33827500  0.00000000  0.33117900  1
  Mn  Mn8  1  0.65103900  0.00000000  0.68326900  1
  Mn  Mn9  1  0.33008100  0.00000000  0.83510600  1
  Mn  Mn10  1  0.98219200  0.00000000  0.48662500  1
  Mn  Mn11  1  0.00754700  0.00000000  0.00028100  1
  O  O12  1  0.83451200  0.18736300  0.32930500  1
  O  O13  1  0.73207000  0.50000000  0.03258200  1
  O  O14  1  0.27722700  0.50000000  0.96712000  1
  O  O15  1  0.92686700  0.50000000  0.63266400  1
  O  O16  1  0.83451200  0.81263700  0.32930500  1
  O  O17  1  0.33451200  0.68736300  0.32930500  1
  O  O18  1  0.23207000  0.00000000  0.03258200  1
  O  O19  1  0.77722700  0.00000000  0.96712000  1
  O  O20  1  0.42686700  0.00000000  0.63266400  1
  O  O21  1  0.33451200  0.31263700  0.32930500  1
  F  F22  1  0.14824350  0.18569950  0.65157500  1
  F  F23  1  0.38569900  0.50000000  0.70589500  1
  F  F24  1  0.07953100  0.50000000  0.37538600  1
  F  F25  1  0.60115400  0.50000000  0.29413200  1
  F  F26  1  0.14824350  0.81430050  0.65157500  1
  F  F27  1  0.01517700  0.31495800  0.01260500  1
  F  F28  1  0.01517700  0.68504200  0.01260500  1
  F  F29  1  0.64824350  0.68569950  0.65157500  1
  F  F30  1  0.88569900  0.00000000  0.70589500  1
  F  F31  1  0.57953100  0.00000000  0.37538600  1
  F  F32  1  0.10115400  0.00000000  0.29413200  1
  F  F33  1  0.64824350  0.31430050  0.65157500  1
  F  F34  1  0.51517700  0.81495800  0.01260500  1
  F  F35  1  0.51517700  0.18504200  0.01260500  1
