# generated using pymatgen
data_Li4Cr5Fe3O16
_symmetry_space_group_name_H-M   'P 1'
_cell_length_a   10.21468400
_cell_length_b   5.87690000
_cell_length_c   9.51771911
_cell_angle_alpha   90.00000000
_cell_angle_beta   91.09311278
_cell_angle_gamma   90.00000000
_symmetry_Int_Tables_number   1
_chemical_formula_structural   Li4Cr5Fe3O16
_chemical_formula_sum   'Li8 Cr10 Fe6 O32'
_cell_volume   571.25113622
_cell_formula_units_Z   2
loop_
 _symmetry_equiv_pos_site_id
 _symmetry_equiv_pos_as_xyz
  1  'x, y, z'
loop_
 _atom_site_type_symbol
 _atom_site_label
 _atom_site_symmetry_multiplicity
 _atom_site_fract_x
 _atom_site_fract_y
 _atom_site_fract_z
 _atom_site_occupancy
  Li  Li0  1  0.66752900  0.00000000  0.89370500  1
  Li  Li1  1  0.99854100  0.00000000  0.99651300  1
  Li  Li2  1  0.99884400  0.00000000  0.49549300  1
  Li  Li3  1  0.83270700  0.50000000  0.39510200  1
  Li  Li4  1  0.16752900  0.50000000  0.89370500  1
  Li  Li5  1  0.49854100  0.50000000  0.99651300  1
  Li  Li6  1  0.49884400  0.50000000  0.49549300  1
  Li  Li7  1  0.33270700  0.00000000  0.39510200  1
  Cr  Cr8  1  0.58286850  0.24711550  0.21031800  1
  Cr  Cr9  1  0.66870900  0.00000000  0.48541900  1
  Cr  Cr10  1  0.58286850  0.75288450  0.21031800  1
  Cr  Cr11  1  0.66782300  0.50000000  0.70790700  1
  Cr  Cr12  1  0.83560600  0.50000000  0.98283500  1
  Cr  Cr13  1  0.08286850  0.74711550  0.21031800  1
  Cr  Cr14  1  0.16870900  0.50000000  0.48541900  1
  Cr  Cr15  1  0.08286850  0.25288450  0.21031800  1
  Cr  Cr16  1  0.16782300  0.00000000  0.70790700  1
  Cr  Cr17  1  0.33560600  0.00000000  0.98283500  1
  Fe  Fe18  1  0.82830600  0.00000000  0.21716700  1
  Fe  Fe19  1  0.91423550  0.74616450  0.71494900  1
  Fe  Fe20  1  0.91423550  0.25383550  0.71494900  1
  Fe  Fe21  1  0.32830600  0.50000000  0.21716700  1
  Fe  Fe22  1  0.41423550  0.24616450  0.71494900  1
  Fe  Fe23  1  0.41423550  0.75383550  0.71494900  1
  O  O24  1  0.58875350  0.25718950  0.60281700  1
  O  O25  1  0.52148100  0.00000000  0.33418800  1
  O  O26  1  0.66437300  0.00000000  0.10231900  1
  O  O27  1  0.50141100  0.50000000  0.30970100  1
  O  O28  1  0.50272200  0.50000000  0.81051200  1
  O  O29  1  0.58875350  0.74281050  0.60281700  1
  O  O30  1  0.73433800  0.22526500  0.34060100  1
  O  O31  1  0.73433800  0.77473500  0.34060100  1
  O  O32  1  0.66449100  0.50000000  0.10872500  1
  O  O33  1  0.83605400  0.00000000  0.59856300  1
  O  O34  1  0.75542900  0.71490500  0.83996800  1
  O  O35  1  0.75542900  0.28509500  0.83996800  1
  O  O36  1  0.83208000  0.50000000  0.60226100  1
  O  O37  1  0.92339200  0.74700300  0.10340500  1
  O  O38  1  0.98090600  0.50000000  0.84322500  1
  O  O39  1  0.92339200  0.25299700  0.10340500  1
  O  O40  1  0.08875350  0.75718950  0.60281700  1
  O  O41  1  0.02148100  0.50000000  0.33418800  1
  O  O42  1  0.16437300  0.50000000  0.10231900  1
  O  O43  1  0.00141100  0.00000000  0.30970100  1
  O  O44  1  0.00272200  0.00000000  0.81051200  1
  O  O45  1  0.08875350  0.24281050  0.60281700  1
  O  O46  1  0.23433800  0.72526500  0.34060100  1
  O  O47  1  0.23433800  0.27473500  0.34060100  1
  O  O48  1  0.16449100  0.00000000  0.10872500  1
  O  O49  1  0.33605400  0.50000000  0.59856300  1
  O  O50  1  0.25542900  0.21490500  0.83996800  1
  O  O51  1  0.25542900  0.78509500  0.83996800  1
  O  O52  1  0.33208000  0.00000000  0.60226100  1
  O  O53  1  0.42339200  0.24700300  0.10340500  1
  O  O54  1  0.48090600  0.00000000  0.84322500  1
  O  O55  1  0.42339200  0.75299700  0.10340500  1
