# generated using pymatgen
data_LiP3(WO6)2
_symmetry_space_group_name_H-M   'P 1'
_cell_length_a   15.31171400
_cell_length_b   8.90649000
_cell_length_c   8.91294899
_cell_angle_alpha   90.00000000
_cell_angle_beta   124.88200597
_cell_angle_gamma   90.00000000
_symmetry_Int_Tables_number   1
_chemical_formula_structural   LiP3(WO6)2
_chemical_formula_sum   'Li4 P12 W8 O48'
_cell_volume   997.10573365
_cell_formula_units_Z   4
loop_
 _symmetry_equiv_pos_site_id
 _symmetry_equiv_pos_as_xyz
  1  'x, y, z'
loop_
 _atom_site_type_symbol
 _atom_site_label
 _atom_site_symmetry_multiplicity
 _atom_site_fract_x
 _atom_site_fract_y
 _atom_site_fract_z
 _atom_site_occupancy
  Li  Li0  1  0.26527950  0.66213250  0.75755700  1
  Li  Li1  1  0.73472050  0.66213250  0.24244300  1
  Li  Li2  1  0.76527950  0.16213250  0.75755700  1
  Li  Li3  1  0.23472050  0.16213250  0.24244300  1
  P  P4  1  0.14439300  0.60423300  0.99867600  1
  P  P5  1  0.14608550  0.39321150  0.50076100  1
  P  P6  1  0.00000000  0.96215500  0.50000000  1
  P  P7  1  0.00000000  0.03975200  0.00000000  1
  P  P8  1  0.85560700  0.60423300  0.00132400  1
  P  P9  1  0.85391450  0.39321150  0.49923900  1
  P  P10  1  0.64439300  0.10423300  0.99867600  1
  P  P11  1  0.64608550  0.89321150  0.50076100  1
  P  P12  1  0.50000000  0.46215500  0.50000000  1
  P  P13  1  0.50000000  0.53975200  0.00000000  1
  P  P14  1  0.35560700  0.10423300  0.00132400  1
  P  P15  1  0.35391450  0.89321150  0.49923900  1
  W  W16  1  0.10891200  0.25092500  0.82480000  1
  W  W17  1  0.89108800  0.25092500  0.17520000  1
  W  W18  1  0.10838000  0.75067200  0.32553400  1
  W  W19  1  0.89162000  0.75067200  0.67446600  1
  W  W20  1  0.60891200  0.75092500  0.82480000  1
  W  W21  1  0.39108800  0.75092500  0.17520000  1
  W  W22  1  0.60838000  0.25067200  0.32553400  1
  W  W23  1  0.39162000  0.25067200  0.67446600  1
  O  O24  1  0.43551950  0.55963550  0.32654400  1
  O  O25  1  0.84449150  0.35781550  0.32331900  1
  O  O26  1  0.15176350  0.43110950  0.99530200  1
  O  O27  1  0.04065150  0.66279450  0.82544500  1
  O  O28  1  0.92003200  0.85924600  0.50396900  1
  O  O29  1  0.04160500  0.33924400  0.32730600  1
  O  O30  1  0.15550850  0.35781550  0.67668100  1
  O  O31  1  0.23701550  0.67216450  0.99583500  1
  O  O32  1  0.16087800  0.56627100  0.50649300  1
  O  O33  1  0.23627750  0.31599950  0.49729900  1
  O  O34  1  0.56448050  0.55963550  0.67345600  1
  O  O35  1  0.07996800  0.85924600  0.49603100  1
  O  O36  1  0.91452500  0.14101100  0.99153800  1
  O  O37  1  0.43701550  0.44701150  0.82457000  1
  O  O38  1  0.76298450  0.67216450  0.00416500  1
  O  O39  1  0.84823650  0.43110950  0.00469800  1
  O  O40  1  0.76372250  0.31599950  0.50270100  1
  O  O41  1  0.95934850  0.66279450  0.17455500  1
  O  O42  1  0.84859250  0.64392150  0.82705800  1
  O  O43  1  0.08547500  0.14101100  0.00846200  1
  O  O44  1  0.95839500  0.33924400  0.67269400  1
  O  O45  1  0.83912200  0.56627100  0.49350700  1
  O  O46  1  0.15140750  0.64392150  0.17294200  1
  O  O47  1  0.56298450  0.44701150  0.17543000  1
  O  O48  1  0.93551950  0.05963550  0.32654400  1
  O  O49  1  0.34449150  0.85781550  0.32331900  1
  O  O50  1  0.65176350  0.93110950  0.99530200  1
  O  O51  1  0.54065150  0.16279450  0.82544500  1
  O  O52  1  0.42003200  0.35924600  0.50396900  1
  O  O53  1  0.54160500  0.83924400  0.32730600  1
  O  O54  1  0.65550850  0.85781550  0.67668100  1
  O  O55  1  0.73701550  0.17216450  0.99583500  1
  O  O56  1  0.66087800  0.06627100  0.50649300  1
  O  O57  1  0.73627750  0.81599950  0.49729900  1
  O  O58  1  0.06448050  0.05963550  0.67345600  1
  O  O59  1  0.57996800  0.35924600  0.49603100  1
  O  O60  1  0.41452500  0.64101100  0.99153800  1
  O  O61  1  0.93701550  0.94701150  0.82457000  1
  O  O62  1  0.26298450  0.17216450  0.00416500  1
  O  O63  1  0.34823650  0.93110950  0.00469800  1
  O  O64  1  0.26372250  0.81599950  0.50270100  1
  O  O65  1  0.45934850  0.16279450  0.17455500  1
  O  O66  1  0.34859250  0.14392150  0.82705800  1
  O  O67  1  0.58547500  0.64101100  0.00846200  1
  O  O68  1  0.45839500  0.83924400  0.67269400  1
  O  O69  1  0.33912200  0.06627100  0.49350700  1
  O  O70  1  0.65140750  0.14392150  0.17294200  1
  O  O71  1  0.06298450  0.94701150  0.17543000  1
