# generated using pymatgen
data_LiFeNiO4
_symmetry_space_group_name_H-M   'P 1'
_cell_length_a   5.66303200
_cell_length_b   5.74382800
_cell_length_c   8.72961400
_cell_angle_alpha   90.00000000
_cell_angle_beta   90.00000000
_cell_angle_gamma   90.00000000
_symmetry_Int_Tables_number   1
_chemical_formula_structural   LiFeNiO4
_chemical_formula_sum   'Li4 Fe4 Ni4 O16'
_cell_volume   283.95236021
_cell_formula_units_Z   4
loop_
 _symmetry_equiv_pos_site_id
 _symmetry_equiv_pos_as_xyz
  1  'x, y, z'
loop_
 _atom_site_type_symbol
 _atom_site_label
 _atom_site_symmetry_multiplicity
 _atom_site_fract_x
 _atom_site_fract_y
 _atom_site_fract_z
 _atom_site_occupancy
  Li  Li0  1  0.00000000  0.75000000  0.86823600  1
  Li  Li1  1  0.50000000  0.75000000  0.63176400  1
  Li  Li2  1  0.50000000  0.25000000  0.36823600  1
  Li  Li3  1  0.00000000  0.25000000  0.13176400  1
  Fe  Fe4  1  0.50000000  0.50000000  0.00000000  1
  Fe  Fe5  1  0.50000000  0.00000000  0.00000000  1
  Fe  Fe6  1  0.00000000  0.00000000  0.50000000  1
  Fe  Fe7  1  0.00000000  0.50000000  0.50000000  1
  Ni  Ni8  1  0.75000000  0.25000000  0.75000000  1
  Ni  Ni9  1  0.25000000  0.25000000  0.75000000  1
  Ni  Ni10  1  0.25000000  0.75000000  0.25000000  1
  Ni  Ni11  1  0.75000000  0.75000000  0.25000000  1
  O  O12  1  0.77281100  0.25000000  0.50525900  1
  O  O13  1  0.00000000  0.02916400  0.73631900  1
  O  O14  1  0.00000000  0.47083600  0.73631900  1
  O  O15  1  0.22718900  0.25000000  0.50525900  1
  O  O16  1  0.27281100  0.25000000  0.99474100  1
  O  O17  1  0.50000000  0.47083600  0.76368100  1
  O  O18  1  0.50000000  0.02916400  0.76368100  1
  O  O19  1  0.72718900  0.25000000  0.99474100  1
  O  O20  1  0.27281100  0.75000000  0.00525900  1
  O  O21  1  0.50000000  0.52916400  0.23631900  1
  O  O22  1  0.50000000  0.97083600  0.23631900  1
  O  O23  1  0.72718900  0.75000000  0.00525900  1
  O  O24  1  0.77281100  0.75000000  0.49474100  1
  O  O25  1  0.00000000  0.97083600  0.26368100  1
  O  O26  1  0.00000000  0.52916400  0.26368100  1
  O  O27  1  0.22718900  0.75000000  0.49474100  1
