# generated using pymatgen
data_LiFePO4
_symmetry_space_group_name_H-M   'P 1'
_cell_length_a   5.18527711
_cell_length_b   6.13163658
_cell_length_c   10.48026267
_cell_angle_alpha   90.00000000
_cell_angle_beta   113.86772216
_cell_angle_gamma   90.00000000
_symmetry_Int_Tables_number   1
_chemical_formula_structural   LiFePO4
_chemical_formula_sum   'Li4 Fe4 P4 O16'
_cell_volume   304.71633044
_cell_formula_units_Z   4
loop_
 _symmetry_equiv_pos_site_id
 _symmetry_equiv_pos_as_xyz
  1  'x, y, z'
loop_
 _atom_site_type_symbol
 _atom_site_label
 _atom_site_symmetry_multiplicity
 _atom_site_fract_x
 _atom_site_fract_y
 _atom_site_fract_z
 _atom_site_occupancy
  Li  Li0  1  0.41430300  0.63973600  0.57321200  1
  Li  Li1  1  0.58569700  0.13973600  0.92678800  1
  Li  Li2  1  0.41430300  0.86026400  0.07321200  1
  Li  Li3  1  0.58569700  0.36026400  0.42678800  1
  Fe  Fe4  1  0.04005900  0.11257900  0.33645100  1
  Fe  Fe5  1  0.95994100  0.88742100  0.66354900  1
  Fe  Fe6  1  0.95994100  0.61257900  0.16354900  1
  Fe  Fe7  1  0.04005900  0.38742100  0.83645100  1
  P  P8  1  0.60537900  0.64850600  0.86324700  1
  P  P9  1  0.39462100  0.14850600  0.63675300  1
  P  P10  1  0.60537900  0.85149400  0.36324700  1
  P  P11  1  0.39462100  0.35149400  0.13675300  1
  O  O12  1  0.74979000  0.66824000  0.75808500  1
  O  O13  1  0.74979000  0.83176000  0.25808500  1
  O  O14  1  0.25021000  0.16824000  0.74191500  1
  O  O15  1  0.25021000  0.33176000  0.24191500  1
  O  O16  1  0.71853600  0.13690600  0.72186500  1
  O  O17  1  0.71853600  0.36309400  0.22186500  1
  O  O18  1  0.28146400  0.63690600  0.77813500  1
  O  O19  1  0.28146400  0.86309400  0.27813500  1
  O  O20  1  0.72829000  0.43464800  0.94611500  1
  O  O21  1  0.27171000  0.93464800  0.55388500  1
  O  O22  1  0.72829000  0.06535200  0.44611500  1
  O  O23  1  0.27171000  0.56535200  0.05388500  1
  O  O24  1  0.69043600  0.83338700  0.97402600  1
  O  O25  1  0.30956400  0.33338700  0.52597400  1
  O  O26  1  0.69043600  0.66661300  0.47402600  1
  O  O27  1  0.30956400  0.16661300  0.02597400  1
