# generated using pymatgen
data_Mn2O3F
_symmetry_space_group_name_H-M   'P 1'
_cell_length_a   6.32913000
_cell_length_b   6.63213400
_cell_length_c   9.05402300
_cell_angle_alpha   90.00000000
_cell_angle_beta   90.00000000
_cell_angle_gamma   90.00000000
_symmetry_Int_Tables_number   1
_chemical_formula_structural   Mn2O3F
_chemical_formula_sum   'Mn12 O18 F6'
_cell_volume   380.04839428
_cell_formula_units_Z   6
loop_
 _symmetry_equiv_pos_site_id
 _symmetry_equiv_pos_as_xyz
  1  'x, y, z'
loop_
 _atom_site_type_symbol
 _atom_site_label
 _atom_site_symmetry_multiplicity
 _atom_site_fract_x
 _atom_site_fract_y
 _atom_site_fract_z
 _atom_site_occupancy
  Mn  Mn0  1  0.50000000  0.49917800  0.33327900  1
  Mn  Mn1  1  0.50000000  0.49917800  0.66672100  1
  Mn  Mn2  1  0.50000000  0.48690700  0.00000000  1
  Mn  Mn3  1  0.50000000  0.01907000  0.16727200  1
  Mn  Mn4  1  0.50000000  0.97461800  0.50000000  1
  Mn  Mn5  1  0.50000000  0.01907000  0.83272800  1
  Mn  Mn6  1  0.00000000  0.99917800  0.33327900  1
  Mn  Mn7  1  0.00000000  0.99917800  0.66672100  1
  Mn  Mn8  1  0.00000000  0.98690700  0.00000000  1
  Mn  Mn9  1  0.00000000  0.51907000  0.16727200  1
  Mn  Mn10  1  0.00000000  0.47461800  0.50000000  1
  Mn  Mn11  1  0.00000000  0.51907000  0.83272800  1
  O  O12  1  0.50000000  0.30891100  0.83201000  1
  O  O13  1  0.50000000  0.30891100  0.16799000  1
  O  O14  1  0.30835450  0.99493650  0.33273900  1
  O  O15  1  0.30835450  0.99493650  0.66726100  1
  O  O16  1  0.30486100  0.01090600  0.00000000  1
  O  O17  1  0.69164550  0.99493650  0.33273900  1
  O  O18  1  0.69164550  0.99493650  0.66726100  1
  O  O19  1  0.69513900  0.01090600  0.00000000  1
  O  O20  1  0.50000000  0.68638400  0.50000000  1
  O  O21  1  0.00000000  0.80891100  0.83201000  1
  O  O22  1  0.00000000  0.80891100  0.16799000  1
  O  O23  1  0.80835450  0.49493650  0.33273900  1
  O  O24  1  0.80835450  0.49493650  0.66726100  1
  O  O25  1  0.80486100  0.51090600  0.00000000  1
  O  O26  1  0.19164550  0.49493650  0.33273900  1
  O  O27  1  0.19164550  0.49493650  0.66726100  1
  O  O28  1  0.19513900  0.51090600  0.00000000  1
  O  O29  1  0.00000000  0.18638400  0.50000000  1
  F  F30  1  0.50000000  0.27817400  0.50000000  1
  F  F31  1  0.50000000  0.70902100  0.84253400  1
  F  F32  1  0.50000000  0.70902100  0.15746600  1
  F  F33  1  0.00000000  0.77817400  0.50000000  1
  F  F34  1  0.00000000  0.20902100  0.84253400  1
  F  F35  1  0.00000000  0.20902100  0.15746600  1
