# generated using pymatgen
data_Li3Ni8(OF3)4
_symmetry_space_group_name_H-M   'P 1'
_cell_length_a   10.53225400
_cell_length_b   5.86007400
_cell_length_c   10.22651026
_cell_angle_alpha   90.00000000
_cell_angle_beta   111.87059960
_cell_angle_gamma   90.00000000
_symmetry_Int_Tables_number   1
_chemical_formula_structural   Li3Ni8(OF3)4
_chemical_formula_sum   'Li6 Ni16 O8 F24'
_cell_volume   585.75059713
_cell_formula_units_Z   2
loop_
 _symmetry_equiv_pos_site_id
 _symmetry_equiv_pos_as_xyz
  1  'x, y, z'
loop_
 _atom_site_type_symbol
 _atom_site_label
 _atom_site_symmetry_multiplicity
 _atom_site_fract_x
 _atom_site_fract_y
 _atom_site_fract_z
 _atom_site_occupancy
  Li  Li0  1  0.50000000  0.50000000  0.50000000  1
  Li  Li1  1  0.19253000  0.00000000  0.07508300  1
  Li  Li2  1  0.80747000  0.00000000  0.92491700  1
  Li  Li3  1  0.00000000  0.00000000  0.50000000  1
  Li  Li4  1  0.69253000  0.50000000  0.07508300  1
  Li  Li5  1  0.30747000  0.50000000  0.92491700  1
  Ni  Ni6  1  0.25000000  0.25000000  0.50000000  1
  Ni  Ni7  1  0.25000000  0.75000000  0.50000000  1
  Ni  Ni8  1  0.50675600  0.75334300  0.25388200  1
  Ni  Ni9  1  0.50675600  0.24665700  0.25388200  1
  Ni  Ni10  1  0.24429600  0.50000000  0.23717800  1
  Ni  Ni11  1  0.75570400  0.50000000  0.76282200  1
  Ni  Ni12  1  0.49324400  0.24665700  0.74611800  1
  Ni  Ni13  1  0.49324400  0.75334300  0.74611800  1
  Ni  Ni14  1  0.75000000  0.75000000  0.50000000  1
  Ni  Ni15  1  0.75000000  0.25000000  0.50000000  1
  Ni  Ni16  1  0.00675600  0.25334300  0.25388200  1
  Ni  Ni17  1  0.00675600  0.74665700  0.25388200  1
  Ni  Ni18  1  0.74429600  0.00000000  0.23717800  1
  Ni  Ni19  1  0.25570400  0.00000000  0.76282200  1
  Ni  Ni20  1  0.99324400  0.74665700  0.74611800  1
  Ni  Ni21  1  0.99324400  0.25334300  0.74611800  1
  O  O22  1  0.62241700  0.50000000  0.38741600  1
  O  O23  1  0.64159900  0.00000000  0.36996500  1
  O  O24  1  0.35840100  0.00000000  0.63003500  1
  O  O25  1  0.37758300  0.50000000  0.61258400  1
  O  O26  1  0.12241700  0.00000000  0.38741600  1
  O  O27  1  0.14159900  0.50000000  0.36996500  1
  O  O28  1  0.85840100  0.50000000  0.63003500  1
  O  O29  1  0.87758300  0.00000000  0.61258400  1
  F  F30  1  0.37694850  0.73384450  0.36693600  1
  F  F31  1  0.37694850  0.26615550  0.36693600  1
  F  F32  1  0.38642600  0.00000000  0.14078800  1
  F  F33  1  0.37733400  0.50000000  0.13152200  1
  F  F34  1  0.12100500  0.25335100  0.13413800  1
  F  F35  1  0.12100500  0.74664900  0.13413800  1
  F  F36  1  0.87899500  0.74664900  0.86586200  1
  F  F37  1  0.87899500  0.25335100  0.86586200  1
  F  F38  1  0.62266600  0.50000000  0.86847800  1
  F  F39  1  0.61357400  0.00000000  0.85921200  1
  F  F40  1  0.62305150  0.26615550  0.63306400  1
  F  F41  1  0.62305150  0.73384450  0.63306400  1
  F  F42  1  0.87694850  0.23384450  0.36693600  1
  F  F43  1  0.87694850  0.76615550  0.36693600  1
  F  F44  1  0.88642600  0.50000000  0.14078800  1
  F  F45  1  0.87733400  0.00000000  0.13152200  1
  F  F46  1  0.62100500  0.75335100  0.13413800  1
  F  F47  1  0.62100500  0.24664900  0.13413800  1
  F  F48  1  0.37899500  0.24664900  0.86586200  1
  F  F49  1  0.37899500  0.75335100  0.86586200  1
  F  F50  1  0.12266600  0.00000000  0.86847800  1
  F  F51  1  0.11357400  0.50000000  0.85921200  1
  F  F52  1  0.12305150  0.76615550  0.63306400  1
  F  F53  1  0.12305150  0.23384450  0.63306400  1
