# generated using pymatgen
data_LiVOF2
_symmetry_space_group_name_H-M   'P 1'
_cell_length_a   9.77252200
_cell_length_b   8.94200000
_cell_length_c   5.33985558
_cell_angle_alpha   90.00000000
_cell_angle_beta   98.34793879
_cell_angle_gamma   90.00000000
_symmetry_Int_Tables_number   1
_chemical_formula_structural   LiVOF2
_chemical_formula_sum   'Li8 V8 O8 F16'
_cell_volume   461.68395926
_cell_formula_units_Z   8
loop_
 _symmetry_equiv_pos_site_id
 _symmetry_equiv_pos_as_xyz
  1  'x, y, z'
loop_
 _atom_site_type_symbol
 _atom_site_label
 _atom_site_symmetry_multiplicity
 _atom_site_fract_x
 _atom_site_fract_y
 _atom_site_fract_z
 _atom_site_occupancy
  Li  Li0  1  0.30788100  0.91115600  0.68034400  1
  Li  Li1  1  0.30788100  0.08884400  0.18034400  1
  Li  Li2  1  0.69211900  0.91115600  0.81965600  1
  Li  Li3  1  0.69211900  0.08884400  0.31965600  1
  Li  Li4  1  0.80788100  0.41115600  0.68034400  1
  Li  Li5  1  0.80788100  0.58884400  0.18034400  1
  Li  Li6  1  0.19211900  0.41115600  0.81965600  1
  Li  Li7  1  0.19211900  0.58884400  0.31965600  1
  V  V8  1  0.50000000  0.57844500  0.75000000  1
  V  V9  1  0.50000000  0.24428900  0.75000000  1
  V  V10  1  0.50000000  0.75571100  0.25000000  1
  V  V11  1  0.50000000  0.42155500  0.25000000  1
  V  V12  1  0.00000000  0.07844500  0.75000000  1
  V  V13  1  0.00000000  0.74428900  0.75000000  1
  V  V14  1  0.00000000  0.25571100  0.25000000  1
  V  V15  1  0.00000000  0.92155500  0.25000000  1
  O  O16  1  0.10368150  0.90904550  0.60922000  1
  O  O17  1  0.10368150  0.09095450  0.10922000  1
  O  O18  1  0.89631850  0.90904550  0.89078000  1
  O  O19  1  0.89631850  0.09095450  0.39078000  1
  O  O20  1  0.60368150  0.40904550  0.60922000  1
  O  O21  1  0.60368150  0.59095450  0.10922000  1
  O  O22  1  0.39631850  0.40904550  0.89078000  1
  O  O23  1  0.39631850  0.59095450  0.39078000  1
  F  F24  1  0.37713700  0.08748100  0.86244200  1
  F  F25  1  0.38878150  0.74959950  0.88867700  1
  F  F26  1  0.37713700  0.91251900  0.36244200  1
  F  F27  1  0.38878150  0.25040050  0.38867700  1
  F  F28  1  0.61121850  0.74959950  0.61132300  1
  F  F29  1  0.62286300  0.08748100  0.63755800  1
  F  F30  1  0.61121850  0.25040050  0.11132300  1
  F  F31  1  0.62286300  0.91251900  0.13755800  1
  F  F32  1  0.87713700  0.58748100  0.86244200  1
  F  F33  1  0.88878150  0.24959950  0.88867700  1
  F  F34  1  0.87713700  0.41251900  0.36244200  1
  F  F35  1  0.88878150  0.75040050  0.38867700  1
  F  F36  1  0.11121850  0.24959950  0.61132300  1
  F  F37  1  0.12286300  0.58748100  0.63755800  1
  F  F38  1  0.11121850  0.75040050  0.11132300  1
  F  F39  1  0.12286300  0.41251900  0.13755800  1
