# generated using pymatgen
data_NaFeO3
_symmetry_space_group_name_H-M   'P 1'
_cell_length_a   5.08189815
_cell_length_b   5.08189815
_cell_length_c   15.79086400
_cell_angle_alpha   90.00000000
_cell_angle_beta   90.00000000
_cell_angle_gamma   120.00000000
_symmetry_Int_Tables_number   1
_chemical_formula_structural   NaFeO3
_chemical_formula_sum   'Na6 Fe6 O18'
_cell_volume   353.17376751
_cell_formula_units_Z   6
loop_
 _symmetry_equiv_pos_site_id
 _symmetry_equiv_pos_as_xyz
  1  'x, y, z'
loop_
 _atom_site_type_symbol
 _atom_site_label
 _atom_site_symmetry_multiplicity
 _atom_site_fract_x
 _atom_site_fract_y
 _atom_site_fract_z
 _atom_site_occupancy
  Na  Na0  1  0.33333333  0.66666667  0.02747167  1
  Na  Na1  1  0.33333333  0.66666667  0.30586167  1
  Na  Na2  1  0.00000000  0.00000000  0.36080500  1
  Na  Na3  1  0.00000000  0.00000000  0.63919500  1
  Na  Na4  1  0.66666667  0.33333333  0.69413833  1
  Na  Na5  1  0.66666667  0.33333333  0.97252833  1
  Fe  Fe6  1  0.00000000  0.00000000  0.16364367  1
  Fe  Fe7  1  0.66666667  0.33333333  0.16968967  1
  Fe  Fe8  1  0.66666667  0.33333333  0.49697700  1
  Fe  Fe9  1  0.33333333  0.66666667  0.50302300  1
  Fe  Fe10  1  0.33333333  0.66666667  0.83031033  1
  Fe  Fe11  1  0.00000000  0.00000000  0.83635633  1
  O  O12  1  0.32691567  0.27133433  0.23383533  1
  O  O13  1  0.72224800  0.66024900  0.09949800  1
  O  O14  1  0.93800100  0.27775200  0.09949800  1
  O  O15  1  0.72866567  0.05558133  0.23383533  1
  O  O16  1  0.94441867  0.67308433  0.23383533  1
  O  O17  1  0.33975100  0.06199900  0.09949800  1
  O  O18  1  0.99358233  0.60466767  0.56716867  1
  O  O19  1  0.38891467  0.99358233  0.43283133  1
  O  O20  1  0.60466767  0.61108533  0.43283133  1
  O  O21  1  0.39533233  0.38891467  0.56716867  1
  O  O22  1  0.61108533  0.00641767  0.56716867  1
  O  O23  1  0.00641767  0.39533233  0.43283133  1
  O  O24  1  0.66024900  0.93800100  0.90050200  1
  O  O25  1  0.05558133  0.32691567  0.76616467  1
  O  O26  1  0.27133433  0.94441867  0.76616467  1
  O  O27  1  0.06199900  0.72224800  0.90050200  1
  O  O28  1  0.27775200  0.33975100  0.90050200  1
  O  O29  1  0.67308433  0.72866567  0.76616467  1
