# generated using pymatgen
data_Li2Cr3O6
_symmetry_space_group_name_H-M   'P 1'
_cell_length_a   5.64465754
_cell_length_b   9.12392461
_cell_length_c   16.69625000
_cell_angle_alpha   90.00000000
_cell_angle_beta   90.00000000
_cell_angle_gamma   90.00000000
_symmetry_Int_Tables_number   1
_chemical_formula_structural   Li2Cr3O6
_chemical_formula_sum   'Li16 Cr24 O48'
_cell_volume   859.88074784
_cell_formula_units_Z   8
loop_
 _symmetry_equiv_pos_site_id
 _symmetry_equiv_pos_as_xyz
  1  'x, y, z'
loop_
 _atom_site_type_symbol
 _atom_site_label
 _atom_site_symmetry_multiplicity
 _atom_site_fract_x
 _atom_site_fract_y
 _atom_site_fract_z
 _atom_site_occupancy
  Li  Li0  1  0.75000000  0.25000000  0.08030625  1
  Li  Li1  1  0.25000000  0.25000000  0.91969375  1
  Li  Li2  1  0.00000000  0.50000000  0.16969375  1
  Li  Li3  1  0.00000000  0.50000000  0.83030625  1
  Li  Li4  1  0.75000000  0.75000000  0.58030625  1
  Li  Li5  1  0.25000000  0.75000000  0.41969375  1
  Li  Li6  1  0.00000000  0.00000000  0.66969375  1
  Li  Li7  1  0.00000000  0.00000000  0.33030625  1
  Li  Li8  1  0.25000000  0.25000000  0.58030625  1
  Li  Li9  1  0.75000000  0.25000000  0.41969375  1
  Li  Li10  1  0.50000000  0.50000000  0.66969375  1
  Li  Li11  1  0.50000000  0.50000000  0.33030625  1
  Li  Li12  1  0.25000000  0.75000000  0.08030625  1
  Li  Li13  1  0.75000000  0.75000000  0.91969375  1
  Li  Li14  1  0.50000000  0.00000000  0.16969375  1
  Li  Li15  1  0.50000000  0.00000000  0.83030625  1
  Cr  Cr16  1  0.75000000  0.25000000  0.25000000  1
  Cr  Cr17  1  0.00000000  0.00000000  0.16482375  1
  Cr  Cr18  1  0.00000000  0.00000000  0.83517625  1
  Cr  Cr19  1  0.75000000  0.25000000  0.91482375  1
  Cr  Cr20  1  0.25000000  0.25000000  0.08517625  1
  Cr  Cr21  1  0.00000000  0.50000000  0.00000000  1
  Cr  Cr22  1  0.75000000  0.75000000  0.75000000  1
  Cr  Cr23  1  0.00000000  0.50000000  0.66482375  1
  Cr  Cr24  1  0.00000000  0.50000000  0.33517625  1
  Cr  Cr25  1  0.75000000  0.75000000  0.41482375  1
  Cr  Cr26  1  0.25000000  0.75000000  0.58517625  1
  Cr  Cr27  1  0.00000000  0.00000000  0.50000000  1
  Cr  Cr28  1  0.25000000  0.25000000  0.75000000  1
  Cr  Cr29  1  0.50000000  0.00000000  0.66482375  1
  Cr  Cr30  1  0.50000000  0.00000000  0.33517625  1
  Cr  Cr31  1  0.25000000  0.25000000  0.41482375  1
  Cr  Cr32  1  0.75000000  0.25000000  0.58517625  1
  Cr  Cr33  1  0.50000000  0.50000000  0.50000000  1
  Cr  Cr34  1  0.25000000  0.75000000  0.25000000  1
  Cr  Cr35  1  0.50000000  0.50000000  0.16482375  1
  Cr  Cr36  1  0.50000000  0.50000000  0.83517625  1
  Cr  Cr37  1  0.25000000  0.75000000  0.91482375  1
  Cr  Cr38  1  0.75000000  0.75000000  0.08517625  1
  Cr  Cr39  1  0.50000000  0.00000000  0.00000000  1
  O  O40  1  0.25000000  0.96795875  0.25000000  1
  O  O41  1  0.73697525  0.02861025  0.91611975  1
  O  O42  1  0.48697525  0.27861025  0.83388025  1
  O  O43  1  0.26302475  0.02861025  0.08388025  1
  O  O44  1  0.98697525  0.22138975  0.16611975  1
  O  O45  1  0.01302475  0.22138975  0.83388025  1
  O  O46  1  0.00000000  0.28204125  0.00000000  1
  O  O47  1  0.76302475  0.47138975  0.91611975  1
  O  O48  1  0.25000000  0.53204125  0.25000000  1
  O  O49  1  0.51302475  0.27861025  0.16611975  1
  O  O50  1  0.23697525  0.47138975  0.08388025  1
  O  O51  1  0.00000000  0.71795875  0.00000000  1
  O  O52  1  0.25000000  0.46795875  0.75000000  1
  O  O53  1  0.73697525  0.52861025  0.41611975  1
  O  O54  1  0.48697525  0.77861025  0.33388025  1
  O  O55  1  0.26302475  0.52861025  0.58388025  1
  O  O56  1  0.98697525  0.72138975  0.66611975  1
  O  O57  1  0.01302475  0.72138975  0.33388025  1
  O  O58  1  0.00000000  0.78204125  0.50000000  1
  O  O59  1  0.76302475  0.97138975  0.41611975  1
  O  O60  1  0.25000000  0.03204125  0.75000000  1
  O  O61  1  0.51302475  0.77861025  0.66611975  1
  O  O62  1  0.23697525  0.97138975  0.58388025  1
  O  O63  1  0.00000000  0.21795875  0.50000000  1
  O  O64  1  0.75000000  0.96795875  0.75000000  1
  O  O65  1  0.23697525  0.02861025  0.41611975  1
  O  O66  1  0.98697525  0.27861025  0.33388025  1
  O  O67  1  0.76302475  0.02861025  0.58388025  1
  O  O68  1  0.48697525  0.22138975  0.66611975  1
  O  O69  1  0.51302475  0.22138975  0.33388025  1
  O  O70  1  0.50000000  0.28204125  0.50000000  1
  O  O71  1  0.26302475  0.47138975  0.41611975  1
  O  O72  1  0.75000000  0.53204125  0.75000000  1
  O  O73  1  0.01302475  0.27861025  0.66611975  1
  O  O74  1  0.73697525  0.47138975  0.58388025  1
  O  O75  1  0.50000000  0.71795875  0.50000000  1
  O  O76  1  0.75000000  0.46795875  0.25000000  1
  O  O77  1  0.23697525  0.52861025  0.91611975  1
  O  O78  1  0.98697525  0.77861025  0.83388025  1
  O  O79  1  0.76302475  0.52861025  0.08388025  1
  O  O80  1  0.48697525  0.72138975  0.16611975  1
  O  O81  1  0.51302475  0.72138975  0.83388025  1
  O  O82  1  0.50000000  0.78204125  0.00000000  1
  O  O83  1  0.26302475  0.97138975  0.91611975  1
  O  O84  1  0.75000000  0.03204125  0.25000000  1
  O  O85  1  0.01302475  0.77861025  0.16611975  1
  O  O86  1  0.73697525  0.97138975  0.08388025  1
  O  O87  1  0.50000000  0.21795875  0.00000000  1
