# generated using pymatgen
data_Mn3Co5O16
_symmetry_space_group_name_H-M   'P 1'
_cell_length_a   9.80210230
_cell_length_b   5.69578788
_cell_length_c   8.61146664
_cell_angle_alpha   90.00000000
_cell_angle_beta   90.75180440
_cell_angle_gamma   90.00000000
_symmetry_Int_Tables_number   1
_chemical_formula_structural   Mn3Co5O16
_chemical_formula_sum   'Mn6 Co10 O32'
_cell_volume   480.74278353
_cell_formula_units_Z   2
loop_
 _symmetry_equiv_pos_site_id
 _symmetry_equiv_pos_as_xyz
  1  'x, y, z'
loop_
 _atom_site_type_symbol
 _atom_site_label
 _atom_site_symmetry_multiplicity
 _atom_site_fract_x
 _atom_site_fract_y
 _atom_site_fract_z
 _atom_site_occupancy
  Mn  Mn0  1  0.16746700  0.00000000  0.78911400  1
  Mn  Mn1  1  0.58365300  0.75169100  0.28940800  1
  Mn  Mn2  1  0.58365300  0.24830900  0.28940800  1
  Mn  Mn3  1  0.66746700  0.50000000  0.78911400  1
  Mn  Mn4  1  0.08365300  0.25169100  0.28940800  1
  Mn  Mn5  1  0.08365300  0.74830900  0.28940800  1
  Co  Co6  1  0.41624350  0.75233850  0.79318100  1
  Co  Co7  1  0.33210750  0.00000000  0.51640900  1
  Co  Co8  1  0.41624350  0.24766150  0.79318100  1
  Co  Co9  1  0.83261500  0.00000000  0.29434400  1
  Co  Co10  1  0.66672500  0.00000000  0.01384400  1
  Co  Co11  1  0.91624350  0.25233850  0.79318100  1
  Co  Co12  1  0.83210750  0.50000000  0.51640900  1
  Co  Co13  1  0.91624350  0.74766150  0.79318100  1
  Co  Co14  1  0.33261500  0.50000000  0.29434400  1
  Co  Co15  1  0.16672500  0.50000000  0.01384400  1
  O  O16  1  0.41374350  0.74899750  0.39865500  1
  O  O17  1  0.47706350  0.00000000  0.66254900  1
  O  O18  1  0.33569900  0.00000000  0.90320900  1
  O  O19  1  0.99650700  0.00000000  0.68143200  1
  O  O20  1  0.99798200  0.00000000  0.17990000  1
  O  O21  1  0.41374350  0.25100250  0.39865500  1
  O  O22  1  0.26299700  0.77876700  0.65769700  1
  O  O23  1  0.26299700  0.22123300  0.65769700  1
  O  O24  1  0.83317350  0.00000000  0.89566600  1
  O  O25  1  0.17144850  0.00000000  0.40121100  1
  O  O26  1  0.74217850  0.78537350  0.15776800  1
  O  O27  1  0.74217850  0.21462650  0.15776800  1
  O  O28  1  0.66706750  0.00000000  0.40412100  1
  O  O29  1  0.58207200  0.75488100  0.89778400  1
  O  O30  1  0.52031200  0.00000000  0.15353200  1
  O  O31  1  0.58207200  0.24511900  0.89778400  1
  O  O32  1  0.91374350  0.24899750  0.39865500  1
  O  O33  1  0.97706350  0.50000000  0.66254900  1
  O  O34  1  0.83569900  0.50000000  0.90320900  1
  O  O35  1  0.49650700  0.50000000  0.68143200  1
  O  O36  1  0.49798200  0.50000000  0.17990000  1
  O  O37  1  0.91374350  0.75100250  0.39865500  1
  O  O38  1  0.76299700  0.27876700  0.65769700  1
  O  O39  1  0.76299700  0.72123300  0.65769700  1
  O  O40  1  0.33317350  0.50000000  0.89566600  1
  O  O41  1  0.67144850  0.50000000  0.40121100  1
  O  O42  1  0.24217850  0.28537350  0.15776800  1
  O  O43  1  0.24217850  0.71462650  0.15776800  1
  O  O44  1  0.16706750  0.50000000  0.40412100  1
  O  O45  1  0.08207200  0.25488100  0.89778400  1
  O  O46  1  0.02031200  0.50000000  0.15353200  1
  O  O47  1  0.08207200  0.74511900  0.89778400  1
