# generated using pymatgen
data_LiCrPO5
_symmetry_space_group_name_H-M   'P 1'
_cell_length_a   13.26640200
_cell_length_b   5.24911400
_cell_length_c   10.52031521
_cell_angle_alpha   90.00000000
_cell_angle_beta   111.87054232
_cell_angle_gamma   90.00000000
_symmetry_Int_Tables_number   1
_chemical_formula_structural   LiCrPO5
_chemical_formula_sum   'Li8 Cr8 P8 O40'
_cell_volume   679.87479668
_cell_formula_units_Z   8
loop_
 _symmetry_equiv_pos_site_id
 _symmetry_equiv_pos_as_xyz
  1  'x, y, z'
loop_
 _atom_site_type_symbol
 _atom_site_label
 _atom_site_symmetry_multiplicity
 _atom_site_fract_x
 _atom_site_fract_y
 _atom_site_fract_z
 _atom_site_occupancy
  Li  Li0  1  0.00000000  0.00359400  0.25000000  1
  Li  Li1  1  0.25000000  0.25000000  0.00000000  1
  Li  Li2  1  0.00000000  0.99640600  0.75000000  1
  Li  Li3  1  0.75000000  0.25000000  0.50000000  1
  Li  Li4  1  0.50000000  0.50359400  0.25000000  1
  Li  Li5  1  0.75000000  0.75000000  0.00000000  1
  Li  Li6  1  0.50000000  0.49640600  0.75000000  1
  Li  Li7  1  0.25000000  0.75000000  0.50000000  1
  Cr  Cr8  1  0.25000000  0.75000000  0.00000000  1
  Cr  Cr9  1  0.00000000  0.00000000  0.00000000  1
  Cr  Cr10  1  0.00000000  0.00000000  0.50000000  1
  Cr  Cr11  1  0.75000000  0.75000000  0.50000000  1
  Cr  Cr12  1  0.75000000  0.25000000  0.00000000  1
  Cr  Cr13  1  0.50000000  0.50000000  0.00000000  1
  Cr  Cr14  1  0.50000000  0.50000000  0.50000000  1
  Cr  Cr15  1  0.25000000  0.25000000  0.50000000  1
  P  P16  1  0.62484000  0.00059600  0.18610800  1
  P  P17  1  0.37516000  0.99940400  0.81389200  1
  P  P18  1  0.12484000  0.49940400  0.68610800  1
  P  P19  1  0.87516000  0.50059600  0.31389200  1
  P  P20  1  0.12484000  0.50059600  0.18610800  1
  P  P21  1  0.87516000  0.49940400  0.81389200  1
  P  P22  1  0.62484000  0.99940400  0.68610800  1
  P  P23  1  0.37516000  0.00059600  0.31389200  1
  O  O24  1  0.81704750  0.49701150  0.15698600  1
  O  O25  1  0.70485700  0.00843000  0.11018200  1
  O  O26  1  0.04941800  0.73529800  0.14758100  1
  O  O27  1  0.06178050  0.24652650  0.14794200  1
  O  O28  1  0.12720250  0.95091050  0.96662800  1
  O  O29  1  0.87279750  0.04908950  0.03337200  1
  O  O30  1  0.18295250  0.50298850  0.84301400  1
  O  O31  1  0.29514300  0.99157000  0.88981800  1
  O  O32  1  0.04941800  0.26470200  0.64758100  1
  O  O33  1  0.95058200  0.26470200  0.85241900  1
  O  O34  1  0.06178050  0.75347350  0.64794200  1
  O  O35  1  0.93821950  0.75347350  0.85205800  1
  O  O36  1  0.31704750  0.00298850  0.65698600  1
  O  O37  1  0.20485700  0.49157000  0.61018200  1
  O  O38  1  0.95058200  0.73529800  0.35241900  1
  O  O39  1  0.87279750  0.95091050  0.53337200  1
  O  O40  1  0.12720250  0.04908950  0.46662800  1
  O  O41  1  0.93821950  0.24652650  0.35205800  1
  O  O42  1  0.68295250  0.99701150  0.34301400  1
  O  O43  1  0.79514300  0.50843000  0.38981800  1
  O  O44  1  0.31704750  0.99701150  0.15698600  1
  O  O45  1  0.20485700  0.50843000  0.11018200  1
  O  O46  1  0.54941800  0.23529800  0.14758100  1
  O  O47  1  0.56178050  0.74652650  0.14794200  1
  O  O48  1  0.62720250  0.45091050  0.96662800  1
  O  O49  1  0.37279750  0.54908950  0.03337200  1
  O  O50  1  0.68295250  0.00298850  0.84301400  1
  O  O51  1  0.79514300  0.49157000  0.88981800  1
  O  O52  1  0.54941800  0.76470200  0.64758100  1
  O  O53  1  0.45058200  0.76470200  0.85241900  1
  O  O54  1  0.56178050  0.25347350  0.64794200  1
  O  O55  1  0.43821950  0.25347350  0.85205800  1
  O  O56  1  0.81704750  0.50298850  0.65698600  1
  O  O57  1  0.70485700  0.99157000  0.61018200  1
  O  O58  1  0.45058200  0.23529800  0.35241900  1
  O  O59  1  0.37279750  0.45091050  0.53337200  1
  O  O60  1  0.62720250  0.54908950  0.46662800  1
  O  O61  1  0.43821950  0.74652650  0.35205800  1
  O  O62  1  0.18295250  0.49701150  0.34301400  1
  O  O63  1  0.29514300  0.00843000  0.38981800  1
