# generated using pymatgen
data_LiCr(CO3)2
_symmetry_space_group_name_H-M   'P 1'
_cell_length_a   5.02398976
_cell_length_b   7.83243302
_cell_length_c   6.43935031
_cell_angle_alpha   90.00000000
_cell_angle_beta   111.01536972
_cell_angle_gamma   90.00000000
_symmetry_Int_Tables_number   1
_chemical_formula_structural   LiCr(CO3)2
_chemical_formula_sum   'Li2 Cr2 C4 O12'
_cell_volume   236.53449561
_cell_formula_units_Z   2
loop_
 _symmetry_equiv_pos_site_id
 _symmetry_equiv_pos_as_xyz
  1  'x, y, z'
loop_
 _atom_site_type_symbol
 _atom_site_label
 _atom_site_symmetry_multiplicity
 _atom_site_fract_x
 _atom_site_fract_y
 _atom_site_fract_z
 _atom_site_occupancy
  Li  Li0  1  0.64691650  0.05238300  0.63286400  1
  Li  Li1  1  0.35308350  0.55238300  0.36713600  1
  Cr  Cr2  1  0.00396550  0.50391700  0.75971200  1
  Cr  Cr3  1  0.99603450  0.00391700  0.24028800  1
  C  C4  1  0.12590750  0.26508300  0.11359300  1
  C  C5  1  0.87409250  0.76508300  0.88640700  1
  C  C6  1  0.13728250  0.24478900  0.60385700  1
  C  C7  1  0.86271750  0.74478900  0.39614300  1
  O  O8  1  0.28645050  0.13154400  0.14631200  1
  O  O9  1  0.71354950  0.63154400  0.85368800  1
  O  O10  1  0.20785950  0.41415000  0.06988000  1
  O  O11  1  0.79214050  0.91415000  0.93012000  1
  O  O12  1  0.11928250  0.74302700  0.86256100  1
  O  O13  1  0.88071750  0.24302700  0.13743900  1
  O  O14  1  0.27888150  0.38675200  0.62783000  1
  O  O15  1  0.72111850  0.88675200  0.37217000  1
  O  O16  1  0.22621750  0.10434300  0.54585400  1
  O  O17  1  0.77378250  0.60434300  0.45414600  1
  O  O18  1  0.09672650  0.75288500  0.35190900  1
  O  O19  1  0.90327350  0.25288500  0.64809100  1
