# generated using pymatgen
data_Mn2CrNi3(PO4)6
_symmetry_space_group_name_H-M   'P 1'
_cell_length_a   8.63794627
_cell_length_b   8.63794627
_cell_length_c   20.88075958
_cell_angle_alpha   90.00000000
_cell_angle_beta   90.00000000
_cell_angle_gamma   120.00000000
_symmetry_Int_Tables_number   1
_chemical_formula_structural   Mn2CrNi3(PO4)6
_chemical_formula_sum   'Mn6 Cr3 Ni9 P18 O72'
_cell_volume   1349.26706917
_cell_formula_units_Z   3
loop_
 _symmetry_equiv_pos_site_id
 _symmetry_equiv_pos_as_xyz
  1  'x, y, z'
loop_
 _atom_site_type_symbol
 _atom_site_label
 _atom_site_symmetry_multiplicity
 _atom_site_fract_x
 _atom_site_fract_y
 _atom_site_fract_z
 _atom_site_occupancy
  Mn  Mn0  1  0.33333333  0.66666667  0.66837767  1
  Mn  Mn1  1  0.33333333  0.66666667  0.16692567  1
  Mn  Mn2  1  0.00000000  0.00000000  0.00171100  1
  Mn  Mn3  1  0.00000000  0.00000000  0.50025900  1
  Mn  Mn4  1  0.66666667  0.33333333  0.33504433  1
  Mn  Mn5  1  0.66666667  0.33333333  0.83359233  1
  Cr  Cr6  1  0.33333333  0.66666667  0.52484567  1
  Cr  Cr7  1  0.00000000  0.00000000  0.85817900  1
  Cr  Cr8  1  0.66666667  0.33333333  0.19151233  1
  Ni  Ni9  1  0.33333333  0.66666667  0.80995367  1
  Ni  Ni10  1  0.33333333  0.66666667  0.02441967  1
  Ni  Ni11  1  0.33333333  0.66666667  0.30966867  1
  Ni  Ni12  1  0.00000000  0.00000000  0.14328700  1
  Ni  Ni13  1  0.00000000  0.00000000  0.35775300  1
  Ni  Ni14  1  0.00000000  0.00000000  0.64300200  1
  Ni  Ni15  1  0.66666667  0.33333333  0.47662033  1
  Ni  Ni16  1  0.66666667  0.33333333  0.69108633  1
  Ni  Ni17  1  0.66666667  0.33333333  0.97633533  1
  P  P18  1  0.66623167  0.62541833  0.08403633  1
  P  P19  1  0.95918667  0.33376833  0.08403633  1
  P  P20  1  0.37458167  0.04081333  0.08403633  1
  P  P21  1  0.29346500  0.29359700  0.24933100  1
  P  P22  1  0.70640300  0.99986800  0.24933100  1
  P  P23  1  0.00013200  0.70653500  0.24933100  1
  P  P24  1  0.33289833  0.95875167  0.41736967  1
  P  P25  1  0.62585333  0.66710167  0.41736967  1
  P  P26  1  0.04124833  0.37414667  0.41736967  1
  P  P27  1  0.96013167  0.62693033  0.58266433  1
  P  P28  1  0.37306967  0.33320133  0.58266433  1
  P  P29  1  0.66679867  0.03986833  0.58266433  1
  P  P30  1  0.99956500  0.29208500  0.75070300  1
  P  P31  1  0.29252000  0.00043500  0.75070300  1
  P  P32  1  0.70791500  0.70748000  0.75070300  1
  P  P33  1  0.62679833  0.96026367  0.91599767  1
  P  P34  1  0.03973633  0.66653467  0.91599767  1
  P  P35  1  0.33346533  0.37320167  0.91599767  1
  O  O36  1  0.33271400  0.46390500  0.97786200  1
  O  O37  1  0.53609500  0.86880900  0.97786200  1
  O  O38  1  0.83477033  0.81493367  0.07665367  1
  O  O39  1  0.13119100  0.66728600  0.97786200  1
  O  O40  1  0.34090900  0.86018300  0.47803700  1
  O  O41  1  0.49688267  0.64305333  0.09449633  1
  O  O42  1  0.98016333  0.16522967  0.07665367  1
  O  O43  1  0.14617067  0.50311733  0.09449633  1
  O  O44  1  0.20183833  0.20043667  0.18721967  1
  O  O45  1  0.35694667  0.85382933  0.09449633  1
  O  O46  1  0.48893667  0.32023333  0.25477433  1
  O  O47  1  0.79956333  0.00140167  0.18721967  1
  O  O48  1  0.51927400  0.65909100  0.47803700  1
  O  O49  1  0.18506633  0.01983667  0.07665367  1
  O  O50  1  0.31999967  0.48649833  0.24117933  1
  O  O51  1  0.13981700  0.48072600  0.47803700  1
  O  O52  1  0.51350167  0.83350133  0.24117933  1
  O  O53  1  0.67976667  0.16870333  0.25477433  1
  O  O54  1  0.16649867  0.68000033  0.24117933  1
  O  O55  1  0.99859833  0.79816167  0.18721967  1
  O  O56  1  0.53637600  0.67107900  0.35501300  1
  O  O57  1  0.83129667  0.51106333  0.25477433  1
  O  O58  1  0.13470300  0.46362400  0.35501300  1
  O  O59  1  0.32892100  0.86529700  0.35501300  1
  O  O60  1  0.99938067  0.79723833  0.31119533  1
  O  O61  1  0.20276167  0.20214233  0.31119533  1
  O  O62  1  0.50143700  0.14826700  0.40998700  1
  O  O63  1  0.79785767  0.00061933  0.31119533  1
  O  O64  1  0.00757567  0.19351633  0.81137033  1
  O  O65  1  0.16354933  0.97638667  0.42782967  1
  O  O66  1  0.64683000  0.49856300  0.40998700  1
  O  O67  1  0.81283733  0.83645067  0.42782967  1
  O  O68  1  0.86850500  0.53377000  0.52055300  1
  O  O69  1  0.02361333  0.18716267  0.42782967  1
  O  O70  1  0.15560333  0.65356667  0.58810767  1
  O  O71  1  0.46623000  0.33473500  0.52055300  1
  O  O72  1  0.18594067  0.99242433  0.81137033  1
  O  O73  1  0.85173300  0.35317000  0.40998700  1
  O  O74  1  0.98666633  0.81983167  0.57451267  1
  O  O75  1  0.80648367  0.81405933  0.81137033  1
  O  O76  1  0.18016833  0.16683467  0.57451267  1
  O  O77  1  0.34643333  0.50203667  0.58810767  1
  O  O78  1  0.83316533  0.01333367  0.57451267  1
  O  O79  1  0.66526500  0.13149500  0.52055300  1
  O  O80  1  0.20304267  0.00441233  0.68834633  1
  O  O81  1  0.49796333  0.84439667  0.58810767  1
  O  O82  1  0.80136967  0.79695733  0.68834633  1
  O  O83  1  0.99558767  0.19863033  0.68834633  1
  O  O84  1  0.66604733  0.13057167  0.64452867  1
  O  O85  1  0.86942833  0.53547567  0.64452867  1
  O  O86  1  0.16810367  0.48160033  0.74332033  1
  O  O87  1  0.46452433  0.33395267  0.64452867  1
  O  O88  1  0.67424233  0.52684967  0.14470367  1
  O  O89  1  0.83021600  0.30972000  0.76116300  1
  O  O90  1  0.31349667  0.83189633  0.74332033  1
  O  O91  1  0.47950400  0.16978400  0.76116300  1
  O  O92  1  0.53517167  0.86710333  0.85388633  1
  O  O93  1  0.69028000  0.52049600  0.76116300  1
  O  O94  1  0.82227000  0.98690000  0.92144100  1
  O  O95  1  0.13289667  0.66806833  0.85388633  1
  O  O96  1  0.85260733  0.32575767  0.14470367  1
  O  O97  1  0.51839967  0.68650333  0.74332033  1
  O  O98  1  0.65333300  0.15316500  0.90784600  1
  O  O99  1  0.47315033  0.14739267  0.14470367  1
  O  O100  1  0.84683500  0.50016800  0.90784600  1
  O  O101  1  0.01310000  0.83537000  0.92144100  1
  O  O102  1  0.49983200  0.34666700  0.90784600  1
  O  O103  1  0.33193167  0.46482833  0.85388633  1
  O  O104  1  0.86970933  0.33774567  0.02167967  1
  O  O105  1  0.16463000  0.17773000  0.92144100  1
  O  O106  1  0.46803633  0.13029067  0.02167967  1
  O  O107  1  0.66225433  0.53196367  0.02167967  1
