# generated using pymatgen
data_Ni5Te4(BrO6)2
_symmetry_space_group_name_H-M   'P 1'
_cell_length_a   20.46466800
_cell_length_b   5.31238600
_cell_length_c   16.45824874
_cell_angle_alpha   90.00000000
_cell_angle_beta   124.90027123
_cell_angle_gamma   90.00000000
_symmetry_Int_Tables_number   1
_chemical_formula_structural   Ni5Te4(BrO6)2
_chemical_formula_sum   'Ni20 Te16 Br8 O48'
_cell_volume   1467.47528942
_cell_formula_units_Z   4
loop_
 _symmetry_equiv_pos_site_id
 _symmetry_equiv_pos_as_xyz
  1  'x, y, z'
loop_
 _atom_site_type_symbol
 _atom_site_label
 _atom_site_symmetry_multiplicity
 _atom_site_fract_x
 _atom_site_fract_y
 _atom_site_fract_z
 _atom_site_occupancy
  Ni  Ni0  1  0.99018150  0.78214950  0.37777700  1
  Ni  Ni1  1  0.99018150  0.21785050  0.87777700  1
  Ni  Ni2  1  0.08612900  0.21616900  0.47113800  1
  Ni  Ni3  1  0.91387100  0.21616900  0.02886200  1
  Ni  Ni4  1  0.00981850  0.78214950  0.12222300  1
  Ni  Ni5  1  0.08612900  0.78383100  0.97113800  1
  Ni  Ni6  1  0.91387100  0.78383100  0.52886200  1
  Ni  Ni7  1  0.00981850  0.21785050  0.62222300  1
  Ni  Ni8  1  0.00000000  0.75297600  0.75000000  1
  Ni  Ni9  1  0.00000000  0.24702400  0.25000000  1
  Ni  Ni10  1  0.49018150  0.28214950  0.37777700  1
  Ni  Ni11  1  0.49018150  0.71785050  0.87777700  1
  Ni  Ni12  1  0.58612900  0.71616900  0.47113800  1
  Ni  Ni13  1  0.41387100  0.71616900  0.02886200  1
  Ni  Ni14  1  0.50981850  0.28214950  0.12222300  1
  Ni  Ni15  1  0.58612900  0.28383100  0.97113800  1
  Ni  Ni16  1  0.41387100  0.28383100  0.52886200  1
  Ni  Ni17  1  0.50981850  0.71785050  0.62222300  1
  Ni  Ni18  1  0.50000000  0.25297600  0.75000000  1
  Ni  Ni19  1  0.50000000  0.74702400  0.25000000  1
  Te  Te20  1  0.87819900  0.31666800  0.36378100  1
  Te  Te21  1  0.14348950  0.71624750  0.37995700  1
  Te  Te22  1  0.85651050  0.28375250  0.62004300  1
  Te  Te23  1  0.14348950  0.28375250  0.87995700  1
  Te  Te24  1  0.85651050  0.71624750  0.12004300  1
  Te  Te25  1  0.12180100  0.68333200  0.63621900  1
  Te  Te26  1  0.37819900  0.18333200  0.86378100  1
  Te  Te27  1  0.62180100  0.81666800  0.13621900  1
  Te  Te28  1  0.37819900  0.81666800  0.36378100  1
  Te  Te29  1  0.64348950  0.21624750  0.37995700  1
  Te  Te30  1  0.35651050  0.78375250  0.62004300  1
  Te  Te31  1  0.64348950  0.78375250  0.87995700  1
  Te  Te32  1  0.35651050  0.21624750  0.12004300  1
  Te  Te33  1  0.62180100  0.18333200  0.63621900  1
  Te  Te34  1  0.87819900  0.68333200  0.86378100  1
  Te  Te35  1  0.12180100  0.31666800  0.13621900  1
  Br  Br36  1  0.26270250  0.80418550  0.90145900  1
  Br  Br37  1  0.23729750  0.30418550  0.59854100  1
  Br  Br38  1  0.73729750  0.19581450  0.09854100  1
  Br  Br39  1  0.76270250  0.69581450  0.40145900  1
  Br  Br40  1  0.76270250  0.30418550  0.90145900  1
  Br  Br41  1  0.73729750  0.80418550  0.59854100  1
  Br  Br42  1  0.23729750  0.69581450  0.09854100  1
  Br  Br43  1  0.26270250  0.19581450  0.40145900  1
  O  O44  1  0.09165100  0.85542200  0.51768200  1
  O  O45  1  0.59165100  0.64457800  0.01768200  1
  O  O46  1  0.43048450  0.87945750  0.93010200  1
  O  O47  1  0.07481950  0.99470850  0.35464700  1
  O  O48  1  0.88739000  0.66411400  0.24929900  1
  O  O49  1  0.11261000  0.66411400  0.25070100  1
  O  O50  1  0.07481950  0.00529150  0.85464700  1
  O  O51  1  0.90834900  0.14457800  0.48231800  1
  O  O52  1  0.40834900  0.35542200  0.98231800  1
  O  O53  1  0.06264050  0.50345250  0.86930600  1
  O  O54  1  0.93048450  0.62054250  0.43010200  1
  O  O55  1  0.96054500  0.16642400  0.35654800  1
  O  O56  1  0.92518050  0.99470850  0.14535300  1
  O  O57  1  0.06264050  0.49654750  0.36930600  1
  O  O58  1  0.93735950  0.49654750  0.13069400  1
  O  O59  1  0.96054500  0.83357600  0.85654800  1
  O  O60  1  0.03945500  0.83357600  0.64345200  1
  O  O61  1  0.88739000  0.33588600  0.74929900  1
  O  O62  1  0.03945500  0.16642400  0.14345200  1
  O  O63  1  0.93735950  0.50345250  0.63069400  1
  O  O64  1  0.06951550  0.37945750  0.56989800  1
  O  O65  1  0.11261000  0.33588600  0.75070100  1
  O  O66  1  0.56951550  0.12054250  0.06989800  1
  O  O67  1  0.92518050  0.00529150  0.64535300  1
  O  O68  1  0.59165100  0.35542200  0.51768200  1
  O  O69  1  0.09165100  0.14457800  0.01768200  1
  O  O70  1  0.93048450  0.37945750  0.93010200  1
  O  O71  1  0.57481950  0.49470850  0.35464700  1
  O  O72  1  0.38739000  0.16411400  0.24929900  1
  O  O73  1  0.61261000  0.16411400  0.25070100  1
  O  O74  1  0.57481950  0.50529150  0.85464700  1
  O  O75  1  0.40834900  0.64457800  0.48231800  1
  O  O76  1  0.90834900  0.85542200  0.98231800  1
  O  O77  1  0.56264050  0.00345250  0.86930600  1
  O  O78  1  0.43048450  0.12054250  0.43010200  1
  O  O79  1  0.46054500  0.66642400  0.35654800  1
  O  O80  1  0.42518050  0.49470850  0.14535300  1
  O  O81  1  0.56264050  0.99654750  0.36930600  1
  O  O82  1  0.43735950  0.99654750  0.13069400  1
  O  O83  1  0.46054500  0.33357600  0.85654800  1
  O  O84  1  0.53945500  0.33357600  0.64345200  1
  O  O85  1  0.38739000  0.83588600  0.74929900  1
  O  O86  1  0.53945500  0.66642400  0.14345200  1
  O  O87  1  0.43735950  0.00345250  0.63069400  1
  O  O88  1  0.56951550  0.87945750  0.56989800  1
  O  O89  1  0.61261000  0.83588600  0.75070100  1
  O  O90  1  0.06951550  0.62054250  0.06989800  1
  O  O91  1  0.42518050  0.50529150  0.64535300  1
