# generated using pymatgen
data_NaFe2H3(SO4)2
_symmetry_space_group_name_H-M   'P 1'
_cell_length_a   6.42524681
_cell_length_b   7.96231720
_cell_length_c   9.11015804
_cell_angle_alpha   100.03045300
_cell_angle_beta   109.69927996
_cell_angle_gamma   111.76123462
_symmetry_Int_Tables_number   1
_chemical_formula_structural   NaFe2H3(SO4)2
_chemical_formula_sum   'Na2 Fe4 H6 S4 O16'
_cell_volume   382.93580197
_cell_formula_units_Z   2
loop_
 _symmetry_equiv_pos_site_id
 _symmetry_equiv_pos_as_xyz
  1  'x, y, z'
loop_
 _atom_site_type_symbol
 _atom_site_label
 _atom_site_symmetry_multiplicity
 _atom_site_fract_x
 _atom_site_fract_y
 _atom_site_fract_z
 _atom_site_occupancy
  Na  Na0  1  0.56865900  0.17547800  0.91221800  1
  Na  Na1  1  0.43134100  0.82452200  0.08778200  1
  Fe  Fe2  1  0.18514400  0.17217000  0.18889200  1
  Fe  Fe3  1  0.81485600  0.82783000  0.81110800  1
  Fe  Fe4  1  0.00000000  0.00000000  0.50000000  1
  Fe  Fe5  1  0.50000000  0.00000000  0.50000000  1
  H  H6  1  0.38918300  0.28260700  0.50354700  1
  H  H7  1  0.61081700  0.71739300  0.49645300  1
  H  H8  1  0.30336500  0.55855100  0.26909100  1
  H  H9  1  0.69663500  0.44144900  0.73090900  1
  H  H10  1  0.55465300  0.56322100  0.27011000  1
  H  H11  1  0.44534700  0.43677900  0.72989000  1
  S  S12  1  0.06285600  0.30011800  0.84490900  1
  S  S13  1  0.93714400  0.69988200  0.15509100  1
  S  S14  1  0.24291500  0.74935900  0.70390100  1
  S  S15  1  0.75708500  0.25064100  0.29609900  1
  O  O16  1  0.17785300  0.25751900  0.72777900  1
  O  O17  1  0.82214700  0.74248100  0.27222100  1
  O  O18  1  0.21103300  0.75052700  0.26668700  1
  O  O19  1  0.78896700  0.24947300  0.73331300  1
  O  O20  1  0.03417100  0.14070800  0.92567300  1
  O  O21  1  0.96582900  0.85929200  0.07432700  1
  O  O22  1  0.26754700  0.92239100  0.63667100  1
  O  O23  1  0.73245300  0.07760900  0.36332900  1
  O  O24  1  0.49008900  0.16694400  0.15353700  1
  O  O25  1  0.50991100  0.83305600  0.84646300  1
  O  O26  1  0.90660500  0.24578500  0.19724000  1
  O  O27  1  0.09339500  0.75421500  0.80276000  1
  O  O28  1  0.29167600  0.14760600  0.42922700  1
  O  O29  1  0.70832400  0.85239400  0.57077300  1
  O  O30  1  0.41113200  0.49465700  0.29326100  1
  O  O31  1  0.58886800  0.50534300  0.70673900  1
