# generated using pymatgen
data_Li2Fe(PO4)2
_symmetry_space_group_name_H-M   'P 1'
_cell_length_a   9.10178400
_cell_length_b   4.72891200
_cell_length_c   13.97620254
_cell_angle_alpha   90.00000000
_cell_angle_beta   98.24706327
_cell_angle_gamma   90.00000000
_symmetry_Int_Tables_number   1
_chemical_formula_structural   Li2Fe(PO4)2
_chemical_formula_sum   'Li8 Fe4 P8 O32'
_cell_volume   595.33635946
_cell_formula_units_Z   4
loop_
 _symmetry_equiv_pos_site_id
 _symmetry_equiv_pos_as_xyz
  1  'x, y, z'
loop_
 _atom_site_type_symbol
 _atom_site_label
 _atom_site_symmetry_multiplicity
 _atom_site_fract_x
 _atom_site_fract_y
 _atom_site_fract_z
 _atom_site_occupancy
  Li  Li0  1  0.66080000  0.98126200  0.66092500  1
  Li  Li1  1  0.66080000  0.01873800  0.16092500  1
  Li  Li2  1  0.99384650  0.03330850  0.25586100  1
  Li  Li3  1  0.99384650  0.96669150  0.75586100  1
  Li  Li4  1  0.16080000  0.48126200  0.66092500  1
  Li  Li5  1  0.16080000  0.51873800  0.16092500  1
  Li  Li6  1  0.49384650  0.53330850  0.25586100  1
  Li  Li7  1  0.49384650  0.46669150  0.75586100  1
  Fe  Fe8  1  0.50658850  0.48469850  0.49104000  1
  Fe  Fe9  1  0.50658850  0.51530150  0.99104000  1
  Fe  Fe10  1  0.00658850  0.98469850  0.49104000  1
  Fe  Fe11  1  0.00658850  0.01530150  0.99104000  1
  P  P12  1  0.66086150  0.99039650  0.88334100  1
  P  P13  1  0.66086150  0.00960350  0.38334100  1
  P  P14  1  0.84118600  0.49077300  0.61395200  1
  P  P15  1  0.84118600  0.50922700  0.11395200  1
  P  P16  1  0.16086150  0.49039650  0.88334100  1
  P  P17  1  0.16086150  0.50960350  0.38334100  1
  P  P18  1  0.34118600  0.99077300  0.61395200  1
  P  P19  1  0.34118600  0.00922700  0.11395200  1
  O  O20  1  0.56047050  0.71750850  0.87372600  1
  O  O21  1  0.61162600  0.82818500  0.46561600  1
  O  O22  1  0.64443400  0.85140500  0.28743000  1
  O  O23  1  0.82279000  0.88408500  0.91242300  1
  O  O24  1  0.82279000  0.11591500  0.41242300  1
  O  O25  1  0.64443400  0.14859500  0.78743000  1
  O  O26  1  0.61162600  0.17181500  0.96561600  1
  O  O27  1  0.95792000  0.25211700  0.63776400  1
  O  O28  1  0.56047050  0.28249150  0.37372600  1
  O  O29  1  0.89317500  0.33500800  0.03095500  1
  O  O30  1  0.82909650  0.29568950  0.19560600  1
  O  O31  1  0.68575500  0.35137000  0.58358900  1
  O  O32  1  0.68575500  0.64863000  0.08358900  1
  O  O33  1  0.82909650  0.70431050  0.69560600  1
  O  O34  1  0.89317500  0.66499200  0.53095500  1
  O  O35  1  0.95792000  0.74788300  0.13776400  1
  O  O36  1  0.06047050  0.21750850  0.87372600  1
  O  O37  1  0.11162600  0.32818500  0.46561600  1
  O  O38  1  0.14443400  0.35140500  0.28743000  1
  O  O39  1  0.32279000  0.38408500  0.91242300  1
  O  O40  1  0.32279000  0.61591500  0.41242300  1
  O  O41  1  0.14443400  0.64859500  0.78743000  1
  O  O42  1  0.11162600  0.67181500  0.96561600  1
  O  O43  1  0.45792000  0.75211700  0.63776400  1
  O  O44  1  0.06047050  0.78249150  0.37372600  1
  O  O45  1  0.39317500  0.83500800  0.03095500  1
  O  O46  1  0.32909650  0.79568950  0.19560600  1
  O  O47  1  0.18575500  0.85137000  0.58358900  1
  O  O48  1  0.18575500  0.14863000  0.08358900  1
  O  O49  1  0.32909650  0.20431050  0.69560600  1
  O  O50  1  0.39317500  0.16499200  0.53095500  1
  O  O51  1  0.45792000  0.24788300  0.13776400  1
