# generated using pymatgen
data_Li3Fe(NiO3)2
_symmetry_space_group_name_H-M   'P 1'
_cell_length_a   13.04951000
_cell_length_b   2.91452400
_cell_length_c   5.86465844
_cell_angle_alpha   90.00000000
_cell_angle_beta   103.85040380
_cell_angle_gamma   90.00000000
_symmetry_Int_Tables_number   1
_chemical_formula_structural   Li3Fe(NiO3)2
_chemical_formula_sum   'Li6 Fe2 Ni4 O12'
_cell_volume   216.56577738
_cell_formula_units_Z   2
loop_
 _symmetry_equiv_pos_site_id
 _symmetry_equiv_pos_as_xyz
  1  'x, y, z'
loop_
 _atom_site_type_symbol
 _atom_site_label
 _atom_site_symmetry_multiplicity
 _atom_site_fract_x
 _atom_site_fract_y
 _atom_site_fract_z
 _atom_site_occupancy
  Li  Li0  1  0.00000000  0.50000000  0.50000000  1
  Li  Li1  1  0.16827600  0.00000000  0.82832400  1
  Li  Li2  1  0.33172400  0.50000000  0.17167600  1
  Li  Li3  1  0.50000000  0.00000000  0.50000000  1
  Li  Li4  1  0.66827600  0.50000000  0.82832400  1
  Li  Li5  1  0.83172400  0.00000000  0.17167600  1
  Fe  Fe6  1  0.00000000  0.50000000  0.00000000  1
  Fe  Fe7  1  0.50000000  0.00000000  0.00000000  1
  Ni  Ni8  1  0.33391500  0.50000000  0.66555800  1
  Ni  Ni9  1  0.16608500  0.00000000  0.33444200  1
  Ni  Ni10  1  0.83391500  0.00000000  0.66555800  1
  Ni  Ni11  1  0.66608500  0.50000000  0.33444200  1
  O  O12  1  0.16188400  0.50000000  0.10032300  1
  O  O13  1  0.33811600  0.00000000  0.89967700  1
  O  O14  1  0.00065500  0.00000000  0.23693800  1
  O  O15  1  0.32919700  0.00000000  0.43473800  1
  O  O16  1  0.49934500  0.50000000  0.76306200  1
  O  O17  1  0.17080300  0.50000000  0.56526200  1
  O  O18  1  0.66188400  0.00000000  0.10032300  1
  O  O19  1  0.83811600  0.50000000  0.89967700  1
  O  O20  1  0.50065500  0.50000000  0.23693800  1
  O  O21  1  0.82919700  0.50000000  0.43473800  1
  O  O22  1  0.99934500  0.00000000  0.76306200  1
  O  O23  1  0.67080300  0.00000000  0.56526200  1
