# generated using pymatgen
data_MnFe(PO4)2
_symmetry_space_group_name_H-M   'P 1'
_cell_length_a   8.60346225
_cell_length_b   8.60346225
_cell_length_c   20.69223966
_cell_angle_alpha   90.00000000
_cell_angle_beta   90.00000000
_cell_angle_gamma   120.00000000
_symmetry_Int_Tables_number   1
_chemical_formula_structural   MnFe(PO4)2
_chemical_formula_sum   'Mn9 Fe9 P18 O72'
_cell_volume   1326.43094892
_cell_formula_units_Z   9
loop_
 _symmetry_equiv_pos_site_id
 _symmetry_equiv_pos_as_xyz
  1  'x, y, z'
loop_
 _atom_site_type_symbol
 _atom_site_label
 _atom_site_symmetry_multiplicity
 _atom_site_fract_x
 _atom_site_fract_y
 _atom_site_fract_z
 _atom_site_occupancy
  Mn  Mn0  1  0.33333333  0.66666667  0.30851167  1
  Mn  Mn1  1  0.33333333  0.66666667  0.52234667  1
  Mn  Mn2  1  0.33333333  0.66666667  0.02434567  1
  Mn  Mn3  1  0.00000000  0.00000000  0.64184500  1
  Mn  Mn4  1  0.00000000  0.00000000  0.85568000  1
  Mn  Mn5  1  0.00000000  0.00000000  0.35767900  1
  Mn  Mn6  1  0.66666667  0.33333333  0.97517833  1
  Mn  Mn7  1  0.66666667  0.33333333  0.18901333  1
  Mn  Mn8  1  0.66666667  0.33333333  0.69101233  1
  Fe  Fe9  1  0.33333333  0.66666667  0.66678333  1
  Fe  Fe10  1  0.33333333  0.66666667  0.81213867  1
  Fe  Fe11  1  0.33333333  0.66666667  0.16583533  1
  Fe  Fe12  1  0.00000000  0.00000000  0.00011667  1
  Fe  Fe13  1  0.00000000  0.00000000  0.14547200  1
  Fe  Fe14  1  0.00000000  0.00000000  0.49916867  1
  Fe  Fe15  1  0.66666667  0.33333333  0.33345000  1
  Fe  Fe16  1  0.66666667  0.33333333  0.47880533  1
  Fe  Fe17  1  0.66666667  0.33333333  0.83250200  1
  P  P18  1  0.99946367  0.70577633  0.25156833  1
  P  P19  1  0.70631267  0.00053633  0.25156833  1
  P  P20  1  0.29422367  0.29368733  0.25156833  1
  P  P21  1  0.37532000  0.04253200  0.08175900  1
  P  P22  1  0.95746800  0.33278800  0.08175900  1
  P  P23  1  0.66721200  0.62468000  0.08175900  1
  P  P24  1  0.66613033  0.03910967  0.58490167  1
  P  P25  1  0.37297933  0.33386967  0.58490167  1
  P  P26  1  0.96089033  0.62702067  0.58490167  1
  P  P27  1  0.04198667  0.37586533  0.41509233  1
  P  P28  1  0.62413467  0.66612133  0.41509233  1
  P  P29  1  0.33387867  0.95801333  0.41509233  1
  P  P30  1  0.33279700  0.37244300  0.91823500  1
  P  P31  1  0.03964600  0.66720300  0.91823500  1
  P  P32  1  0.62755700  0.96035400  0.91823500  1
  P  P33  1  0.70865333  0.70919867  0.74842567  1
  P  P34  1  0.29080133  0.99945467  0.74842567  1
  P  P35  1  0.00054533  0.29134667  0.74842567  1
  O  O36  1  0.13592700  0.66798400  0.97986200  1
  O  O37  1  0.53205700  0.86407300  0.97986200  1
  O  O38  1  0.33201600  0.46794300  0.97986200  1
  O  O39  1  0.83158267  0.51223733  0.26059933  1
  O  O40  1  0.99601800  0.80010900  0.18960000  1
  O  O41  1  0.16859400  0.68313700  0.24316900  1
  O  O42  1  0.68065467  0.16841733  0.26059933  1
  O  O43  1  0.51454300  0.83140600  0.24316900  1
  O  O44  1  0.46509867  0.13793233  0.14413533  1
  O  O45  1  0.31686300  0.48545700  0.24316900  1
  O  O46  1  0.18250700  0.01993100  0.07225600  1
  O  O47  1  0.86206767  0.32716633  0.14413533  1
  O  O48  1  0.80409100  0.00398200  0.18960000  1
  O  O49  1  0.48776267  0.31934533  0.26059933  1
  O  O50  1  0.35402167  0.85195433  0.09015733  1
  O  O51  1  0.19989100  0.19590900  0.18960000  1
  O  O52  1  0.14804567  0.50206733  0.09015733  1
  O  O53  1  0.98006900  0.16257600  0.07225600  1
  O  O54  1  0.49793267  0.64597833  0.09015733  1
  O  O55  1  0.67283367  0.53490133  0.14413533  1
  O  O56  1  0.83742400  0.81749300  0.07225600  1
  O  O57  1  0.32725500  0.85667500  0.35358200  1
  O  O58  1  0.14332500  0.47058000  0.35358200  1
  O  O59  1  0.52942000  0.67274500  0.35358200  1
  O  O60  1  0.80259367  0.00131733  0.31319533  1
  O  O61  1  0.19872367  0.19740633  0.31319533  1
  O  O62  1  0.99868267  0.80127633  0.31319533  1
  O  O63  1  0.49824933  0.84557067  0.59393267  1
  O  O64  1  0.66268467  0.13344233  0.52293333  1
  O  O65  1  0.83526067  0.01647033  0.57650233  1
  O  O66  1  0.34732133  0.50175067  0.59393267  1
  O  O67  1  0.18120967  0.16473933  0.57650233  1
  O  O68  1  0.13176533  0.47126567  0.47746867  1
  O  O69  1  0.98352967  0.81879033  0.57650233  1
  O  O70  1  0.84917367  0.35326433  0.40558933  1
  O  O71  1  0.52873433  0.66049967  0.47746867  1
  O  O72  1  0.47075767  0.33731533  0.52293333  1
  O  O73  1  0.15442933  0.65267867  0.59393267  1
  O  O74  1  0.02068833  0.18528767  0.42349067  1
  O  O75  1  0.86655767  0.52924233  0.52293333  1
  O  O76  1  0.81471233  0.83540067  0.42349067  1
  O  O77  1  0.64673567  0.49590933  0.40558933  1
  O  O78  1  0.16459933  0.97931167  0.42349067  1
  O  O79  1  0.33950033  0.86823467  0.47746867  1
  O  O80  1  0.50409067  0.15082633  0.40558933  1
  O  O81  1  0.99392167  0.19000833  0.68691533  1
  O  O82  1  0.80999167  0.80391333  0.68691533  1
  O  O83  1  0.19608667  0.00607833  0.68691533  1
  O  O84  1  0.46926033  0.33465067  0.64652867  1
  O  O85  1  0.86539033  0.53073967  0.64652867  1
  O  O86  1  0.66534933  0.13460967  0.64652867  1
  O  O87  1  0.16491600  0.17890400  0.92726600  1
  O  O88  1  0.32935133  0.46677567  0.85626667  1
  O  O89  1  0.50192733  0.34980367  0.90983567  1
  O  O90  1  0.01398800  0.83508400  0.92726600  1
  O  O91  1  0.84787633  0.49807267  0.90983567  1
  O  O92  1  0.79843200  0.80459900  0.81080200  1
  O  O93  1  0.65019633  0.15212367  0.90983567  1
  O  O94  1  0.51584033  0.68659767  0.73892267  1
  O  O95  1  0.19540100  0.99383300  0.81080200  1
  O  O96  1  0.13742433  0.67064867  0.85626667  1
  O  O97  1  0.82109600  0.98601200  0.92726600  1
  O  O98  1  0.68735500  0.51862100  0.75682400  1
  O  O99  1  0.53322433  0.86257567  0.85626667  1
  O  O100  1  0.48137900  0.16873400  0.75682400  1
  O  O101  1  0.31340233  0.82924267  0.73892267  1
  O  O102  1  0.83126600  0.31264500  0.75682400  1
  O  O103  1  0.00616700  0.20156800  0.81080200  1
  O  O104  1  0.17075733  0.48415967  0.73892267  1
  O  O105  1  0.66058833  0.52334167  0.02024867  1
  O  O106  1  0.47665833  0.13724667  0.02024867  1
  O  O107  1  0.86275333  0.33941167  0.02024867  1
