# generated using pymatgen
data_Li4CrFe3O8
_symmetry_space_group_name_H-M   'P 1'
_cell_length_a   10.33609200
_cell_length_b   5.96527600
_cell_length_c   5.19167242
_cell_angle_alpha   90.00000000
_cell_angle_beta   109.39853995
_cell_angle_gamma   90.00000000
_symmetry_Int_Tables_number   1
_chemical_formula_structural   Li4CrFe3O8
_chemical_formula_sum   'Li8 Cr2 Fe6 O16'
_cell_volume   301.93420277
_cell_formula_units_Z   2
loop_
 _symmetry_equiv_pos_site_id
 _symmetry_equiv_pos_as_xyz
  1  'x, y, z'
loop_
 _atom_site_type_symbol
 _atom_site_label
 _atom_site_symmetry_multiplicity
 _atom_site_fract_x
 _atom_site_fract_y
 _atom_site_fract_z
 _atom_site_occupancy
  Li  Li0  1  0.24915300  0.00000000  0.99773100  1
  Li  Li1  1  0.25084700  0.50000000  0.00226900  1
  Li  Li2  1  0.00000000  0.75145400  0.00000000  1
  Li  Li3  1  0.00000000  0.24854600  0.00000000  1
  Li  Li4  1  0.74915300  0.50000000  0.99773100  1
  Li  Li5  1  0.75084700  0.00000000  0.00226900  1
  Li  Li6  1  0.50000000  0.25145400  0.00000000  1
  Li  Li7  1  0.50000000  0.74854600  0.00000000  1
  Cr  Cr8  1  0.00000000  0.00000000  0.50000000  1
  Cr  Cr9  1  0.50000000  0.50000000  0.50000000  1
  Fe  Fe10  1  0.25000000  0.75000000  0.50000000  1
  Fe  Fe11  1  0.25000000  0.25000000  0.50000000  1
  Fe  Fe12  1  0.00000000  0.50000000  0.50000000  1
  Fe  Fe13  1  0.75000000  0.25000000  0.50000000  1
  Fe  Fe14  1  0.75000000  0.75000000  0.50000000  1
  Fe  Fe15  1  0.50000000  0.00000000  0.50000000  1
  O  O16  1  0.37142900  0.00000000  0.72883900  1
  O  O17  1  0.37900300  0.74896100  0.27174100  1
  O  O18  1  0.37189100  0.50000000  0.72704600  1
  O  O19  1  0.37900300  0.25103900  0.27174100  1
  O  O20  1  0.12099700  0.75103900  0.72825900  1
  O  O21  1  0.12857100  0.50000000  0.27116100  1
  O  O22  1  0.12099700  0.24896100  0.72825900  1
  O  O23  1  0.12810900  0.00000000  0.27295400  1
  O  O24  1  0.87142900  0.50000000  0.72883900  1
  O  O25  1  0.87900300  0.24896100  0.27174100  1
  O  O26  1  0.87189100  0.00000000  0.72704600  1
  O  O27  1  0.87900300  0.75103900  0.27174100  1
  O  O28  1  0.62099700  0.25103900  0.72825900  1
  O  O29  1  0.62857100  0.00000000  0.27116100  1
  O  O30  1  0.62099700  0.74896100  0.72825900  1
  O  O31  1  0.62810900  0.50000000  0.27295400  1
