# generated using pymatgen
data_Li9(FeO4)2
_symmetry_space_group_name_H-M   'P 1'
_cell_length_a   5.49924400
_cell_length_b   6.81552900
_cell_length_c   11.23974468
_cell_angle_alpha   90.00000000
_cell_angle_beta   106.72106662
_cell_angle_gamma   90.00000000
_symmetry_Int_Tables_number   1
_chemical_formula_structural   Li9(FeO4)2
_chemical_formula_sum   'Li18 Fe4 O16'
_cell_volume   403.45592620
_cell_formula_units_Z   2
loop_
 _symmetry_equiv_pos_site_id
 _symmetry_equiv_pos_as_xyz
  1  'x, y, z'
loop_
 _atom_site_type_symbol
 _atom_site_label
 _atom_site_symmetry_multiplicity
 _atom_site_fract_x
 _atom_site_fract_y
 _atom_site_fract_z
 _atom_site_occupancy
  Li  Li0  1  0.62697400  0.95400700  0.71970900  1
  Li  Li1  1  0.33673700  0.99977600  0.33891700  1
  Li  Li2  1  0.63971100  0.27954100  0.93974900  1
  Li  Li3  1  0.36552000  0.77419300  0.56185900  1
  Li  Li4  1  0.36503100  0.21341500  0.57146700  1
  Li  Li5  1  0.08529300  0.26948800  0.19907100  1
  Li  Li6  1  0.39962900  0.49193200  0.79355100  1
  Li  Li7  1  0.33673700  0.00022400  0.83891700  1
  Li  Li8  1  0.91107400  0.78741400  0.30307800  1
  Li  Li9  1  0.08529300  0.73051200  0.69907100  1
  Li  Li10  1  0.68536400  0.50752000  0.15844800  1
  Li  Li11  1  0.62697400  0.04599300  0.21970900  1
  Li  Li12  1  0.91107400  0.21258600  0.80307800  1
  Li  Li13  1  0.63971100  0.72045900  0.43974900  1
  Li  Li14  1  0.36552000  0.22580700  0.06185900  1
  Li  Li15  1  0.36503100  0.78658500  0.07146700  1
  Li  Li16  1  0.68536400  0.49248000  0.65844800  1
  Li  Li17  1  0.39962900  0.50806800  0.29355100  1
  Fe  Fe18  1  0.10324100  0.49302400  0.43919500  1
  Fe  Fe19  1  0.87636800  0.98495500  0.05632900  1
  Fe  Fe20  1  0.10324100  0.50697600  0.93919500  1
  Fe  Fe21  1  0.87636800  0.01504500  0.55632900  1
  O  O22  1  0.77390500  0.46576800  0.84624000  1
  O  O23  1  0.72474600  0.02579300  0.88672400  1
  O  O24  1  0.23539500  0.27862100  0.37921500  1
  O  O25  1  0.26184500  0.71726100  0.38634200  1
  O  O26  1  0.27263100  0.50684200  0.61037700  1
  O  O27  1  0.23141300  0.97730500  0.64349800  1
  O  O28  1  0.23539500  0.72137900  0.87921500  1
  O  O29  1  0.26184500  0.28273900  0.88634200  1
  O  O30  1  0.73969900  0.22675800  0.11340200  1
  O  O31  1  0.72765600  0.79710300  0.13199800  1
  O  O32  1  0.77390500  0.53423200  0.34624000  1
  O  O33  1  0.72474600  0.97420700  0.38672400  1
  O  O34  1  0.73969900  0.77324200  0.61340200  1
  O  O35  1  0.72765600  0.20289700  0.63199800  1
  O  O36  1  0.27263100  0.49315800  0.11037700  1
  O  O37  1  0.23141300  0.02269500  0.14349800  1
