# generated using pymatgen
data_Li3V(PO4)2
_symmetry_space_group_name_H-M   'P 1'
_cell_length_a   9.17969230
_cell_length_b   4.69551138
_cell_length_c   13.60431544
_cell_angle_alpha   90.00000000
_cell_angle_beta   98.67850189
_cell_angle_gamma   90.00000000
_symmetry_Int_Tables_number   1
_chemical_formula_structural   Li3V(PO4)2
_chemical_formula_sum   'Li12 V4 P8 O32'
_cell_volume   579.67771800
_cell_formula_units_Z   4
loop_
 _symmetry_equiv_pos_site_id
 _symmetry_equiv_pos_as_xyz
  1  'x, y, z'
loop_
 _atom_site_type_symbol
 _atom_site_label
 _atom_site_symmetry_multiplicity
 _atom_site_fract_x
 _atom_site_fract_y
 _atom_site_fract_z
 _atom_site_occupancy
  Li  Li0  1  0.33249000  0.03059900  0.84127100  1
  Li  Li1  1  0.33249000  0.96940100  0.34127100  1
  Li  Li2  1  0.16751000  0.53059900  0.65872900  1
  Li  Li3  1  0.16751000  0.46940100  0.15872900  1
  Li  Li4  1  0.00000000  0.04432000  0.75000000  1
  Li  Li5  1  0.00000000  0.95568000  0.25000000  1
  Li  Li6  1  0.83249000  0.53059900  0.84127100  1
  Li  Li7  1  0.83249000  0.46940100  0.34127100  1
  Li  Li8  1  0.66751000  0.03059900  0.65872900  1
  Li  Li9  1  0.66751000  0.96940100  0.15872900  1
  Li  Li10  1  0.50000000  0.54432000  0.75000000  1
  Li  Li11  1  0.50000000  0.45568000  0.25000000  1
  V  V12  1  0.00000000  0.00000000  0.00000000  1
  V  V13  1  0.00000000  0.00000000  0.50000000  1
  V  V14  1  0.50000000  0.50000000  0.00000000  1
  V  V15  1  0.50000000  0.50000000  0.50000000  1
  P  P16  1  0.34324900  0.01725500  0.61577300  1
  P  P17  1  0.34324900  0.98274500  0.11577300  1
  P  P18  1  0.15675100  0.51725500  0.88422700  1
  P  P19  1  0.15675100  0.48274500  0.38422700  1
  P  P20  1  0.84324900  0.51725500  0.61577300  1
  P  P21  1  0.84324900  0.48274500  0.11577300  1
  P  P22  1  0.65675100  0.01725500  0.88422700  1
  P  P23  1  0.65675100  0.98274500  0.38422700  1
  O  O24  1  0.46058050  0.26467550  0.63243500  1
  O  O25  1  0.46058050  0.73532450  0.13243500  1
  O  O26  1  0.38740550  0.82866250  0.53208200  1
  O  O27  1  0.38740550  0.17133750  0.03208200  1
  O  O28  1  0.34061300  0.83539600  0.71016400  1
  O  O29  1  0.31285750  0.65427350  0.91387100  1
  O  O30  1  0.34061300  0.16460400  0.21016400  1
  O  O31  1  0.31285750  0.34572650  0.41387100  1
  O  O32  1  0.18714250  0.15427350  0.58612900  1
  O  O33  1  0.15938700  0.33539600  0.78983600  1
  O  O34  1  0.18714250  0.84572650  0.08612900  1
  O  O35  1  0.15938700  0.66460400  0.28983600  1
  O  O36  1  0.11259450  0.32866250  0.96791800  1
  O  O37  1  0.11259450  0.67133750  0.46791800  1
  O  O38  1  0.03941950  0.76467550  0.86756500  1
  O  O39  1  0.03941950  0.23532450  0.36756500  1
  O  O40  1  0.96058050  0.76467550  0.63243500  1
  O  O41  1  0.96058050  0.23532450  0.13243500  1
  O  O42  1  0.88740550  0.32866250  0.53208200  1
  O  O43  1  0.88740550  0.67133750  0.03208200  1
  O  O44  1  0.84061300  0.33539600  0.71016400  1
  O  O45  1  0.81285750  0.15427350  0.91387100  1
  O  O46  1  0.84061300  0.66460400  0.21016400  1
  O  O47  1  0.81285750  0.84572650  0.41387100  1
  O  O48  1  0.68714250  0.65427350  0.58612900  1
  O  O49  1  0.65938700  0.83539600  0.78983600  1
  O  O50  1  0.68714250  0.34572650  0.08612900  1
  O  O51  1  0.65938700  0.16460400  0.28983600  1
  O  O52  1  0.61259450  0.82866250  0.96791800  1
  O  O53  1  0.61259450  0.17133750  0.46791800  1
  O  O54  1  0.53941950  0.26467550  0.86756500  1
  O  O55  1  0.53941950  0.73532450  0.36756500  1
