# generated using pymatgen
data_LiCoSiO4
_symmetry_space_group_name_H-M   'P 1'
_cell_length_a   13.70205868
_cell_length_b   13.70205868
_cell_length_c   9.42998022
_cell_angle_alpha   90.00000000
_cell_angle_beta   90.00000000
_cell_angle_gamma   120.00000000
_symmetry_Int_Tables_number   1
_chemical_formula_structural   LiCoSiO4
_chemical_formula_sum   'Li18 Co18 Si18 O72'
_cell_volume   1533.25030534
_cell_formula_units_Z   18
loop_
 _symmetry_equiv_pos_site_id
 _symmetry_equiv_pos_as_xyz
  1  'x, y, z'
loop_
 _atom_site_type_symbol
 _atom_site_label
 _atom_site_symmetry_multiplicity
 _atom_site_fract_x
 _atom_site_fract_y
 _atom_site_fract_z
 _atom_site_occupancy
  Li  Li0  1  0.80836700  0.79034700  0.24640400  1
  Li  Li1  1  0.79034700  0.98198000  0.75359600  1
  Li  Li2  1  0.01802000  0.80836700  0.75359600  1
  Li  Li3  1  0.98198000  0.19163300  0.24640400  1
  Li  Li4  1  0.20965300  0.01802000  0.24640400  1
  Li  Li5  1  0.19163300  0.20965300  0.75359600  1
  Li  Li6  1  0.47503367  0.12368033  0.57973733  1
  Li  Li7  1  0.45701367  0.31531333  0.08692933  1
  Li  Li8  1  0.68468667  0.14170033  0.08692933  1
  Li  Li9  1  0.64864667  0.52496633  0.57973733  1
  Li  Li10  1  0.87631967  0.35135333  0.57973733  1
  Li  Li11  1  0.85829967  0.54298633  0.08692933  1
  Li  Li12  1  0.14170033  0.45701367  0.91307067  1
  Li  Li13  1  0.12368033  0.64864667  0.42026267  1
  Li  Li14  1  0.35135333  0.47503367  0.42026267  1
  Li  Li15  1  0.31531333  0.85829967  0.91307067  1
  Li  Li16  1  0.54298633  0.68468667  0.91307067  1
  Li  Li17  1  0.52496633  0.87631967  0.42026267  1
  Co  Co18  1  0.80742633  0.78764867  0.58818867  1
  Co  Co19  1  0.78764867  0.98022233  0.41181133  1
  Co  Co20  1  0.01977767  0.80742633  0.41181133  1
  Co  Co21  1  0.98022233  0.19257367  0.58818867  1
  Co  Co22  1  0.21235133  0.01977767  0.58818867  1
  Co  Co23  1  0.19257367  0.21235133  0.41181133  1
  Co  Co24  1  0.47409300  0.12098200  0.92152200  1
  Co  Co25  1  0.45431533  0.31355567  0.74514467  1
  Co  Co26  1  0.68644433  0.14075967  0.74514467  1
  Co  Co27  1  0.64688900  0.52590700  0.92152200  1
  Co  Co28  1  0.87901800  0.35311100  0.92152200  1
  Co  Co29  1  0.85924033  0.54568467  0.74514467  1
  Co  Co30  1  0.14075967  0.45431533  0.25485533  1
  Co  Co31  1  0.12098200  0.64688900  0.07847800  1
  Co  Co32  1  0.35311100  0.47409300  0.07847800  1
  Co  Co33  1  0.31355567  0.85924033  0.25485533  1
  Co  Co34  1  0.54568467  0.68644433  0.25485533  1
  Co  Co35  1  0.52590700  0.87901800  0.07847800  1
  Si  Si36  1  0.54360833  0.68463867  0.58940767  1
  Si  Si37  1  0.85896967  0.54360833  0.41059233  1
  Si  Si38  1  0.68463867  0.14103033  0.41059233  1
  Si  Si39  1  0.31536133  0.85896967  0.58940767  1
  Si  Si40  1  0.14103033  0.45639167  0.58940767  1
  Si  Si41  1  0.45639167  0.31536133  0.41059233  1
  Si  Si42  1  0.21027500  0.01797200  0.92274100  1
  Si  Si43  1  0.52563633  0.87694167  0.74392567  1
  Si  Si44  1  0.35130533  0.47436367  0.74392567  1
  Si  Si45  1  0.98202800  0.19230300  0.92274100  1
  Si  Si46  1  0.80769700  0.78972500  0.92274100  1
  Si  Si47  1  0.12305833  0.64869467  0.74392567  1
  Si  Si48  1  0.87694167  0.35130533  0.25607433  1
  Si  Si49  1  0.19230300  0.21027500  0.07725900  1
  Si  Si50  1  0.01797200  0.80769700  0.07725900  1
  Si  Si51  1  0.64869467  0.52563633  0.25607433  1
  Si  Si52  1  0.47436367  0.12305833  0.25607433  1
  Si  Si53  1  0.78972500  0.98202800  0.07725900  1
  O  O54  1  0.53948500  0.76277800  0.72327500  1
  O  O55  1  0.77670700  0.53948500  0.27672500  1
  O  O56  1  0.65334700  0.66934300  0.59779700  1
  O  O57  1  0.98400400  0.65334700  0.40220300  1
  O  O58  1  0.86972333  0.79855867  0.77164967  1
  O  O59  1  0.87256667  0.78816133  0.42582533  1
  O  O60  1  0.66934300  0.01599600  0.40220300  1
  O  O61  1  0.78816133  0.91559467  0.57417467  1
  O  O62  1  0.79855867  0.92883533  0.22835033  1
  O  O63  1  0.07116467  0.86972333  0.22835033  1
  O  O64  1  0.08440533  0.87256667  0.57417467  1
  O  O65  1  0.76277800  0.22329300  0.27672500  1
  O  O66  1  0.23722200  0.77670700  0.72327500  1
  O  O67  1  0.91559467  0.12743333  0.42582533  1
  O  O68  1  0.92883533  0.13027667  0.77164967  1
  O  O69  1  0.20144133  0.07116467  0.77164967  1
  O  O70  1  0.21183867  0.08440533  0.42582533  1
  O  O71  1  0.33065700  0.98400400  0.59779700  1
  O  O72  1  0.12743333  0.21183867  0.57417467  1
  O  O73  1  0.13027667  0.20144133  0.22835033  1
  O  O74  1  0.01599600  0.34665300  0.59779700  1
  O  O75  1  0.34665300  0.33065700  0.40220300  1
  O  O76  1  0.22329300  0.46051500  0.72327500  1
  O  O77  1  0.46051500  0.23722200  0.27672500  1
  O  O78  1  0.20615167  0.09611133  0.05660833  1
  O  O79  1  0.44337367  0.87281833  0.61005833  1
  O  O80  1  0.32001367  0.00267633  0.93113033  1
  O  O81  1  0.65067067  0.98668033  0.73553633  1
  O  O82  1  0.53639000  0.13189200  0.10498300  1
  O  O83  1  0.53923333  0.12149467  0.75915867  1
  O  O84  1  0.33600967  0.34932933  0.73553633  1
  O  O85  1  0.45482800  0.24892800  0.90750800  1
  O  O86  1  0.46522533  0.26216867  0.56168367  1
  O  O87  1  0.73783133  0.20305667  0.56168367  1
  O  O88  1  0.75107200  0.20590000  0.90750800  1
  O  O89  1  0.42944467  0.55662633  0.61005833  1
  O  O90  1  0.90388867  0.11004033  0.05660833  1
  O  O91  1  0.58226133  0.46076667  0.75915867  1
  O  O92  1  0.59550200  0.46361000  0.10498300  1
  O  O93  1  0.86810800  0.40449800  0.10498300  1
  O  O94  1  0.87850533  0.41773867  0.75915867  1
  O  O95  1  0.99732367  0.31733733  0.93113033  1
  O  O96  1  0.79410000  0.54517200  0.90750800  1
  O  O97  1  0.79694333  0.53477467  0.56168367  1
  O  O98  1  0.68266267  0.67998633  0.93113033  1
  O  O99  1  0.01331967  0.66399033  0.73553633  1
  O  O100  1  0.88995967  0.79384833  0.05660833  1
  O  O101  1  0.12718167  0.57055533  0.61005833  1
  O  O102  1  0.87281833  0.42944467  0.38994167  1
  O  O103  1  0.11004033  0.20615167  0.94339167  1
  O  O104  1  0.98668033  0.33600967  0.26446367  1
  O  O105  1  0.31733733  0.32001367  0.06886967  1
  O  O106  1  0.20305667  0.46522533  0.43831633  1
  O  O107  1  0.20590000  0.45482800  0.09249200  1
  O  O108  1  0.00267633  0.68266267  0.06886967  1
  O  O109  1  0.12149467  0.58226133  0.24084133  1
  O  O110  1  0.13189200  0.59550200  0.89501700  1
  O  O111  1  0.40449800  0.53639000  0.89501700  1
  O  O112  1  0.41773867  0.53923333  0.24084133  1
  O  O113  1  0.09611133  0.88995967  0.94339167  1
  O  O114  1  0.57055533  0.44337367  0.38994167  1
  O  O115  1  0.24892800  0.79410000  0.09249200  1
  O  O116  1  0.26216867  0.79694333  0.43831633  1
  O  O117  1  0.53477467  0.73783133  0.43831633  1
  O  O118  1  0.54517200  0.75107200  0.09249200  1
  O  O119  1  0.66399033  0.65067067  0.26446367  1
  O  O120  1  0.46076667  0.87850533  0.24084133  1
  O  O121  1  0.46361000  0.86810800  0.89501700  1
  O  O122  1  0.34932933  0.01331967  0.26446367  1
  O  O123  1  0.67998633  0.99732367  0.06886967  1
  O  O124  1  0.55662633  0.12718167  0.38994167  1
  O  O125  1  0.79384833  0.90388867  0.94339167  1
