# generated using pymatgen
data_Sr4Mn2CoO9
_symmetry_space_group_name_H-M   'P 1'
_cell_length_a   9.69705031
_cell_length_b   9.69705031
_cell_length_c   7.88733400
_cell_angle_alpha   90.00000000
_cell_angle_beta   90.00000000
_cell_angle_gamma   120.00000000
_symmetry_Int_Tables_number   1
_chemical_formula_structural   Sr4Mn2CoO9
_chemical_formula_sum   'Sr12 Mn6 Co3 O27'
_cell_volume   642.30331188
_cell_formula_units_Z   3
loop_
 _symmetry_equiv_pos_site_id
 _symmetry_equiv_pos_as_xyz
  1  'x, y, z'
loop_
 _atom_site_type_symbol
 _atom_site_label
 _atom_site_symmetry_multiplicity
 _atom_site_fract_x
 _atom_site_fract_y
 _atom_site_fract_z
 _atom_site_occupancy
  Sr  Sr0  1  0.33345200  0.30955100  0.75020100  1
  Sr  Sr1  1  0.66654800  0.97609900  0.24979900  1
  Sr  Sr2  1  0.00000000  0.35751250  0.50000000  1
  Sr  Sr3  1  0.64248750  0.64248750  0.50000000  1
  Sr  Sr4  1  0.30955100  0.33345200  0.24979900  1
  Sr  Sr5  1  0.00000000  0.32759850  0.00000000  1
  Sr  Sr6  1  0.67240150  0.67240150  0.00000000  1
  Sr  Sr7  1  0.97609900  0.66654800  0.75020100  1
  Sr  Sr8  1  0.35751250  0.00000000  0.50000000  1
  Sr  Sr9  1  0.02390100  0.69044900  0.24979900  1
  Sr  Sr10  1  0.32759850  0.00000000  0.00000000  1
  Sr  Sr11  1  0.69044900  0.02390100  0.75020100  1
  Mn  Mn12  1  0.00000000  0.00000000  0.83536000  1
  Mn  Mn13  1  0.66666667  0.33333333  0.92775100  1
  Mn  Mn14  1  0.33333333  0.66666667  0.07224900  1
  Mn  Mn15  1  0.33333333  0.66666667  0.40538600  1
  Mn  Mn16  1  0.00000000  0.00000000  0.16464000  1
  Mn  Mn17  1  0.66666667  0.33333333  0.59461400  1
  Co  Co18  1  0.66666667  0.33333333  0.25897400  1
  Co  Co19  1  0.00000000  0.00000000  0.50000000  1
  Co  Co20  1  0.33333333  0.66666667  0.74102600  1
  O  O21  1  0.68219700  0.18152800  0.45565100  1
  O  O22  1  0.83507500  0.84292200  0.69785700  1
  O  O23  1  0.34871900  0.82964900  0.24044100  1
  O  O24  1  0.31780300  0.49933100  0.54434900  1
  O  O25  1  0.49933100  0.31780300  0.45565100  1
  O  O26  1  0.00000000  0.84773550  0.00000000  1
  O  O27  1  0.17035100  0.51907000  0.24044100  1
  O  O28  1  0.18295400  0.67944300  0.93412700  1
  O  O29  1  0.67944300  0.18295400  0.06587300  1
  O  O30  1  0.82964900  0.34871900  0.75955900  1
  O  O31  1  0.32055700  0.50351100  0.93412700  1
  O  O32  1  0.16492500  0.00784700  0.30214300  1
  O  O33  1  0.18152800  0.68219700  0.54434900  1
  O  O34  1  0.81847200  0.50066900  0.45565100  1
  O  O35  1  0.84773550  0.00000000  0.00000000  1
  O  O36  1  0.15226450  0.15226450  0.00000000  1
  O  O37  1  0.65128100  0.48093000  0.75955900  1
  O  O38  1  0.49648900  0.81704600  0.93412700  1
  O  O39  1  0.99215300  0.15707800  0.30214300  1
  O  O40  1  0.00784700  0.16492500  0.69785700  1
  O  O41  1  0.50351100  0.32055700  0.06587300  1
  O  O42  1  0.48093000  0.65128100  0.24044100  1
  O  O43  1  0.50066900  0.81847200  0.54434900  1
  O  O44  1  0.84292200  0.83507500  0.30214300  1
  O  O45  1  0.15707800  0.99215300  0.69785700  1
  O  O46  1  0.51907000  0.17035100  0.75955900  1
  O  O47  1  0.81704600  0.49648900  0.06587300  1
