# generated using pymatgen
data_Li5MnF8
_symmetry_space_group_name_H-M   'P 1'
_cell_length_a   5.71584800
_cell_length_b   5.83569000
_cell_length_c   8.89265800
_cell_angle_alpha   90.00000000
_cell_angle_beta   90.00000000
_cell_angle_gamma   90.00000000
_symmetry_Int_Tables_number   1
_chemical_formula_structural   Li5MnF8
_chemical_formula_sum   'Li10 Mn2 F16'
_cell_volume   296.62276229
_cell_formula_units_Z   2
loop_
 _symmetry_equiv_pos_site_id
 _symmetry_equiv_pos_as_xyz
  1  'x, y, z'
loop_
 _atom_site_type_symbol
 _atom_site_label
 _atom_site_symmetry_multiplicity
 _atom_site_fract_x
 _atom_site_fract_y
 _atom_site_fract_z
 _atom_site_occupancy
  Li  Li0  1  0.25000000  0.75000000  0.75000000  1
  Li  Li1  1  0.75000000  0.75000000  0.75000000  1
  Li  Li2  1  0.00000000  0.50000000  0.00000000  1
  Li  Li3  1  0.25000000  0.25000000  0.75000000  1
  Li  Li4  1  0.75000000  0.25000000  0.75000000  1
  Li  Li5  1  0.75000000  0.25000000  0.25000000  1
  Li  Li6  1  0.25000000  0.25000000  0.25000000  1
  Li  Li7  1  0.50000000  0.00000000  0.50000000  1
  Li  Li8  1  0.75000000  0.75000000  0.25000000  1
  Li  Li9  1  0.25000000  0.75000000  0.25000000  1
  Mn  Mn10  1  0.00000000  0.00000000  0.00000000  1
  Mn  Mn11  1  0.50000000  0.50000000  0.50000000  1
  F  F12  1  0.50000000  0.00000000  0.72581300  1
  F  F13  1  0.22718200  0.23299200  0.00000000  1
  F  F14  1  0.00000000  0.00000000  0.76125800  1
  F  F15  1  0.77281800  0.23299200  0.00000000  1
  F  F16  1  0.72718200  0.26700800  0.50000000  1
  F  F17  1  0.50000000  0.50000000  0.73874200  1
  F  F18  1  0.77281800  0.76700800  0.00000000  1
  F  F19  1  0.00000000  0.50000000  0.77418700  1
  F  F20  1  0.00000000  0.50000000  0.22581300  1
  F  F21  1  0.72718200  0.73299200  0.50000000  1
  F  F22  1  0.50000000  0.50000000  0.26125800  1
  F  F23  1  0.27281800  0.73299200  0.50000000  1
  F  F24  1  0.22718200  0.76700800  0.00000000  1
  F  F25  1  0.00000000  0.00000000  0.23874200  1
  F  F26  1  0.27281800  0.26700800  0.50000000  1
  F  F27  1  0.50000000  0.00000000  0.27418700  1
