# generated using pymatgen
data_Mn3Ni2Te3O16
_symmetry_space_group_name_H-M   'P 1'
_cell_length_a   10.67702600
_cell_length_b   6.04852600
_cell_length_c   9.13999868
_cell_angle_alpha   90.00000000
_cell_angle_beta   91.21904418
_cell_angle_gamma   90.00000000
_symmetry_Int_Tables_number   1
_chemical_formula_structural   Mn3Ni2Te3O16
_chemical_formula_sum   'Mn6 Ni4 Te6 O32'
_cell_volume   590.12998083
_cell_formula_units_Z   2
loop_
 _symmetry_equiv_pos_site_id
 _symmetry_equiv_pos_as_xyz
  1  'x, y, z'
loop_
 _atom_site_type_symbol
 _atom_site_label
 _atom_site_symmetry_multiplicity
 _atom_site_fract_x
 _atom_site_fract_y
 _atom_site_fract_z
 _atom_site_occupancy
  Mn  Mn0  1  0.83232500  0.00000000  0.21513800  1
  Mn  Mn1  1  0.91489700  0.74968200  0.71032900  1
  Mn  Mn2  1  0.91489700  0.25031800  0.71032900  1
  Mn  Mn3  1  0.33232500  0.50000000  0.21513800  1
  Mn  Mn4  1  0.41489700  0.24968200  0.71032900  1
  Mn  Mn5  1  0.41489700  0.75031800  0.71032900  1
  Ni  Ni6  1  0.67436400  0.00000000  0.50910600  1
  Ni  Ni7  1  0.84509600  0.50000000  0.97913100  1
  Ni  Ni8  1  0.17436400  0.50000000  0.50910600  1
  Ni  Ni9  1  0.34509600  0.00000000  0.97913100  1
  Te  Te10  1  0.58287150  0.24894050  0.21273600  1
  Te  Te11  1  0.58287150  0.75105950  0.21273600  1
  Te  Te12  1  0.66646200  0.50000000  0.71230900  1
  Te  Te13  1  0.08287150  0.74894050  0.21273600  1
  Te  Te14  1  0.08287150  0.25105950  0.21273600  1
  Te  Te15  1  0.16646200  0.00000000  0.71230900  1
  O  O16  1  0.58367850  0.26078150  0.60269700  1
  O  O17  1  0.51882100  0.00000000  0.33807000  1
  O  O18  1  0.64541600  0.00000000  0.08678800  1
  O  O19  1  0.51792800  0.50000000  0.33134500  1
  O  O20  1  0.50786200  0.50000000  0.82091300  1
  O  O21  1  0.58367850  0.73921850  0.60269700  1
  O  O22  1  0.73425250  0.22466750  0.32762100  1
  O  O23  1  0.73425250  0.77533250  0.32762100  1
  O  O24  1  0.65890200  0.50000000  0.09989300  1
  O  O25  1  0.84310700  0.00000000  0.60752700  1
  O  O26  1  0.75995400  0.71951700  0.83525200  1
  O  O27  1  0.75995400  0.28048300  0.83525200  1
  O  O28  1  0.82261500  0.50000000  0.59612400  1
  O  O29  1  0.92493250  0.75676750  0.10985900  1
  O  O30  1  0.97618900  0.50000000  0.82155400  1
  O  O31  1  0.92493250  0.24323250  0.10985900  1
  O  O32  1  0.08367850  0.76078150  0.60269700  1
  O  O33  1  0.01882100  0.50000000  0.33807000  1
  O  O34  1  0.14541600  0.50000000  0.08678800  1
  O  O35  1  0.01792800  0.00000000  0.33134500  1
  O  O36  1  0.00786200  0.00000000  0.82091300  1
  O  O37  1  0.08367850  0.23921850  0.60269700  1
  O  O38  1  0.23425250  0.72466750  0.32762100  1
  O  O39  1  0.23425250  0.27533250  0.32762100  1
  O  O40  1  0.15890200  0.00000000  0.09989300  1
  O  O41  1  0.34310700  0.50000000  0.60752700  1
  O  O42  1  0.25995400  0.21951700  0.83525200  1
  O  O43  1  0.25995400  0.78048300  0.83525200  1
  O  O44  1  0.32261500  0.00000000  0.59612400  1
  O  O45  1  0.42493250  0.25676750  0.10985900  1
  O  O46  1  0.47618900  0.00000000  0.82155400  1
  O  O47  1  0.42493250  0.74323250  0.10985900  1
