# generated using pymatgen
data_Li2Cr(PO3)4
_symmetry_space_group_name_H-M   'P 1'
_cell_length_a   10.09987600
_cell_length_b   12.77868200
_cell_length_c   8.21540696
_cell_angle_alpha   90.00000000
_cell_angle_beta   100.90982254
_cell_angle_gamma   90.00000000
_symmetry_Int_Tables_number   1
_chemical_formula_structural   Li2Cr(PO3)4
_chemical_formula_sum   'Li8 Cr4 P16 O48'
_cell_volume   1041.14224830
_cell_formula_units_Z   4
loop_
 _symmetry_equiv_pos_site_id
 _symmetry_equiv_pos_as_xyz
  1  'x, y, z'
loop_
 _atom_site_type_symbol
 _atom_site_label
 _atom_site_symmetry_multiplicity
 _atom_site_fract_x
 _atom_site_fract_y
 _atom_site_fract_z
 _atom_site_occupancy
  Li  Li0  1  0.36726950  0.18550050  0.93260600  1
  Li  Li1  1  0.36726950  0.81449950  0.43260600  1
  Li  Li2  1  0.63785450  0.18578850  0.56903800  1
  Li  Li3  1  0.63785450  0.81421150  0.06903800  1
  Li  Li4  1  0.86726950  0.68550050  0.93260600  1
  Li  Li5  1  0.86726950  0.31449950  0.43260600  1
  Li  Li6  1  0.13785450  0.68578850  0.56903800  1
  Li  Li7  1  0.13785450  0.31421150  0.06903800  1
  Cr  Cr8  1  0.53652850  0.64472950  0.74228600  1
  Cr  Cr9  1  0.53652850  0.35527050  0.24228600  1
  Cr  Cr10  1  0.03652850  0.14472950  0.74228600  1
  Cr  Cr11  1  0.03652850  0.85527050  0.24228600  1
  P  P12  1  0.15792350  0.91575050  0.68805900  1
  P  P13  1  0.15792350  0.08424950  0.18805900  1
  P  P14  1  0.36543050  0.81334450  0.92709400  1
  P  P15  1  0.36543050  0.18665550  0.42709400  1
  P  P16  1  0.68150950  0.82630950  0.57588500  1
  P  P17  1  0.68150950  0.17369050  0.07588500  1
  P  P18  1  0.90139150  0.92307250  0.81727200  1
  P  P19  1  0.90139150  0.07692750  0.31727200  1
  P  P20  1  0.65792350  0.41575050  0.68805900  1
  P  P21  1  0.65792350  0.58424950  0.18805900  1
  P  P22  1  0.86543050  0.31334450  0.92709400  1
  P  P23  1  0.86543050  0.68665550  0.42709400  1
  P  P24  1  0.18150950  0.32630950  0.57588500  1
  P  P25  1  0.18150950  0.67369050  0.07588500  1
  P  P26  1  0.40139150  0.42307250  0.81727200  1
  P  P27  1  0.40139150  0.57692750  0.31727200  1
  O  O28  1  0.13844050  0.02874550  0.64377400  1
  O  O29  1  0.19068050  0.83916450  0.56053500  1
  O  O30  1  0.13844050  0.97125450  0.14377400  1
  O  O31  1  0.19068050  0.16083550  0.06053500  1
  O  O32  1  0.27383450  0.91234750  0.85313900  1
  O  O33  1  0.27383450  0.08765250  0.35313900  1
  O  O34  1  0.36974800  0.35367900  0.95341100  1
  O  O35  1  0.44098950  0.77798950  0.79543800  1
  O  O36  1  0.36974800  0.64632100  0.45341100  1
  O  O37  1  0.44837200  0.15763900  0.59090900  1
  O  O38  1  0.44098950  0.22201050  0.29543800  1
  O  O39  1  0.44837200  0.84236100  0.09090900  1
  O  O40  1  0.52830200  0.36918900  0.75314800  1
  O  O41  1  0.55200050  0.12639550  0.99304900  1
  O  O42  1  0.52830200  0.63081100  0.25314800  1
  O  O43  1  0.55200050  0.87360450  0.49304900  1
  O  O44  1  0.68820600  0.74385700  0.70954900  1
  O  O45  1  0.75384600  0.22249000  0.93215500  1
  O  O46  1  0.68820600  0.25614300  0.20954900  1
  O  O47  1  0.75384600  0.77751000  0.43215500  1
  O  O48  1  0.78338250  0.91864350  0.65372500  1
  O  O49  1  0.78338250  0.08135650  0.15372500  1
  O  O50  1  0.92495750  0.03773250  0.84831000  1
  O  O51  1  0.92495750  0.96226750  0.34831000  1
  O  O52  1  0.63844050  0.52874550  0.64377400  1
  O  O53  1  0.69068050  0.33916450  0.56053500  1
  O  O54  1  0.63844050  0.47125450  0.14377400  1
  O  O55  1  0.69068050  0.66083550  0.06053500  1
  O  O56  1  0.77383450  0.41234750  0.85313900  1
  O  O57  1  0.77383450  0.58765250  0.35313900  1
  O  O58  1  0.86974800  0.85367900  0.95341100  1
  O  O59  1  0.94098950  0.27798950  0.79543800  1
  O  O60  1  0.86974800  0.14632100  0.45341100  1
  O  O61  1  0.94837200  0.65763900  0.59090900  1
  O  O62  1  0.94098950  0.72201050  0.29543800  1
  O  O63  1  0.94837200  0.34236100  0.09090900  1
  O  O64  1  0.02830200  0.86918900  0.75314800  1
  O  O65  1  0.05200050  0.62639550  0.99304900  1
  O  O66  1  0.02830200  0.13081100  0.25314800  1
  O  O67  1  0.05200050  0.37360450  0.49304900  1
  O  O68  1  0.18820600  0.24385700  0.70954900  1
  O  O69  1  0.25384600  0.72249000  0.93215500  1
  O  O70  1  0.18820600  0.75614300  0.20954900  1
  O  O71  1  0.25384600  0.27751000  0.43215500  1
  O  O72  1  0.28338250  0.41864350  0.65372500  1
  O  O73  1  0.28338250  0.58135650  0.15372500  1
  O  O74  1  0.42495750  0.53773250  0.84831000  1
  O  O75  1  0.42495750  0.46226750  0.34831000  1
