# generated using pymatgen
data_Li8La4TiNb7O28
_symmetry_space_group_name_H-M   'P 1'
_cell_length_a   8.00506200
_cell_length_b   7.99834600
_cell_length_c   18.45094304
_cell_angle_alpha   90.00000000
_cell_angle_beta   90.02691056
_cell_angle_gamma   90.00000000
_symmetry_Int_Tables_number   1
_chemical_formula_structural   Li8La4TiNb7O28
_chemical_formula_sum   'Li16 La8 Ti2 Nb14 O56'
_cell_volume   1181.36311597
_cell_formula_units_Z   2
loop_
 _symmetry_equiv_pos_site_id
 _symmetry_equiv_pos_as_xyz
  1  'x, y, z'
loop_
 _atom_site_type_symbol
 _atom_site_label
 _atom_site_symmetry_multiplicity
 _atom_site_fract_x
 _atom_site_fract_y
 _atom_site_fract_z
 _atom_site_occupancy
  Li  Li0  1  0.00334800  0.00000000  0.76124700  1
  Li  Li1  1  0.24968200  0.24555600  0.74614200  1
  Li  Li2  1  0.00085700  0.00000000  0.23678700  1
  Li  Li3  1  0.25000950  0.24904450  0.25146900  1
  Li  Li4  1  0.24968200  0.75444400  0.74614200  1
  Li  Li5  1  0.49331100  0.00000000  0.73228700  1
  Li  Li6  1  0.25000950  0.75095550  0.25146900  1
  Li  Li7  1  0.49876300  0.00000000  0.26541500  1
  Li  Li8  1  0.50334800  0.50000000  0.76124700  1
  Li  Li9  1  0.74968200  0.74555600  0.74614200  1
  Li  Li10  1  0.50085700  0.50000000  0.23678700  1
  Li  Li11  1  0.75000950  0.74904450  0.25146900  1
  Li  Li12  1  0.74968200  0.25444400  0.74614200  1
  Li  Li13  1  0.99331100  0.50000000  0.73228700  1
  Li  Li14  1  0.75000950  0.25095550  0.25146900  1
  Li  Li15  1  0.99876300  0.50000000  0.26541500  1
  La  La16  1  0.24020600  0.00000000  0.99987600  1
  La  La17  1  0.49873300  0.24032000  0.50577500  1
  La  La18  1  0.49873300  0.75968000  0.50577500  1
  La  La19  1  0.75977700  0.00000000  0.99988200  1
  La  La20  1  0.74020600  0.50000000  0.99987600  1
  La  La21  1  0.99873300  0.74032000  0.50577500  1
  La  La22  1  0.99873300  0.25968000  0.50577500  1
  La  La23  1  0.25977700  0.50000000  0.99988200  1
  Ti  Ti24  1  0.24821900  0.00000000  0.61550100  1
  Ti  Ti25  1  0.74821900  0.50000000  0.61550100  1
  Nb  Nb26  1  0.24778800  0.00000000  0.38659900  1
  Nb  Nb27  1  0.50000250  0.24767550  0.88407300  1
  Nb  Nb28  1  0.50004650  0.24768850  0.11556700  1
  Nb  Nb29  1  0.50000250  0.75232450  0.88407300  1
  Nb  Nb30  1  0.50004650  0.75231150  0.11556700  1
  Nb  Nb31  1  0.75205200  0.00000000  0.61591000  1
  Nb  Nb32  1  0.75196600  0.00000000  0.38498800  1
  Nb  Nb33  1  0.74778800  0.50000000  0.38659900  1
  Nb  Nb34  1  0.00000250  0.74767550  0.88407300  1
  Nb  Nb35  1  0.00004650  0.74768850  0.11556700  1
  Nb  Nb36  1  0.00000250  0.25232450  0.88407300  1
  Nb  Nb37  1  0.00004650  0.25231150  0.11556700  1
  Nb  Nb38  1  0.25205200  0.50000000  0.61591000  1
  Nb  Nb39  1  0.25196600  0.50000000  0.38498800  1
  O  O40  1  0.00033000  0.00000000  0.88058000  1
  O  O41  1  0.25001350  0.24992850  0.90460100  1
  O  O42  1  0.00075300  0.00000000  0.58451500  1
  O  O43  1  0.25044600  0.24866800  0.59695700  1
  O  O44  1  0.99968300  0.00000000  0.41707400  1
  O  O45  1  0.75011850  0.75054050  0.40255600  1
  O  O46  1  0.00011000  0.00000000  0.12001000  1
  O  O47  1  0.25002900  0.24998800  0.09580100  1
  O  O48  1  0.50000100  0.30103300  0.00014100  1
  O  O49  1  0.22868100  0.00000000  0.71373000  1
  O  O50  1  0.22664600  0.00000000  0.28330000  1
  O  O51  1  0.50005500  0.22617100  0.78236000  1
  O  O52  1  0.50013950  0.22617050  0.21757500  1
  O  O53  1  0.30098400  0.00000000  0.49963000  1
  O  O54  1  0.49992200  0.00000000  0.91753100  1
  O  O55  1  0.25001350  0.75007150  0.90460100  1
  O  O56  1  0.25044600  0.75133200  0.59695700  1
  O  O57  1  0.49918500  0.00000000  0.61754100  1
  O  O58  1  0.25002900  0.75001200  0.09580100  1
  O  O59  1  0.50002800  0.00000000  0.08267400  1
  O  O60  1  0.75011850  0.24945950  0.40255600  1
  O  O61  1  0.50065800  0.00000000  0.37874700  1
  O  O62  1  0.70080200  0.00000000  0.49984800  1
  O  O63  1  0.50005500  0.77382900  0.78236000  1
  O  O64  1  0.50013950  0.77382950  0.21757500  1
  O  O65  1  0.77304600  0.00000000  0.71796500  1
  O  O66  1  0.77433000  0.00000000  0.28232900  1
  O  O67  1  0.50000100  0.69896700  0.00014100  1
  O  O68  1  0.50033000  0.50000000  0.88058000  1
  O  O69  1  0.75001350  0.74992850  0.90460100  1
  O  O70  1  0.50075300  0.50000000  0.58451500  1
  O  O71  1  0.75044600  0.74866800  0.59695700  1
  O  O72  1  0.49968300  0.50000000  0.41707400  1
  O  O73  1  0.25011850  0.25054050  0.40255600  1
  O  O74  1  0.50011000  0.50000000  0.12001000  1
  O  O75  1  0.75002900  0.74998800  0.09580100  1
  O  O76  1  0.00000100  0.80103300  0.00014100  1
  O  O77  1  0.72868100  0.50000000  0.71373000  1
  O  O78  1  0.72664600  0.50000000  0.28330000  1
  O  O79  1  0.00005500  0.72617100  0.78236000  1
  O  O80  1  0.00013950  0.72617050  0.21757500  1
  O  O81  1  0.80098400  0.50000000  0.49963000  1
  O  O82  1  0.99992200  0.50000000  0.91753100  1
  O  O83  1  0.75001350  0.25007150  0.90460100  1
  O  O84  1  0.75044600  0.25133200  0.59695700  1
  O  O85  1  0.99918500  0.50000000  0.61754100  1
  O  O86  1  0.75002900  0.25001200  0.09580100  1
  O  O87  1  0.00002800  0.50000000  0.08267400  1
  O  O88  1  0.25011850  0.74945950  0.40255600  1
  O  O89  1  0.00065800  0.50000000  0.37874700  1
  O  O90  1  0.20080200  0.50000000  0.49984800  1
  O  O91  1  0.00005500  0.27382900  0.78236000  1
  O  O92  1  0.00013950  0.27382950  0.21757500  1
  O  O93  1  0.27304600  0.50000000  0.71796500  1
  O  O94  1  0.27433000  0.50000000  0.28232900  1
  O  O95  1  0.00000100  0.19896700  0.00014100  1
