# generated using pymatgen
data_Li2CoSiO4
_symmetry_space_group_name_H-M   'P 1'
_cell_length_a   5.01025383
_cell_length_b   5.40034679
_cell_length_c   8.05571282
_cell_angle_alpha   90.00000000
_cell_angle_beta   128.30943424
_cell_angle_gamma   90.00000000
_symmetry_Int_Tables_number   1
_chemical_formula_structural   Li2CoSiO4
_chemical_formula_sum   'Li4 Co2 Si2 O8'
_cell_volume   171.03098089
_cell_formula_units_Z   2
loop_
 _symmetry_equiv_pos_site_id
 _symmetry_equiv_pos_as_xyz
  1  'x, y, z'
loop_
 _atom_site_type_symbol
 _atom_site_label
 _atom_site_symmetry_multiplicity
 _atom_site_fract_x
 _atom_site_fract_y
 _atom_site_fract_z
 _atom_site_occupancy
  Li  Li0  1  0.49388250  0.32362975  0.99908050  1
  Li  Li1  1  0.49388250  0.67637025  0.49908050  1
  Li  Li2  1  0.24406900  0.84402725  0.74760350  1
  Li  Li3  1  0.24406900  0.15597275  0.24760350  1
  Co  Co4  1  0.98686850  0.33008875  0.49251750  1
  Co  Co5  1  0.98686850  0.66991125  0.99251750  1
  Si  Si6  1  0.73662350  0.17302875  0.74741100  1
  Si  Si7  1  0.73662350  0.82697125  0.24741100  1
  O  O8  1  0.05995350  0.31569475  0.96349050  1
  O  O9  1  0.05995350  0.68430525  0.46349050  1
  O  O10  1  0.84357800  0.88284425  0.74816650  1
  O  O11  1  0.84357800  0.11715575  0.24816650  1
  O  O12  1  0.40555300  0.18031825  0.74654300  1
  O  O13  1  0.40555300  0.81968175  0.24654300  1
  O  O14  1  0.62684950  0.31627675  0.53099650  1
  O  O15  1  0.62684950  0.68372325  0.03099650  1
