# generated using pymatgen
data_LiMn2P2HO8
_symmetry_space_group_name_H-M   'P 1'
_cell_length_a   5.16799306
_cell_length_b   8.75643715
_cell_length_c   8.89772601
_cell_angle_alpha   94.83791008
_cell_angle_beta   105.41813513
_cell_angle_gamma   101.76370452
_symmetry_Int_Tables_number   1
_chemical_formula_structural   LiMn2P2HO8
_chemical_formula_sum   'Li2 Mn4 P4 H2 O16'
_cell_volume   375.89049407
_cell_formula_units_Z   2
loop_
 _symmetry_equiv_pos_site_id
 _symmetry_equiv_pos_as_xyz
  1  'x, y, z'
loop_
 _atom_site_type_symbol
 _atom_site_label
 _atom_site_symmetry_multiplicity
 _atom_site_fract_x
 _atom_site_fract_y
 _atom_site_fract_z
 _atom_site_occupancy
  Li  Li0  1  0.61374900  0.80495800  0.29667600  1
  Li  Li1  1  0.38625100  0.19504200  0.70332400  1
  Mn  Mn2  1  0.77317900  0.21660800  0.39474700  1
  Mn  Mn3  1  0.22682100  0.78339200  0.60525300  1
  Mn  Mn4  1  0.32880900  0.40406800  0.12200400  1
  Mn  Mn5  1  0.67119100  0.59593200  0.87799600  1
  P  P6  1  0.86519800  0.93654300  0.74993600  1
  P  P7  1  0.13480200  0.06345700  0.25006400  1
  P  P8  1  0.10035400  0.42778000  0.74350100  1
  P  P9  1  0.89964600  0.57222000  0.25649900  1
  H  H10  1  0.90008000  0.12320600  0.93922400  1
  H  H11  1  0.09992000  0.87679400  0.06077600  1
  O  O12  1  0.10523600  0.17773000  0.12590600  1
  O  O13  1  0.89476400  0.82227000  0.87409400  1
  O  O14  1  0.37416200  0.13338400  0.40004300  1
  O  O15  1  0.62583800  0.86661600  0.59995700  1
  O  O16  1  0.81770500  0.42876000  0.76841200  1
  O  O17  1  0.18229500  0.57124000  0.23158800  1
  O  O18  1  0.14021100  0.98526700  0.70905900  1
  O  O19  1  0.85978900  0.01473300  0.29094100  1
  O  O20  1  0.73793200  0.40085000  0.26342800  1
  O  O21  1  0.26206800  0.59915000  0.73657200  1
  O  O22  1  0.78948100  0.08809900  0.82504700  1
  O  O23  1  0.21051900  0.91190100  0.17495300  1
  O  O24  1  0.69716400  0.62556100  0.11726500  1
  O  O25  1  0.30283600  0.37443900  0.88273500  1
  O  O26  1  0.92202400  0.68623100  0.40363500  1
  O  O27  1  0.07797600  0.31376900  0.59636500  1
