# generated using pymatgen
data_Li4Mn2Cr3Fe3O16
_symmetry_space_group_name_H-M   'P 1'
_cell_length_a   10.22645800
_cell_length_b   5.88452400
_cell_length_c   9.44459975
_cell_angle_alpha   90.00000000
_cell_angle_beta   90.86074913
_cell_angle_gamma   90.00000000
_symmetry_Int_Tables_number   1
_chemical_formula_structural   Li4Mn2Cr3Fe3O16
_chemical_formula_sum   'Li8 Mn4 Cr6 Fe6 O32'
_cell_volume   568.29145482
_cell_formula_units_Z   2
loop_
 _symmetry_equiv_pos_site_id
 _symmetry_equiv_pos_as_xyz
  1  'x, y, z'
loop_
 _atom_site_type_symbol
 _atom_site_label
 _atom_site_symmetry_multiplicity
 _atom_site_fract_x
 _atom_site_fract_y
 _atom_site_fract_z
 _atom_site_occupancy
  Li  Li0  1  0.66655100  0.00000000  0.89710000  1
  Li  Li1  1  0.99695800  0.00000000  0.99429100  1
  Li  Li2  1  0.99965000  0.00000000  0.49491300  1
  Li  Li3  1  0.83225500  0.50000000  0.39762600  1
  Li  Li4  1  0.16655100  0.50000000  0.89710000  1
  Li  Li5  1  0.49695800  0.50000000  0.99429100  1
  Li  Li6  1  0.49965000  0.50000000  0.49491300  1
  Li  Li7  1  0.33225500  0.00000000  0.39762600  1
  Mn  Mn8  1  0.66563500  0.00000000  0.48337800  1
  Mn  Mn9  1  0.83230400  0.50000000  0.98378100  1
  Mn  Mn10  1  0.16563500  0.50000000  0.48337800  1
  Mn  Mn11  1  0.33230400  0.00000000  0.98378100  1
  Cr  Cr12  1  0.58480600  0.24307900  0.21268300  1
  Cr  Cr13  1  0.58480600  0.75692100  0.21268300  1
  Cr  Cr14  1  0.67071100  0.50000000  0.71238200  1
  Cr  Cr15  1  0.08480600  0.74307900  0.21268300  1
  Cr  Cr16  1  0.08480600  0.25692100  0.21268300  1
  Cr  Cr17  1  0.17071100  0.00000000  0.71238200  1
  Fe  Fe18  1  0.83039000  0.00000000  0.21331300  1
  Fe  Fe19  1  0.91548050  0.74484750  0.71197200  1
  Fe  Fe20  1  0.91548050  0.25515250  0.71197200  1
  Fe  Fe21  1  0.33039000  0.50000000  0.21331300  1
  Fe  Fe22  1  0.41548050  0.24484750  0.71197200  1
  Fe  Fe23  1  0.41548050  0.75515250  0.71197200  1
  O  O24  1  0.58298200  0.24644300  0.59639000  1
  O  O25  1  0.52008200  0.00000000  0.34020600  1
  O  O26  1  0.66330900  0.00000000  0.10384000  1
  O  O27  1  0.50196400  0.50000000  0.30745800  1
  O  O28  1  0.50153500  0.50000000  0.80660900  1
  O  O29  1  0.58298200  0.75355700  0.59639000  1
  O  O30  1  0.73794250  0.21775350  0.34538100  1
  O  O31  1  0.73794250  0.78224650  0.34538100  1
  O  O32  1  0.66413900  0.50000000  0.10110500  1
  O  O33  1  0.82993200  0.00000000  0.59786600  1
  O  O34  1  0.75826150  0.71652550  0.84658400  1
  O  O35  1  0.75826150  0.28347450  0.84658400  1
  O  O36  1  0.83115400  0.50000000  0.60408600  1
  O  O37  1  0.91416650  0.74823450  0.09752700  1
  O  O38  1  0.97686600  0.50000000  0.84831300  1
  O  O39  1  0.91416650  0.25176550  0.09752700  1
  O  O40  1  0.08298200  0.74644300  0.59639000  1
  O  O41  1  0.02008200  0.50000000  0.34020600  1
  O  O42  1  0.16330900  0.50000000  0.10384000  1
  O  O43  1  0.00196400  0.00000000  0.30745800  1
  O  O44  1  0.00153500  0.00000000  0.80660900  1
  O  O45  1  0.08298200  0.25355700  0.59639000  1
  O  O46  1  0.23794250  0.71775350  0.34538100  1
  O  O47  1  0.23794250  0.28224650  0.34538100  1
  O  O48  1  0.16413900  0.00000000  0.10110500  1
  O  O49  1  0.32993200  0.50000000  0.59786600  1
  O  O50  1  0.25826150  0.21652550  0.84658400  1
  O  O51  1  0.25826150  0.78347450  0.84658400  1
  O  O52  1  0.33115400  0.00000000  0.60408600  1
  O  O53  1  0.41416650  0.24823450  0.09752700  1
  O  O54  1  0.47686600  0.00000000  0.84831300  1
  O  O55  1  0.41416650  0.75176550  0.09752700  1
