# generated using pymatgen
data_CuSiH12(OF)6
_symmetry_space_group_name_H-M   'P 1'
_cell_length_a   18.27526617
_cell_length_b   18.27526617
_cell_length_c   9.94750500
_cell_angle_alpha   90.00000000
_cell_angle_beta   90.00000000
_cell_angle_gamma   120.00000000
_symmetry_Int_Tables_number   1
_chemical_formula_structural   CuSiH12(OF)6
_chemical_formula_sum   'Cu12 Si12 H144 O72 F72'
_cell_volume   2877.21436232
_cell_formula_units_Z   12
loop_
 _symmetry_equiv_pos_site_id
 _symmetry_equiv_pos_as_xyz
  1  'x, y, z'
loop_
 _atom_site_type_symbol
 _atom_site_label
 _atom_site_symmetry_multiplicity
 _atom_site_fract_x
 _atom_site_fract_y
 _atom_site_fract_z
 _atom_site_occupancy
  Cu  Cu0  1  0.00000000  0.00000000  0.00000000  1
  Cu  Cu1  1  0.16666667  0.83333333  0.33333333  1
  Cu  Cu2  1  0.66666667  0.83333333  0.33333333  1
  Cu  Cu3  1  0.83333333  0.66666667  0.66666667  1
  Cu  Cu4  1  0.66666667  0.33333333  0.33333333  1
  Cu  Cu5  1  0.83333333  0.16666667  0.66666667  1
  Cu  Cu6  1  0.33333333  0.16666667  0.66666667  1
  Cu  Cu7  1  0.50000000  0.00000000  0.00000000  1
  Cu  Cu8  1  0.33333333  0.66666667  0.66666667  1
  Cu  Cu9  1  0.50000000  0.50000000  0.00000000  1
  Cu  Cu10  1  0.00000000  0.50000000  0.00000000  1
  Cu  Cu11  1  0.16666667  0.33333333  0.33333333  1
  Si  Si12  1  0.00000000  0.00000000  0.50000000  1
  Si  Si13  1  0.16666667  0.83333333  0.83333333  1
  Si  Si14  1  0.66666667  0.83333333  0.83333333  1
  Si  Si15  1  0.83333333  0.66666667  0.16666667  1
  Si  Si16  1  0.66666667  0.33333333  0.83333333  1
  Si  Si17  1  0.83333333  0.16666667  0.16666667  1
  Si  Si18  1  0.33333333  0.16666667  0.16666667  1
  Si  Si19  1  0.50000000  0.00000000  0.50000000  1
  Si  Si20  1  0.33333333  0.66666667  0.16666667  1
  Si  Si21  1  0.50000000  0.50000000  0.50000000  1
  Si  Si22  1  0.00000000  0.50000000  0.50000000  1
  Si  Si23  1  0.16666667  0.33333333  0.83333333  1
  H  H24  1  0.67588800  0.42538300  0.11634800  1
  H  H25  1  0.41616167  0.65744533  0.44968133  1
  H  H26  1  0.90795033  0.91717167  0.78301467  1
  H  H27  1  0.99077867  0.90795033  0.21698533  1
  H  H28  1  0.25050500  0.67588800  0.88365200  1
  H  H29  1  0.75871633  0.41616167  0.55031867  1
  H  H30  1  0.72051200  0.48699000  0.23845800  1
  H  H31  1  0.43314467  0.61282133  0.57179133  1
  H  H32  1  0.84634333  0.90018867  0.90512467  1
  H  H33  1  0.94615467  0.84634333  0.09487533  1
  H  H34  1  0.23352200  0.72051200  0.76154200  1
  H  H35  1  0.82032333  0.43314467  0.42820867  1
  H  H36  1  0.47732367  0.56680333  0.79459033  1
  H  H37  1  0.75614633  0.85600967  0.12792367  1
  H  H38  1  0.76653000  0.57718700  0.46125700  1
  H  H39  1  0.18934300  0.76653000  0.53874300  1
  H  H40  1  0.91052033  0.47732367  0.20540967  1
  H  H41  1  0.90013667  0.75614633  0.87207633  1
  H  H42  1  0.54489700  0.64208800  0.88561500  1
  H  H43  1  0.76385767  0.78843633  0.21894833  1
  H  H44  1  0.69124533  0.56947567  0.55228167  1
  H  H45  1  0.12176967  0.69124533  0.44771833  1
  H  H46  1  0.90280900  0.54489700  0.11438500  1
  H  H47  1  0.97542133  0.76385767  0.78105167  1
  H  H48  1  0.01741700  0.73149700  0.23830700  1
  H  H49  1  0.04741333  0.64924967  0.90497367  1
  H  H50  1  0.93516967  0.61925333  0.57164033  1
  H  H51  1  0.64924967  0.60183633  0.09502633  1
  H  H52  1  0.61925333  0.68408367  0.42835967  1
  H  H53  1  0.73149700  0.71408000  0.76169300  1
  H  H54  1  0.07549300  0.69120700  0.20165400  1
  H  H55  1  0.94904733  0.59117367  0.86832067  1
  H  H56  1  0.97545967  0.71761933  0.53498733  1
  H  H57  1  0.59117367  0.64212633  0.13167933  1
  H  H58  1  0.71761933  0.74215967  0.46501267  1
  H  H59  1  0.69120700  0.61571400  0.79834600  1
  H  H60  1  0.57210667  0.48326033  0.76273133  1
  H  H61  1  0.57782033  0.76122667  0.09606467  1
  H  H62  1  0.85007300  0.75551300  0.42939800  1
  H  H63  1  0.09456000  0.85007300  0.57060200  1
  H  H64  1  0.08884633  0.57210667  0.23726867  1
  H  H65  1  0.81659367  0.57782033  0.90393533  1
  H  H66  1  0.62806767  0.47475133  0.87404933  1
  H  H67  1  0.51335033  0.70526567  0.20738267  1
  H  H68  1  0.85858200  0.81998300  0.54071600  1
  H  H69  1  0.03859900  0.85858200  0.45928400  1
  H  H70  1  0.15331633  0.62806767  0.12595067  1
  H  H71  1  0.80808467  0.51335033  0.79261733  1
  H  H72  1  0.34255467  0.75871633  0.44968133  1
  H  H73  1  0.08282833  0.99077867  0.78301467  1
  H  H74  1  0.57461700  0.25050500  0.11634800  1
  H  H75  1  0.65744533  0.24128367  0.55031867  1
  H  H76  1  0.91717167  0.00922133  0.21698533  1
  H  H77  1  0.42538300  0.74949500  0.88365200  1
  H  H78  1  0.38717867  0.82032333  0.57179133  1
  H  H79  1  0.09981133  0.94615467  0.90512467  1
  H  H80  1  0.51301000  0.23352200  0.23845800  1
  H  H81  1  0.61282133  0.17967667  0.42820867  1
  H  H82  1  0.90018867  0.05384533  0.09487533  1
  H  H83  1  0.48699000  0.76647800  0.76154200  1
  H  H84  1  0.14399033  0.90013667  0.12792367  1
  H  H85  1  0.42281300  0.18934300  0.46125700  1
  H  H86  1  0.43319667  0.91052033  0.79459033  1
  H  H87  1  0.85600967  0.09986333  0.87207633  1
  H  H88  1  0.57718700  0.81065700  0.53874300  1
  H  H89  1  0.56680333  0.08947967  0.20540967  1
  H  H90  1  0.21156367  0.97542133  0.21894833  1
  H  H91  1  0.43052433  0.12176967  0.55228167  1
  H  H92  1  0.35791200  0.90280900  0.88561500  1
  H  H93  1  0.78843633  0.02457867  0.78105167  1
  H  H94  1  0.56947567  0.87823033  0.44771833  1
  H  H95  1  0.64208800  0.09719100  0.11438500  1
  H  H96  1  0.68408367  0.06483033  0.57164033  1
  H  H97  1  0.71408000  0.98258300  0.23830700  1
  H  H98  1  0.60183633  0.95258667  0.90497367  1
  H  H99  1  0.31591633  0.93516967  0.42835967  1
  H  H100  1  0.28592000  0.01741700  0.76169300  1
  H  H101  1  0.39816367  0.04741333  0.09502633  1
  H  H102  1  0.74215967  0.02454033  0.53498733  1
  H  H103  1  0.61571400  0.92450700  0.20165400  1
  H  H104  1  0.64212633  0.05095267  0.86832067  1
  H  H105  1  0.25784033  0.97545967  0.46501267  1
  H  H106  1  0.38428600  0.07549300  0.79834600  1
  H  H107  1  0.35787367  0.94904733  0.13167933  1
  H  H108  1  0.23877333  0.81659367  0.09606467  1
  H  H109  1  0.24448700  0.09456000  0.42939800  1
  H  H110  1  0.51673967  0.08884633  0.76273133  1
  H  H111  1  0.76122667  0.18340633  0.90393533  1
  H  H112  1  0.75551300  0.90544000  0.57060200  1
  H  H113  1  0.48326033  0.91115367  0.23726867  1
  H  H114  1  0.29473433  0.80808467  0.20738267  1
  H  H115  1  0.18001700  0.03859900  0.54071600  1
  H  H116  1  0.52524867  0.15331633  0.87404933  1
  H  H117  1  0.70526567  0.19191533  0.79261733  1
  H  H118  1  0.81998300  0.96140100  0.45928400  1
  H  H119  1  0.47475133  0.84668367  0.12595067  1
  H  H120  1  0.00922133  0.09204967  0.78301467  1
  H  H121  1  0.74949500  0.32411200  0.11634800  1
  H  H122  1  0.24128367  0.58383833  0.44968133  1
  H  H123  1  0.32411200  0.57461700  0.88365200  1
  H  H124  1  0.58383833  0.34255467  0.55031867  1
  H  H125  1  0.09204967  0.08282833  0.21698533  1
  H  H126  1  0.05384533  0.15365667  0.90512467  1
  H  H127  1  0.76647800  0.27948800  0.23845800  1
  H  H128  1  0.17967667  0.56685533  0.57179133  1
  H  H129  1  0.27948800  0.51301000  0.76154200  1
  H  H130  1  0.56685533  0.38717867  0.42820867  1
  H  H131  1  0.15365667  0.09981133  0.09487533  1
  H  H132  1  0.81065700  0.23347000  0.46125700  1
  H  H133  1  0.08947967  0.52267633  0.79459033  1
  H  H134  1  0.09986333  0.24385367  0.12792367  1
  H  H135  1  0.52267633  0.43319667  0.20540967  1
  H  H136  1  0.24385367  0.14399033  0.87207633  1
  H  H137  1  0.23347000  0.42281300  0.53874300  1
  H  H138  1  0.87823033  0.30875467  0.55228167  1
  H  H139  1  0.09719100  0.45510300  0.88561500  1
  H  H140  1  0.02457867  0.23614233  0.21894833  1
  H  H141  1  0.45510300  0.35791200  0.11438500  1
  H  H142  1  0.23614233  0.21156367  0.78105167  1
  H  H143  1  0.30875467  0.43052433  0.44771833  1
  H  H144  1  0.35075033  0.39816367  0.90497367  1
  H  H145  1  0.38074667  0.31591633  0.57164033  1
  H  H146  1  0.26850300  0.28592000  0.23830700  1
  H  H147  1  0.98258300  0.26850300  0.76169300  1
  H  H148  1  0.95258667  0.35075033  0.09502633  1
  H  H149  1  0.06483033  0.38074667  0.42835967  1
  H  H150  1  0.40882633  0.35787367  0.86832067  1
  H  H151  1  0.28238067  0.25784033  0.53498733  1
  H  H152  1  0.30879300  0.38428600  0.20165400  1
  H  H153  1  0.92450700  0.30879300  0.79834600  1
  H  H154  1  0.05095267  0.40882633  0.13167933  1
  H  H155  1  0.02454033  0.28238067  0.46501267  1
  H  H156  1  0.90544000  0.14992700  0.42939800  1
  H  H157  1  0.91115367  0.42789333  0.76273133  1
  H  H158  1  0.18340633  0.42217967  0.09606467  1
  H  H159  1  0.42789333  0.51673967  0.23726867  1
  H  H160  1  0.42217967  0.23877333  0.90393533  1
  H  H161  1  0.14992700  0.24448700  0.57060200  1
  H  H162  1  0.96140100  0.14141800  0.54071600  1
  H  H163  1  0.84668367  0.37193233  0.87404933  1
  H  H164  1  0.19191533  0.48664967  0.20738267  1
  H  H165  1  0.37193233  0.52524867  0.12595067  1
  H  H166  1  0.48664967  0.29473433  0.79261733  1
  H  H167  1  0.14141800  0.18001700  0.45928400  1
  O  O168  1  0.67360767  0.43039033  0.21440233  1
  O  O169  1  0.42344933  0.65972567  0.54773567  1
  O  O170  1  0.90294300  0.90988400  0.88106900  1
  O  O171  1  0.99305900  0.90294300  0.11893100  1
  O  O172  1  0.24321733  0.67360767  0.78559767  1
  O  O173  1  0.76372367  0.42344933  0.45226433  1
  O  O174  1  0.49213000  0.58609300  0.88842100  1
  O  O175  1  0.76062967  0.84120333  0.22175433  1
  O  O176  1  0.74724033  0.57270367  0.55508767  1
  O  O177  1  0.17453667  0.74724033  0.44491233  1
  O  O178  1  0.90603700  0.49213000  0.11157900  1
  O  O179  1  0.91942633  0.76062967  0.77824567  1
  O  O180  1  0.07524367  0.74515233  0.21637233  1
  O  O181  1  0.00324200  0.59142300  0.88303900  1
  O  O182  1  0.92151433  0.66342467  0.54970567  1
  O  O183  1  0.59142300  0.58818100  0.11696100  1
  O  O184  1  0.66342467  0.74191033  0.45029433  1
  O  O185  1  0.74515233  0.66990867  0.78362767  1
  O  O186  1  0.60864200  0.51273400  0.83977000  1
  O  O187  1  0.57075867  0.72469133  0.17310333  1
  O  O188  1  0.82059933  0.76257467  0.50643667  1
  O  O189  1  0.05802467  0.82059933  0.49356333  1
  O  O190  1  0.09590800  0.60864200  0.16023000  1
  O  O191  1  0.84606733  0.57075867  0.82689667  1
  O  O192  1  0.34027433  0.76372367  0.54773567  1
  O  O193  1  0.09011600  0.99305900  0.88106900  1
  O  O194  1  0.56960967  0.24321733  0.21440233  1
  O  O195  1  0.65972567  0.23627633  0.45226433  1
  O  O196  1  0.90988400  0.00694100  0.11893100  1
  O  O197  1  0.43039033  0.75678267  0.78559767  1
  O  O198  1  0.15879667  0.91942633  0.22175433  1
  O  O199  1  0.42729633  0.17453667  0.55508767  1
  O  O200  1  0.41390700  0.90603700  0.88842100  1
  O  O201  1  0.84120333  0.08057367  0.77824567  1
  O  O202  1  0.57270367  0.82546333  0.44491233  1
  O  O203  1  0.58609300  0.09396300  0.11157900  1
  O  O204  1  0.74191033  0.07848567  0.54970567  1
  O  O205  1  0.66990867  0.92475633  0.21637233  1
  O  O206  1  0.58818100  0.99675800  0.88303900  1
  O  O207  1  0.25808967  0.92151433  0.45029433  1
  O  O208  1  0.33009133  0.07524367  0.78362767  1
  O  O209  1  0.41181900  0.00324200  0.11696100  1
  O  O210  1  0.27530867  0.84606733  0.17310333  1
  O  O211  1  0.23742533  0.05802467  0.50643667  1
  O  O212  1  0.48726600  0.09590800  0.83977000  1
  O  O213  1  0.72469133  0.15393267  0.82689667  1
  O  O214  1  0.76257467  0.94197533  0.49356333  1
  O  O215  1  0.51273400  0.90409200  0.16023000  1
  O  O216  1  0.00694100  0.09705700  0.88106900  1
  O  O217  1  0.75678267  0.32639233  0.21440233  1
  O  O218  1  0.23627633  0.57655067  0.54773567  1
  O  O219  1  0.32639233  0.56960967  0.78559767  1
  O  O220  1  0.57655067  0.34027433  0.45226433  1
  O  O221  1  0.09705700  0.09011600  0.11893100  1
  O  O222  1  0.82546333  0.25275967  0.55508767  1
  O  O223  1  0.09396300  0.50787000  0.88842100  1
  O  O224  1  0.08057367  0.23937033  0.22175433  1
  O  O225  1  0.50787000  0.41390700  0.11157900  1
  O  O226  1  0.23937033  0.15879667  0.77824567  1
  O  O227  1  0.25275967  0.42729633  0.44491233  1
  O  O228  1  0.40857700  0.41181900  0.88303900  1
  O  O229  1  0.33657533  0.25808967  0.54970567  1
  O  O230  1  0.25484767  0.33009133  0.21637233  1
  O  O231  1  0.92475633  0.25484767  0.78362767  1
  O  O232  1  0.99675800  0.40857700  0.11696100  1
  O  O233  1  0.07848567  0.33657533  0.45029433  1
  O  O234  1  0.94197533  0.17940067  0.50643667  1
  O  O235  1  0.90409200  0.39135800  0.83977000  1
  O  O236  1  0.15393267  0.42924133  0.17310333  1
  O  O237  1  0.39135800  0.48726600  0.16023000  1
  O  O238  1  0.42924133  0.27530867  0.82689667  1
  O  O239  1  0.17940067  0.23742533  0.49356333  1
  F  F240  1  0.67488967  0.41403533  0.93296133  1
  F  F241  1  0.40581233  0.65844367  0.26629467  1
  F  F242  1  0.91929800  0.92752100  0.59962800  1
  F  F243  1  0.99177700  0.91929800  0.40037200  1
  F  F244  1  0.26085433  0.67488967  0.06703867  1
  F  F245  1  0.74736867  0.40581233  0.73370533  1
  F  F246  1  0.87183800  0.74590500  0.04662900  1
  F  F247  1  0.54073367  0.46149533  0.37996233  1
  F  F248  1  0.58742833  0.79259967  0.71329567  1
  F  F249  1  0.79482867  0.58742833  0.28670433  1
  F  F250  1  0.12593300  0.87183800  0.95337100  1
  F  F251  1  0.07923833  0.54073367  0.62003767  1
  F  F252  1  0.75760933  0.59956267  0.05688267  1
  F  F253  1  0.50862000  0.57572400  0.39021600  1
  F  F254  1  0.73377067  0.82471333  0.72354933  1
  F  F255  1  0.90905733  0.73377067  0.27645067  1
  F  F256  1  0.15804667  0.75760933  0.94311733  1
  F  F257  1  0.93289600  0.50862000  0.60978400  1
  F  F258  1  0.90101333  0.63409967  0.10905367  1
  F  F259  1  0.06641967  0.76565333  0.77572033  1
  F  F260  1  0.03256700  0.60024700  0.44238700  1
  F  F261  1  0.76565333  0.69923367  0.22427967  1
  F  F262  1  0.60024700  0.56768000  0.55761300  1
  F  F263  1  0.63409967  0.73308633  0.89094633  1
  F  F264  1  0.34155633  0.74736867  0.26629467  1
  F  F265  1  0.07247900  0.99177700  0.59962800  1
  F  F266  1  0.58596467  0.26085433  0.93296133  1
  F  F267  1  0.65844367  0.25263133  0.73370533  1
  F  F268  1  0.92752100  0.00822300  0.40037200  1
  F  F269  1  0.41403533  0.73914567  0.06703867  1
  F  F270  1  0.53850467  0.07923833  0.37996233  1
  F  F271  1  0.20740033  0.79482867  0.71329567  1
  F  F272  1  0.25409500  0.12593300  0.04662900  1
  F  F273  1  0.46149533  0.92076167  0.62003767  1
  F  F274  1  0.79259967  0.20517133  0.28670433  1
  F  F275  1  0.74590500  0.87406700  0.95337100  1
  F  F276  1  0.42427600  0.93289600  0.39021600  1
  F  F277  1  0.17528667  0.90905733  0.72354933  1
  F  F278  1  0.40043733  0.15804667  0.05688267  1
  F  F279  1  0.57572400  0.06710400  0.60978400  1
  F  F280  1  0.82471333  0.09094267  0.27645067  1
  F  F281  1  0.59956267  0.84195333  0.94311733  1
  F  F282  1  0.56768000  0.96743300  0.44238700  1
  F  F283  1  0.73308633  0.09898667  0.10905367  1
  F  F284  1  0.69923367  0.93358033  0.77572033  1
  F  F285  1  0.43232000  0.03256700  0.55761300  1
  F  F286  1  0.26691367  0.90101333  0.89094633  1
  F  F287  1  0.30076633  0.06641967  0.22427967  1
  F  F288  1  0.00822300  0.08070200  0.59962800  1
  F  F289  1  0.73914567  0.32511033  0.93296133  1
  F  F290  1  0.25263133  0.59418767  0.26629467  1
  F  F291  1  0.32511033  0.58596467  0.06703867  1
  F  F292  1  0.59418767  0.34155633  0.73370533  1
  F  F293  1  0.08070200  0.07247900  0.40037200  1
  F  F294  1  0.20517133  0.41257167  0.71329567  1
  F  F295  1  0.87406700  0.12816200  0.04662900  1
  F  F296  1  0.92076167  0.45926633  0.37996233  1
  F  F297  1  0.12816200  0.25409500  0.95337100  1
  F  F298  1  0.45926633  0.53850467  0.62003767  1
  F  F299  1  0.41257167  0.20740033  0.28670433  1
  F  F300  1  0.09094267  0.26622933  0.72354933  1
  F  F301  1  0.84195333  0.24239067  0.05688267  1
  F  F302  1  0.06710400  0.49138000  0.39021600  1
  F  F303  1  0.24239067  0.40043733  0.94311733  1
  F  F304  1  0.49138000  0.42427600  0.60978400  1
  F  F305  1  0.26622933  0.17528667  0.27645067  1
  F  F306  1  0.23434667  0.30076633  0.77572033  1
  F  F307  1  0.39975300  0.43232000  0.44238700  1
  F  F308  1  0.36590033  0.26691367  0.10905367  1
  F  F309  1  0.09898667  0.36590033  0.89094633  1
  F  F310  1  0.93358033  0.23434667  0.22427967  1
  F  F311  1  0.96743300  0.39975300  0.55761300  1
