# generated using pymatgen
data_Li2Ni2BiO6
_symmetry_space_group_name_H-M   'P 1'
_cell_length_a   5.35490600
_cell_length_b   9.17165800
_cell_length_c   10.15965100
_cell_angle_alpha   90.00000000
_cell_angle_beta   90.00000000
_cell_angle_gamma   90.00000000
_symmetry_Int_Tables_number   1
_chemical_formula_structural   Li2Ni2BiO6
_chemical_formula_sum   'Li8 Ni8 Bi4 O24'
_cell_volume   498.97466261
_cell_formula_units_Z   4
loop_
 _symmetry_equiv_pos_site_id
 _symmetry_equiv_pos_as_xyz
  1  'x, y, z'
loop_
 _atom_site_type_symbol
 _atom_site_label
 _atom_site_symmetry_multiplicity
 _atom_site_fract_x
 _atom_site_fract_y
 _atom_site_fract_z
 _atom_site_occupancy
  Li  Li0  1  0.40476300  0.75000000  0.75000000  1
  Li  Li1  1  0.59523700  0.75000000  0.25000000  1
  Li  Li2  1  0.40476300  0.25000000  0.75000000  1
  Li  Li3  1  0.59523700  0.25000000  0.25000000  1
  Li  Li4  1  0.90476300  0.25000000  0.75000000  1
  Li  Li5  1  0.09523700  0.25000000  0.25000000  1
  Li  Li6  1  0.90476300  0.75000000  0.75000000  1
  Li  Li7  1  0.09523700  0.75000000  0.25000000  1
  Ni  Ni8  1  0.50000000  0.83497600  0.00000000  1
  Ni  Ni9  1  0.50000000  0.33497600  0.50000000  1
  Ni  Ni10  1  0.50000000  0.66502400  0.50000000  1
  Ni  Ni11  1  0.50000000  0.16502400  0.00000000  1
  Ni  Ni12  1  0.00000000  0.33497600  0.00000000  1
  Ni  Ni13  1  0.00000000  0.83497600  0.50000000  1
  Ni  Ni14  1  0.00000000  0.16502400  0.50000000  1
  Ni  Ni15  1  0.00000000  0.66502400  0.00000000  1
  Bi  Bi16  1  0.00000000  0.00000000  0.00000000  1
  Bi  Bi17  1  0.50000000  0.00000000  0.50000000  1
  Bi  Bi18  1  0.50000000  0.50000000  0.00000000  1
  Bi  Bi19  1  0.00000000  0.50000000  0.50000000  1
  O  O20  1  0.15190700  0.00000000  0.60062300  1
  O  O21  1  0.34809300  0.00000000  0.10062300  1
  O  O22  1  0.65190700  0.00000000  0.89937700  1
  O  O23  1  0.65495050  0.32012550  0.88871600  1
  O  O24  1  0.84809300  0.00000000  0.39937700  1
  O  O25  1  0.34504950  0.82012550  0.38871600  1
  O  O26  1  0.65495050  0.82012550  0.61128400  1
  O  O27  1  0.34504950  0.32012550  0.11128400  1
  O  O28  1  0.34504950  0.67987450  0.11128400  1
  O  O29  1  0.65495050  0.67987450  0.88871600  1
  O  O30  1  0.34504950  0.17987450  0.38871600  1
  O  O31  1  0.65495050  0.17987450  0.61128400  1
  O  O32  1  0.65190700  0.50000000  0.60062300  1
  O  O33  1  0.84809300  0.50000000  0.10062300  1
  O  O34  1  0.15190700  0.50000000  0.89937700  1
  O  O35  1  0.15495050  0.82012550  0.88871600  1
  O  O36  1  0.34809300  0.50000000  0.39937700  1
  O  O37  1  0.84504950  0.32012550  0.38871600  1
  O  O38  1  0.15495050  0.32012550  0.61128400  1
  O  O39  1  0.84504950  0.82012550  0.11128400  1
  O  O40  1  0.84504950  0.17987450  0.11128400  1
  O  O41  1  0.15495050  0.17987450  0.88871600  1
  O  O42  1  0.84504950  0.67987450  0.38871600  1
  O  O43  1  0.15495050  0.67987450  0.61128400  1
