# generated using pymatgen
data_LiVSiO4
_symmetry_space_group_name_H-M   'P 1'
_cell_length_a   8.21504026
_cell_length_b   5.43202601
_cell_length_c   8.49752284
_cell_angle_alpha   90.00000000
_cell_angle_beta   106.08394248
_cell_angle_gamma   90.00000000
_symmetry_Int_Tables_number   1
_chemical_formula_structural   LiVSiO4
_chemical_formula_sum   'Li4 V4 Si4 O16'
_cell_volume   364.35317795
_cell_formula_units_Z   4
loop_
 _symmetry_equiv_pos_site_id
 _symmetry_equiv_pos_as_xyz
  1  'x, y, z'
loop_
 _atom_site_type_symbol
 _atom_site_label
 _atom_site_symmetry_multiplicity
 _atom_site_fract_x
 _atom_site_fract_y
 _atom_site_fract_z
 _atom_site_occupancy
  Li  Li0  1  0.03010300  0.84573650  0.92632400  1
  Li  Li1  1  0.03010300  0.15426350  0.42632400  1
  Li  Li2  1  0.49696500  0.34070350  0.71609700  1
  Li  Li3  1  0.49696500  0.65929650  0.21609700  1
  V  V4  1  0.13636000  0.66150350  0.29851200  1
  V  V5  1  0.63153100  0.83401250  0.61139100  1
  V  V6  1  0.13636000  0.33849650  0.79851200  1
  V  V7  1  0.63153100  0.16598750  0.11139100  1
  Si  Si8  1  0.75278500  0.66320250  0.98920700  1
  Si  Si9  1  0.75278500  0.33679750  0.48920700  1
  Si  Si10  1  0.25931000  0.83624750  0.67350300  1
  Si  Si11  1  0.25931000  0.16375250  0.17350300  1
  O  O12  1  0.11568600  0.17405650  0.99283200  1
  O  O13  1  0.11568600  0.82594350  0.49283200  1
  O  O14  1  0.67569800  0.38349250  0.94897500  1
  O  O15  1  0.67569800  0.61650750  0.44897500  1
  O  O16  1  0.18525700  0.68813750  0.80906600  1
  O  O17  1  0.18525700  0.31186250  0.30906600  1
  O  O18  1  0.29901000  0.12761650  0.72849900  1
  O  O19  1  0.29901000  0.87238350  0.22849900  1
  O  O20  1  0.78540800  0.78235250  0.82187800  1
  O  O21  1  0.78540800  0.21764750  0.32187800  1
  O  O22  1  0.42920200  0.69489550  0.65372400  1
  O  O23  1  0.42920200  0.30510450  0.15372400  1
  O  O24  1  0.61828800  0.18041650  0.56345000  1
  O  O25  1  0.61828800  0.81958350  0.06345000  1
  O  O26  1  0.94526700  0.31008950  0.61243300  1
  O  O27  1  0.94526700  0.68991050  0.11243300  1
