# generated using pymatgen
data_Na3FeO4
_symmetry_space_group_name_H-M   'P 1'
_cell_length_a   5.31927731
_cell_length_b   6.49441300
_cell_length_c   5.76062033
_cell_angle_alpha   90.00000000
_cell_angle_beta   110.03849659
_cell_angle_gamma   90.00000000
_symmetry_Int_Tables_number   1
_chemical_formula_structural   Na3FeO4
_chemical_formula_sum   'Na6 Fe2 O8'
_cell_volume   186.95680924
_cell_formula_units_Z   2
loop_
 _symmetry_equiv_pos_site_id
 _symmetry_equiv_pos_as_xyz
  1  'x, y, z'
loop_
 _atom_site_type_symbol
 _atom_site_label
 _atom_site_symmetry_multiplicity
 _atom_site_fract_x
 _atom_site_fract_y
 _atom_site_fract_z
 _atom_site_occupancy
  Na  Na0  1  0.75000000  0.61844150  0.50000000  1
  Na  Na1  1  0.25000000  0.38155850  0.50000000  1
  Na  Na2  1  0.75000000  0.88241800  0.00000000  1
  Na  Na3  1  0.25000000  0.11758200  0.00000000  1
  Na  Na4  1  0.75000000  0.37821100  0.00000000  1
  Na  Na5  1  0.25000000  0.62178900  0.00000000  1
  Fe  Fe6  1  0.75000000  0.12614800  0.50000000  1
  Fe  Fe7  1  0.25000000  0.87385200  0.50000000  1
  O  O8  1  0.55108750  0.32259850  0.28100600  1
  O  O9  1  0.05108750  0.67740150  0.28100600  1
  O  O10  1  0.94891250  0.32259850  0.71899400  1
  O  O11  1  0.44891250  0.67740150  0.71899400  1
  O  O12  1  0.99003550  0.09651000  0.31307200  1
  O  O13  1  0.49003550  0.90349000  0.31307200  1
  O  O14  1  0.00996450  0.90349000  0.68692800  1
  O  O15  1  0.50996450  0.09651000  0.68692800  1
