# generated using pymatgen
data_Li3Mn5FeO12
_symmetry_space_group_name_H-M   'P 1'
_cell_length_a   8.29556600
_cell_length_b   8.62783200
_cell_length_c   13.00963325
_cell_angle_alpha   90.00000000
_cell_angle_beta   107.58452522
_cell_angle_gamma   90.00000000
_symmetry_Int_Tables_number   1
_chemical_formula_structural   Li3Mn5FeO12
_chemical_formula_sum   'Li12 Mn20 Fe4 O48'
_cell_volume   887.62541728
_cell_formula_units_Z   4
loop_
 _symmetry_equiv_pos_site_id
 _symmetry_equiv_pos_as_xyz
  1  'x, y, z'
loop_
 _atom_site_type_symbol
 _atom_site_label
 _atom_site_symmetry_multiplicity
 _atom_site_fract_x
 _atom_site_fract_y
 _atom_site_fract_z
 _atom_site_occupancy
  Li  Li0  1  0.83522350  0.88209650  0.91726800  1
  Li  Li1  1  0.50000000  0.11527600  0.75000000  1
  Li  Li2  1  0.16477650  0.88209650  0.58273200  1
  Li  Li3  1  0.83522350  0.11790350  0.41726800  1
  Li  Li4  1  0.50000000  0.88472400  0.25000000  1
  Li  Li5  1  0.16477650  0.11790350  0.08273200  1
  Li  Li6  1  0.33522350  0.38209650  0.91726800  1
  Li  Li7  1  0.00000000  0.61527600  0.75000000  1
  Li  Li8  1  0.66477650  0.38209650  0.58273200  1
  Li  Li9  1  0.33522350  0.61790350  0.41726800  1
  Li  Li10  1  0.00000000  0.38472400  0.25000000  1
  Li  Li11  1  0.66477650  0.61790350  0.08273200  1
  Mn  Mn12  1  0.75000000  0.25000000  0.00000000  1
  Mn  Mn13  1  0.16553800  0.99949800  0.83293400  1
  Mn  Mn14  1  0.41520550  0.75202850  0.83180800  1
  Mn  Mn15  1  0.83446200  0.99949800  0.66706600  1
  Mn  Mn16  1  0.58479450  0.75202850  0.66819200  1
  Mn  Mn17  1  0.75000000  0.75000000  0.50000000  1
  Mn  Mn18  1  0.41520550  0.24797150  0.33180800  1
  Mn  Mn19  1  0.16553800  0.00050200  0.33293400  1
  Mn  Mn20  1  0.83446200  0.00050200  0.16706600  1
  Mn  Mn21  1  0.58479450  0.24797150  0.16819200  1
  Mn  Mn22  1  0.25000000  0.75000000  0.00000000  1
  Mn  Mn23  1  0.66553800  0.49949800  0.83293400  1
  Mn  Mn24  1  0.91520550  0.25202850  0.83180800  1
  Mn  Mn25  1  0.33446200  0.49949800  0.66706600  1
  Mn  Mn26  1  0.08479450  0.25202850  0.66819200  1
  Mn  Mn27  1  0.25000000  0.25000000  0.50000000  1
  Mn  Mn28  1  0.91520550  0.74797150  0.33180800  1
  Mn  Mn29  1  0.66553800  0.50050200  0.33293400  1
  Mn  Mn30  1  0.33446200  0.50050200  0.16706600  1
  Mn  Mn31  1  0.08479450  0.74797150  0.16819200  1
  Fe  Fe32  1  0.50000000  0.00000000  0.00000000  1
  Fe  Fe33  1  0.50000000  0.00000000  0.50000000  1
  Fe  Fe34  1  0.00000000  0.50000000  0.00000000  1
  Fe  Fe35  1  0.00000000  0.50000000  0.50000000  1
  O  O36  1  0.25166850  0.97661950  0.99064400  1
  O  O37  1  0.48097400  0.75958300  0.99095500  1
  O  O38  1  0.40461350  0.97711550  0.83838000  1
  O  O39  1  0.68893500  0.24597000  0.84442900  1
  O  O40  1  0.64399200  0.75298900  0.82316500  1
  O  O41  1  0.92489700  0.02456300  0.82564300  1
  O  O42  1  0.07510300  0.02456300  0.67435700  1
  O  O43  1  0.35600800  0.75298900  0.67683500  1
  O  O44  1  0.59538650  0.97711550  0.66162000  1
  O  O45  1  0.31106500  0.24597000  0.65557100  1
  O  O46  1  0.74833150  0.97661950  0.50935600  1
  O  O47  1  0.51902600  0.75958300  0.50904500  1
  O  O48  1  0.25166850  0.02338050  0.49064400  1
  O  O49  1  0.48097400  0.24041700  0.49095500  1
  O  O50  1  0.68893500  0.75403000  0.34442900  1
  O  O51  1  0.40461350  0.02288450  0.33838000  1
  O  O52  1  0.92489700  0.97543700  0.32564300  1
  O  O53  1  0.64399200  0.24701100  0.32316500  1
  O  O54  1  0.07510300  0.97543700  0.17435700  1
  O  O55  1  0.35600800  0.24701100  0.17683500  1
  O  O56  1  0.59538650  0.02288450  0.16162000  1
  O  O57  1  0.31106500  0.75403000  0.15557100  1
  O  O58  1  0.74833150  0.02338050  0.00935600  1
  O  O59  1  0.51902600  0.24041700  0.00904500  1
  O  O60  1  0.75166850  0.47661950  0.99064400  1
  O  O61  1  0.98097400  0.25958300  0.99095500  1
  O  O62  1  0.90461350  0.47711550  0.83838000  1
  O  O63  1  0.18893500  0.74597000  0.84442900  1
  O  O64  1  0.14399200  0.25298900  0.82316500  1
  O  O65  1  0.42489700  0.52456300  0.82564300  1
  O  O66  1  0.57510300  0.52456300  0.67435700  1
  O  O67  1  0.85600800  0.25298900  0.67683500  1
  O  O68  1  0.09538650  0.47711550  0.66162000  1
  O  O69  1  0.81106500  0.74597000  0.65557100  1
  O  O70  1  0.24833150  0.47661950  0.50935600  1
  O  O71  1  0.01902600  0.25958300  0.50904500  1
  O  O72  1  0.75166850  0.52338050  0.49064400  1
  O  O73  1  0.98097400  0.74041700  0.49095500  1
  O  O74  1  0.18893500  0.25403000  0.34442900  1
  O  O75  1  0.90461350  0.52288450  0.33838000  1
  O  O76  1  0.42489700  0.47543700  0.32564300  1
  O  O77  1  0.14399200  0.74701100  0.32316500  1
  O  O78  1  0.57510300  0.47543700  0.17435700  1
  O  O79  1  0.85600800  0.74701100  0.17683500  1
  O  O80  1  0.09538650  0.52288450  0.16162000  1
  O  O81  1  0.81106500  0.25403000  0.15557100  1
  O  O82  1  0.24833150  0.52338050  0.00935600  1
  O  O83  1  0.01902600  0.74041700  0.00904500  1
