# generated using pymatgen
data_LiCoPO4
_symmetry_space_group_name_H-M   'P 1'
_cell_length_a   5.16903477
_cell_length_b   5.16903477
_cell_length_c   9.40927761
_cell_angle_alpha   90.00000000
_cell_angle_beta   90.00000000
_cell_angle_gamma   120.00000000
_symmetry_Int_Tables_number   1
_chemical_formula_structural   LiCoPO4
_chemical_formula_sum   'Li2 Co2 P2 O8'
_cell_volume   217.72375726
_cell_formula_units_Z   2
loop_
 _symmetry_equiv_pos_site_id
 _symmetry_equiv_pos_as_xyz
  1  'x, y, z'
loop_
 _atom_site_type_symbol
 _atom_site_label
 _atom_site_symmetry_multiplicity
 _atom_site_fract_x
 _atom_site_fract_y
 _atom_site_fract_z
 _atom_site_occupancy
  Li  Li0  1  0.00000000  0.00000000  0.76982550  1
  Li  Li1  1  0.00000000  0.00000000  0.26982550  1
  Co  Co2  1  0.66666667  0.33333333  0.87451650  1
  Co  Co3  1  0.33333333  0.66666667  0.37451650  1
  P  P4  1  0.66666667  0.33333333  0.23950150  1
  P  P5  1  0.33333333  0.66666667  0.73950150  1
  O  O6  1  0.66666667  0.33333333  0.07768400  1
  O  O7  1  0.33333333  0.66666667  0.57768400  1
  O  O8  1  0.66392400  0.61627550  0.29574650  1
  O  O9  1  0.38372450  0.04764850  0.29574650  1
  O  O10  1  0.04764850  0.66392400  0.79574650  1
  O  O11  1  0.95235150  0.33607600  0.29574650  1
  O  O12  1  0.61627550  0.95235150  0.79574650  1
  O  O13  1  0.33607600  0.38372450  0.79574650  1
