# generated using pymatgen
data_Li2Fe3SnO8
_symmetry_space_group_name_H-M   'P 1'
_cell_length_a   6.00494061
_cell_length_b   6.00494061
_cell_length_c   15.27191090
_cell_angle_alpha   90.00000000
_cell_angle_beta   90.00000000
_cell_angle_gamma   120.00000000
_symmetry_Int_Tables_number   1
_chemical_formula_structural   Li2Fe3SnO8
_chemical_formula_sum   'Li6 Fe9 Sn3 O24'
_cell_volume   476.91550998
_cell_formula_units_Z   3
loop_
 _symmetry_equiv_pos_site_id
 _symmetry_equiv_pos_as_xyz
  1  'x, y, z'
loop_
 _atom_site_type_symbol
 _atom_site_label
 _atom_site_symmetry_multiplicity
 _atom_site_fract_x
 _atom_site_fract_y
 _atom_site_fract_z
 _atom_site_occupancy
  Li  Li0  1  0.66666667  0.33333333  0.20911867  1
  Li  Li1  1  0.00000000  0.00000000  0.12421467  1
  Li  Li2  1  0.33333333  0.66666667  0.54245200  1
  Li  Li3  1  0.66666667  0.33333333  0.45754800  1
  Li  Li4  1  0.00000000  0.00000000  0.87578533  1
  Li  Li5  1  0.33333333  0.66666667  0.79088133  1
  Fe  Fe6  1  0.50000000  0.50000000  0.00000000  1
  Fe  Fe7  1  0.00000000  0.50000000  0.00000000  1
  Fe  Fe8  1  0.50000000  0.00000000  0.00000000  1
  Fe  Fe9  1  0.16666667  0.83333333  0.33333333  1
  Fe  Fe10  1  0.66666667  0.83333333  0.33333333  1
  Fe  Fe11  1  0.16666667  0.33333333  0.33333333  1
  Fe  Fe12  1  0.83333333  0.16666667  0.66666667  1
  Fe  Fe13  1  0.33333333  0.16666667  0.66666667  1
  Fe  Fe14  1  0.83333333  0.66666667  0.66666667  1
  Sn  Sn15  1  0.33333333  0.66666667  0.16666667  1
  Sn  Sn16  1  1.00000000  1.00000000  0.50000000  1
  Sn  Sn17  1  0.66666667  0.33333333  0.83333333  1
  O  O18  1  0.66666667  0.33333333  0.06864400  1
  O  O19  1  0.00000000  0.00000000  0.26468933  1
  O  O20  1  0.48673550  0.97347100  0.25589300  1
  O  O21  1  0.02652900  0.51326450  0.25589300  1
  O  O22  1  0.48673550  0.51326450  0.25589300  1
  O  O23  1  0.17993117  0.82006883  0.07744033  1
  O  O24  1  0.64013767  0.82006883  0.07744033  1
  O  O25  1  0.17993117  0.35986233  0.07744033  1
  O  O26  1  0.33333333  0.66666667  0.40197733  1
  O  O27  1  0.66666667  0.33333333  0.59802267  1
  O  O28  1  0.15340217  0.30680433  0.58922633  1
  O  O29  1  0.69319567  0.84659783  0.58922633  1
  O  O30  1  0.15340217  0.84659783  0.58922633  1
  O  O31  1  0.84659783  0.15340217  0.41077367  1
  O  O32  1  0.30680433  0.15340217  0.41077367  1
  O  O33  1  0.84659783  0.69319567  0.41077367  1
  O  O34  1  0.00000000  0.00000000  0.73531067  1
  O  O35  1  0.33333333  0.66666667  0.93135600  1
  O  O36  1  0.82006883  0.64013767  0.92255967  1
  O  O37  1  0.35986233  0.17993117  0.92255967  1
  O  O38  1  0.82006883  0.17993117  0.92255967  1
  O  O39  1  0.51326450  0.48673550  0.74410700  1
  O  O40  1  0.97347100  0.48673550  0.74410700  1
  O  O41  1  0.51326450  0.02652900  0.74410700  1
