# generated using pymatgen
data_FeCu(PO4)2
_symmetry_space_group_name_H-M   'P 1'
_cell_length_a   8.58714783
_cell_length_b   8.58714783
_cell_length_c   20.72057083
_cell_angle_alpha   90.00000000
_cell_angle_beta   90.00000000
_cell_angle_gamma   120.00000000
_symmetry_Int_Tables_number   1
_chemical_formula_structural   FeCu(PO4)2
_chemical_formula_sum   'Fe9 Cu9 P18 O72'
_cell_volume   1323.21442349
_cell_formula_units_Z   9
loop_
 _symmetry_equiv_pos_site_id
 _symmetry_equiv_pos_as_xyz
  1  'x, y, z'
loop_
 _atom_site_type_symbol
 _atom_site_label
 _atom_site_symmetry_multiplicity
 _atom_site_fract_x
 _atom_site_fract_y
 _atom_site_fract_z
 _atom_site_occupancy
  Fe  Fe0  1  0.33333333  0.66666667  0.02212067  1
  Fe  Fe1  1  0.33333333  0.66666667  0.80998433  1
  Fe  Fe2  1  0.33333333  0.66666667  0.31049867  1
  Fe  Fe3  1  0.00000000  0.00000000  0.35545400  1
  Fe  Fe4  1  0.00000000  0.00000000  0.14331767  1
  Fe  Fe5  1  0.00000000  0.00000000  0.64383200  1
  Fe  Fe6  1  0.66666667  0.33333333  0.68878733  1
  Fe  Fe7  1  0.66666667  0.33333333  0.47665100  1
  Fe  Fe8  1  0.66666667  0.33333333  0.97716533  1
  Cu  Cu9  1  0.33333333  0.66666667  0.66585767  1
  Cu  Cu10  1  0.33333333  0.66666667  0.52313967  1
  Cu  Cu11  1  0.33333333  0.66666667  0.16616233  1
  Cu  Cu12  1  0.00000000  0.00000000  0.99919100  1
  Cu  Cu13  1  0.00000000  0.00000000  0.85647300  1
  Cu  Cu14  1  0.00000000  0.00000000  0.49949567  1
  Cu  Cu15  1  0.66666667  0.33333333  0.33252433  1
  Cu  Cu16  1  0.66666667  0.33333333  0.18980633  1
  Cu  Cu17  1  0.66666667  0.33333333  0.83282900  1
  P  P18  1  0.66689900  0.03952600  0.08346500  1
  P  P19  1  0.96047400  0.62737300  0.08346500  1
  P  P20  1  0.37262700  0.33310100  0.08346500  1
  P  P21  1  0.29417333  0.99968567  0.24941567  1
  P  P22  1  0.70551233  0.70582667  0.24941567  1
  P  P23  1  0.00031433  0.29448767  0.24941567  1
  P  P24  1  0.33356567  0.37285933  0.41679833  1
  P  P25  1  0.62714067  0.96070633  0.41679833  1
  P  P26  1  0.03929367  0.66643433  0.41679833  1
  P  P27  1  0.96084000  0.33301900  0.58274900  1
  P  P28  1  0.37217900  0.03916000  0.58274900  1
  P  P29  1  0.66698100  0.62782100  0.58274900  1
  P  P30  1  0.00023233  0.70619267  0.75013167  1
  P  P31  1  0.29380733  0.29403967  0.75013167  1
  P  P32  1  0.70596033  0.99976767  0.75013167  1
  P  P33  1  0.62750667  0.66635233  0.91608233  1
  P  P34  1  0.03884567  0.37249333  0.91608233  1
  P  P35  1  0.33364767  0.96115433  0.91608233  1
  O  O36  1  0.53042300  0.85983500  0.35592500  1
  O  O37  1  0.14016500  0.67058800  0.35592500  1
  O  O38  1  0.32941200  0.46957700  0.35592500  1
  O  O39  1  0.83714067  0.01895333  0.07541733  1
  O  O40  1  0.66529333  0.13037367  0.14675967  1
  O  O41  1  0.49825900  0.84639400  0.08991900  1
  O  O42  1  0.98104667  0.81818733  0.07541733  1
  O  O43  1  0.15360600  0.65186500  0.08991900  1
  O  O44  1  0.19782633  0.00328367  0.18836467  1
  O  O45  1  0.34813500  0.50174100  0.08991900  1
  O  O46  1  0.48317200  0.17218300  0.25858800  1
  O  O47  1  0.80545733  0.80217367  0.18836467  1
  O  O48  1  0.86962633  0.53491967  0.14675967  1
  O  O49  1  0.18181267  0.16285933  0.07541733  1
  O  O50  1  0.31689567  0.83083033  0.24213933  1
  O  O51  1  0.46508033  0.33470667  0.14675967  1
  O  O52  1  0.51393467  0.68310433  0.24213933  1
  O  O53  1  0.68901100  0.51682800  0.25858800  1
  O  O54  1  0.16916967  0.48606533  0.24213933  1
  O  O55  1  0.99671633  0.19454267  0.18836467  1
  O  O56  1  0.82781700  0.31098900  0.25858800  1
  O  O57  1  0.34027900  0.86619200  0.97741900  1
  O  O58  1  0.52591300  0.65972100  0.97741900  1
  O  O59  1  0.13380800  0.47408700  0.97741900  1
  O  O60  1  0.19708967  0.19316833  0.68925833  1
  O  O61  1  0.80683167  0.00392133  0.68925833  1
  O  O62  1  0.99607867  0.80291033  0.68925833  1
  O  O63  1  0.50380733  0.35228667  0.40875067  1
  O  O64  1  0.33196000  0.46370700  0.48009300  1
  O  O65  1  0.16492567  0.17972733  0.42325233  1
  O  O66  1  0.64771333  0.15152067  0.40875067  1
  O  O67  1  0.82027267  0.98519833  0.42325233  1
  O  O68  1  0.86449300  0.33661700  0.52169800  1
  O  O69  1  0.01480167  0.83507433  0.42325233  1
  O  O70  1  0.14983867  0.50551633  0.59192133  1
  O  O71  1  0.47212400  0.13550700  0.52169800  1
  O  O72  1  0.53629300  0.86825300  0.48009300  1
  O  O73  1  0.84847933  0.49619267  0.40875067  1
  O  O74  1  0.98356233  0.16416367  0.57547267  1
  O  O75  1  0.13174700  0.66804000  0.48009300  1
  O  O76  1  0.18060133  0.01643767  0.57547267  1
  O  O77  1  0.35567767  0.85016133  0.59192133  1
  O  O78  1  0.83583633  0.81939867  0.57547267  1
  O  O79  1  0.66338300  0.52787600  0.52169800  1
  O  O80  1  0.49448367  0.64432233  0.59192133  1
  O  O81  1  0.00694567  0.19952533  0.31075233  1
  O  O82  1  0.19257967  0.99305433  0.31075233  1
  O  O83  1  0.80047467  0.80742033  0.31075233  1
  O  O84  1  0.86375633  0.52650167  0.02259167  1
  O  O85  1  0.47349833  0.33725467  0.02259167  1
  O  O86  1  0.66274533  0.13624367  0.02259167  1
  O  O87  1  0.17047400  0.68562000  0.74208400  1
  O  O88  1  0.99862667  0.79704033  0.81342633  1
  O  O89  1  0.83159233  0.51306067  0.75658567  1
  O  O90  1  0.31438000  0.48485400  0.74208400  1
  O  O91  1  0.48693933  0.31853167  0.75658567  1
  O  O92  1  0.53115967  0.66995033  0.85503133  1
  O  O93  1  0.68146833  0.16840767  0.75658567  1
  O  O94  1  0.81650533  0.83884967  0.92525467  1
  O  O95  1  0.13879067  0.46884033  0.85503133  1
  O  O96  1  0.20295967  0.20158633  0.81342633  1
  O  O97  1  0.51514600  0.82952600  0.74208400  1
  O  O98  1  0.65022900  0.49749700  0.90880600  1
  O  O99  1  0.79841367  0.00137333  0.81342633  1
  O  O100  1  0.84726800  0.34977100  0.90880600  1
  O  O101  1  0.02234433  0.18349467  0.92525467  1
  O  O102  1  0.50250300  0.15273200  0.90880600  1
  O  O103  1  0.33004967  0.86120933  0.85503133  1
  O  O104  1  0.16115033  0.97765567  0.92525467  1
  O  O105  1  0.67361233  0.53285867  0.64408567  1
  O  O106  1  0.85924633  0.32638767  0.64408567  1
  O  O107  1  0.46714133  0.14075367  0.64408567  1
