# generated using pymatgen
data_Li2MnV2(PO4)3
_symmetry_space_group_name_H-M   'P 1'
_cell_length_a   14.77220200
_cell_length_b   8.94694600
_cell_length_c   8.55595903
_cell_angle_alpha   90.00000000
_cell_angle_beta   121.96600000
_cell_angle_gamma   90.00000000
_symmetry_Int_Tables_number   1
_chemical_formula_structural   Li2MnV2(PO4)3
_chemical_formula_sum   'Li8 Mn4 V8 P12 O48'
_cell_volume   959.33472733
_cell_formula_units_Z   4
loop_
 _symmetry_equiv_pos_site_id
 _symmetry_equiv_pos_as_xyz
  1  'x, y, z'
loop_
 _atom_site_type_symbol
 _atom_site_label
 _atom_site_symmetry_multiplicity
 _atom_site_fract_x
 _atom_site_fract_y
 _atom_site_fract_z
 _atom_site_occupancy
  Li  Li0  1  0.50000000  0.64123300  0.00000000  1
  Li  Li1  1  0.50000000  0.34716900  0.50000000  1
  Li  Li2  1  0.70204100  0.95044000  0.90279700  1
  Li  Li3  1  0.29795900  0.95044000  0.09720300  1
  Li  Li4  1  0.00000000  0.14123300  0.00000000  1
  Li  Li5  1  0.00000000  0.84716900  0.50000000  1
  Li  Li6  1  0.20204100  0.45044000  0.90279700  1
  Li  Li7  1  0.79795900  0.45044000  0.09720300  1
  Mn  Mn8  1  0.25384550  0.25382750  0.26284600  1
  Mn  Mn9  1  0.74615450  0.25382750  0.73715400  1
  Mn  Mn10  1  0.75384550  0.75382750  0.26284600  1
  Mn  Mn11  1  0.24615450  0.75382750  0.73715400  1
  V  V12  1  0.60495950  0.75053950  0.39549000  1
  V  V13  1  0.39504050  0.75053950  0.60451000  1
  V  V14  1  0.60019000  0.24858000  0.89722500  1
  V  V15  1  0.39981000  0.24858000  0.10277500  1
  V  V16  1  0.10495950  0.25053950  0.39549000  1
  V  V17  1  0.89504050  0.25053950  0.60451000  1
  V  V18  1  0.10019000  0.74858000  0.89722500  1
  V  V19  1  0.89981000  0.74858000  0.10277500  1
  P  P20  1  0.15479700  0.90263200  0.30899600  1
  P  P21  1  0.84520300  0.90263200  0.69100400  1
  P  P22  1  0.50000000  0.94189100  0.00000000  1
  P  P23  1  0.50000000  0.04154900  0.50000000  1
  P  P24  1  0.14477150  0.10352450  0.79995100  1
  P  P25  1  0.85522850  0.10352450  0.20004900  1
  P  P26  1  0.65479700  0.40263200  0.30899600  1
  P  P27  1  0.34520300  0.40263200  0.69100400  1
  P  P28  1  0.00000000  0.44189100  0.00000000  1
  P  P29  1  0.00000000  0.54154900  0.50000000  1
  P  P30  1  0.64477150  0.60352450  0.79995100  1
  P  P31  1  0.35522850  0.60352450  0.20004900  1
  O  O32  1  0.35256750  0.66208650  0.36446300  1
  O  O33  1  0.44582450  0.94549950  0.57452900  1
  O  O34  1  0.16529950  0.07912050  0.31743100  1
  O  O35  1  0.53887550  0.64500250  0.78318300  1
  O  O36  1  0.54912700  0.35346900  0.28690700  1
  O  O37  1  0.24436000  0.83805700  0.49943400  1
  O  O38  1  0.75564000  0.83805700  0.50056600  1
  O  O39  1  0.83470050  0.07912050  0.68256900  1
  O  O40  1  0.55417550  0.94549950  0.42547100  1
  O  O41  1  0.41520550  0.83082850  0.84837500  1
  O  O42  1  0.41241450  0.14907250  0.35046300  1
  O  O43  1  0.64743250  0.66208650  0.63553700  1
  O  O44  1  0.82954700  0.86045800  0.84875300  1
  O  O45  1  0.58479450  0.83082850  0.15162500  1
  O  O46  1  0.58758550  0.14907250  0.64953700  1
  O  O47  1  0.43529500  0.03121400  0.05937300  1
  O  O48  1  0.16587250  0.93014650  0.81164500  1
  O  O49  1  0.23460200  0.16808000  0.99098500  1
  O  O50  1  0.76539800  0.16808000  0.00901500  1
  O  O51  1  0.46112450  0.64500250  0.21681700  1
  O  O52  1  0.45087300  0.35346900  0.71309300  1
  O  O53  1  0.83412750  0.93014650  0.18835500  1
  O  O54  1  0.56470500  0.03121400  0.94062700  1
  O  O55  1  0.17045300  0.86045800  0.15124700  1
  O  O56  1  0.85256750  0.16208650  0.36446300  1
  O  O57  1  0.94582450  0.44549950  0.57452900  1
  O  O58  1  0.66529950  0.57912050  0.31743100  1
  O  O59  1  0.03887550  0.14500250  0.78318300  1
  O  O60  1  0.04912700  0.85346900  0.28690700  1
  O  O61  1  0.74436000  0.33805700  0.49943400  1
  O  O62  1  0.25564000  0.33805700  0.50056600  1
  O  O63  1  0.33470050  0.57912050  0.68256900  1
  O  O64  1  0.05417550  0.44549950  0.42547100  1
  O  O65  1  0.91520550  0.33082850  0.84837500  1
  O  O66  1  0.91241450  0.64907250  0.35046300  1
  O  O67  1  0.14743250  0.16208650  0.63553700  1
  O  O68  1  0.32954700  0.36045800  0.84875300  1
  O  O69  1  0.08479450  0.33082850  0.15162500  1
  O  O70  1  0.08758550  0.64907250  0.64953700  1
  O  O71  1  0.93529500  0.53121400  0.05937300  1
  O  O72  1  0.66587250  0.43014650  0.81164500  1
  O  O73  1  0.73460200  0.66808000  0.99098500  1
  O  O74  1  0.26539800  0.66808000  0.00901500  1
  O  O75  1  0.96112450  0.14500250  0.21681700  1
  O  O76  1  0.95087300  0.85346900  0.71309300  1
  O  O77  1  0.33412750  0.43014650  0.18835500  1
  O  O78  1  0.06470500  0.53121400  0.94062700  1
  O  O79  1  0.67045300  0.36045800  0.15124700  1
