# generated using pymatgen
data_Co2O3F
_symmetry_space_group_name_H-M   'P 1'
_cell_length_a   8.78020800
_cell_length_b   5.85460600
_cell_length_c   9.63096386
_cell_angle_alpha   90.00000000
_cell_angle_beta   114.29240938
_cell_angle_gamma   90.00000000
_symmetry_Int_Tables_number   1
_chemical_formula_structural   Co2O3F
_chemical_formula_sum   'Co16 O24 F8'
_cell_volume   451.24124658
_cell_formula_units_Z   8
loop_
 _symmetry_equiv_pos_site_id
 _symmetry_equiv_pos_as_xyz
  1  'x, y, z'
loop_
 _atom_site_type_symbol
 _atom_site_label
 _atom_site_symmetry_multiplicity
 _atom_site_fract_x
 _atom_site_fract_y
 _atom_site_fract_z
 _atom_site_occupancy
  Co  Co0  1  0.00000000  0.00000000  0.00000000  1
  Co  Co1  1  0.72713800  0.00000000  0.48523300  1
  Co  Co2  1  0.87492400  0.75364100  0.25037000  1
  Co  Co3  1  0.62507600  0.74635900  0.74963000  1
  Co  Co4  1  0.12507600  0.75364100  0.74963000  1
  Co  Co5  1  0.00000000  0.50000000  0.00000000  1
  Co  Co6  1  0.77286200  0.50000000  0.51476700  1
  Co  Co7  1  0.37492400  0.74635900  0.25037000  1
  Co  Co8  1  0.50000000  0.50000000  0.00000000  1
  Co  Co9  1  0.22713800  0.50000000  0.48523300  1
  Co  Co10  1  0.37492400  0.25364100  0.25037000  1
  Co  Co11  1  0.12507600  0.24635900  0.74963000  1
  Co  Co12  1  0.62507600  0.25364100  0.74963000  1
  Co  Co13  1  0.50000000  0.00000000  0.00000000  1
  Co  Co14  1  0.27286200  0.00000000  0.51476700  1
  Co  Co15  1  0.87492400  0.24635900  0.25037000  1
  O  O16  1  0.45104150  0.75003850  0.09719600  1
  O  O17  1  0.04895850  0.74996150  0.90280400  1
  O  O18  1  0.79793250  0.75190850  0.40290400  1
  O  O19  1  0.04895850  0.25003850  0.90280400  1
  O  O20  1  0.73203800  0.00000000  0.15566400  1
  O  O21  1  0.51448900  0.00000000  0.34518200  1
  O  O22  1  0.76796200  0.50000000  0.84433600  1
  O  O23  1  0.20206750  0.75190850  0.59709600  1
  O  O24  1  0.70206750  0.74809150  0.59709600  1
  O  O25  1  0.45104150  0.24996150  0.09719600  1
  O  O26  1  0.29793250  0.74809150  0.40290400  1
  O  O27  1  0.98551100  0.50000000  0.65481800  1
  O  O28  1  0.95104150  0.25003850  0.09719600  1
  O  O29  1  0.54895850  0.24996150  0.90280400  1
  O  O30  1  0.29793250  0.25190850  0.40290400  1
  O  O31  1  0.54895850  0.75003850  0.90280400  1
  O  O32  1  0.23203800  0.50000000  0.15566400  1
  O  O33  1  0.01448900  0.50000000  0.34518200  1
  O  O34  1  0.26796200  0.00000000  0.84433600  1
  O  O35  1  0.70206750  0.25190850  0.59709600  1
  O  O36  1  0.20206750  0.24809150  0.59709600  1
  O  O37  1  0.95104150  0.74996150  0.09719600  1
  O  O38  1  0.79793250  0.24809150  0.40290400  1
  O  O39  1  0.48551100  0.00000000  0.65481800  1
  F  F40  1  0.28461800  0.50000000  0.85679700  1
  F  F41  1  0.95659700  0.00000000  0.63917200  1
  F  F42  1  0.21538200  0.00000000  0.14320300  1
  F  F43  1  0.54340300  0.50000000  0.36082800  1
  F  F44  1  0.78461800  0.00000000  0.85679700  1
  F  F45  1  0.45659700  0.50000000  0.63917200  1
  F  F46  1  0.71538200  0.50000000  0.14320300  1
  F  F47  1  0.04340300  0.00000000  0.36082800  1
