# generated using pymatgen
data_Li4V2Ni3Sn3O16
_symmetry_space_group_name_H-M   'P 1'
_cell_length_a   10.56644400
_cell_length_b   6.07086000
_cell_length_c   9.61041927
_cell_angle_alpha   90.00000000
_cell_angle_beta   90.13897658
_cell_angle_gamma   90.00000000
_symmetry_Int_Tables_number   1
_chemical_formula_structural   Li4V2Ni3Sn3O16
_chemical_formula_sum   'Li8 V4 Ni6 Sn6 O32'
_cell_volume   616.48161699
_cell_formula_units_Z   2
loop_
 _symmetry_equiv_pos_site_id
 _symmetry_equiv_pos_as_xyz
  1  'x, y, z'
loop_
 _atom_site_type_symbol
 _atom_site_label
 _atom_site_symmetry_multiplicity
 _atom_site_fract_x
 _atom_site_fract_y
 _atom_site_fract_z
 _atom_site_occupancy
  Li  Li0  1  0.68109600  0.00000000  0.10072600  1
  Li  Li1  1  0.98246800  0.00000000  0.01644400  1
  Li  Li2  1  0.99021200  0.00000000  0.49976300  1
  Li  Li3  1  0.83206900  0.50000000  0.59482300  1
  Li  Li4  1  0.18109600  0.50000000  0.10072600  1
  Li  Li5  1  0.48246800  0.50000000  0.01644400  1
  Li  Li6  1  0.49021200  0.50000000  0.49976300  1
  Li  Li7  1  0.33206900  0.00000000  0.59482300  1
  V  V8  1  0.67541500  0.00000000  0.50092700  1
  V  V9  1  0.85920600  0.50000000  0.02567300  1
  V  V10  1  0.17541500  0.50000000  0.50092700  1
  V  V11  1  0.35920600  0.00000000  0.02567300  1
  Ni  Ni12  1  0.82552600  0.00000000  0.78343300  1
  Ni  Ni13  1  0.91785200  0.25764600  0.28925000  1
  Ni  Ni14  1  0.91785200  0.74235400  0.28925000  1
  Ni  Ni15  1  0.32552600  0.50000000  0.78343300  1
  Ni  Ni16  1  0.41785200  0.75764600  0.28925000  1
  Ni  Ni17  1  0.41785200  0.24235400  0.28925000  1
  Sn  Sn18  1  0.58471550  0.75296350  0.78488800  1
  Sn  Sn19  1  0.58471550  0.24703650  0.78488800  1
  Sn  Sn20  1  0.67477100  0.50000000  0.28381000  1
  Sn  Sn21  1  0.08471550  0.25296350  0.78488800  1
  Sn  Sn22  1  0.08471550  0.74703650  0.78488800  1
  Sn  Sn23  1  0.17477100  0.00000000  0.28381000  1
  O  O24  1  0.59048750  0.76486050  0.41318000  1
  O  O25  1  0.51272900  0.00000000  0.65625600  1
  O  O26  1  0.66654500  0.00000000  0.90017700  1
  O  O27  1  0.99156500  0.00000000  0.68759100  1
  O  O28  1  0.99975300  0.00000000  0.20405700  1
  O  O29  1  0.59048750  0.23513950  0.41318000  1
  O  O30  1  0.73531450  0.78432650  0.64634500  1
  O  O31  1  0.73531450  0.21567350  0.64634500  1
  O  O32  1  0.65465400  0.50000000  0.90796500  1
  O  O33  1  0.81877600  0.00000000  0.41137300  1
  O  O34  1  0.76625400  0.28534900  0.14467800  1
  O  O35  1  0.76625400  0.71465100  0.14467800  1
  O  O36  1  0.83641400  0.50000000  0.39403400  1
  O  O37  1  0.91131450  0.26725350  0.91259500  1
  O  O38  1  0.98701300  0.50000000  0.14312300  1
  O  O39  1  0.91131450  0.73274650  0.91259500  1
  O  O40  1  0.09048750  0.26486050  0.41318000  1
  O  O41  1  0.01272900  0.50000000  0.65625600  1
  O  O42  1  0.16654500  0.50000000  0.90017700  1
  O  O43  1  0.49156500  0.50000000  0.68759100  1
  O  O44  1  0.49975300  0.50000000  0.20405700  1
  O  O45  1  0.09048750  0.73513950  0.41318000  1
  O  O46  1  0.23531450  0.28432650  0.64634500  1
  O  O47  1  0.23531450  0.71567350  0.64634500  1
  O  O48  1  0.15465400  0.00000000  0.90796500  1
  O  O49  1  0.31877600  0.50000000  0.41137300  1
  O  O50  1  0.26625400  0.78534900  0.14467800  1
  O  O51  1  0.26625400  0.21465100  0.14467800  1
  O  O52  1  0.33641400  0.00000000  0.39403400  1
  O  O53  1  0.41131450  0.76725350  0.91259500  1
  O  O54  1  0.48701300  0.00000000  0.14312300  1
  O  O55  1  0.41131450  0.23274650  0.91259500  1
