# generated using pymatgen
data_LiFe2F9
_symmetry_space_group_name_H-M   'P 1'
_cell_length_a   12.35435200
_cell_length_b   7.83954200
_cell_length_c   8.25030637
_cell_angle_alpha   90.00000000
_cell_angle_beta   123.47291939
_cell_angle_gamma   90.00000000
_symmetry_Int_Tables_number   1
_chemical_formula_structural   LiFe2F9
_chemical_formula_sum   'Li4 Fe8 F36'
_cell_volume   666.53524943
_cell_formula_units_Z   4
loop_
 _symmetry_equiv_pos_site_id
 _symmetry_equiv_pos_as_xyz
  1  'x, y, z'
loop_
 _atom_site_type_symbol
 _atom_site_label
 _atom_site_symmetry_multiplicity
 _atom_site_fract_x
 _atom_site_fract_y
 _atom_site_fract_z
 _atom_site_occupancy
  Li  Li0  1  0.40476050  0.63955250  0.78114000  1
  Li  Li1  1  0.90476050  0.86044750  0.28114000  1
  Li  Li2  1  0.90476050  0.13955250  0.78114000  1
  Li  Li3  1  0.40476050  0.36044750  0.28114000  1
  Fe  Fe4  1  0.20849300  0.84233800  0.29529100  1
  Fe  Fe5  1  0.09807450  0.74379450  0.79862900  1
  Fe  Fe6  1  0.20849300  0.15766200  0.79529100  1
  Fe  Fe7  1  0.09807450  0.25620550  0.29862900  1
  Fe  Fe8  1  0.70849300  0.34233800  0.29529100  1
  Fe  Fe9  1  0.59807450  0.24379450  0.79862900  1
  Fe  Fe10  1  0.70849300  0.65766200  0.79529100  1
  Fe  Fe11  1  0.59807450  0.75620550  0.29862900  1
  F  F12  1  0.97444600  0.84846100  0.81430600  1
  F  F13  1  0.20006600  0.04615100  0.41461100  1
  F  F14  1  0.29752900  0.71304200  0.51702600  1
  F  F15  1  0.18510700  0.69655200  0.09828800  1
  F  F16  1  0.23735050  0.34679250  0.31621800  1
  F  F17  1  0.54776850  0.70104550  0.72742400  1
  F  F18  1  0.52406350  0.03789650  0.74962200  1
  F  F19  1  0.03019950  0.83661150  0.55220000  1
  F  F20  1  0.33621850  0.94323650  0.29966900  1
  F  F21  1  0.47444600  0.65153900  0.31430600  1
  F  F22  1  0.79752900  0.78695800  0.01702600  1
  F  F23  1  0.20006600  0.95384900  0.91461100  1
  F  F24  1  0.04776850  0.79895450  0.22742400  1
  F  F25  1  0.68510700  0.80344800  0.59828800  1
  F  F26  1  0.23735050  0.65320750  0.81621800  1
  F  F27  1  0.02406350  0.46210350  0.24962200  1
  F  F28  1  0.03019950  0.16338850  0.05220000  1
  F  F29  1  0.33621850  0.05676350  0.79966900  1
  F  F30  1  0.47444600  0.34846100  0.81430600  1
  F  F31  1  0.70006600  0.54615100  0.41461100  1
  F  F32  1  0.79752900  0.21304200  0.51702600  1
  F  F33  1  0.68510700  0.19655200  0.09828800  1
  F  F34  1  0.73735050  0.84679250  0.31621800  1
  F  F35  1  0.04776850  0.20104550  0.72742400  1
  F  F36  1  0.02406350  0.53789650  0.74962200  1
  F  F37  1  0.53019950  0.33661150  0.55220000  1
  F  F38  1  0.83621850  0.44323650  0.29966900  1
  F  F39  1  0.97444600  0.15153900  0.31430600  1
  F  F40  1  0.29752900  0.28695800  0.01702600  1
  F  F41  1  0.70006600  0.45384900  0.91461100  1
  F  F42  1  0.54776850  0.29895450  0.22742400  1
  F  F43  1  0.18510700  0.30344800  0.59828800  1
  F  F44  1  0.73735050  0.15320750  0.81621800  1
  F  F45  1  0.52406350  0.96210350  0.24962200  1
  F  F46  1  0.53019950  0.66338850  0.05220000  1
  F  F47  1  0.83621850  0.55676350  0.79966900  1
