# generated using pymatgen
data_Li3Fe(CuO3)2
_symmetry_space_group_name_H-M   'P 1'
_cell_length_a   12.88668200
_cell_length_b   2.95248200
_cell_length_c   5.91833351
_cell_angle_alpha   90.00000000
_cell_angle_beta   103.60750577
_cell_angle_gamma   90.00000000
_symmetry_Int_Tables_number   1
_chemical_formula_structural   Li3Fe(CuO3)2
_chemical_formula_sum   'Li6 Fe2 Cu4 O12'
_cell_volume   218.85822697
_cell_formula_units_Z   2
loop_
 _symmetry_equiv_pos_site_id
 _symmetry_equiv_pos_as_xyz
  1  'x, y, z'
loop_
 _atom_site_type_symbol
 _atom_site_label
 _atom_site_symmetry_multiplicity
 _atom_site_fract_x
 _atom_site_fract_y
 _atom_site_fract_z
 _atom_site_occupancy
  Li  Li0  1  0.00000000  0.50000000  0.50000000  1
  Li  Li1  1  0.17123700  0.00000000  0.83604600  1
  Li  Li2  1  0.32876300  0.50000000  0.16395400  1
  Li  Li3  1  0.50000000  0.00000000  0.50000000  1
  Li  Li4  1  0.67123700  0.50000000  0.83604600  1
  Li  Li5  1  0.82876300  0.00000000  0.16395400  1
  Fe  Fe6  1  0.00000000  0.50000000  0.00000000  1
  Fe  Fe7  1  0.50000000  0.00000000  0.00000000  1
  Cu  Cu8  1  0.16769400  0.00000000  0.33335100  1
  Cu  Cu9  1  0.33230600  0.50000000  0.66664900  1
  Cu  Cu10  1  0.66769400  0.50000000  0.33335100  1
  Cu  Cu11  1  0.83230600  0.00000000  0.66664900  1
  O  O12  1  0.16497800  0.50000000  0.09543000  1
  O  O13  1  0.32838000  0.00000000  0.42989600  1
  O  O14  1  0.33502200  0.00000000  0.90457000  1
  O  O15  1  0.49677700  0.50000000  0.76150500  1
  O  O16  1  0.00322300  0.00000000  0.23849500  1
  O  O17  1  0.17162000  0.50000000  0.57010400  1
  O  O18  1  0.66497800  0.00000000  0.09543000  1
  O  O19  1  0.82838000  0.50000000  0.42989600  1
  O  O20  1  0.83502200  0.50000000  0.90457000  1
  O  O21  1  0.99677700  0.00000000  0.76150500  1
  O  O22  1  0.50322300  0.50000000  0.23849500  1
  O  O23  1  0.67162000  0.00000000  0.57010400  1
