# generated using pymatgen
data_Fe3(OF2)2
_symmetry_space_group_name_H-M   'P 1'
_cell_length_a   9.35977400
_cell_length_b   6.59883800
_cell_length_c   7.66296301
_cell_angle_alpha   90.00000000
_cell_angle_beta   114.57204934
_cell_angle_gamma   90.00000000
_symmetry_Int_Tables_number   1
_chemical_formula_structural   Fe3(OF2)2
_chemical_formula_sum   'Fe12 O8 F16'
_cell_volume   430.43063027
_cell_formula_units_Z   4
loop_
 _symmetry_equiv_pos_site_id
 _symmetry_equiv_pos_as_xyz
  1  'x, y, z'
loop_
 _atom_site_type_symbol
 _atom_site_label
 _atom_site_symmetry_multiplicity
 _atom_site_fract_x
 _atom_site_fract_y
 _atom_site_fract_z
 _atom_site_occupancy
  Fe  Fe0  1  0.15623050  0.48592150  0.15921400  1
  Fe  Fe1  1  0.83356900  0.51956700  0.33548500  1
  Fe  Fe2  1  0.16643100  0.51956700  0.66451500  1
  Fe  Fe3  1  0.84376950  0.48592150  0.84078600  1
  Fe  Fe4  1  0.00000000  0.98040800  0.50000000  1
  Fe  Fe5  1  0.00000000  0.98658200  0.00000000  1
  Fe  Fe6  1  0.65623050  0.98592150  0.15921400  1
  Fe  Fe7  1  0.33356900  0.01956700  0.33548500  1
  Fe  Fe8  1  0.66643100  0.01956700  0.66451500  1
  Fe  Fe9  1  0.34376950  0.98592150  0.84078600  1
  Fe  Fe10  1  0.50000000  0.48040800  0.50000000  1
  Fe  Fe11  1  0.50000000  0.48658200  0.00000000  1
  O  O12  1  0.17065750  0.82022050  0.66843000  1
  O  O13  1  0.82934250  0.82022050  0.33157000  1
  O  O14  1  0.00000000  0.28662300  0.00000000  1
  O  O15  1  0.00000000  0.69268800  0.00000000  1
  O  O16  1  0.67065750  0.32022050  0.66843000  1
  O  O17  1  0.32934250  0.32022050  0.33157000  1
  O  O18  1  0.50000000  0.78662300  0.00000000  1
  O  O19  1  0.50000000  0.19268800  0.00000000  1
  F  F20  1  0.83519950  0.20530950  0.33734500  1
  F  F21  1  0.16480050  0.20530950  0.66265500  1
  F  F22  1  0.40819350  0.49909150  0.70380800  1
  F  F23  1  0.72790250  0.49566050  0.02717900  1
  F  F24  1  0.06739400  0.50107800  0.35978000  1
  F  F25  1  0.27209750  0.49566050  0.97282100  1
  F  F26  1  0.93260600  0.50107800  0.64022000  1
  F  F27  1  0.59180650  0.49909150  0.29619200  1
  F  F28  1  0.33519950  0.70530950  0.33734500  1
  F  F29  1  0.66480050  0.70530950  0.66265500  1
  F  F30  1  0.90819350  0.99909150  0.70380800  1
  F  F31  1  0.22790250  0.99566050  0.02717900  1
  F  F32  1  0.56739400  0.00107800  0.35978000  1
  F  F33  1  0.77209750  0.99566050  0.97282100  1
  F  F34  1  0.43260600  0.00107800  0.64022000  1
  F  F35  1  0.09180650  0.99909150  0.29619200  1
