# generated using pymatgen
data_Li5V5(CoO6)2
_symmetry_space_group_name_H-M   'P 1'
_cell_length_a   5.19665800
_cell_length_b   8.97692400
_cell_length_c   9.88702243
_cell_angle_alpha   90.00000000
_cell_angle_beta   99.89534762
_cell_angle_gamma   90.00000000
_symmetry_Int_Tables_number   1
_chemical_formula_structural   Li5V5(CoO6)2
_chemical_formula_sum   'Li10 V10 Co4 O24'
_cell_volume   454.36805258
_cell_formula_units_Z   2
loop_
 _symmetry_equiv_pos_site_id
 _symmetry_equiv_pos_as_xyz
  1  'x, y, z'
loop_
 _atom_site_type_symbol
 _atom_site_label
 _atom_site_symmetry_multiplicity
 _atom_site_fract_x
 _atom_site_fract_y
 _atom_site_fract_z
 _atom_site_occupancy
  Li  Li0  1  0.25189150  0.91208650  0.26244100  1
  Li  Li1  1  0.23394150  0.08369750  0.73588300  1
  Li  Li2  1  0.74810850  0.91208650  0.73755900  1
  Li  Li3  1  0.76605850  0.08369750  0.26411700  1
  Li  Li4  1  0.50000000  0.42015500  0.50000000  1
  Li  Li5  1  0.75189150  0.41208650  0.26244100  1
  Li  Li6  1  0.73394150  0.58369750  0.73588300  1
  Li  Li7  1  0.24810850  0.41208650  0.73755900  1
  Li  Li8  1  0.26605850  0.58369750  0.26411700  1
  Li  Li9  1  0.00000000  0.92015500  0.50000000  1
  V  V10  1  0.50000000  0.92298200  0.00000000  1
  V  V11  1  0.50000000  0.07618300  0.50000000  1
  V  V12  1  0.50000000  0.58279200  0.00000000  1
  V  V13  1  0.74156550  0.25534350  0.74107000  1
  V  V14  1  0.25843450  0.25534350  0.25893000  1
  V  V15  1  0.00000000  0.42298200  0.00000000  1
  V  V16  1  0.00000000  0.57618300  0.50000000  1
  V  V17  1  0.00000000  0.08279200  0.00000000  1
  V  V18  1  0.24156550  0.75534350  0.74107000  1
  V  V19  1  0.75843450  0.75534350  0.25893000  1
  Co  Co20  1  0.50000000  0.74589900  0.50000000  1
  Co  Co21  1  0.50000000  0.25249100  0.00000000  1
  Co  Co22  1  0.00000000  0.24589900  0.50000000  1
  Co  Co23  1  0.00000000  0.75249100  0.00000000  1
  O  O24  1  0.85314400  0.08880800  0.62167800  1
  O  O25  1  0.14685600  0.08880800  0.37832200  1
  O  O26  1  0.39360100  0.75332800  0.11907200  1
  O  O27  1  0.60639900  0.75332800  0.88092800  1
  O  O28  1  0.37432600  0.90959500  0.62541000  1
  O  O29  1  0.62567400  0.90959500  0.37459000  1
  O  O30  1  0.35718850  0.08690850  0.11781000  1
  O  O31  1  0.64281150  0.08690850  0.88219000  1
  O  O32  1  0.39300750  0.24038550  0.62853300  1
  O  O33  1  0.60699250  0.24038550  0.37146700  1
  O  O34  1  0.86182050  0.91959550  0.11851800  1
  O  O35  1  0.13817950  0.91959550  0.88148200  1
  O  O36  1  0.35314400  0.58880800  0.62167800  1
  O  O37  1  0.64685600  0.58880800  0.37832200  1
  O  O38  1  0.89360100  0.25332800  0.11907200  1
  O  O39  1  0.10639900  0.25332800  0.88092800  1
  O  O40  1  0.87432600  0.40959500  0.62541000  1
  O  O41  1  0.12567400  0.40959500  0.37459000  1
  O  O42  1  0.85718850  0.58690850  0.11781000  1
  O  O43  1  0.14281150  0.58690850  0.88219000  1
  O  O44  1  0.89300750  0.74038550  0.62853300  1
  O  O45  1  0.10699250  0.74038550  0.37146700  1
  O  O46  1  0.36182050  0.41959550  0.11851800  1
  O  O47  1  0.63817950  0.41959550  0.88148200  1
