# generated using pymatgen
data_Li4Nb2V3Ni3O16
_symmetry_space_group_name_H-M   'P 1'
_cell_length_a   10.27450511
_cell_length_b   5.96657078
_cell_length_c   9.71042258
_cell_angle_alpha   90.00000000
_cell_angle_beta   90.46231790
_cell_angle_gamma   90.00000000
_symmetry_Int_Tables_number   1
_chemical_formula_structural   Li4Nb2V3Ni3O16
_chemical_formula_sum   'Li8 Nb4 V6 Ni6 O32'
_cell_volume   595.26411381
_cell_formula_units_Z   2
loop_
 _symmetry_equiv_pos_site_id
 _symmetry_equiv_pos_as_xyz
  1  'x, y, z'
loop_
 _atom_site_type_symbol
 _atom_site_label
 _atom_site_symmetry_multiplicity
 _atom_site_fract_x
 _atom_site_fract_y
 _atom_site_fract_z
 _atom_site_occupancy
  Li  Li0  1  0.16289200  0.50000000  0.89840900  1
  Li  Li1  1  0.50343900  0.50000000  0.98791700  1
  Li  Li2  1  0.50445950  0.50000000  0.49455400  1
  Li  Li3  1  0.83357750  0.50000000  0.40372700  1
  Li  Li4  1  0.66289200  0.00000000  0.89840900  1
  Li  Li5  1  0.00343900  0.00000000  0.98791700  1
  Li  Li6  1  0.00445950  0.00000000  0.49455400  1
  Li  Li7  1  0.33357750  0.00000000  0.40372700  1
  Nb  Nb8  1  0.16660600  0.50000000  0.50152800  1
  Nb  Nb9  1  0.84918800  0.50000000  0.98740200  1
  Nb  Nb10  1  0.66660600  0.00000000  0.50152800  1
  Nb  Nb11  1  0.34918800  0.00000000  0.98740200  1
  V  V12  1  0.09545150  0.24987850  0.22029300  1
  V  V13  1  0.09545150  0.75012150  0.22029300  1
  V  V14  1  0.67621300  0.50000000  0.72636200  1
  V  V15  1  0.59545150  0.74987850  0.22029300  1
  V  V16  1  0.59545150  0.25012150  0.22029300  1
  V  V17  1  0.17621300  0.00000000  0.72636200  1
  Ni  Ni18  1  0.33311350  0.50000000  0.20758300  1
  Ni  Ni19  1  0.91395350  0.25205850  0.71173100  1
  Ni  Ni20  1  0.91395350  0.74794150  0.71173100  1
  Ni  Ni21  1  0.83311350  0.00000000  0.20758300  1
  Ni  Ni22  1  0.41395350  0.75205850  0.71173100  1
  Ni  Ni23  1  0.41395350  0.24794150  0.71173100  1
  O  O24  1  0.08822700  0.25275600  0.59163000  1
  O  O25  1  0.02069550  0.50000000  0.33534200  1
  O  O26  1  0.15391200  0.50000000  0.10498500  1
  O  O27  1  0.50687550  0.50000000  0.30499100  1
  O  O28  1  0.51105100  0.50000000  0.79909000  1
  O  O29  1  0.08822700  0.74724400  0.59163000  1
  O  O30  1  0.23422100  0.26752600  0.33775700  1
  O  O31  1  0.23422100  0.73247400  0.33775700  1
  O  O32  1  0.66645250  0.50000000  0.10293200  1
  O  O33  1  0.33433600  0.50000000  0.58380100  1
  O  O34  1  0.75299100  0.28170500  0.85025600  1
  O  O35  1  0.75299100  0.71829500  0.85025600  1
  O  O36  1  0.81706200  0.50000000  0.60825000  1
  O  O37  1  0.92387550  0.25156450  0.09601500  1
  O  O38  1  0.98010250  0.50000000  0.84768100  1
  O  O39  1  0.92387550  0.74843550  0.09601500  1
  O  O40  1  0.58822700  0.75275600  0.59163000  1
  O  O41  1  0.52069550  0.00000000  0.33534200  1
  O  O42  1  0.65391200  0.00000000  0.10498500  1
  O  O43  1  0.00687550  0.00000000  0.30499100  1
  O  O44  1  0.01105100  0.00000000  0.79909000  1
  O  O45  1  0.58822700  0.24724400  0.59163000  1
  O  O46  1  0.73422100  0.76752600  0.33775700  1
  O  O47  1  0.73422100  0.23247400  0.33775700  1
  O  O48  1  0.16645250  0.00000000  0.10293200  1
  O  O49  1  0.83433600  0.00000000  0.58380100  1
  O  O50  1  0.25299100  0.78170500  0.85025600  1
  O  O51  1  0.25299100  0.21829500  0.85025600  1
  O  O52  1  0.31706200  0.00000000  0.60825000  1
  O  O53  1  0.42387550  0.75156450  0.09601500  1
  O  O54  1  0.48010250  0.00000000  0.84768100  1
  O  O55  1  0.42387550  0.24843550  0.09601500  1
