# generated using pymatgen
data_FeOF
_symmetry_space_group_name_H-M   'P 1'
_cell_length_a   9.49101077
_cell_length_b   3.07830600
_cell_length_c   14.17751803
_cell_angle_alpha   90.00000000
_cell_angle_beta   90.08701308
_cell_angle_gamma   90.00000000
_symmetry_Int_Tables_number   1
_chemical_formula_structural   FeOF
_chemical_formula_sum   'Fe12 O12 F12'
_cell_volume   414.21322669
_cell_formula_units_Z   12
loop_
 _symmetry_equiv_pos_site_id
 _symmetry_equiv_pos_as_xyz
  1  'x, y, z'
loop_
 _atom_site_type_symbol
 _atom_site_label
 _atom_site_symmetry_multiplicity
 _atom_site_fract_x
 _atom_site_fract_y
 _atom_site_fract_z
 _atom_site_occupancy
  Fe  Fe0  1  0.98978200  0.00000000  0.99351700  1
  Fe  Fe1  1  0.00988900  0.00000000  0.65986200  1
  Fe  Fe2  1  0.97714400  0.00000000  0.33885800  1
  Fe  Fe3  1  0.78438200  0.50000000  0.82416000  1
  Fe  Fe4  1  0.77082300  0.50000000  0.50864200  1
  Fe  Fe5  1  0.73654000  0.50000000  0.19346200  1
  Fe  Fe6  1  0.47956100  0.00000000  0.66479200  1
  Fe  Fe7  1  0.50432600  0.00000000  0.99307800  1
  Fe  Fe8  1  0.48317900  0.00000000  0.33948700  1
  Fe  Fe9  1  0.24883200  0.50000000  0.81160500  1
  Fe  Fe10  1  0.25572400  0.50000000  0.50735300  1
  Fe  Fe11  1  0.25969400  0.50000000  0.17488900  1
  O  O12  1  0.91323300  0.50000000  0.72581200  1
  O  O13  1  0.89835400  0.50000000  0.39873900  1
  O  O14  1  0.86078700  0.00000000  0.89731500  1
  O  O15  1  0.84537000  0.00000000  0.23062000  1
  O  O16  1  0.85240400  0.00000000  0.56714400  1
  O  O17  1  0.58301500  0.50000000  0.27886100  1
  O  O18  1  0.41084100  0.50000000  0.73365600  1
  O  O19  1  0.39500600  0.50000000  0.40189000  1
  O  O20  1  0.34903000  0.00000000  0.56365400  1
  O  O21  1  0.33954600  0.00000000  0.23145800  1
  O  O22  1  0.15166400  0.00000000  0.76633000  1
  O  O23  1  0.10438300  0.50000000  0.59495600  1
  F  F24  1  0.90040900  0.50000000  0.06278200  1
  F  F25  1  0.66501400  0.00000000  0.76629700  1
  F  F26  1  0.64914400  0.00000000  0.44345400  1
  F  F27  1  0.64922400  0.00000000  0.10416500  1
  F  F28  1  0.60806800  0.50000000  0.92680300  1
  F  F29  1  0.59966300  0.50000000  0.60276300  1
  F  F30  1  0.39432300  0.50000000  0.06197200  1
  F  F31  1  0.34166100  0.00000000  0.89876200  1
  F  F32  1  0.14435500  0.00000000  0.09956600  1
  F  F33  1  0.14969700  0.00000000  0.42800600  1
  F  F34  1  0.10276200  0.50000000  0.94009700  1
  F  F35  1  0.09216800  0.50000000  0.26519500  1
