# generated using pymatgen
data_LiVP4(H2O3)6
_symmetry_space_group_name_H-M   'P 1'
_cell_length_a   8.44519000
_cell_length_b   12.03023400
_cell_length_c   14.24585900
_cell_angle_alpha   90.00000000
_cell_angle_beta   96.96640710
_cell_angle_gamma   90.00000000
_symmetry_Int_Tables_number   1
_chemical_formula_structural   LiVP4(H2O3)6
_chemical_formula_sum   'Li4 V4 P16 H48 O72'
_cell_volume   1436.66013106
_cell_formula_units_Z   4
loop_
 _symmetry_equiv_pos_site_id
 _symmetry_equiv_pos_as_xyz
  1  'x, y, z'
loop_
 _atom_site_type_symbol
 _atom_site_label
 _atom_site_symmetry_multiplicity
 _atom_site_fract_x
 _atom_site_fract_y
 _atom_site_fract_z
 _atom_site_occupancy
  Li  Li0  1  0.50000000  0.03441100  0.25000000  1
  Li  Li1  1  0.50000000  0.96558900  0.75000000  1
  Li  Li2  1  0.00000000  0.53441100  0.25000000  1
  Li  Li3  1  0.00000000  0.46558900  0.75000000  1
  V  V4  1  0.50000000  0.63594000  0.25000000  1
  V  V5  1  0.50000000  0.36406000  0.75000000  1
  V  V6  1  0.00000000  0.13594000  0.25000000  1
  V  V7  1  0.00000000  0.86406000  0.75000000  1
  P  P8  1  0.10250850  0.91458150  0.40413700  1
  P  P9  1  0.10250850  0.08541850  0.90413700  1
  P  P10  1  0.24142450  0.96043950  0.07745700  1
  P  P11  1  0.24142450  0.03956050  0.57745700  1
  P  P12  1  0.75857550  0.96043950  0.42254300  1
  P  P13  1  0.75857550  0.03956050  0.92254300  1
  P  P14  1  0.89749150  0.91458150  0.09586300  1
  P  P15  1  0.89749150  0.08541850  0.59586300  1
  P  P16  1  0.60250850  0.41458150  0.40413700  1
  P  P17  1  0.60250850  0.58541850  0.90413700  1
  P  P18  1  0.74142450  0.46043950  0.07745700  1
  P  P19  1  0.74142450  0.53956050  0.57745700  1
  P  P20  1  0.25857550  0.46043950  0.42254300  1
  P  P21  1  0.25857550  0.53956050  0.92254300  1
  P  P22  1  0.39749150  0.41458150  0.09586300  1
  P  P23  1  0.39749150  0.58541850  0.59586300  1
  H  H24  1  0.26110950  0.25649950  0.23041500  1
  H  H25  1  0.26110950  0.74350050  0.73041500  1
  H  H26  1  0.30478600  0.17799800  0.32166500  1
  H  H27  1  0.30478600  0.82200200  0.82166500  1
  H  H28  1  0.36380400  0.74561500  0.38708900  1
  H  H29  1  0.36380400  0.25438500  0.88708900  1
  H  H30  1  0.42287500  0.11097000  0.43536400  1
  H  H31  1  0.42287500  0.88903000  0.93536400  1
  H  H32  1  0.46518100  0.18700100  0.12035300  1
  H  H33  1  0.45108700  0.77875100  0.09935000  1
  H  H34  1  0.46518100  0.81299900  0.62035300  1
  H  H35  1  0.45108700  0.22124900  0.59935000  1
  H  H36  1  0.54891300  0.77875100  0.40065000  1
  H  H37  1  0.53481900  0.18700100  0.37964700  1
  H  H38  1  0.54891300  0.22124900  0.90065000  1
  H  H39  1  0.53481900  0.81299900  0.87964700  1
  H  H40  1  0.57712500  0.11097000  0.06463600  1
  H  H41  1  0.57712500  0.88903000  0.56463600  1
  H  H42  1  0.63619600  0.74561500  0.11291100  1
  H  H43  1  0.63619600  0.25438500  0.61291100  1
  H  H44  1  0.69521400  0.17799800  0.17833500  1
  H  H45  1  0.69521400  0.82200200  0.67833500  1
  H  H46  1  0.73889050  0.25649950  0.26958500  1
  H  H47  1  0.73889050  0.74350050  0.76958500  1
  H  H48  1  0.76110950  0.75649950  0.23041500  1
  H  H49  1  0.76110950  0.24350050  0.73041500  1
  H  H50  1  0.80478600  0.67799800  0.32166500  1
  H  H51  1  0.80478600  0.32200200  0.82166500  1
  H  H52  1  0.86380400  0.24561500  0.38708900  1
  H  H53  1  0.86380400  0.75438500  0.88708900  1
  H  H54  1  0.92287500  0.61097000  0.43536400  1
  H  H55  1  0.92287500  0.38903000  0.93536400  1
  H  H56  1  0.96518100  0.68700100  0.12035300  1
  H  H57  1  0.95108700  0.27875100  0.09935000  1
  H  H58  1  0.96518100  0.31299900  0.62035300  1
  H  H59  1  0.95108700  0.72124900  0.59935000  1
  H  H60  1  0.04891300  0.27875100  0.40065000  1
  H  H61  1  0.03481900  0.68700100  0.37964700  1
  H  H62  1  0.04891300  0.72124900  0.90065000  1
  H  H63  1  0.03481900  0.31299900  0.87964700  1
  H  H64  1  0.07712500  0.61097000  0.06463600  1
  H  H65  1  0.07712500  0.38903000  0.56463600  1
  H  H66  1  0.13619600  0.24561500  0.11291100  1
  H  H67  1  0.13619600  0.75438500  0.61291100  1
  H  H68  1  0.19521400  0.67799800  0.17833500  1
  H  H69  1  0.19521400  0.32200200  0.67833500  1
  H  H70  1  0.23889050  0.75649950  0.26958500  1
  H  H71  1  0.23889050  0.24350050  0.76958500  1
  O  O72  1  0.10069200  0.01357800  0.33972400  1
  O  O73  1  0.10069200  0.98642200  0.83972400  1
  O  O74  1  0.27213650  0.00759450  0.17512000  1
  O  O75  1  0.27213650  0.99240550  0.67512000  1
  O  O76  1  0.21397400  0.06300800  0.00193300  1
  O  O77  1  0.21397400  0.93699200  0.50193300  1
  O  O78  1  0.71293300  0.71874600  0.28188200  1
  O  O79  1  0.71293300  0.28125400  0.78188200  1
  O  O80  1  0.34276150  0.30355250  0.12963900  1
  O  O81  1  0.36131450  0.88368350  0.04200200  1
  O  O82  1  0.34276150  0.69644750  0.62963900  1
  O  O83  1  0.36131450  0.11631650  0.54200200  1
  O  O84  1  0.45483350  0.12583950  0.37072300  1
  O  O85  1  0.42967150  0.39635950  0.43831400  1
  O  O86  1  0.45483350  0.87416050  0.87072300  1
  O  O87  1  0.42967150  0.60364050  0.93831400  1
  O  O88  1  0.47045950  0.71981750  0.37537200  1
  O  O89  1  0.47045950  0.28018250  0.87537200  1
  O  O90  1  0.52954050  0.71981750  0.12462800  1
  O  O91  1  0.52954050  0.28018250  0.62462800  1
  O  O92  1  0.57032850  0.39635950  0.06168600  1
  O  O93  1  0.54516650  0.12583950  0.12927700  1
  O  O94  1  0.57032850  0.60364050  0.56168600  1
  O  O95  1  0.54516650  0.87416050  0.62927700  1
  O  O96  1  0.63868550  0.88368350  0.45799800  1
  O  O97  1  0.65723850  0.30355250  0.37036100  1
  O  O98  1  0.63868550  0.11631650  0.95799800  1
  O  O99  1  0.65723850  0.69644750  0.87036100  1
  O  O100  1  0.28706700  0.71874600  0.21811800  1
  O  O101  1  0.28706700  0.28125400  0.71811800  1
  O  O102  1  0.78602600  0.06300800  0.49806700  1
  O  O103  1  0.78602600  0.93699200  0.99806700  1
  O  O104  1  0.72786350  0.00759450  0.32488000  1
  O  O105  1  0.72786350  0.99240550  0.82488000  1
  O  O106  1  0.89930800  0.01357800  0.16027600  1
  O  O107  1  0.89930800  0.98642200  0.66027600  1
  O  O108  1  0.60069200  0.51357800  0.33972400  1
  O  O109  1  0.60069200  0.48642200  0.83972400  1
  O  O110  1  0.77213650  0.50759450  0.17512000  1
  O  O111  1  0.77213650  0.49240550  0.67512000  1
  O  O112  1  0.71397400  0.56300800  0.00193300  1
  O  O113  1  0.71397400  0.43699200  0.50193300  1
  O  O114  1  0.21293300  0.21874600  0.28188200  1
  O  O115  1  0.21293300  0.78125400  0.78188200  1
  O  O116  1  0.84276150  0.80355250  0.12963900  1
  O  O117  1  0.86131450  0.38368350  0.04200200  1
  O  O118  1  0.84276150  0.19644750  0.62963900  1
  O  O119  1  0.86131450  0.61631650  0.54200200  1
  O  O120  1  0.95483350  0.62583950  0.37072300  1
  O  O121  1  0.92967150  0.89635950  0.43831400  1
  O  O122  1  0.95483350  0.37416050  0.87072300  1
  O  O123  1  0.92967150  0.10364050  0.93831400  1
  O  O124  1  0.97045950  0.21981750  0.37537200  1
  O  O125  1  0.97045950  0.78018250  0.87537200  1
  O  O126  1  0.02954050  0.21981750  0.12462800  1
  O  O127  1  0.02954050  0.78018250  0.62462800  1
  O  O128  1  0.07032850  0.89635950  0.06168600  1
  O  O129  1  0.04516650  0.62583950  0.12927700  1
  O  O130  1  0.07032850  0.10364050  0.56168600  1
  O  O131  1  0.04516650  0.37416050  0.62927700  1
  O  O132  1  0.13868550  0.38368350  0.45799800  1
  O  O133  1  0.15723850  0.80355250  0.37036100  1
  O  O134  1  0.13868550  0.61631650  0.95799800  1
  O  O135  1  0.15723850  0.19644750  0.87036100  1
  O  O136  1  0.78706700  0.21874600  0.21811800  1
  O  O137  1  0.78706700  0.78125400  0.71811800  1
  O  O138  1  0.28602600  0.56300800  0.49806700  1
  O  O139  1  0.28602600  0.43699200  0.99806700  1
  O  O140  1  0.22786350  0.50759450  0.32488000  1
  O  O141  1  0.22786350  0.49240550  0.82488000  1
  O  O142  1  0.39930800  0.51357800  0.16027600  1
  O  O143  1  0.39930800  0.48642200  0.66027600  1
