# generated using pymatgen
data_Li2Ti3CoO8
_symmetry_space_group_name_H-M   'P 1'
_cell_length_a   5.96300020
_cell_length_b   5.96300020
_cell_length_c   14.31874494
_cell_angle_alpha   90.00000000
_cell_angle_beta   90.00000000
_cell_angle_gamma   120.00000000
_symmetry_Int_Tables_number   1
_chemical_formula_structural   Li2Ti3CoO8
_chemical_formula_sum   'Li6 Ti9 Co3 O24'
_cell_volume   440.92551622
_cell_formula_units_Z   3
loop_
 _symmetry_equiv_pos_site_id
 _symmetry_equiv_pos_as_xyz
  1  'x, y, z'
loop_
 _atom_site_type_symbol
 _atom_site_label
 _atom_site_symmetry_multiplicity
 _atom_site_fract_x
 _atom_site_fract_y
 _atom_site_fract_z
 _atom_site_occupancy
  Li  Li0  1  0.33333333  0.66666667  0.78818267  1
  Li  Li1  1  0.33333333  0.66666667  0.54515067  1
  Li  Li2  1  0.00000000  0.00000000  0.12151600  1
  Li  Li3  1  0.00000000  0.00000000  0.87848400  1
  Li  Li4  1  0.66666667  0.33333333  0.45484933  1
  Li  Li5  1  0.66666667  0.33333333  0.21181733  1
  Ti  Ti6  1  0.50000000  0.50000000  0.00000000  1
  Ti  Ti7  1  0.00000000  0.50000000  0.00000000  1
  Ti  Ti8  1  0.16666667  0.33333333  0.33333333  1
  Ti  Ti9  1  0.16666667  0.83333333  0.33333333  1
  Ti  Ti10  1  0.66666667  0.83333333  0.33333333  1
  Ti  Ti11  1  0.83333333  0.66666667  0.66666667  1
  Ti  Ti12  1  0.83333333  0.16666667  0.66666667  1
  Ti  Ti13  1  0.33333333  0.16666667  0.66666667  1
  Ti  Ti14  1  0.50000000  0.00000000  0.00000000  1
  Co  Co15  1  0.33333333  0.66666667  0.16666667  1
  Co  Co16  1  1.00000000  1.00000000  0.50000000  1
  Co  Co17  1  0.66666667  0.33333333  0.83333333  1
  O  O18  1  0.33333333  0.66666667  0.92646067  1
  O  O19  1  0.18169133  0.36338267  0.07555967  1
  O  O20  1  0.63661733  0.81830867  0.07555967  1
  O  O21  1  0.18169133  0.81830867  0.07555967  1
  O  O22  1  0.48497533  0.51502467  0.25777367  1
  O  O23  1  0.03004933  0.51502467  0.25777367  1
  O  O24  1  0.48497533  0.96995067  0.25777367  1
  O  O25  1  0.33333333  0.66666667  0.40687267  1
  O  O26  1  0.00000000  0.00000000  0.25979400  1
  O  O27  1  0.84835800  0.69671600  0.40889300  1
  O  O28  1  0.30328400  0.15164200  0.40889300  1
  O  O29  1  0.84835800  0.15164200  0.40889300  1
  O  O30  1  0.15164200  0.84835800  0.59110700  1
  O  O31  1  0.69671600  0.84835800  0.59110700  1
  O  O32  1  0.15164200  0.30328400  0.59110700  1
  O  O33  1  0.00000000  0.00000000  0.74020600  1
  O  O34  1  0.66666667  0.33333333  0.59312733  1
  O  O35  1  0.51502467  0.03004933  0.74222633  1
  O  O36  1  0.96995067  0.48497533  0.74222633  1
  O  O37  1  0.51502467  0.48497533  0.74222633  1
  O  O38  1  0.81830867  0.18169133  0.92444033  1
  O  O39  1  0.36338267  0.18169133  0.92444033  1
  O  O40  1  0.81830867  0.63661733  0.92444033  1
  O  O41  1  0.66666667  0.33333333  0.07353933  1
