# generated using pymatgen
data_Li3Mn2CuO6
_symmetry_space_group_name_H-M   'P 1'
_cell_length_a   14.72034256
_cell_length_b   2.82037114
_cell_length_c   5.72461747
_cell_angle_alpha   90.00000000
_cell_angle_beta   100.42172497
_cell_angle_gamma   90.00000000
_symmetry_Int_Tables_number   1
_chemical_formula_structural   Li3Mn2CuO6
_chemical_formula_sum   'Li6 Mn4 Cu2 O12'
_cell_volume   233.74714649
_cell_formula_units_Z   2
loop_
 _symmetry_equiv_pos_site_id
 _symmetry_equiv_pos_as_xyz
  1  'x, y, z'
loop_
 _atom_site_type_symbol
 _atom_site_label
 _atom_site_symmetry_multiplicity
 _atom_site_fract_x
 _atom_site_fract_y
 _atom_site_fract_z
 _atom_site_occupancy
  Li  Li0  1  0.50000000  0.50000000  0.00000000  1
  Li  Li1  1  0.17713775  0.50000000  0.34362100  1
  Li  Li2  1  0.32286225  0.00000000  0.65637900  1
  Li  Li3  1  0.00000000  0.00000000  0.00000000  1
  Li  Li4  1  0.67713775  0.00000000  0.34362100  1
  Li  Li5  1  0.82286225  0.50000000  0.65637900  1
  Mn  Mn6  1  0.16683400  0.50000000  0.83282100  1
  Mn  Mn7  1  0.33316600  0.00000000  0.16717900  1
  Mn  Mn8  1  0.66683400  0.00000000  0.83282100  1
  Mn  Mn9  1  0.83316600  0.50000000  0.16717900  1
  Cu  Cu10  1  0.50000000  0.50000000  0.50000000  1
  Cu  Cu11  1  0.00000000  0.00000000  0.50000000  1
  O  O12  1  0.17890475  0.00000000  0.61007500  1
  O  O13  1  0.32109525  0.50000000  0.38992500  1
  O  O14  1  0.33899125  0.50000000  0.93679700  1
  O  O15  1  0.66100875  0.50000000  0.06320300  1
  O  O16  1  0.48928925  0.00000000  0.27607100  1
  O  O17  1  0.51071075  0.00000000  0.72392900  1
  O  O18  1  0.67890475  0.50000000  0.61007500  1
  O  O19  1  0.82109525  0.00000000  0.38992500  1
  O  O20  1  0.83899125  0.00000000  0.93679700  1
  O  O21  1  0.16100875  0.00000000  0.06320300  1
  O  O22  1  0.98928925  0.50000000  0.27607100  1
  O  O23  1  0.01071075  0.50000000  0.72392900  1
