# generated using pymatgen
data_Fe2Cu(PO4)3
_symmetry_space_group_name_H-M   'P 1'
_cell_length_a   8.61822588
_cell_length_b   8.61822588
_cell_length_c   20.69906977
_cell_angle_alpha   90.00000000
_cell_angle_beta   90.00000000
_cell_angle_gamma   120.00000000
_symmetry_Int_Tables_number   1
_chemical_formula_structural   Fe2Cu(PO4)3
_chemical_formula_sum   'Fe12 Cu6 P18 O72'
_cell_volume   1331.42652605
_cell_formula_units_Z   6
loop_
 _symmetry_equiv_pos_site_id
 _symmetry_equiv_pos_as_xyz
  1  'x, y, z'
loop_
 _atom_site_type_symbol
 _atom_site_label
 _atom_site_symmetry_multiplicity
 _atom_site_fract_x
 _atom_site_fract_y
 _atom_site_fract_z
 _atom_site_occupancy
  Fe  Fe0  1  0.33333333  0.66666667  0.81100567  1
  Fe  Fe1  1  0.33333333  0.66666667  0.02232767  1
  Fe  Fe2  1  0.33333333  0.66666667  0.31100567  1
  Fe  Fe3  1  0.33333333  0.66666667  0.52232767  1
  Fe  Fe4  1  0.00000000  0.00000000  0.14433900  1
  Fe  Fe5  1  1.00000000  0.00000000  0.35566100  1
  Fe  Fe6  1  0.00000000  0.00000000  0.64433900  1
  Fe  Fe7  1  0.00000000  0.00000000  0.85566100  1
  Fe  Fe8  1  0.66666667  0.33333333  0.47767233  1
  Fe  Fe9  1  0.66666667  0.33333333  0.68899433  1
  Fe  Fe10  1  0.66666667  0.33333333  0.97767233  1
  Fe  Fe11  1  0.66666667  0.33333333  0.18899433  1
  Cu  Cu12  1  0.00000000  0.00000000  0.00000000  1
  Cu  Cu13  1  0.33333333  0.66666667  0.16666667  1
  Cu  Cu14  1  0.66666667  0.33333333  0.33333333  1
  Cu  Cu15  1  0.00000000  0.00000000  0.50000000  1
  Cu  Cu16  1  0.33333333  0.66666667  0.66666667  1
  Cu  Cu17  1  0.66666667  0.33333333  0.83333333  1
  P  P18  1  0.96261067  0.62927733  0.08333333  1
  P  P19  1  0.37072267  0.33333333  0.08333333  1
  P  P20  1  0.66666667  0.03738933  0.08333333  1
  P  P21  1  0.00000000  0.29594400  0.25000000  1
  P  P22  1  0.29594400  1.00000000  0.25000000  1
  P  P23  1  0.70405600  0.70405600  0.25000000  1
  P  P24  1  0.62927733  0.96261067  0.41666667  1
  P  P25  1  0.03738933  0.66666667  0.41666667  1
  P  P26  1  0.33333333  0.37072267  0.41666667  1
  P  P27  1  0.66666667  0.62927733  0.58333333  1
  P  P28  1  0.96261067  0.33333333  0.58333333  1
  P  P29  1  0.37072267  0.03738933  0.58333333  1
  P  P30  1  0.29594400  0.29594400  0.75000000  1
  P  P31  1  0.70405600  0.00000000  0.75000000  1
  P  P32  1  0.00000000  0.70405600  0.75000000  1
  P  P33  1  0.33333333  0.96261067  0.91666667  1
  P  P34  1  0.62927733  0.66666667  0.91666667  1
  P  P35  1  0.03738933  0.37072267  0.91666667  1
  O  O36  1  0.13144700  0.47335100  0.97773700  1
  O  O37  1  0.34190400  0.86855300  0.97773700  1
  O  O38  1  0.98480167  0.82013533  0.07506433  1
  O  O39  1  0.52664900  0.65809600  0.97773700  1
  O  O40  1  0.85998233  0.53521967  0.14440367  1
  O  O41  1  0.15346867  0.65146833  0.09160233  1
  O  O42  1  0.17986467  0.16466633  0.07506433  1
  O  O43  1  0.34853167  0.50200033  0.09160233  1
  O  O44  1  0.99142933  0.19331567  0.18892967  1
  O  O45  1  0.49799967  0.84653133  0.09160233  1
  O  O46  1  0.83133300  0.31813500  0.25826900  1
  O  O47  1  0.20188633  0.00857067  0.18892967  1
  O  O48  1  0.46478033  0.32476267  0.14440367  1
  O  O49  1  0.83533367  0.01519833  0.07506433  1
  O  O50  1  0.16866700  0.48680200  0.24173100  1
  O  O51  1  0.67523733  0.14001767  0.14440367  1
  O  O52  1  0.31813500  0.83133300  0.24173100  1
  O  O53  1  0.48680200  0.16866700  0.25826900  1
  O  O54  1  0.51319800  0.68186500  0.24173100  1
  O  O55  1  0.80668433  0.79811367  0.18892967  1
  O  O56  1  0.14001767  0.67523733  0.35559633  1
  O  O57  1  0.68186500  0.51319800  0.25826900  1
  O  O58  1  0.32476267  0.46478033  0.35559633  1
  O  O59  1  0.53521967  0.85998233  0.35559633  1
  O  O60  1  0.79811367  0.80668433  0.31107033  1
  O  O61  1  0.00857067  0.20188633  0.31107033  1
  O  O62  1  0.65146833  0.15346867  0.40839767  1
  O  O63  1  0.19331567  0.99142933  0.31107033  1
  O  O64  1  0.52664900  0.86855300  0.47773700  1
  O  O65  1  0.82013533  0.98480167  0.42493567  1
  O  O66  1  0.84653133  0.49799967  0.40839767  1
  O  O67  1  0.01519833  0.83533367  0.42493567  1
  O  O68  1  0.65809600  0.52664900  0.52226300  1
  O  O69  1  0.16466633  0.17986467  0.42493567  1
  O  O70  1  0.49799967  0.65146833  0.59160233  1
  O  O71  1  0.86855300  0.34190400  0.52226300  1
  O  O72  1  0.13144700  0.65809600  0.47773700  1
  O  O73  1  0.50200033  0.34853167  0.40839767  1
  O  O74  1  0.83533367  0.82013533  0.57506433  1
  O  O75  1  0.34190400  0.47335100  0.47773700  1
  O  O76  1  0.98480167  0.16466633  0.57506433  1
  O  O77  1  0.15346867  0.50200033  0.59160233  1
  O  O78  1  0.17986467  0.01519833  0.57506433  1
  O  O79  1  0.47335100  0.13144700  0.52226300  1
  O  O80  1  0.80668433  0.00857067  0.68892967  1
  O  O81  1  0.34853167  0.84653133  0.59160233  1
  O  O82  1  0.99142933  0.79811367  0.68892967  1
  O  O83  1  0.20188633  0.19331567  0.68892967  1
  O  O84  1  0.46478033  0.14001767  0.64440367  1
  O  O85  1  0.67523733  0.53521967  0.64440367  1
  O  O86  1  0.31813500  0.48680200  0.74173100  1
  O  O87  1  0.85998233  0.32476267  0.64440367  1
  O  O88  1  0.19331567  0.20188633  0.81107033  1
  O  O89  1  0.48680200  0.31813500  0.75826900  1
  O  O90  1  0.51319800  0.83133300  0.74173100  1
  O  O91  1  0.68186500  0.16866700  0.75826900  1
  O  O92  1  0.32476267  0.85998233  0.85559633  1
  O  O93  1  0.83133300  0.51319800  0.75826900  1
  O  O94  1  0.16466633  0.98480167  0.92493567  1
  O  O95  1  0.53521967  0.67523733  0.85559633  1
  O  O96  1  0.79811367  0.99142933  0.81107033  1
  O  O97  1  0.16866700  0.68186500  0.74173100  1
  O  O98  1  0.50200033  0.15346867  0.90839767  1
  O  O99  1  0.00857067  0.80668433  0.81107033  1
  O  O100  1  0.65146833  0.49799967  0.90839767  1
  O  O101  1  0.82013533  0.83533367  0.92493567  1
  O  O102  1  0.84653133  0.34853167  0.90839767  1
  O  O103  1  0.14001767  0.46478033  0.85559633  1
  O  O104  1  0.47335100  0.34190400  0.02226300  1
  O  O105  1  0.01519833  0.17986467  0.92493567  1
  O  O106  1  0.65809600  0.13144700  0.02226300  1
  O  O107  1  0.86855300  0.52664900  0.02226300  1
