# generated using pymatgen
data_NbCo3O8
_symmetry_space_group_name_H-M   'P 1'
_cell_length_a   5.72445670
_cell_length_b   9.82433833
_cell_length_c   9.24221005
_cell_angle_alpha   90.00000000
_cell_angle_beta   90.40248465
_cell_angle_gamma   90.00000000
_symmetry_Int_Tables_number   1
_chemical_formula_structural   NbCo3O8
_chemical_formula_sum   'Nb4 Co12 O32'
_cell_volume   519.75982092
_cell_formula_units_Z   4
loop_
 _symmetry_equiv_pos_site_id
 _symmetry_equiv_pos_as_xyz
  1  'x, y, z'
loop_
 _atom_site_type_symbol
 _atom_site_label
 _atom_site_symmetry_multiplicity
 _atom_site_fract_x
 _atom_site_fract_y
 _atom_site_fract_z
 _atom_site_occupancy
  Nb  Nb0  1  0.50751400  0.83372400  0.50123400  1
  Nb  Nb1  1  0.50751400  0.16627600  0.00123400  1
  Nb  Nb2  1  0.00751400  0.33372400  0.50123400  1
  Nb  Nb3  1  0.00751400  0.66627600  0.00123400  1
  Co  Co4  1  0.74695500  0.91499700  0.78517400  1
  Co  Co5  1  0.25367450  0.91572150  0.78572400  1
  Co  Co6  1  0.50040700  0.66775000  0.78437800  1
  Co  Co7  1  0.50040700  0.33225000  0.28437800  1
  Co  Co8  1  0.74695500  0.08500300  0.28517400  1
  Co  Co9  1  0.25367450  0.08427850  0.28572400  1
  Co  Co10  1  0.24695500  0.41499700  0.78517400  1
  Co  Co11  1  0.75367450  0.41572150  0.78572400  1
  Co  Co12  1  0.00040700  0.16775000  0.78437800  1
  Co  Co13  1  0.00040700  0.83225000  0.28437800  1
  Co  Co14  1  0.24695500  0.58500300  0.28517400  1
  Co  Co15  1  0.75367450  0.58427850  0.28572400  1
  O  O16  1  0.75522600  0.91848400  0.40015900  1
  O  O17  1  0.49423900  0.98173600  0.67196800  1
  O  O18  1  0.50150050  0.83038150  0.88804500  1
  O  O19  1  0.49895300  0.50230600  0.68855900  1
  O  O20  1  0.49895300  0.49769400  0.18855900  1
  O  O21  1  0.24567900  0.91991500  0.39866500  1
  O  O22  1  0.71960700  0.75641800  0.66846000  1
  O  O23  1  0.27390550  0.75877650  0.67229100  1
  O  O24  1  0.50254400  0.33631500  0.89748400  1
  O  O25  1  0.50254400  0.66368500  0.39748400  1
  O  O26  1  0.71960700  0.24358200  0.16846000  1
  O  O27  1  0.27390550  0.24122350  0.17229100  1
  O  O28  1  0.50150050  0.16961850  0.38804500  1
  O  O29  1  0.75522600  0.08151600  0.90015900  1
  O  O30  1  0.49423900  0.01826400  0.17196800  1
  O  O31  1  0.24567900  0.08008500  0.89866500  1
  O  O32  1  0.25522600  0.41848400  0.40015900  1
  O  O33  1  0.99423900  0.48173600  0.67196800  1
  O  O34  1  0.00150050  0.33038150  0.88804500  1
  O  O35  1  0.99895300  0.00230600  0.68855900  1
  O  O36  1  0.99895300  0.99769400  0.18855900  1
  O  O37  1  0.74567900  0.41991500  0.39866500  1
  O  O38  1  0.21960700  0.25641800  0.66846000  1
  O  O39  1  0.77390550  0.25877650  0.67229100  1
  O  O40  1  0.00254400  0.83631500  0.89748400  1
  O  O41  1  0.00254400  0.16368500  0.39748400  1
  O  O42  1  0.21960700  0.74358200  0.16846000  1
  O  O43  1  0.77390550  0.74122350  0.17229100  1
  O  O44  1  0.00150050  0.66961850  0.38804500  1
  O  O45  1  0.25522600  0.58151600  0.90015900  1
  O  O46  1  0.99423900  0.51826400  0.17196800  1
  O  O47  1  0.74567900  0.58008500  0.89866500  1
