# generated using pymatgen
data_UGeO4
_symmetry_space_group_name_H-M   'P 1'
_cell_length_a   5.13928000
_cell_length_b   5.13928000
_cell_length_c   11.17477600
_cell_angle_alpha   90.00000000
_cell_angle_beta   90.00000000
_cell_angle_gamma   90.00000000
_symmetry_Int_Tables_number   1
_chemical_formula_structural   UGeO4
_chemical_formula_sum   'U4 Ge4 O16'
_cell_volume   295.15040658
_cell_formula_units_Z   4
loop_
 _symmetry_equiv_pos_site_id
 _symmetry_equiv_pos_as_xyz
  1  'x, y, z'
loop_
 _atom_site_type_symbol
 _atom_site_label
 _atom_site_symmetry_multiplicity
 _atom_site_fract_x
 _atom_site_fract_y
 _atom_site_fract_z
 _atom_site_occupancy
  U  U0  1  0.50000000  0.50000000  0.00000000  1
  U  U1  1  0.50000000  0.00000000  0.25000000  1
  U  U2  1  0.00000000  0.00000000  0.50000000  1
  U  U3  1  0.00000000  0.50000000  0.75000000  1
  Ge  Ge4  1  0.00000000  0.00000000  0.00000000  1
  Ge  Ge5  1  0.00000000  0.50000000  0.25000000  1
  Ge  Ge6  1  0.50000000  0.50000000  0.50000000  1
  Ge  Ge7  1  0.50000000  0.00000000  0.75000000  1
  O  O8  1  0.25697300  0.65814900  0.16871200  1
  O  O9  1  0.34185100  0.75697300  0.41871200  1
  O  O10  1  0.65814900  0.24302700  0.41871200  1
  O  O11  1  0.74302700  0.34185100  0.16871200  1
  O  O12  1  0.25697300  0.15814900  0.08128800  1
  O  O13  1  0.84185100  0.75697300  0.33128800  1
  O  O14  1  0.15814900  0.24302700  0.33128800  1
  O  O15  1  0.74302700  0.84185100  0.08128800  1
  O  O16  1  0.75697300  0.15814900  0.66871200  1
  O  O17  1  0.84185100  0.25697300  0.91871200  1
  O  O18  1  0.15814900  0.74302700  0.91871200  1
  O  O19  1  0.24302700  0.84185100  0.66871200  1
  O  O20  1  0.75697300  0.65814900  0.58128800  1
  O  O21  1  0.34185100  0.25697300  0.83128800  1
  O  O22  1  0.65814900  0.74302700  0.83128800  1
  O  O23  1  0.24302700  0.34185100  0.58128800  1
