# generated using pymatgen
data_Li2CoSn(PO4)2
_symmetry_space_group_name_H-M   'P 1'
_cell_length_a   4.87951079
_cell_length_b   6.11010400
_cell_length_c   11.46113204
_cell_angle_alpha   90.00000000
_cell_angle_beta   92.94055116
_cell_angle_gamma   90.00000000
_symmetry_Int_Tables_number   1
_chemical_formula_structural   Li2CoSn(PO4)2
_chemical_formula_sum   'Li4 Co2 Sn2 P4 O16'
_cell_volume   341.25591570
_cell_formula_units_Z   2
loop_
 _symmetry_equiv_pos_site_id
 _symmetry_equiv_pos_as_xyz
  1  'x, y, z'
loop_
 _atom_site_type_symbol
 _atom_site_label
 _atom_site_symmetry_multiplicity
 _atom_site_fract_x
 _atom_site_fract_y
 _atom_site_fract_z
 _atom_site_occupancy
  Li  Li0  1  0.50000000  0.00000000  0.00000000  1
  Li  Li1  1  0.50000000  0.50000000  0.00000000  1
  Li  Li2  1  0.00000000  0.00000000  0.50000000  1
  Li  Li3  1  0.00000000  0.50000000  0.50000000  1
  Co  Co4  1  0.52585000  0.75000000  0.30161800  1
  Co  Co5  1  0.47415000  0.25000000  0.69838200  1
  Sn  Sn6  1  0.99903850  0.25000000  0.22179100  1
  Sn  Sn7  1  0.00096150  0.75000000  0.77820900  1
  P  P8  1  0.13676300  0.75000000  0.11291800  1
  P  P9  1  0.86323700  0.25000000  0.88708200  1
  P  P10  1  0.57831250  0.25000000  0.42286200  1
  P  P11  1  0.42168750  0.75000000  0.57713800  1
  O  O12  1  0.76333750  0.25000000  0.01379400  1
  O  O13  1  0.23666250  0.75000000  0.98620600  1
  O  O14  1  0.82528400  0.75000000  0.12161500  1
  O  O15  1  0.17471600  0.25000000  0.87838500  1
  O  O16  1  0.26216600  0.25000000  0.41509900  1
  O  O17  1  0.73783400  0.75000000  0.58490100  1
  O  O18  1  0.28829600  0.75000000  0.45064200  1
  O  O19  1  0.71170400  0.25000000  0.54935800  1
  O  O20  1  0.28482750  0.95079150  0.17690700  1
  O  O21  1  0.28482750  0.54920850  0.17690700  1
  O  O22  1  0.71517250  0.45079150  0.82309300  1
  O  O23  1  0.71517250  0.04920850  0.82309300  1
  O  O24  1  0.70219750  0.45669750  0.36137300  1
  O  O25  1  0.70219750  0.04330250  0.36137300  1
  O  O26  1  0.29780250  0.95669750  0.63862700  1
  O  O27  1  0.29780250  0.54330250  0.63862700  1
