# generated using pymatgen
data_Mn3Cu3(TeO8)2
_symmetry_space_group_name_H-M   'P 1'
_cell_length_a   10.36514053
_cell_length_b   5.84877930
_cell_length_c   9.22228234
_cell_angle_alpha   90.00000000
_cell_angle_beta   92.76707282
_cell_angle_gamma   90.00000000
_symmetry_Int_Tables_number   1
_chemical_formula_structural   Mn3Cu3(TeO8)2
_chemical_formula_sum   'Mn6 Cu6 Te4 O32'
_cell_volume   558.43442117
_cell_formula_units_Z   2
loop_
 _symmetry_equiv_pos_site_id
 _symmetry_equiv_pos_as_xyz
  1  'x, y, z'
loop_
 _atom_site_type_symbol
 _atom_site_label
 _atom_site_symmetry_multiplicity
 _atom_site_fract_x
 _atom_site_fract_y
 _atom_site_fract_z
 _atom_site_occupancy
  Mn  Mn0  1  0.33184650  0.50000000  0.78722600  1
  Mn  Mn1  1  0.41433650  0.24856250  0.29043500  1
  Mn  Mn2  1  0.41433650  0.75143750  0.29043500  1
  Mn  Mn3  1  0.83184650  0.00000000  0.78722600  1
  Mn  Mn4  1  0.91433650  0.74856250  0.29043500  1
  Mn  Mn5  1  0.91433650  0.25143750  0.29043500  1
  Cu  Cu6  1  0.08271250  0.74706350  0.79098600  1
  Cu  Cu7  1  0.08271250  0.25293650  0.79098600  1
  Cu  Cu8  1  0.16817250  0.00000000  0.28856400  1
  Cu  Cu9  1  0.58271250  0.24706350  0.79098600  1
  Cu  Cu10  1  0.58271250  0.75293650  0.79098600  1
  Cu  Cu11  1  0.66817250  0.50000000  0.28856400  1
  Te  Te12  1  0.16694800  0.50000000  0.51479300  1
  Te  Te13  1  0.32869350  0.00000000  0.00960600  1
  Te  Te14  1  0.66694800  0.00000000  0.51479300  1
  Te  Te15  1  0.82869350  0.50000000  0.00960600  1
  O  O16  1  0.08348150  0.74653750  0.40401400  1
  O  O17  1  0.02380450  0.50000000  0.65174100  1
  O  O18  1  0.17242600  0.50000000  0.88377700  1
  O  O19  1  0.49628500  0.50000000  0.70082300  1
  O  O20  1  0.49233950  0.50000000  0.19658300  1
  O  O21  1  0.08348150  0.25346250  0.40401400  1
  O  O22  1  0.25519100  0.71741400  0.65007600  1
  O  O23  1  0.25519100  0.28258600  0.65007600  1
  O  O24  1  0.16221900  0.00000000  0.90741800  1
  O  O25  1  0.32827850  0.50000000  0.39626900  1
  O  O26  1  0.26560600  0.22677000  0.15477500  1
  O  O27  1  0.26560600  0.77323000  0.15477500  1
  O  O28  1  0.34037350  0.00000000  0.39030800  1
  O  O29  1  0.40811600  0.24425300  0.90593600  1
  O  O30  1  0.47868400  0.00000000  0.16440400  1
  O  O31  1  0.40811600  0.75574700  0.90593600  1
  O  O32  1  0.58348150  0.24653750  0.40401400  1
  O  O33  1  0.52380450  0.00000000  0.65174100  1
  O  O34  1  0.67242600  0.00000000  0.88377700  1
  O  O35  1  0.99628500  0.00000000  0.70082300  1
  O  O36  1  0.99233950  0.00000000  0.19658300  1
  O  O37  1  0.58348150  0.75346250  0.40401400  1
  O  O38  1  0.75519100  0.21741400  0.65007600  1
  O  O39  1  0.75519100  0.78258600  0.65007600  1
  O  O40  1  0.66221900  0.50000000  0.90741800  1
  O  O41  1  0.82827850  0.00000000  0.39626900  1
  O  O42  1  0.76560600  0.72677000  0.15477500  1
  O  O43  1  0.76560600  0.27323000  0.15477500  1
  O  O44  1  0.84037350  0.50000000  0.39030800  1
  O  O45  1  0.90811600  0.74425300  0.90593600  1
  O  O46  1  0.97868400  0.50000000  0.16440400  1
  O  O47  1  0.90811600  0.25574700  0.90593600  1
