# generated using pymatgen
data_NbFe3Cu2(PO4)6
_symmetry_space_group_name_H-M   'P 1'
_cell_length_a   8.67699375
_cell_length_b   8.67699375
_cell_length_c   21.15974688
_cell_angle_alpha   90.00000000
_cell_angle_beta   90.00000000
_cell_angle_gamma   120.00000000
_symmetry_Int_Tables_number   1
_chemical_formula_structural   NbFe3Cu2(PO4)6
_chemical_formula_sum   'Nb3 Fe9 Cu6 P18 O72'
_cell_volume   1379.68413063
_cell_formula_units_Z   3
loop_
 _symmetry_equiv_pos_site_id
 _symmetry_equiv_pos_as_xyz
  1  'x, y, z'
loop_
 _atom_site_type_symbol
 _atom_site_label
 _atom_site_symmetry_multiplicity
 _atom_site_fract_x
 _atom_site_fract_y
 _atom_site_fract_z
 _atom_site_occupancy
  Nb  Nb0  1  0.33333333  0.66666667  0.80853167  1
  Nb  Nb1  1  0.00000000  0.00000000  0.14186500  1
  Nb  Nb2  1  0.66666667  0.33333333  0.47519833  1
  Fe  Fe3  1  0.33333333  0.66666667  0.52119467  1
  Fe  Fe4  1  0.33333333  0.66666667  0.31071867  1
  Fe  Fe5  1  0.33333333  0.66666667  0.02193367  1
  Fe  Fe6  1  0.00000000  0.00000000  0.85452800  1
  Fe  Fe7  1  0.00000000  0.00000000  0.64405200  1
  Fe  Fe8  1  0.00000000  0.00000000  0.35526700  1
  Fe  Fe9  1  0.66666667  0.33333333  0.18786133  1
  Fe  Fe10  1  0.66666667  0.33333333  0.97738533  1
  Fe  Fe11  1  0.66666667  0.33333333  0.68860033  1
  Cu  Cu12  1  0.33333333  0.66666667  0.66060067  1
  Cu  Cu13  1  0.33333333  0.66666667  0.16619467  1
  Cu  Cu14  1  0.00000000  0.00000000  0.99393400  1
  Cu  Cu15  1  0.00000000  0.00000000  0.49952800  1
  Cu  Cu16  1  0.66666667  0.33333333  0.32726733  1
  Cu  Cu17  1  0.66666667  0.33333333  0.83286133  1
  P  P18  1  0.70258967  0.99956433  0.25185633  1
  P  P19  1  0.29697467  0.29741033  0.25185633  1
  P  P20  1  0.00043567  0.70302533  0.25185633  1
  P  P21  1  0.65952967  0.61950733  0.08327533  1
  P  P22  1  0.38049267  0.04002233  0.08327533  1
  P  P23  1  0.95997767  0.34047033  0.08327533  1
  P  P24  1  0.36925633  0.33289767  0.58518967  1
  P  P25  1  0.96364133  0.63074367  0.58518967  1
  P  P26  1  0.66710233  0.03635867  0.58518967  1
  P  P27  1  0.32619633  0.95284067  0.41660867  1
  P  P28  1  0.04715933  0.37335567  0.41660867  1
  P  P29  1  0.62664433  0.67380367  0.41660867  1
  P  P30  1  0.03592300  0.66623100  0.91852300  1
  P  P31  1  0.63030800  0.96407700  0.91852300  1
  P  P32  1  0.33376900  0.36969200  0.91852300  1
  P  P33  1  0.99286300  0.28617400  0.74994200  1
  P  P34  1  0.71382600  0.70668900  0.74994200  1
  P  P35  1  0.29331100  0.00713700  0.74994200  1
  O  O36  1  0.52771267  0.66572933  0.35633833  1
  O  O37  1  0.33427067  0.86198333  0.35633833  1
  O  O38  1  0.68608333  0.16899667  0.25453267  1
  O  O39  1  0.13801667  0.47228733  0.35633833  1
  O  O40  1  0.14428767  0.66820533  0.85839233  1
  O  O41  1  0.51915500  0.82970500  0.24363400  1
  O  O42  1  0.48291333  0.31391667  0.25453267  1
  O  O43  1  0.31055000  0.48084500  0.24363400  1
  O  O44  1  0.66464300  0.52675300  0.14363200  1
  O  O45  1  0.17029500  0.68945000  0.24363400  1
  O  O46  1  0.83118833  0.81270667  0.07976267  1
  O  O47  1  0.47324700  0.13789000  0.14363200  1
  O  O48  1  0.52391767  0.85571233  0.85839233  1
  O  O49  1  0.83100333  0.51708667  0.25453267  1
  O  O50  1  0.49556500  0.64530700  0.08858000  1
  O  O51  1  0.33179467  0.47608233  0.85839233  1
  O  O52  1  0.35469300  0.85025800  0.08858000  1
  O  O53  1  0.18729333  0.01848167  0.07976267  1
  O  O54  1  0.14974200  0.50443500  0.08858000  1
  O  O55  1  0.86211000  0.33535700  0.14363200  1
  O  O56  1  0.52913067  0.86140333  0.97693833  1
  O  O57  1  0.98151833  0.16881167  0.07976267  1
  O  O58  1  0.33227267  0.47086933  0.97693833  1
  O  O59  1  0.13859667  0.66772733  0.97693833  1
  O  O60  1  0.19437933  0.99906267  0.68967167  1
  O  O61  1  0.00093733  0.19531667  0.68967167  1
  O  O62  1  0.35275000  0.50233000  0.58786600  1
  O  O63  1  0.80468333  0.80562067  0.68967167  1
  O  O64  1  0.81095433  0.00153867  0.19172567  1
  O  O65  1  0.18582167  0.16303833  0.57696733  1
  O  O66  1  0.14958000  0.64725000  0.58786600  1
  O  O67  1  0.97721667  0.81417833  0.57696733  1
  O  O68  1  0.33130967  0.86008633  0.47696533  1
  O  O69  1  0.83696167  0.02278333  0.57696733  1
  O  O70  1  0.49785500  0.14604000  0.41309600  1
  O  O71  1  0.13991367  0.47122333  0.47696533  1
  O  O72  1  0.19058433  0.18904567  0.19172567  1
  O  O73  1  0.49767000  0.85042000  0.58786600  1
  O  O74  1  0.16223167  0.97864033  0.42191333  1
  O  O75  1  0.99846133  0.80941567  0.19172567  1
  O  O76  1  0.02135967  0.18359133  0.42191333  1
  O  O77  1  0.85396000  0.35181500  0.41309600  1
  O  O78  1  0.81640867  0.83776833  0.42191333  1
  O  O79  1  0.52877667  0.66869033  0.47696533  1
  O  O80  1  0.19579733  0.19473667  0.31027167  1
  O  O81  1  0.64818500  0.50214500  0.41309600  1
  O  O82  1  0.99893933  0.80420267  0.31027167  1
  O  O83  1  0.80526333  0.00106067  0.31027167  1
  O  O84  1  0.86104600  0.33239600  0.02300500  1
  O  O85  1  0.66760400  0.52865000  0.02300500  1
  O  O86  1  0.01941667  0.83566333  0.92119933  1
  O  O87  1  0.47135000  0.13895400  0.02300500  1
  O  O88  1  0.47762100  0.33487200  0.52505900  1
  O  O89  1  0.85248833  0.49637167  0.91030067  1
  O  O90  1  0.81624667  0.98058333  0.92119933  1
  O  O91  1  0.64388333  0.14751167  0.91030067  1
  O  O92  1  0.99797633  0.19341967  0.81029867  1
  O  O93  1  0.50362833  0.35611667  0.91030067  1
  O  O94  1  0.16452167  0.47937333  0.74642933  1
  O  O95  1  0.80658033  0.80455667  0.81029867  1
  O  O96  1  0.85725100  0.52237900  0.52505900  1
  O  O97  1  0.16433667  0.18375333  0.92119933  1
  O  O98  1  0.82889833  0.31197367  0.75524667  1
  O  O99  1  0.66512800  0.14274900  0.52505900  1
  O  O100  1  0.68802633  0.51692467  0.75524667  1
  O  O101  1  0.52062667  0.68514833  0.74642933  1
  O  O102  1  0.48307533  0.17110167  0.75524667  1
  O  O103  1  0.19544333  0.00202367  0.81029867  1
  O  O104  1  0.86246400  0.52807000  0.64360500  1
  O  O105  1  0.31485167  0.83547833  0.74642933  1
  O  O106  1  0.66560600  0.13753600  0.64360500  1
  O  O107  1  0.47193000  0.33439400  0.64360500  1
