# generated using pymatgen
data_CoAgO3
_symmetry_space_group_name_H-M   'P 1'
_cell_length_a   11.04478200
_cell_length_b   8.49883800
_cell_length_c   4.99881382
_cell_angle_alpha   90.00000000
_cell_angle_beta   94.16501560
_cell_angle_gamma   90.00000000
_symmetry_Int_Tables_number   1
_chemical_formula_structural   CoAgO3
_chemical_formula_sum   'Co8 Ag8 O24'
_cell_volume   467.98849472
_cell_formula_units_Z   8
loop_
 _symmetry_equiv_pos_site_id
 _symmetry_equiv_pos_as_xyz
  1  'x, y, z'
loop_
 _atom_site_type_symbol
 _atom_site_label
 _atom_site_symmetry_multiplicity
 _atom_site_fract_x
 _atom_site_fract_y
 _atom_site_fract_z
 _atom_site_occupancy
  Co  Co0  1  0.50000000  0.58493600  0.75000000  1
  Co  Co1  1  0.50000000  0.77232900  0.25000000  1
  Co  Co2  1  0.50000000  0.22767100  0.75000000  1
  Co  Co3  1  0.50000000  0.41506400  0.25000000  1
  Co  Co4  1  0.00000000  0.08493600  0.75000000  1
  Co  Co5  1  0.00000000  0.27232900  0.25000000  1
  Co  Co6  1  0.00000000  0.72767100  0.75000000  1
  Co  Co7  1  0.00000000  0.91506400  0.25000000  1
  Ag  Ag8  1  0.27109000  0.88411300  0.73939200  1
  Ag  Ag9  1  0.27109000  0.11588700  0.23939200  1
  Ag  Ag10  1  0.72891000  0.88411300  0.76060800  1
  Ag  Ag11  1  0.72891000  0.11588700  0.26060800  1
  Ag  Ag12  1  0.77109000  0.38411300  0.73939200  1
  Ag  Ag13  1  0.77109000  0.61588700  0.23939200  1
  Ag  Ag14  1  0.22891000  0.38411300  0.76060800  1
  Ag  Ag15  1  0.22891000  0.61588700  0.26060800  1
  O  O16  1  0.08711950  0.91563050  0.59122100  1
  O  O17  1  0.40271750  0.72212450  0.91671100  1
  O  O18  1  0.08711950  0.08436950  0.09122100  1
  O  O19  1  0.45004350  0.95217450  0.46857100  1
  O  O20  1  0.59728250  0.72212450  0.58328900  1
  O  O21  1  0.45004350  0.04782550  0.96857100  1
  O  O22  1  0.54995650  0.95217450  0.03142900  1
  O  O23  1  0.40271750  0.27787550  0.41671100  1
  O  O24  1  0.54995650  0.04782550  0.53142900  1
  O  O25  1  0.91288050  0.91563050  0.90877900  1
  O  O26  1  0.59728250  0.27787550  0.08328900  1
  O  O27  1  0.91288050  0.08436950  0.40877900  1
  O  O28  1  0.58711950  0.41563050  0.59122100  1
  O  O29  1  0.90271750  0.22212450  0.91671100  1
  O  O30  1  0.58711950  0.58436950  0.09122100  1
  O  O31  1  0.95004350  0.45217450  0.46857100  1
  O  O32  1  0.09728250  0.22212450  0.58328900  1
  O  O33  1  0.95004350  0.54782550  0.96857100  1
  O  O34  1  0.04995650  0.45217450  0.03142900  1
  O  O35  1  0.90271750  0.77787550  0.41671100  1
  O  O36  1  0.04995650  0.54782550  0.53142900  1
  O  O37  1  0.41288050  0.41563050  0.90877900  1
  O  O38  1  0.09728250  0.77787550  0.08328900  1
  O  O39  1  0.41288050  0.58436950  0.40877900  1
