# generated using pymatgen
data_Li(FeO2)2
_symmetry_space_group_name_H-M   'P 1'
_cell_length_a   5.96589624
_cell_length_b   5.96589624
_cell_length_c   14.45931674
_cell_angle_alpha   90.00000000
_cell_angle_beta   90.00000000
_cell_angle_gamma   120.00000000
_symmetry_Int_Tables_number   1
_chemical_formula_structural   Li(FeO2)2
_chemical_formula_sum   'Li6 Fe12 O24'
_cell_volume   445.68682346
_cell_formula_units_Z   6
loop_
 _symmetry_equiv_pos_site_id
 _symmetry_equiv_pos_as_xyz
  1  'x, y, z'
loop_
 _atom_site_type_symbol
 _atom_site_label
 _atom_site_symmetry_multiplicity
 _atom_site_fract_x
 _atom_site_fract_y
 _atom_site_fract_z
 _atom_site_occupancy
  Li  Li0  1  0.33333333  0.66666667  0.54741667  1
  Li  Li1  1  0.33333333  0.66666667  0.16824367  1
  Li  Li2  1  0.00000000  0.00000000  0.88075000  1
  Li  Li3  1  0.00000000  0.00000000  0.50157700  1
  Li  Li4  1  0.66666667  0.33333333  0.21408333  1
  Li  Li5  1  0.66666667  0.33333333  0.83491033  1
  Fe  Fe6  1  0.17182333  0.34364667  0.33212167  1
  Fe  Fe7  1  0.17182333  0.82817667  0.33212167  1
  Fe  Fe8  1  0.65635333  0.82817667  0.33212167  1
  Fe  Fe9  1  0.33333333  0.66666667  0.78359467  1
  Fe  Fe10  1  0.83849000  0.67698000  0.66545500  1
  Fe  Fe11  1  0.83849000  0.16151000  0.66545500  1
  Fe  Fe12  1  0.32302000  0.16151000  0.66545500  1
  Fe  Fe13  1  0.00000000  0.00000000  0.11692800  1
  Fe  Fe14  1  0.50515667  0.01031333  0.99878833  1
  Fe  Fe15  1  0.50515667  0.49484333  0.99878833  1
  Fe  Fe16  1  0.98968667  0.49484333  0.99878833  1
  Fe  Fe17  1  0.66666667  0.33333333  0.45026133  1
  O  O18  1  0.33333333  0.66666667  0.41168167  1
  O  O19  1  0.02685200  0.51342600  0.26119300  1
  O  O20  1  0.48657400  0.51342600  0.26119300  1
  O  O21  1  0.48657400  0.97314800  0.26119300  1
  O  O22  1  0.17637433  0.35274867  0.07451367  1
  O  O23  1  0.17637433  0.82362567  0.07451367  1
  O  O24  1  0.64725133  0.82362567  0.07451367  1
  O  O25  1  0.33333333  0.66666667  0.91891367  1
  O  O26  1  0.00000000  0.00000000  0.74501500  1
  O  O27  1  0.69351867  0.84675933  0.59452633  1
  O  O28  1  0.15324067  0.84675933  0.59452633  1
  O  O29  1  0.15324067  0.30648133  0.59452633  1
  O  O30  1  0.84304100  0.68608200  0.40784700  1
  O  O31  1  0.84304100  0.15695900  0.40784700  1
  O  O32  1  0.31391800  0.15695900  0.40784700  1
  O  O33  1  0.00000000  0.00000000  0.25224700  1
  O  O34  1  0.66666667  0.33333333  0.07834833  1
  O  O35  1  0.36018533  0.18009267  0.92785967  1
  O  O36  1  0.81990733  0.18009267  0.92785967  1
  O  O37  1  0.81990733  0.63981467  0.92785967  1
  O  O38  1  0.50970767  0.01941533  0.74118033  1
  O  O39  1  0.50970767  0.49029233  0.74118033  1
  O  O40  1  0.98058467  0.49029233  0.74118033  1
  O  O41  1  0.66666667  0.33333333  0.58558033  1
