# generated using pymatgen
data_Ca5MnO6
_symmetry_space_group_name_H-M   'P 1'
_cell_length_a   17.51107055
_cell_length_b   3.38158898
_cell_length_c   5.85102301
_cell_angle_alpha   90.00000000
_cell_angle_beta   109.40757736
_cell_angle_gamma   90.00000000
_symmetry_Int_Tables_number   1
_chemical_formula_structural   Ca5MnO6
_chemical_formula_sum   'Ca10 Mn2 O12'
_cell_volume   326.78289679
_cell_formula_units_Z   2
loop_
 _symmetry_equiv_pos_site_id
 _symmetry_equiv_pos_as_xyz
  1  'x, y, z'
loop_
 _atom_site_type_symbol
 _atom_site_label
 _atom_site_symmetry_multiplicity
 _atom_site_fract_x
 _atom_site_fract_y
 _atom_site_fract_z
 _atom_site_occupancy
  Ca  Ca0  1  0.00000000  0.50000000  0.50000000  1
  Ca  Ca1  1  0.16529300  0.00000000  0.83405200  1
  Ca  Ca2  1  0.33470700  0.50000000  0.16594800  1
  Ca  Ca3  1  0.16463500  0.50000000  0.32958300  1
  Ca  Ca4  1  0.33536500  0.00000000  0.67041700  1
  Ca  Ca5  1  0.50000000  0.00000000  0.50000000  1
  Ca  Ca6  1  0.66529300  0.50000000  0.83405200  1
  Ca  Ca7  1  0.83470700  0.00000000  0.16594800  1
  Ca  Ca8  1  0.66463500  0.00000000  0.32958300  1
  Ca  Ca9  1  0.83536500  0.50000000  0.67041700  1
  Mn  Mn10  1  0.00000000  0.00000000  0.00000000  1
  Mn  Mn11  1  0.50000000  0.50000000  0.00000000  1
  O  O12  1  0.08206200  0.00000000  0.41063600  1
  O  O13  1  0.41793800  0.50000000  0.58936400  1
  O  O14  1  0.07968100  0.50000000  0.91915700  1
  O  O15  1  0.42031900  0.00000000  0.08084300  1
  O  O16  1  0.24911000  0.50000000  0.75213200  1
  O  O17  1  0.25089000  0.00000000  0.24786800  1
  O  O18  1  0.58206200  0.50000000  0.41063600  1
  O  O19  1  0.91793800  0.00000000  0.58936400  1
  O  O20  1  0.57968100  0.00000000  0.91915700  1
  O  O21  1  0.92031900  0.50000000  0.08084300  1
  O  O22  1  0.74911000  0.00000000  0.75213200  1
  O  O23  1  0.75089000  0.50000000  0.24786800  1
