# generated using pymatgen
data_V(CO3)2
_symmetry_space_group_name_H-M   'P 1'
_cell_length_a   10.02375600
_cell_length_b   10.02375600
_cell_length_c   9.27011400
_cell_angle_alpha   90.00000000
_cell_angle_beta   90.00000000
_cell_angle_gamma   90.00000000
_symmetry_Int_Tables_number   1
_chemical_formula_structural   V(CO3)2
_chemical_formula_sum   'V8 C16 O48'
_cell_volume   931.42104813
_cell_formula_units_Z   8
loop_
 _symmetry_equiv_pos_site_id
 _symmetry_equiv_pos_as_xyz
  1  'x, y, z'
loop_
 _atom_site_type_symbol
 _atom_site_label
 _atom_site_symmetry_multiplicity
 _atom_site_fract_x
 _atom_site_fract_y
 _atom_site_fract_z
 _atom_site_occupancy
  V  V0  1  0.27970000  0.25000000  0.87500000  1
  V  V1  1  0.75000000  0.27970000  0.12500000  1
  V  V2  1  0.22030000  0.25000000  0.37500000  1
  V  V3  1  0.75000000  0.22030000  0.62500000  1
  V  V4  1  0.77970000  0.75000000  0.37500000  1
  V  V5  1  0.25000000  0.77970000  0.62500000  1
  V  V6  1  0.72030000  0.75000000  0.87500000  1
  V  V7  1  0.25000000  0.72030000  0.12500000  1
  C  C8  1  0.05232850  0.21341650  0.64479450  1
  C  C9  1  0.78658350  0.05232850  0.35520550  1
  C  C10  1  0.78658350  0.44767150  0.39479450  1
  C  C11  1  0.94767150  0.78658350  0.64479450  1
  C  C12  1  0.21341650  0.94767150  0.35520550  1
  C  C13  1  0.44767150  0.21341650  0.60520550  1
  C  C14  1  0.05232850  0.28658350  0.10520550  1
  C  C15  1  0.71341650  0.05232850  0.89479450  1
  C  C16  1  0.55232850  0.71341650  0.14479450  1
  C  C17  1  0.28658350  0.55232850  0.85520550  1
  C  C18  1  0.28658350  0.94767150  0.89479450  1
  C  C19  1  0.44767150  0.28658350  0.14479450  1
  C  C20  1  0.71341650  0.44767150  0.85520550  1
  C  C21  1  0.94767150  0.71341650  0.10520550  1
  C  C22  1  0.55232850  0.78658350  0.60520550  1
  C  C23  1  0.21341650  0.55232850  0.39479450  1
  O  O24  1  0.78717200  0.07042100  0.49211400  1
  O  O25  1  0.65181200  0.70462700  0.23304500  1
  O  O26  1  0.78215950  0.56533750  0.45034850  1
  O  O27  1  0.07042100  0.21282800  0.50788600  1
  O  O28  1  0.28215950  0.43466250  0.79965150  1
  O  O29  1  0.79537300  0.34818800  0.48304500  1
  O  O30  1  0.56533750  0.28215950  0.20034850  1
  O  O31  1  0.78717200  0.42957900  0.25788600  1
  O  O32  1  0.92957900  0.78717200  0.50788600  1
  O  O33  1  0.21282800  0.92957900  0.49211400  1
  O  O34  1  0.79537300  0.15181200  0.26695500  1
  O  O35  1  0.42957900  0.21282800  0.74211400  1
  O  O36  1  0.70462700  0.34818800  0.76695500  1
  O  O37  1  0.34818800  0.20462700  0.51695500  1
  O  O38  1  0.70462700  0.15181200  0.98304500  1
  O  O39  1  0.07042100  0.28717200  0.24211400  1
  O  O40  1  0.93466250  0.28215950  0.04965150  1
  O  O41  1  0.56533750  0.21784050  0.54965150  1
  O  O42  1  0.15181200  0.29537300  0.01695500  1
  O  O43  1  0.71784050  0.93466250  0.95034850  1
  O  O44  1  0.71282800  0.07042100  0.75788600  1
  O  O45  1  0.21784050  0.06533750  0.29965150  1
  O  O46  1  0.93466250  0.21784050  0.70034850  1
  O  O47  1  0.84818800  0.79537300  0.73304500  1
  O  O48  1  0.28717200  0.57042100  0.99211400  1
  O  O49  1  0.15181200  0.20462700  0.73304500  1
  O  O50  1  0.28215950  0.06533750  0.95034850  1
  O  O51  1  0.57042100  0.71282800  0.00788600  1
  O  O52  1  0.78215950  0.93466250  0.29965150  1
  O  O53  1  0.29537300  0.84818800  0.98304500  1
  O  O54  1  0.06533750  0.78215950  0.70034850  1
  O  O55  1  0.28717200  0.92957900  0.75788600  1
  O  O56  1  0.42957900  0.28717200  0.00788600  1
  O  O57  1  0.71282800  0.42957900  0.99211400  1
  O  O58  1  0.29537300  0.65181200  0.76695500  1
  O  O59  1  0.92957900  0.71282800  0.24211400  1
  O  O60  1  0.20462700  0.84818800  0.26695500  1
  O  O61  1  0.84818800  0.70462700  0.01695500  1
  O  O62  1  0.20462700  0.65181200  0.48304500  1
  O  O63  1  0.57042100  0.78717200  0.74211400  1
  O  O64  1  0.43466250  0.78215950  0.54965150  1
  O  O65  1  0.06533750  0.71784050  0.04965150  1
  O  O66  1  0.65181200  0.79537300  0.51695500  1
  O  O67  1  0.21784050  0.43466250  0.45034850  1
  O  O68  1  0.21282800  0.57042100  0.25788600  1
  O  O69  1  0.71784050  0.56533750  0.79965150  1
  O  O70  1  0.43466250  0.71784050  0.20034850  1
  O  O71  1  0.34818800  0.29537300  0.23304500  1
