# generated using pymatgen
data_Na4Sn2C4SO16
_symmetry_space_group_name_H-M   'P 1'
_cell_length_a   13.93177600
_cell_length_b   14.20749800
_cell_length_c   14.95959800
_cell_angle_alpha   90.00000000
_cell_angle_beta   90.00000000
_cell_angle_gamma   90.00000000
_symmetry_Int_Tables_number   1
_chemical_formula_structural   Na4Sn2C4SO16
_chemical_formula_sum   'Na32 Sn16 C32 S8 O128'
_cell_volume   2961.03819752
_cell_formula_units_Z   8
loop_
 _symmetry_equiv_pos_site_id
 _symmetry_equiv_pos_as_xyz
  1  'x, y, z'
loop_
 _atom_site_type_symbol
 _atom_site_label
 _atom_site_symmetry_multiplicity
 _atom_site_fract_x
 _atom_site_fract_y
 _atom_site_fract_z
 _atom_site_occupancy
  Na  Na0  1  0.50000000  0.79804000  0.00000000  1
  Na  Na1  1  0.70326800  0.00000000  0.00000000  1
  Na  Na2  1  0.29673200  0.00000000  0.00000000  1
  Na  Na3  1  0.50000000  0.20196000  0.00000000  1
  Na  Na4  1  0.75000000  0.04804000  0.25000000  1
  Na  Na5  1  0.95326800  0.25000000  0.25000000  1
  Na  Na6  1  0.54673200  0.25000000  0.25000000  1
  Na  Na7  1  0.75000000  0.45196000  0.25000000  1
  Na  Na8  1  0.50000000  0.29804000  0.50000000  1
  Na  Na9  1  0.70326800  0.50000000  0.50000000  1
  Na  Na10  1  0.29673200  0.50000000  0.50000000  1
  Na  Na11  1  0.50000000  0.70196000  0.50000000  1
  Na  Na12  1  0.75000000  0.54804000  0.75000000  1
  Na  Na13  1  0.95326800  0.75000000  0.75000000  1
  Na  Na14  1  0.54673200  0.75000000  0.75000000  1
  Na  Na15  1  0.75000000  0.95196000  0.75000000  1
  Na  Na16  1  0.00000000  0.79804000  0.50000000  1
  Na  Na17  1  0.20326800  0.00000000  0.50000000  1
  Na  Na18  1  0.79673200  0.00000000  0.50000000  1
  Na  Na19  1  0.00000000  0.20196000  0.50000000  1
  Na  Na20  1  0.25000000  0.04804000  0.75000000  1
  Na  Na21  1  0.45326800  0.25000000  0.75000000  1
  Na  Na22  1  0.04673200  0.25000000  0.75000000  1
  Na  Na23  1  0.25000000  0.45196000  0.75000000  1
  Na  Na24  1  0.00000000  0.29804000  0.00000000  1
  Na  Na25  1  0.20326800  0.50000000  0.00000000  1
  Na  Na26  1  0.79673200  0.50000000  0.00000000  1
  Na  Na27  1  0.00000000  0.70196000  0.00000000  1
  Na  Na28  1  0.25000000  0.54804000  0.25000000  1
  Na  Na29  1  0.45326800  0.75000000  0.25000000  1
  Na  Na30  1  0.04673200  0.75000000  0.25000000  1
  Na  Na31  1  0.25000000  0.95196000  0.25000000  1
  Sn  Sn32  1  0.87500000  0.87500000  0.12500000  1
  Sn  Sn33  1  0.62500000  0.62500000  0.12500000  1
  Sn  Sn34  1  0.87500000  0.62500000  0.37500000  1
  Sn  Sn35  1  0.62500000  0.87500000  0.37500000  1
  Sn  Sn36  1  0.87500000  0.37500000  0.62500000  1
  Sn  Sn37  1  0.62500000  0.12500000  0.62500000  1
  Sn  Sn38  1  0.87500000  0.12500000  0.87500000  1
  Sn  Sn39  1  0.62500000  0.37500000  0.87500000  1
  Sn  Sn40  1  0.37500000  0.87500000  0.62500000  1
  Sn  Sn41  1  0.12500000  0.62500000  0.62500000  1
  Sn  Sn42  1  0.37500000  0.62500000  0.87500000  1
  Sn  Sn43  1  0.12500000  0.87500000  0.87500000  1
  Sn  Sn44  1  0.37500000  0.37500000  0.12500000  1
  Sn  Sn45  1  0.12500000  0.12500000  0.12500000  1
  Sn  Sn46  1  0.37500000  0.12500000  0.37500000  1
  Sn  Sn47  1  0.12500000  0.37500000  0.37500000  1
  C  C48  1  0.89712600  0.09822050  0.08859750  1
  C  C49  1  0.60287400  0.40177950  0.08859750  1
  C  C50  1  0.60287400  0.09822050  0.41140250  1
  C  C51  1  0.89712600  0.40177950  0.41140250  1
  C  C52  1  0.85287400  0.84822050  0.33859750  1
  C  C53  1  0.14712600  0.15177950  0.33859750  1
  C  C54  1  0.64712600  0.84822050  0.16140250  1
  C  C55  1  0.35287400  0.15177950  0.16140250  1
  C  C56  1  0.89712600  0.59822050  0.58859750  1
  C  C57  1  0.60287400  0.90177950  0.58859750  1
  C  C58  1  0.60287400  0.59822050  0.91140250  1
  C  C59  1  0.89712600  0.90177950  0.91140250  1
  C  C60  1  0.85287400  0.34822050  0.83859750  1
  C  C61  1  0.14712600  0.65177950  0.83859750  1
  C  C62  1  0.64712600  0.34822050  0.66140250  1
  C  C63  1  0.35287400  0.65177950  0.66140250  1
  C  C64  1  0.39712600  0.09822050  0.58859750  1
  C  C65  1  0.10287400  0.40177950  0.58859750  1
  C  C66  1  0.10287400  0.09822050  0.91140250  1
  C  C67  1  0.39712600  0.40177950  0.91140250  1
  C  C68  1  0.35287400  0.84822050  0.83859750  1
  C  C69  1  0.64712600  0.15177950  0.83859750  1
  C  C70  1  0.14712600  0.84822050  0.66140250  1
  C  C71  1  0.85287400  0.15177950  0.66140250  1
  C  C72  1  0.39712600  0.59822050  0.08859750  1
  C  C73  1  0.10287400  0.90177950  0.08859750  1
  C  C74  1  0.10287400  0.59822050  0.41140250  1
  C  C75  1  0.39712600  0.90177950  0.41140250  1
  C  C76  1  0.35287400  0.34822050  0.33859750  1
  C  C77  1  0.64712600  0.65177950  0.33859750  1
  C  C78  1  0.14712600  0.34822050  0.16140250  1
  C  C79  1  0.85287400  0.65177950  0.16140250  1
  S  S80  1  0.50000000  0.00000000  0.00000000  1
  S  S81  1  0.75000000  0.25000000  0.25000000  1
  S  S82  1  0.50000000  0.50000000  0.50000000  1
  S  S83  1  0.75000000  0.75000000  0.75000000  1
  S  S84  1  0.00000000  0.00000000  0.50000000  1
  S  S85  1  0.25000000  0.25000000  0.75000000  1
  S  S86  1  0.00000000  0.50000000  0.00000000  1
  S  S87  1  0.25000000  0.75000000  0.25000000  1
  O  O88  1  0.83927800  0.10192100  0.02071000  1
  O  O89  1  0.46618600  0.66010400  0.09703700  1
  O  O90  1  0.53381400  0.33989600  0.09703700  1
  O  O91  1  0.63657250  0.78311500  0.10119850  1
  O  O92  1  0.16072200  0.89807900  0.02071000  1
  O  O93  1  0.03381400  0.66010400  0.40296300  1
  O  O94  1  0.66072200  0.10192100  0.47929000  1
  O  O95  1  0.36342750  0.21688500  0.10119850  1
  O  O96  1  0.61342750  0.03311500  0.35119850  1
  O  O97  1  0.33927800  0.89807900  0.47929000  1
  O  O98  1  0.43738700  0.93832400  0.05639300  1
  O  O99  1  0.68738700  0.31167600  0.30639300  1
  O  O100  1  0.78381400  0.91010400  0.34703700  1
  O  O101  1  0.86342750  0.78311500  0.39880150  1
  O  O102  1  0.56261300  0.06167600  0.05639300  1
  O  O103  1  0.93738700  0.06167600  0.44360700  1
  O  O104  1  0.81261300  0.18832400  0.30639300  1
  O  O105  1  0.68738700  0.18832400  0.19360700  1
  O  O106  1  0.38657250  0.96688500  0.35119850  1
  O  O107  1  0.96618600  0.33989600  0.40296300  1
  O  O108  1  0.06261300  0.93832400  0.44360700  1
  O  O109  1  0.81261300  0.31167600  0.19360700  1
  O  O110  1  0.91072200  0.85192100  0.27071000  1
  O  O111  1  0.13657250  0.21688500  0.39880150  1
  O  O112  1  0.88657250  0.03311500  0.14880150  1
  O  O113  1  0.08927800  0.14807900  0.27071000  1
  O  O114  1  0.21618600  0.08989600  0.34703700  1
  O  O115  1  0.58927800  0.85192100  0.22929000  1
  O  O116  1  0.11342750  0.96688500  0.14880150  1
  O  O117  1  0.71618600  0.91010400  0.15296300  1
  O  O118  1  0.28381400  0.08989600  0.15296300  1
  O  O119  1  0.41072200  0.14807900  0.22929000  1
  O  O120  1  0.83927800  0.60192100  0.52071000  1
  O  O121  1  0.46618600  0.16010400  0.59703700  1
  O  O122  1  0.53381400  0.83989600  0.59703700  1
  O  O123  1  0.63657250  0.28311500  0.60119850  1
  O  O124  1  0.16072200  0.39807900  0.52071000  1
  O  O125  1  0.03381400  0.16010400  0.90296300  1
  O  O126  1  0.66072200  0.60192100  0.97929000  1
  O  O127  1  0.36342750  0.71688500  0.60119850  1
  O  O128  1  0.61342750  0.53311500  0.85119850  1
  O  O129  1  0.33927800  0.39807900  0.97929000  1
  O  O130  1  0.43738700  0.43832400  0.55639300  1
  O  O131  1  0.68738700  0.81167600  0.80639300  1
  O  O132  1  0.78381400  0.41010400  0.84703700  1
  O  O133  1  0.86342750  0.28311500  0.89880150  1
  O  O134  1  0.56261300  0.56167600  0.55639300  1
  O  O135  1  0.93738700  0.56167600  0.94360700  1
  O  O136  1  0.81261300  0.68832400  0.80639300  1
  O  O137  1  0.68738700  0.68832400  0.69360700  1
  O  O138  1  0.38657250  0.46688500  0.85119850  1
  O  O139  1  0.96618600  0.83989600  0.90296300  1
  O  O140  1  0.06261300  0.43832400  0.94360700  1
  O  O141  1  0.81261300  0.81167600  0.69360700  1
  O  O142  1  0.91072200  0.35192100  0.77071000  1
  O  O143  1  0.13657250  0.71688500  0.89880150  1
  O  O144  1  0.88657250  0.53311500  0.64880150  1
  O  O145  1  0.08927800  0.64807900  0.77071000  1
  O  O146  1  0.21618600  0.58989600  0.84703700  1
  O  O147  1  0.58927800  0.35192100  0.72929000  1
  O  O148  1  0.11342750  0.46688500  0.64880150  1
  O  O149  1  0.71618600  0.41010400  0.65296300  1
  O  O150  1  0.28381400  0.58989600  0.65296300  1
  O  O151  1  0.41072200  0.64807900  0.72929000  1
  O  O152  1  0.33927800  0.10192100  0.52071000  1
  O  O153  1  0.96618600  0.66010400  0.59703700  1
  O  O154  1  0.03381400  0.33989600  0.59703700  1
  O  O155  1  0.13657250  0.78311500  0.60119850  1
  O  O156  1  0.66072200  0.89807900  0.52071000  1
  O  O157  1  0.53381400  0.66010400  0.90296300  1
  O  O158  1  0.16072200  0.10192100  0.97929000  1
  O  O159  1  0.86342750  0.21688500  0.60119850  1
  O  O160  1  0.11342750  0.03311500  0.85119850  1
  O  O161  1  0.83927800  0.89807900  0.97929000  1
  O  O162  1  0.93738700  0.93832400  0.55639300  1
  O  O163  1  0.18738700  0.31167600  0.80639300  1
  O  O164  1  0.28381400  0.91010400  0.84703700  1
  O  O165  1  0.36342750  0.78311500  0.89880150  1
  O  O166  1  0.06261300  0.06167600  0.55639300  1
  O  O167  1  0.43738700  0.06167600  0.94360700  1
  O  O168  1  0.31261300  0.18832400  0.80639300  1
  O  O169  1  0.18738700  0.18832400  0.69360700  1
  O  O170  1  0.88657250  0.96688500  0.85119850  1
  O  O171  1  0.46618600  0.33989600  0.90296300  1
  O  O172  1  0.56261300  0.93832400  0.94360700  1
  O  O173  1  0.31261300  0.31167600  0.69360700  1
  O  O174  1  0.41072200  0.85192100  0.77071000  1
  O  O175  1  0.63657250  0.21688500  0.89880150  1
  O  O176  1  0.38657250  0.03311500  0.64880150  1
  O  O177  1  0.58927800  0.14807900  0.77071000  1
  O  O178  1  0.71618600  0.08989600  0.84703700  1
  O  O179  1  0.08927800  0.85192100  0.72929000  1
  O  O180  1  0.61342750  0.96688500  0.64880150  1
  O  O181  1  0.21618600  0.91010400  0.65296300  1
  O  O182  1  0.78381400  0.08989600  0.65296300  1
  O  O183  1  0.91072200  0.14807900  0.72929000  1
  O  O184  1  0.33927800  0.60192100  0.02071000  1
  O  O185  1  0.96618600  0.16010400  0.09703700  1
  O  O186  1  0.03381400  0.83989600  0.09703700  1
  O  O187  1  0.13657250  0.28311500  0.10119850  1
  O  O188  1  0.66072200  0.39807900  0.02071000  1
  O  O189  1  0.53381400  0.16010400  0.40296300  1
  O  O190  1  0.16072200  0.60192100  0.47929000  1
  O  O191  1  0.86342750  0.71688500  0.10119850  1
  O  O192  1  0.11342750  0.53311500  0.35119850  1
  O  O193  1  0.83927800  0.39807900  0.47929000  1
  O  O194  1  0.93738700  0.43832400  0.05639300  1
  O  O195  1  0.18738700  0.81167600  0.30639300  1
  O  O196  1  0.28381400  0.41010400  0.34703700  1
  O  O197  1  0.36342750  0.28311500  0.39880150  1
  O  O198  1  0.06261300  0.56167600  0.05639300  1
  O  O199  1  0.43738700  0.56167600  0.44360700  1
  O  O200  1  0.31261300  0.68832400  0.30639300  1
  O  O201  1  0.18738700  0.68832400  0.19360700  1
  O  O202  1  0.88657250  0.46688500  0.35119850  1
  O  O203  1  0.46618600  0.83989600  0.40296300  1
  O  O204  1  0.56261300  0.43832400  0.44360700  1
  O  O205  1  0.31261300  0.81167600  0.19360700  1
  O  O206  1  0.41072200  0.35192100  0.27071000  1
  O  O207  1  0.63657250  0.71688500  0.39880150  1
  O  O208  1  0.38657250  0.53311500  0.14880150  1
  O  O209  1  0.58927800  0.64807900  0.27071000  1
  O  O210  1  0.71618600  0.58989600  0.34703700  1
  O  O211  1  0.08927800  0.35192100  0.22929000  1
  O  O212  1  0.61342750  0.46688500  0.14880150  1
  O  O213  1  0.21618600  0.41010400  0.15296300  1
  O  O214  1  0.78381400  0.58989600  0.15296300  1
  O  O215  1  0.91072200  0.64807900  0.22929000  1
