# generated using pymatgen
data_LiTi8O16
_symmetry_space_group_name_H-M   'P 1'
_cell_length_a   10.02999400
_cell_length_b   11.92613800
_cell_length_c   9.62083900
_cell_angle_alpha   90.00000000
_cell_angle_beta   90.00000000
_cell_angle_gamma   90.00000000
_symmetry_Int_Tables_number   1
_chemical_formula_structural   LiTi8O16
_chemical_formula_sum   'Li4 Ti32 O64'
_cell_volume   1150.83603107
_cell_formula_units_Z   4
loop_
 _symmetry_equiv_pos_site_id
 _symmetry_equiv_pos_as_xyz
  1  'x, y, z'
loop_
 _atom_site_type_symbol
 _atom_site_label
 _atom_site_symmetry_multiplicity
 _atom_site_fract_x
 _atom_site_fract_y
 _atom_site_fract_z
 _atom_site_occupancy
  Li  Li0  1  0.15838800  0.00000000  0.54361700  1
  Li  Li1  1  0.84161200  0.00000000  0.04361700  1
  Li  Li2  1  0.65838800  0.50000000  0.54361700  1
  Li  Li3  1  0.34161200  0.50000000  0.04361700  1
  Ti  Ti4  1  0.39840850  0.87347050  0.63471300  1
  Ti  Ti5  1  0.39099600  0.62550400  0.64367900  1
  Ti  Ti6  1  0.36783300  0.00000000  0.35583900  1
  Ti  Ti7  1  0.35250550  0.74901050  0.36365400  1
  Ti  Ti8  1  0.14778600  0.00000000  0.86432500  1
  Ti  Ti9  1  0.64749450  0.74901050  0.86365400  1
  Ti  Ti10  1  0.64749450  0.25098950  0.86365400  1
  Ti  Ti11  1  0.63216700  0.00000000  0.85583900  1
  Ti  Ti12  1  0.60900400  0.62550400  0.14367900  1
  Ti  Ti13  1  0.60159150  0.12652950  0.13471300  1
  Ti  Ti14  1  0.60159150  0.87347050  0.13471300  1
  Ti  Ti15  1  0.60900400  0.37449600  0.14367900  1
  Ti  Ti16  1  0.39099600  0.37449600  0.64367900  1
  Ti  Ti17  1  0.39840850  0.12652950  0.63471300  1
  Ti  Ti18  1  0.85221400  0.00000000  0.36432500  1
  Ti  Ti19  1  0.35250550  0.25098950  0.36365400  1
  Ti  Ti20  1  0.89840850  0.37347050  0.63471300  1
  Ti  Ti21  1  0.89099600  0.12550400  0.64367900  1
  Ti  Ti22  1  0.86783300  0.50000000  0.35583900  1
  Ti  Ti23  1  0.85250550  0.24901050  0.36365400  1
  Ti  Ti24  1  0.64778600  0.50000000  0.86432500  1
  Ti  Ti25  1  0.14749450  0.24901050  0.86365400  1
  Ti  Ti26  1  0.14749450  0.75098950  0.86365400  1
  Ti  Ti27  1  0.13216700  0.50000000  0.85583900  1
  Ti  Ti28  1  0.10900400  0.12550400  0.14367900  1
  Ti  Ti29  1  0.10159150  0.62652950  0.13471300  1
  Ti  Ti30  1  0.10159150  0.37347050  0.13471300  1
  Ti  Ti31  1  0.10900400  0.87449600  0.14367900  1
  Ti  Ti32  1  0.89099600  0.87449600  0.64367900  1
  Ti  Ti33  1  0.89840850  0.62652950  0.63471300  1
  Ti  Ti34  1  0.35221400  0.50000000  0.36432500  1
  Ti  Ti35  1  0.85250550  0.75098950  0.36365400  1
  O  O36  1  0.53800050  0.87358550  0.77414700  1
  O  O37  1  0.52889450  0.74968350  0.03503400  1
  O  O38  1  0.47110550  0.74968350  0.53503400  1
  O  O39  1  0.46199950  0.87358550  0.27414700  1
  O  O40  1  0.28175600  0.00000000  0.71659600  1
  O  O41  1  0.29031800  0.75050500  0.72784900  1
  O  O42  1  0.78757000  0.00000000  0.72831700  1
  O  O43  1  0.77614150  0.12442850  0.46532000  1
  O  O44  1  0.27524450  0.12141150  0.46471300  1
  O  O45  1  0.27524450  0.87858850  0.46471300  1
  O  O46  1  0.22385850  0.87557150  0.96532000  1
  O  O47  1  0.72475550  0.12141150  0.96471300  1
  O  O48  1  0.22385850  0.12442850  0.96532000  1
  O  O49  1  0.21243000  0.00000000  0.22831700  1
  O  O50  1  0.70968200  0.24949500  0.22784900  1
  O  O51  1  0.71824400  0.00000000  0.21659600  1
  O  O52  1  0.54103350  0.62498150  0.77158500  1
  O  O53  1  0.53800050  0.12641450  0.77414700  1
  O  O54  1  0.54103350  0.37501850  0.77158500  1
  O  O55  1  0.52889450  0.25031650  0.03503400  1
  O  O56  1  0.52353100  0.00000000  0.03514100  1
  O  O57  1  0.02682000  0.00000000  0.03637000  1
  O  O58  1  0.47110550  0.25031650  0.53503400  1
  O  O59  1  0.47646900  0.00000000  0.53514100  1
  O  O60  1  0.97318000  0.00000000  0.53637000  1
  O  O61  1  0.45896650  0.37501850  0.27158500  1
  O  O62  1  0.46199950  0.12641450  0.27414700  1
  O  O63  1  0.45896650  0.62498150  0.27158500  1
  O  O64  1  0.29031800  0.24949500  0.72784900  1
  O  O65  1  0.77614150  0.87557150  0.46532000  1
  O  O66  1  0.72475550  0.87858850  0.96471300  1
  O  O67  1  0.70968200  0.75050500  0.22784900  1
  O  O68  1  0.03800050  0.37358550  0.77414700  1
  O  O69  1  0.02889450  0.24968350  0.03503400  1
  O  O70  1  0.97110550  0.24968350  0.53503400  1
  O  O71  1  0.96199950  0.37358550  0.27414700  1
  O  O72  1  0.78175600  0.50000000  0.71659600  1
  O  O73  1  0.79031800  0.25050500  0.72784900  1
  O  O74  1  0.28757000  0.50000000  0.72831700  1
  O  O75  1  0.27614150  0.62442850  0.46532000  1
  O  O76  1  0.77524450  0.62141150  0.46471300  1
  O  O77  1  0.77524450  0.37858850  0.46471300  1
  O  O78  1  0.72385850  0.37557150  0.96532000  1
  O  O79  1  0.22475550  0.62141150  0.96471300  1
  O  O80  1  0.72385850  0.62442850  0.96532000  1
  O  O81  1  0.71243000  0.50000000  0.22831700  1
  O  O82  1  0.20968200  0.74949500  0.22784900  1
  O  O83  1  0.21824400  0.50000000  0.21659600  1
  O  O84  1  0.04103350  0.12498150  0.77158500  1
  O  O85  1  0.03800050  0.62641450  0.77414700  1
  O  O86  1  0.04103350  0.87501850  0.77158500  1
  O  O87  1  0.02889450  0.75031650  0.03503400  1
  O  O88  1  0.02353100  0.50000000  0.03514100  1
  O  O89  1  0.52682000  0.50000000  0.03637000  1
  O  O90  1  0.97110550  0.75031650  0.53503400  1
  O  O91  1  0.97646900  0.50000000  0.53514100  1
  O  O92  1  0.47318000  0.50000000  0.53637000  1
  O  O93  1  0.95896650  0.87501850  0.27158500  1
  O  O94  1  0.96199950  0.62641450  0.27414700  1
  O  O95  1  0.95896650  0.12498150  0.27158500  1
  O  O96  1  0.79031800  0.74949500  0.72784900  1
  O  O97  1  0.27614150  0.37557150  0.46532000  1
  O  O98  1  0.22475550  0.37858850  0.96471300  1
  O  O99  1  0.20968200  0.25050500  0.22784900  1
