# generated using pymatgen
data_CrFe2O5
_symmetry_space_group_name_H-M   'P 1'
_cell_length_a   10.15446200
_cell_length_b   5.11923200
_cell_length_c   7.06658146
_cell_angle_alpha   90.00000000
_cell_angle_beta   111.73094212
_cell_angle_gamma   90.00000000
_symmetry_Int_Tables_number   1
_chemical_formula_structural   CrFe2O5
_chemical_formula_sum   'Cr4 Fe8 O20'
_cell_volume   341.23642086
_cell_formula_units_Z   4
loop_
 _symmetry_equiv_pos_site_id
 _symmetry_equiv_pos_as_xyz
  1  'x, y, z'
loop_
 _atom_site_type_symbol
 _atom_site_label
 _atom_site_symmetry_multiplicity
 _atom_site_fract_x
 _atom_site_fract_y
 _atom_site_fract_z
 _atom_site_occupancy
  Cr  Cr0  1  0.00000000  0.00000000  0.50000000  1
  Cr  Cr1  1  0.00000000  0.00000000  0.00000000  1
  Cr  Cr2  1  0.50000000  0.50000000  0.50000000  1
  Cr  Cr3  1  0.50000000  0.50000000  0.00000000  1
  Fe  Fe4  1  0.36845650  0.99457250  0.77540200  1
  Fe  Fe5  1  0.36845650  0.00542750  0.27540200  1
  Fe  Fe6  1  0.13154350  0.49457250  0.72459800  1
  Fe  Fe7  1  0.13154350  0.50542750  0.22459800  1
  Fe  Fe8  1  0.86845650  0.49457250  0.77540200  1
  Fe  Fe9  1  0.86845650  0.50542750  0.27540200  1
  Fe  Fe10  1  0.63154350  0.99457250  0.72459800  1
  Fe  Fe11  1  0.63154350  0.00542750  0.22459800  1
  O  O12  1  0.18128000  0.14660100  0.64674100  1
  O  O13  1  0.18128000  0.85339900  0.14674100  1
  O  O14  1  0.41799450  0.83525850  0.55028500  1
  O  O15  1  0.00000000  0.81417900  0.75000000  1
  O  O16  1  0.08200550  0.33525850  0.94971500  1
  O  O17  1  0.41799450  0.16474150  0.05028500  1
  O  O18  1  0.00000000  0.18582100  0.25000000  1
  O  O19  1  0.08200550  0.66474150  0.44971500  1
  O  O20  1  0.31872000  0.64660100  0.85325900  1
  O  O21  1  0.31872000  0.35339900  0.35325900  1
  O  O22  1  0.68128000  0.64660100  0.64674100  1
  O  O23  1  0.68128000  0.35339900  0.14674100  1
  O  O24  1  0.91799450  0.33525850  0.55028500  1
  O  O25  1  0.50000000  0.31417900  0.75000000  1
  O  O26  1  0.58200550  0.83525850  0.94971500  1
  O  O27  1  0.91799450  0.66474150  0.05028500  1
  O  O28  1  0.50000000  0.68582100  0.25000000  1
  O  O29  1  0.58200550  0.16474150  0.44971500  1
  O  O30  1  0.81872000  0.14660100  0.85325900  1
  O  O31  1  0.81872000  0.85339900  0.35325900  1
