# generated using pymatgen
data_Li5Cu5(SbO6)2
_symmetry_space_group_name_H-M   'P 1'
_cell_length_a   5.71614000
_cell_length_b   8.71455000
_cell_length_c   9.89194196
_cell_angle_alpha   90.00000000
_cell_angle_beta   92.24950254
_cell_angle_gamma   90.00000000
_symmetry_Int_Tables_number   1
_chemical_formula_structural   Li5Cu5(SbO6)2
_chemical_formula_sum   'Li10 Cu10 Sb4 O24'
_cell_volume   492.37339272
_cell_formula_units_Z   2
loop_
 _symmetry_equiv_pos_site_id
 _symmetry_equiv_pos_as_xyz
  1  'x, y, z'
loop_
 _atom_site_type_symbol
 _atom_site_label
 _atom_site_symmetry_multiplicity
 _atom_site_fract_x
 _atom_site_fract_y
 _atom_site_fract_z
 _atom_site_occupancy
  Li  Li0  1  0.23741200  0.08443700  0.74293500  1
  Li  Li1  1  0.24207200  0.92052600  0.25438100  1
  Li  Li2  1  0.50000000  0.41012700  0.50000000  1
  Li  Li3  1  0.76258800  0.08443700  0.25706500  1
  Li  Li4  1  0.75792800  0.92052600  0.74561900  1
  Li  Li5  1  0.73741200  0.58443700  0.74293500  1
  Li  Li6  1  0.74207200  0.42052600  0.25438100  1
  Li  Li7  1  0.00000000  0.91012700  0.50000000  1
  Li  Li8  1  0.26258800  0.58443700  0.25706500  1
  Li  Li9  1  0.25792800  0.42052600  0.74561900  1
  Cu  Cu10  1  0.74546150  0.25242050  0.74801400  1
  Cu  Cu11  1  0.50000000  0.09000300  0.50000000  1
  Cu  Cu12  1  0.50000000  0.58250900  0.00000000  1
  Cu  Cu13  1  0.50000000  0.90970500  0.00000000  1
  Cu  Cu14  1  0.25453850  0.25242050  0.25198600  1
  Cu  Cu15  1  0.24546150  0.75242050  0.74801400  1
  Cu  Cu16  1  0.00000000  0.59000300  0.50000000  1
  Cu  Cu17  1  0.00000000  0.08250900  0.00000000  1
  Cu  Cu18  1  0.00000000  0.40970500  0.00000000  1
  Cu  Cu19  1  0.75453850  0.75242050  0.25198600  1
  Sb  Sb20  1  0.50000000  0.74954800  0.50000000  1
  Sb  Sb21  1  0.50000000  0.24479700  0.00000000  1
  Sb  Sb22  1  0.00000000  0.24954800  0.50000000  1
  Sb  Sb23  1  0.00000000  0.74479700  0.00000000  1
  O  O24  1  0.31908050  0.24788550  0.59880700  1
  O  O25  1  0.38563600  0.91987500  0.61987500  1
  O  O26  1  0.32109150  0.74683550  0.09812800  1
  O  O27  1  0.89388900  0.09833900  0.63591000  1
  O  O28  1  0.39660050  0.08148050  0.12624900  1
  O  O29  1  0.90117600  0.90485700  0.13223500  1
  O  O30  1  0.10611100  0.09833900  0.36409000  1
  O  O31  1  0.61436400  0.91987500  0.38012500  1
  O  O32  1  0.09882400  0.90485700  0.86776500  1
  O  O33  1  0.68091950  0.24788550  0.40119300  1
  O  O34  1  0.60339950  0.08148050  0.87375100  1
  O  O35  1  0.67890850  0.74683550  0.90187200  1
  O  O36  1  0.81908050  0.74788550  0.59880700  1
  O  O37  1  0.88563600  0.41987500  0.61987500  1
  O  O38  1  0.82109150  0.24683550  0.09812800  1
  O  O39  1  0.39388900  0.59833900  0.63591000  1
  O  O40  1  0.89660050  0.58148050  0.12624900  1
  O  O41  1  0.40117600  0.40485700  0.13223500  1
  O  O42  1  0.60611100  0.59833900  0.36409000  1
  O  O43  1  0.11436400  0.41987500  0.38012500  1
  O  O44  1  0.59882400  0.40485700  0.86776500  1
  O  O45  1  0.18091950  0.74788550  0.40119300  1
  O  O46  1  0.10339950  0.58148050  0.87375100  1
  O  O47  1  0.17890850  0.24683550  0.90187200  1
