# generated using pymatgen
data_Li2CrNi(PO4)2
_symmetry_space_group_name_H-M   'P 1'
_cell_length_a   4.75783323
_cell_length_b   6.14400600
_cell_length_c   10.20036283
_cell_angle_alpha   90.00000000
_cell_angle_beta   90.98972170
_cell_angle_gamma   90.00000000
_symmetry_Int_Tables_number   1
_chemical_formula_structural   Li2CrNi(PO4)2
_chemical_formula_sum   'Li4 Cr2 Ni2 P4 O16'
_cell_volume   298.13411139
_cell_formula_units_Z   2
loop_
 _symmetry_equiv_pos_site_id
 _symmetry_equiv_pos_as_xyz
  1  'x, y, z'
loop_
 _atom_site_type_symbol
 _atom_site_label
 _atom_site_symmetry_multiplicity
 _atom_site_fract_x
 _atom_site_fract_y
 _atom_site_fract_z
 _atom_site_occupancy
  Li  Li0  1  0.00000000  0.00000000  0.50000000  1
  Li  Li1  1  0.00000000  0.50000000  0.50000000  1
  Li  Li2  1  0.50000000  0.00000000  0.00000000  1
  Li  Li3  1  0.50000000  0.50000000  0.00000000  1
  Cr  Cr4  1  0.54203550  0.25000000  0.72047350  1
  Cr  Cr5  1  0.45796450  0.75000000  0.27952650  1
  Ni  Ni6  1  0.01874850  0.75000000  0.77953050  1
  Ni  Ni7  1  0.98125150  0.25000000  0.22046950  1
  P  P8  1  0.58353750  0.75000000  0.59489050  1
  P  P9  1  0.41646250  0.25000000  0.40510950  1
  P  P10  1  0.08341650  0.25000000  0.90755350  1
  P  P11  1  0.91658350  0.75000000  0.09244650  1
  O  O12  1  0.30603250  0.25000000  0.54831250  1
  O  O13  1  0.69396750  0.75000000  0.45168750  1
  O  O14  1  0.26052550  0.75000000  0.60048950  1
  O  O15  1  0.73947450  0.25000000  0.39951050  1
  O  O16  1  0.75785750  0.25000000  0.90139950  1
  O  O17  1  0.24214250  0.75000000  0.09860050  1
  O  O18  1  0.79566250  0.75000000  0.94943750  1
  O  O19  1  0.20433750  0.25000000  0.05056250  1
  O  O20  1  0.72810650  0.94836100  0.66487350  1
  O  O21  1  0.72810650  0.55163900  0.66487350  1
  O  O22  1  0.27189350  0.44836100  0.33512650  1
  O  O23  1  0.27189350  0.05163900  0.33512650  1
  O  O24  1  0.21208350  0.45489500  0.83885250  1
  O  O25  1  0.21208350  0.04510500  0.83885250  1
  O  O26  1  0.78791650  0.95489500  0.16114750  1
  O  O27  1  0.78791650  0.54510500  0.16114750  1
