# generated using pymatgen
data_FeOF
_symmetry_space_group_name_H-M   'P 1'
_cell_length_a   5.64728990
_cell_length_b   4.74908000
_cell_length_c   5.66539984
_cell_angle_alpha   90.00000000
_cell_angle_beta   114.31889327
_cell_angle_gamma   90.00000000
_symmetry_Int_Tables_number   1
_chemical_formula_structural   FeOF
_chemical_formula_sum   'Fe4 O4 F4'
_cell_volume   138.46054297
_cell_formula_units_Z   4
loop_
 _symmetry_equiv_pos_site_id
 _symmetry_equiv_pos_as_xyz
  1  'x, y, z'
loop_
 _atom_site_type_symbol
 _atom_site_label
 _atom_site_symmetry_multiplicity
 _atom_site_fract_x
 _atom_site_fract_y
 _atom_site_fract_z
 _atom_site_occupancy
  Fe  Fe0  1  0.71906400  0.47534000  0.24701850  1
  Fe  Fe1  1  0.28093600  0.52466000  0.75298150  1
  Fe  Fe2  1  0.28093600  0.97534000  0.25298150  1
  Fe  Fe3  1  0.71906400  0.02466000  0.74701850  1
  O  O4  1  0.59944100  0.19470100  0.40758250  1
  O  O5  1  0.59944100  0.30529900  0.90758250  1
  O  O6  1  0.40055900  0.69470100  0.09241750  1
  O  O7  1  0.40055900  0.80529900  0.59241750  1
  F  F8  1  0.09434400  0.19275400  0.89775350  1
  F  F9  1  0.09434400  0.30724600  0.39775350  1
  F  F10  1  0.90565600  0.69275400  0.60224650  1
  F  F11  1  0.90565600  0.80724600  0.10224650  1
