# generated using pymatgen
data_Li2V2SnO6
_symmetry_space_group_name_H-M   'P 1'
_cell_length_a   5.37402163
_cell_length_b   9.22272806
_cell_length_c   10.33150101
_cell_angle_alpha   90.00000000
_cell_angle_beta   90.00000000
_cell_angle_gamma   90.00000000
_symmetry_Int_Tables_number   1
_chemical_formula_structural   Li2V2SnO6
_chemical_formula_sum   'Li8 V8 Sn4 O24'
_cell_volume   512.06163196
_cell_formula_units_Z   4
loop_
 _symmetry_equiv_pos_site_id
 _symmetry_equiv_pos_as_xyz
  1  'x, y, z'
loop_
 _atom_site_type_symbol
 _atom_site_label
 _atom_site_symmetry_multiplicity
 _atom_site_fract_x
 _atom_site_fract_y
 _atom_site_fract_z
 _atom_site_occupancy
  Li  Li0  1  0.39126500  0.75000000  0.75000000  1
  Li  Li1  1  0.60873500  0.75000000  0.25000000  1
  Li  Li2  1  0.39126500  0.25000000  0.75000000  1
  Li  Li3  1  0.60873500  0.25000000  0.25000000  1
  Li  Li4  1  0.89126500  0.25000000  0.75000000  1
  Li  Li5  1  0.10873500  0.25000000  0.25000000  1
  Li  Li6  1  0.89126500  0.75000000  0.75000000  1
  Li  Li7  1  0.10873500  0.75000000  0.25000000  1
  V  V8  1  0.50000000  0.16414100  0.00000000  1
  V  V9  1  0.50000000  0.33585900  0.50000000  1
  V  V10  1  0.50000000  0.66414100  0.50000000  1
  V  V11  1  0.50000000  0.83585900  0.00000000  1
  V  V12  1  0.00000000  0.66414100  0.00000000  1
  V  V13  1  0.00000000  0.83585900  0.50000000  1
  V  V14  1  0.00000000  0.16414100  0.50000000  1
  V  V15  1  0.00000000  0.33585900  0.00000000  1
  Sn  Sn16  1  0.50000000  0.50000000  0.00000000  1
  Sn  Sn17  1  0.50000000  0.00000000  0.50000000  1
  Sn  Sn18  1  0.00000000  0.00000000  0.00000000  1
  Sn  Sn19  1  0.00000000  0.50000000  0.50000000  1
  O  O20  1  0.16541000  0.00000000  0.59698000  1
  O  O21  1  0.33459000  0.00000000  0.09698000  1
  O  O22  1  0.66541000  0.00000000  0.90302000  1
  O  O23  1  0.83459000  0.00000000  0.40302000  1
  O  O24  1  0.34060650  0.67570050  0.10894900  1
  O  O25  1  0.65939350  0.32429950  0.89105100  1
  O  O26  1  0.34060650  0.82429950  0.39105100  1
  O  O27  1  0.65939350  0.82429950  0.60894900  1
  O  O28  1  0.65939350  0.67570050  0.89105100  1
  O  O29  1  0.34060650  0.17570050  0.39105100  1
  O  O30  1  0.65939350  0.17570050  0.60894900  1
  O  O31  1  0.34060650  0.32429950  0.10894900  1
  O  O32  1  0.66541000  0.50000000  0.59698000  1
  O  O33  1  0.83459000  0.50000000  0.09698000  1
  O  O34  1  0.16541000  0.50000000  0.90302000  1
  O  O35  1  0.33459000  0.50000000  0.40302000  1
  O  O36  1  0.84060650  0.17570050  0.10894900  1
  O  O37  1  0.15939350  0.82429950  0.89105100  1
  O  O38  1  0.84060650  0.32429950  0.39105100  1
  O  O39  1  0.15939350  0.32429950  0.60894900  1
  O  O40  1  0.15939350  0.17570050  0.89105100  1
  O  O41  1  0.84060650  0.67570050  0.39105100  1
  O  O42  1  0.15939350  0.67570050  0.60894900  1
  O  O43  1  0.84060650  0.82429950  0.10894900  1
