# generated using pymatgen
data_Li2Fe3CuO8
_symmetry_space_group_name_H-M   'P 1'
_cell_length_a   5.92298727
_cell_length_b   5.92298727
_cell_length_c   14.43945605
_cell_angle_alpha   90.00000000
_cell_angle_beta   90.00000000
_cell_angle_gamma   120.00000000
_symmetry_Int_Tables_number   1
_chemical_formula_structural   Li2Fe3CuO8
_chemical_formula_sum   'Li6 Fe9 Cu3 O24'
_cell_volume   438.69538232
_cell_formula_units_Z   3
loop_
 _symmetry_equiv_pos_site_id
 _symmetry_equiv_pos_as_xyz
  1  'x, y, z'
loop_
 _atom_site_type_symbol
 _atom_site_label
 _atom_site_symmetry_multiplicity
 _atom_site_fract_x
 _atom_site_fract_y
 _atom_site_fract_z
 _atom_site_occupancy
  Li  Li0  1  0.33333333  0.66666667  0.54767067  1
  Li  Li1  1  0.33333333  0.66666667  0.16857267  1
  Li  Li2  1  0.00000000  0.00000000  0.88100400  1
  Li  Li3  1  0.00000000  0.00000000  0.50190600  1
  Li  Li4  1  0.66666667  0.33333333  0.21433733  1
  Li  Li5  1  0.66666667  0.33333333  0.83523933  1
  Fe  Fe6  1  0.65948067  0.82974033  0.33260433  1
  Fe  Fe7  1  0.17025967  0.34051933  0.33260433  1
  Fe  Fe8  1  0.17025967  0.82974033  0.33260433  1
  Fe  Fe9  1  0.32614733  0.16307367  0.66593767  1
  Fe  Fe10  1  0.83692633  0.67385267  0.66593767  1
  Fe  Fe11  1  0.83692633  0.16307367  0.66593767  1
  Fe  Fe12  1  0.99281400  0.49640700  0.99927100  1
  Fe  Fe13  1  0.50359300  0.00718600  0.99927100  1
  Fe  Fe14  1  0.50359300  0.49640700  0.99927100  1
  Cu  Cu15  1  0.33333333  0.66666667  0.78705567  1
  Cu  Cu16  1  0.00000000  0.00000000  0.12038900  1
  Cu  Cu17  1  0.66666667  0.33333333  0.45372233  1
  O  O18  1  0.33333333  0.66666667  0.41125167  1
  O  O19  1  0.48526233  0.51473767  0.26161867  1
  O  O20  1  0.48526233  0.97052467  0.26161867  1
  O  O21  1  0.02947533  0.51473767  0.26161867  1
  O  O22  1  0.64339267  0.82169633  0.07226133  1
  O  O23  1  0.17830367  0.35660733  0.07226133  1
  O  O24  1  0.17830367  0.82169633  0.07226133  1
  O  O25  1  0.33333333  0.66666667  0.91933167  1
  O  O26  1  0.00000000  0.00000000  0.74458500  1
  O  O27  1  0.15192900  0.84807100  0.59495200  1
  O  O28  1  0.15192900  0.30385800  0.59495200  1
  O  O29  1  0.69614200  0.84807100  0.59495200  1
  O  O30  1  0.31005933  0.15502967  0.40559467  1
  O  O31  1  0.84497033  0.68994067  0.40559467  1
  O  O32  1  0.84497033  0.15502967  0.40559467  1
  O  O33  1  0.00000000  0.00000000  0.25266500  1
  O  O34  1  0.66666667  0.33333333  0.07791833  1
  O  O35  1  0.81859567  0.18140433  0.92828533  1
  O  O36  1  0.81859567  0.63719133  0.92828533  1
  O  O37  1  0.36280867  0.18140433  0.92828533  1
  O  O38  1  0.97672600  0.48836300  0.73892800  1
  O  O39  1  0.51163700  0.02327400  0.73892800  1
  O  O40  1  0.51163700  0.48836300  0.73892800  1
  O  O41  1  0.66666667  0.33333333  0.58599833  1
