# generated using pymatgen
data_Li4FeSb(WO6)2
_symmetry_space_group_name_H-M   'P 1'
_cell_length_a   5.17146353
_cell_length_b   5.45472462
_cell_length_c   7.52267089
_cell_angle_alpha   85.89804114
_cell_angle_beta   89.98426940
_cell_angle_gamma   89.91885752
_symmetry_Int_Tables_number   1
_chemical_formula_structural   Li4FeSb(WO6)2
_chemical_formula_sum   'Li4 Fe1 Sb1 W2 O12'
_cell_volume   211.66252546
_cell_formula_units_Z   1
loop_
 _symmetry_equiv_pos_site_id
 _symmetry_equiv_pos_as_xyz
  1  'x, y, z'
loop_
 _atom_site_type_symbol
 _atom_site_label
 _atom_site_symmetry_multiplicity
 _atom_site_fract_x
 _atom_site_fract_y
 _atom_site_fract_z
 _atom_site_occupancy
  Li  Li0  1  0.00237650  0.56317400  0.30422450  1
  Li  Li1  1  0.49704900  0.08158900  0.76861200  1
  Li  Li2  1  0.99702950  0.51446700  0.74573600  1
  Li  Li3  1  0.50384700  0.08149700  0.30151300  1
  Fe  Fe4  1  0.49871300  0.51021600  0.50214450  1
  Sb  Sb5  1  0.00179450  0.00107700  0.00283700  1
  W  W6  1  0.99772100  0.00094700  0.50121550  1
  W  W7  1  0.50283400  0.50413200  0.00150150  1
  O  O8  1  0.70264500  0.80898400  0.43404600  1
  O  O9  1  0.87295400  0.99017200  0.75090300  1
  O  O10  1  0.68167150  0.18285800  0.06246400  1
  O  O11  1  0.80628800  0.29366400  0.43776700  1
  O  O12  1  0.19747750  0.30427400  0.92471650  1
  O  O13  1  0.61673050  0.48176400  0.75873500  1
  O  O14  1  0.37782300  0.48582200  0.23665500  1
  O  O15  1  0.81544650  0.67892800  0.06185050  1
  O  O16  1  0.17661600  0.68795200  0.54822100  1
  O  O17  1  0.31397600  0.80448800  0.92937050  1
  O  O18  1  0.13357250  0.98714800  0.24905450  1
  O  O19  1  0.30343450  0.17925300  0.54963400  1
