# generated using pymatgen
data_Li4Ti3Nb2Cr3O16
_symmetry_space_group_name_H-M   'P 1'
_cell_length_a   10.39749800
_cell_length_b   5.98114200
_cell_length_c   9.74489885
_cell_angle_alpha   90.00000000
_cell_angle_beta   90.64676016
_cell_angle_gamma   90.00000000
_symmetry_Int_Tables_number   1
_chemical_formula_structural   Li4Ti3Nb2Cr3O16
_chemical_formula_sum   'Li8 Ti6 Nb4 Cr6 O32'
_cell_volume   605.98604688
_cell_formula_units_Z   2
loop_
 _symmetry_equiv_pos_site_id
 _symmetry_equiv_pos_as_xyz
  1  'x, y, z'
loop_
 _atom_site_type_symbol
 _atom_site_label
 _atom_site_symmetry_multiplicity
 _atom_site_fract_x
 _atom_site_fract_y
 _atom_site_fract_z
 _atom_site_occupancy
  Li  Li0  1  0.66458000  0.00000000  0.89784100  1
  Li  Li1  1  0.99979500  0.00000000  0.99206000  1
  Li  Li2  1  0.99842400  0.00000000  0.49492700  1
  Li  Li3  1  0.83288400  0.50000000  0.40195200  1
  Li  Li4  1  0.16458000  0.50000000  0.89784100  1
  Li  Li5  1  0.49979500  0.50000000  0.99206000  1
  Li  Li6  1  0.49842400  0.50000000  0.49492700  1
  Li  Li7  1  0.33288400  0.00000000  0.40195200  1
  Ti  Ti8  1  0.67097100  0.50000000  0.72100500  1
  Ti  Ti9  1  0.58849200  0.24682600  0.21884800  1
  Ti  Ti10  1  0.58849200  0.75317400  0.21884800  1
  Ti  Ti11  1  0.17097100  0.00000000  0.72100500  1
  Ti  Ti12  1  0.08849200  0.74682600  0.21884800  1
  Ti  Ti13  1  0.08849200  0.25317400  0.21884800  1
  Nb  Nb14  1  0.66658600  0.00000000  0.49301400  1
  Nb  Nb15  1  0.83832700  0.50000000  0.99073100  1
  Nb  Nb16  1  0.16658600  0.50000000  0.49301400  1
  Nb  Nb17  1  0.33832700  0.00000000  0.99073100  1
  Cr  Cr18  1  0.83197300  0.00000000  0.21091500  1
  Cr  Cr19  1  0.91572950  0.74530450  0.71268800  1
  Cr  Cr20  1  0.91572950  0.25469550  0.71268800  1
  Cr  Cr21  1  0.33197300  0.50000000  0.21091500  1
  Cr  Cr22  1  0.41572950  0.24530450  0.71268800  1
  Cr  Cr23  1  0.41572950  0.75469550  0.71268800  1
  O  O24  1  0.58394700  0.25438200  0.59725000  1
  O  O25  1  0.51824200  0.00000000  0.33973300  1
  O  O26  1  0.66204300  0.00000000  0.10771100  1
  O  O27  1  0.50132300  0.50000000  0.30897800  1
  O  O28  1  0.50355000  0.50000000  0.80704200  1
  O  O29  1  0.58394700  0.74561800  0.59725000  1
  O  O30  1  0.73781700  0.22380300  0.33761900  1
  O  O31  1  0.73781700  0.77619700  0.33761900  1
  O  O32  1  0.66439700  0.50000000  0.10028100  1
  O  O33  1  0.83279400  0.00000000  0.59387500  1
  O  O34  1  0.75672600  0.71924500  0.83953800  1
  O  O35  1  0.75672600  0.28075500  0.83953800  1
  O  O36  1  0.82633800  0.50000000  0.60739500  1
  O  O37  1  0.92088150  0.74960550  0.09414200  1
  O  O38  1  0.97963500  0.50000000  0.84031800  1
  O  O39  1  0.92088150  0.25039450  0.09414200  1
  O  O40  1  0.08394700  0.75438200  0.59725000  1
  O  O41  1  0.01824200  0.50000000  0.33973300  1
  O  O42  1  0.16204300  0.50000000  0.10771100  1
  O  O43  1  0.00132300  0.00000000  0.30897800  1
  O  O44  1  0.00355000  0.00000000  0.80704200  1
  O  O45  1  0.08394700  0.24561800  0.59725000  1
  O  O46  1  0.23781700  0.72380300  0.33761900  1
  O  O47  1  0.23781700  0.27619700  0.33761900  1
  O  O48  1  0.16439700  0.00000000  0.10028100  1
  O  O49  1  0.33279400  0.50000000  0.59387500  1
  O  O50  1  0.25672600  0.21924500  0.83953800  1
  O  O51  1  0.25672600  0.78075500  0.83953800  1
  O  O52  1  0.32633800  0.00000000  0.60739500  1
  O  O53  1  0.42088150  0.24960550  0.09414200  1
  O  O54  1  0.47963500  0.00000000  0.84031800  1
  O  O55  1  0.42088150  0.75039450  0.09414200  1
