# generated using pymatgen
data_Li3Mn(PO4)2
_symmetry_space_group_name_H-M   'P 1'
_cell_length_a   4.79534313
_cell_length_b   5.89996500
_cell_length_c   10.16084301
_cell_angle_alpha   90.00000000
_cell_angle_beta   92.58851610
_cell_angle_gamma   90.00000000
_symmetry_Int_Tables_number   1
_chemical_formula_structural   Li3Mn(PO4)2
_chemical_formula_sum   'Li6 Mn2 P4 O16'
_cell_volume   287.18086744
_cell_formula_units_Z   2
loop_
 _symmetry_equiv_pos_site_id
 _symmetry_equiv_pos_as_xyz
  1  'x, y, z'
loop_
 _atom_site_type_symbol
 _atom_site_label
 _atom_site_symmetry_multiplicity
 _atom_site_fract_x
 _atom_site_fract_y
 _atom_site_fract_z
 _atom_site_occupancy
  Li  Li0  1  0.90081875  0.75000000  0.43522625  1
  Li  Li1  1  0.09918125  0.25000000  0.56477375  1
  Li  Li2  1  0.49285075  0.75000000  0.27371425  1
  Li  Li3  1  0.50714925  0.25000000  0.72628575  1
  Li  Li4  1  0.50000000  0.00000000  0.00000000  1
  Li  Li5  1  0.50000000  0.50000000  0.00000000  1
  Mn  Mn6  1  0.03774375  0.25000000  0.22188125  1
  Mn  Mn7  1  0.96225625  0.75000000  0.77811875  1
  P  P8  1  0.61058525  0.25000000  0.39956175  1
  P  P9  1  0.38941475  0.75000000  0.60043825  1
  P  P10  1  0.06972725  0.75000000  0.08628175  1
  P  P11  1  0.93027275  0.25000000  0.91371825  1
  O  O12  1  0.31513075  0.75000000  0.45299825  1
  O  O13  1  0.68486925  0.25000000  0.54700175  1
  O  O14  1  0.28179075  0.25000000  0.38015825  1
  O  O15  1  0.71820925  0.75000000  0.61984175  1
  O  O16  1  0.75400475  0.75000000  0.08311925  1
  O  O17  1  0.24599525  0.25000000  0.91688075  1
  O  O18  1  0.80632175  0.25000000  0.05680125  1
  O  O19  1  0.19367825  0.75000000  0.94319875  1
  O  O20  1  0.74191175  0.04043400  0.32959025  1
  O  O21  1  0.74191175  0.45956600  0.32959025  1
  O  O22  1  0.25808825  0.54043400  0.67040975  1
  O  O23  1  0.25808825  0.95956600  0.67040975  1
  O  O24  1  0.21384025  0.54250500  0.15665375  1
  O  O25  1  0.21384025  0.95749500  0.15665375  1
  O  O26  1  0.78615975  0.04250500  0.84334625  1
  O  O27  1  0.78615975  0.45749500  0.84334625  1
