# generated using pymatgen
data_Er2CuO4
_symmetry_space_group_name_H-M   'P 1'
_cell_length_a   5.47078200
_cell_length_b   11.75671200
_cell_length_c   5.46700200
_cell_angle_alpha   90.00000000
_cell_angle_beta   90.00000000
_cell_angle_gamma   90.00000000
_symmetry_Int_Tables_number   1
_chemical_formula_structural   Er2CuO4
_chemical_formula_sum   'Er8 Cu4 O16'
_cell_volume   351.62886730
_cell_formula_units_Z   4
loop_
 _symmetry_equiv_pos_site_id
 _symmetry_equiv_pos_as_xyz
  1  'x, y, z'
loop_
 _atom_site_type_symbol
 _atom_site_label
 _atom_site_symmetry_multiplicity
 _atom_site_fract_x
 _atom_site_fract_y
 _atom_site_fract_z
 _atom_site_occupancy
  Er  Er0  1  0.00000000  0.34497500  0.00000000  1
  Er  Er1  1  0.50000000  0.15502500  0.00000000  1
  Er  Er2  1  0.00000000  0.15502500  0.50000000  1
  Er  Er3  1  0.50000000  0.34497500  0.50000000  1
  Er  Er4  1  0.50000000  0.84497500  0.00000000  1
  Er  Er5  1  0.00000000  0.65502500  0.00000000  1
  Er  Er6  1  0.50000000  0.65502500  0.50000000  1
  Er  Er7  1  0.00000000  0.84497500  0.50000000  1
  Cu  Cu8  1  0.00000000  0.00000000  0.00000000  1
  Cu  Cu9  1  0.50000000  0.00000000  0.50000000  1
  Cu  Cu10  1  0.50000000  0.50000000  0.00000000  1
  Cu  Cu11  1  0.00000000  0.50000000  0.50000000  1
  O  O12  1  0.30248500  0.00000000  0.19823600  1
  O  O13  1  0.24026300  0.25000000  0.25000000  1
  O  O14  1  0.74026300  0.25000000  0.25000000  1
  O  O15  1  0.80248500  0.00000000  0.30176400  1
  O  O16  1  0.19751500  0.00000000  0.69823600  1
  O  O17  1  0.75973700  0.25000000  0.75000000  1
  O  O18  1  0.25973700  0.25000000  0.75000000  1
  O  O19  1  0.69751500  0.00000000  0.80176400  1
  O  O20  1  0.80248500  0.50000000  0.19823600  1
  O  O21  1  0.74026300  0.75000000  0.25000000  1
  O  O22  1  0.24026300  0.75000000  0.25000000  1
  O  O23  1  0.30248500  0.50000000  0.30176400  1
  O  O24  1  0.69751500  0.50000000  0.69823600  1
  O  O25  1  0.25973700  0.75000000  0.75000000  1
  O  O26  1  0.75973700  0.75000000  0.75000000  1
  O  O27  1  0.19751500  0.50000000  0.80176400  1
