# generated using pymatgen
data_LiFe(PO3)4
_symmetry_space_group_name_H-M   'P 1'
_cell_length_a   7.26403600
_cell_length_b   8.46221900
_cell_length_c   7.68813402
_cell_angle_alpha   90.00000000
_cell_angle_beta   92.06360972
_cell_angle_gamma   90.00000000
_symmetry_Int_Tables_number   1
_chemical_formula_structural   LiFe(PO3)4
_chemical_formula_sum   'Li2 Fe2 P8 O24'
_cell_volume   472.28205847
_cell_formula_units_Z   2
loop_
 _symmetry_equiv_pos_site_id
 _symmetry_equiv_pos_as_xyz
  1  'x, y, z'
loop_
 _atom_site_type_symbol
 _atom_site_label
 _atom_site_symmetry_multiplicity
 _atom_site_fract_x
 _atom_site_fract_y
 _atom_site_fract_z
 _atom_site_occupancy
  Li  Li0  1  0.26481200  0.30308300  0.35187400  1
  Li  Li1  1  0.73518800  0.80308300  0.64812600  1
  Fe  Fe2  1  0.25517400  0.50601600  0.82990700  1
  Fe  Fe3  1  0.74482600  0.00601600  0.17009300  1
  P  P4  1  0.08183100  0.70977900  0.47634900  1
  P  P5  1  0.06778700  0.12098600  0.87292800  1
  P  P6  1  0.35144600  0.92938300  0.30550900  1
  P  P7  1  0.37387200  0.87519900  0.93841100  1
  P  P8  1  0.62612800  0.37519900  0.06158900  1
  P  P9  1  0.64855400  0.42938300  0.69449100  1
  P  P10  1  0.93221300  0.62098600  0.12707200  1
  P  P11  1  0.91816900  0.20977900  0.52365100  1
  O  O12  1  0.06217400  0.60146400  0.30079300  1
  O  O13  1  0.05069100  0.57525800  0.97910900  1
  O  O14  1  0.26921400  0.08888400  0.30453500  1
  O  O15  1  0.07994900  0.31373600  0.51136800  1
  O  O16  1  0.16312300  0.27764900  0.88045300  1
  O  O17  1  0.26812000  0.81017900  0.44334700  1
  O  O18  1  0.13014900  0.60109700  0.62433200  1
  O  O19  1  0.21625300  0.98183600  0.84233900  1
  O  O20  1  0.29289300  0.83803300  0.12542000  1
  O  O21  1  0.38258200  0.72315600  0.83914400  1
  O  O22  1  0.55941200  0.91593800  0.33280200  1
  O  O23  1  0.44653800  0.46465600  0.04346500  1
  O  O24  1  0.55346200  0.96465600  0.95653500  1
  O  O25  1  0.44058800  0.41593800  0.66719800  1
  O  O26  1  0.61741800  0.22315600  0.16085600  1
  O  O27  1  0.70710700  0.33803300  0.87458000  1
  O  O28  1  0.78374700  0.48183600  0.15766100  1
  O  O29  1  0.86985100  0.10109700  0.37566800  1
  O  O30  1  0.73188000  0.31017900  0.55665300  1
  O  O31  1  0.83687700  0.77764900  0.11954700  1
  O  O32  1  0.92005100  0.81373600  0.48863200  1
  O  O33  1  0.73078600  0.58888400  0.69546500  1
  O  O34  1  0.94930900  0.07525800  0.02089100  1
  O  O35  1  0.93782600  0.10146400  0.69920700  1
