# generated using pymatgen
data_LiPWO5
_symmetry_space_group_name_H-M   'P 1'
_cell_length_a   14.05641800
_cell_length_b   5.45765000
_cell_length_c   10.86446164
_cell_angle_alpha   90.00000000
_cell_angle_beta   113.25333782
_cell_angle_gamma   90.00000000
_symmetry_Int_Tables_number   1
_chemical_formula_structural   LiPWO5
_chemical_formula_sum   'Li8 P8 W8 O40'
_cell_volume   765.76324303
_cell_formula_units_Z   8
loop_
 _symmetry_equiv_pos_site_id
 _symmetry_equiv_pos_as_xyz
  1  'x, y, z'
loop_
 _atom_site_type_symbol
 _atom_site_label
 _atom_site_symmetry_multiplicity
 _atom_site_fract_x
 _atom_site_fract_y
 _atom_site_fract_z
 _atom_site_occupancy
  Li  Li0  1  0.25000000  0.25000000  0.50000000  1
  Li  Li1  1  0.00000000  0.50000000  0.50000000  1
  Li  Li2  1  0.00000000  0.50000000  0.00000000  1
  Li  Li3  1  0.75000000  0.25000000  0.00000000  1
  Li  Li4  1  0.75000000  0.75000000  0.50000000  1
  Li  Li5  1  0.50000000  0.00000000  0.50000000  1
  Li  Li6  1  0.50000000  0.00000000  0.00000000  1
  Li  Li7  1  0.25000000  0.75000000  0.00000000  1
  P  P8  1  0.12491100  0.99397900  0.68903100  1
  P  P9  1  0.87508900  0.00602100  0.31096900  1
  P  P10  1  0.62491100  0.50602100  0.18903100  1
  P  P11  1  0.37508900  0.49397900  0.81096900  1
  P  P12  1  0.62491100  0.49397900  0.68903100  1
  P  P13  1  0.37508900  0.50602100  0.31096900  1
  P  P14  1  0.12491100  0.00602100  0.18903100  1
  P  P15  1  0.87508900  0.99397900  0.81096900  1
  W  W16  1  0.00000000  0.49401500  0.75000000  1
  W  W17  1  0.25000000  0.75000000  0.50000000  1
  W  W18  1  0.00000000  0.50598500  0.25000000  1
  W  W19  1  0.75000000  0.75000000  0.00000000  1
  W  W20  1  0.50000000  0.99401500  0.75000000  1
  W  W21  1  0.75000000  0.25000000  0.50000000  1
  W  W22  1  0.50000000  0.00598500  0.25000000  1
  W  W23  1  0.25000000  0.25000000  0.00000000  1
  O  O24  1  0.30259100  0.49120500  0.66059400  1
  O  O25  1  0.18488150  0.98696050  0.59598700  1
  O  O26  1  0.12462050  0.53325050  0.42342200  1
  O  O27  1  0.05579750  0.76096250  0.65728700  1
  O  O28  1  0.06094800  0.23325000  0.65521100  1
  O  O29  1  0.87537950  0.46674950  0.57657800  1
  O  O30  1  0.69740900  0.50879500  0.33940600  1
  O  O31  1  0.81511850  0.01303950  0.40401300  1
  O  O32  1  0.06094800  0.76675000  0.15521100  1
  O  O33  1  0.93905200  0.76675000  0.34478900  1
  O  O34  1  0.05579750  0.23903750  0.15728700  1
  O  O35  1  0.94420250  0.23903750  0.34271300  1
  O  O36  1  0.80259100  0.00879500  0.16059400  1
  O  O37  1  0.68488150  0.51303950  0.09598700  1
  O  O38  1  0.94420250  0.76096250  0.84271300  1
  O  O39  1  0.93905200  0.23325000  0.84478900  1
  O  O40  1  0.87537950  0.53325050  0.07657800  1
  O  O41  1  0.12462050  0.46674950  0.92342200  1
  O  O42  1  0.31511850  0.48696050  0.90401300  1
  O  O43  1  0.19740900  0.99120500  0.83940600  1
  O  O44  1  0.80259100  0.99120500  0.66059400  1
  O  O45  1  0.68488150  0.48696050  0.59598700  1
  O  O46  1  0.62462050  0.03325050  0.42342200  1
  O  O47  1  0.55579750  0.26096250  0.65728700  1
  O  O48  1  0.56094800  0.73325000  0.65521100  1
  O  O49  1  0.37537950  0.96674950  0.57657800  1
  O  O50  1  0.19740900  0.00879500  0.33940600  1
  O  O51  1  0.31511850  0.51303950  0.40401300  1
  O  O52  1  0.56094800  0.26675000  0.15521100  1
  O  O53  1  0.43905200  0.26675000  0.34478900  1
  O  O54  1  0.55579750  0.73903750  0.15728700  1
  O  O55  1  0.44420250  0.73903750  0.34271300  1
  O  O56  1  0.30259100  0.50879500  0.16059400  1
  O  O57  1  0.18488150  0.01303950  0.09598700  1
  O  O58  1  0.44420250  0.26096250  0.84271300  1
  O  O59  1  0.43905200  0.73325000  0.84478900  1
  O  O60  1  0.37537950  0.03325050  0.07657800  1
  O  O61  1  0.62462050  0.96674950  0.92342200  1
  O  O62  1  0.81511850  0.98696050  0.90401300  1
  O  O63  1  0.69740900  0.49120500  0.83940600  1
