# generated using pymatgen
data_V2Fe3Sb(PO4)6
_symmetry_space_group_name_H-M   'P 1'
_cell_length_a   8.65474356
_cell_length_b   8.65474356
_cell_length_c   21.12310642
_cell_angle_alpha   90.00000000
_cell_angle_beta   90.00000000
_cell_angle_gamma   120.00000000
_symmetry_Int_Tables_number   1
_chemical_formula_structural   V2Fe3Sb(PO4)6
_chemical_formula_sum   'V6 Fe9 Sb3 P18 O72'
_cell_volume   1370.24058659
_cell_formula_units_Z   3
loop_
 _symmetry_equiv_pos_site_id
 _symmetry_equiv_pos_as_xyz
  1  'x, y, z'
loop_
 _atom_site_type_symbol
 _atom_site_label
 _atom_site_symmetry_multiplicity
 _atom_site_fract_x
 _atom_site_fract_y
 _atom_site_fract_z
 _atom_site_occupancy
  V  V0  1  0.33333333  0.66666667  0.66261067  1
  V  V1  1  0.33333333  0.66666667  0.16799633  1
  V  V2  1  0.00000000  0.00000000  0.99594400  1
  V  V3  1  0.00000000  0.00000000  0.50132967  1
  V  V4  1  0.66666667  0.33333333  0.32927733  1
  V  V5  1  0.66666667  0.33333333  0.83466300  1
  Fe  Fe6  1  0.33333333  0.66666667  0.31108167  1
  Fe  Fe7  1  0.33333333  0.66666667  0.52152900  1
  Fe  Fe8  1  0.33333333  0.66666667  0.02290733  1
  Fe  Fe9  1  0.00000000  0.00000000  0.64441500  1
  Fe  Fe10  1  0.00000000  0.00000000  0.85486233  1
  Fe  Fe11  1  0.00000000  0.00000000  0.35624067  1
  Fe  Fe12  1  0.66666667  0.33333333  0.97774833  1
  Fe  Fe13  1  0.66666667  0.33333333  0.18819567  1
  Fe  Fe14  1  0.66666667  0.33333333  0.68957400  1
  Sb  Sb15  1  0.33333333  0.66666667  0.81026067  1
  Sb  Sb16  1  0.00000000  0.00000000  0.14359400  1
  Sb  Sb17  1  0.66666667  0.33333333  0.47692733  1
  P  P18  1  0.00213233  0.70596167  0.25175367  1
  P  P19  1  0.70382933  0.99786767  0.25175367  1
  P  P20  1  0.29403833  0.29617067  0.25175367  1
  P  P21  1  0.37636733  0.03921367  0.08395767  1
  P  P22  1  0.96078633  0.33715367  0.08395767  1
  P  P23  1  0.66284633  0.62363267  0.08395767  1
  P  P24  1  0.66879900  0.03929500  0.58508700  1
  P  P25  1  0.37049600  0.33120100  0.58508700  1
  P  P26  1  0.96070500  0.62950400  0.58508700  1
  P  P27  1  0.04303400  0.37254700  0.41729100  1
  P  P28  1  0.62745300  0.67048700  0.41729100  1
  P  P29  1  0.32951300  0.95696600  0.41729100  1
  P  P30  1  0.33546567  0.37262833  0.91842033  1
  P  P31  1  0.03716267  0.66453433  0.91842033  1
  P  P32  1  0.62737167  0.96283733  0.91842033  1
  P  P33  1  0.70970067  0.70588033  0.75062433  1
  P  P34  1  0.29411967  0.00382033  0.75062433  1
  P  P35  1  0.99617967  0.29029933  0.75062433  1
  O  O36  1  0.13709200  0.65822400  0.97592600  1
  O  O37  1  0.52113200  0.86290800  0.97592600  1
  O  O38  1  0.34177600  0.47886800  0.97592600  1
  O  O39  1  0.83129600  0.52022200  0.25611500  1
  O  O40  1  0.00091000  0.80225900  0.18832500  1
  O  O41  1  0.16884167  0.68598433  0.24367933  1
  O  O42  1  0.68892600  0.16870400  0.25611500  1
  O  O43  1  0.51714267  0.83115833  0.24367933  1
  O  O44  1  0.46613100  0.13761900  0.14431300  1
  O  O45  1  0.31401567  0.48285733  0.24367933  1
  O  O46  1  0.17902300  0.01663700  0.07743800  1
  O  O47  1  0.86238100  0.32851200  0.14431300  1
  O  O48  1  0.80134900  0.99909000  0.18832500  1
  O  O49  1  0.47977800  0.31107400  0.25611500  1
  O  O50  1  0.34542633  0.84747967  0.08983167  1
  O  O51  1  0.19774100  0.19865100  0.18832500  1
  O  O52  1  0.15252033  0.49794667  0.08983167  1
  O  O53  1  0.98336300  0.16238600  0.07743800  1
  O  O54  1  0.50205333  0.65457367  0.08983167  1
  O  O55  1  0.67148800  0.53386900  0.14431300  1
  O  O56  1  0.83761400  0.82097700  0.07743800  1
  O  O57  1  0.33548800  0.86630400  0.35653300  1
  O  O58  1  0.13369600  0.46918400  0.35653300  1
  O  O59  1  0.53081600  0.66451200  0.35653300  1
  O  O60  1  0.80375867  0.99155733  0.30925933  1
  O  O61  1  0.18779867  0.19624133  0.30925933  1
  O  O62  1  0.00844267  0.81220133  0.30925933  1
  O  O63  1  0.49796267  0.85355533  0.58944833  1
  O  O64  1  0.66757667  0.13559233  0.52165833  1
  O  O65  1  0.83550833  0.01931767  0.57701267  1
  O  O66  1  0.35559267  0.50203733  0.58944833  1
  O  O67  1  0.18380933  0.16449167  0.57701267  1
  O  O68  1  0.13279767  0.47095233  0.47764633  1
  O  O69  1  0.98068233  0.81619067  0.57701267  1
  O  O70  1  0.84568967  0.34997033  0.41077133  1
  O  O71  1  0.52904767  0.66184533  0.47764633  1
  O  O72  1  0.46801567  0.33242333  0.52165833  1
  O  O73  1  0.14644467  0.64440733  0.58944833  1
  O  O74  1  0.01209300  0.18081300  0.42316500  1
  O  O75  1  0.86440767  0.53198433  0.52165833  1
  O  O76  1  0.81918700  0.83128000  0.42316500  1
  O  O77  1  0.65002967  0.49571933  0.41077133  1
  O  O78  1  0.16872000  0.98790700  0.42316500  1
  O  O79  1  0.33815467  0.86720233  0.47764633  1
  O  O80  1  0.50428067  0.15431033  0.41077133  1
  O  O81  1  0.00215467  0.19963733  0.68986633  1
  O  O82  1  0.80036267  0.80251733  0.68986633  1
  O  O83  1  0.19748267  0.99784533  0.68986633  1
  O  O84  1  0.47042533  0.32489067  0.64259267  1
  O  O85  1  0.85446533  0.52957467  0.64259267  1
  O  O86  1  0.67510933  0.14553467  0.64259267  1
  O  O87  1  0.16462933  0.18688867  0.92278167  1
  O  O88  1  0.33424333  0.46892567  0.85499167  1
  O  O89  1  0.50217500  0.35265100  0.91034600  1
  O  O90  1  0.02225933  0.83537067  0.92278167  1
  O  O91  1  0.85047600  0.49782500  0.91034600  1
  O  O92  1  0.79946433  0.80428567  0.81097967  1
  O  O93  1  0.64734900  0.14952400  0.91034600  1
  O  O94  1  0.51235633  0.68330367  0.74410467  1
  O  O95  1  0.19571433  0.99517867  0.81097967  1
  O  O96  1  0.13468233  0.66575667  0.85499167  1
  O  O97  1  0.81311133  0.97774067  0.92278167  1
  O  O98  1  0.67875967  0.51414633  0.75649833  1
  O  O99  1  0.53107433  0.86531767  0.85499167  1
  O  O100  1  0.48585367  0.16461333  0.75649833  1
  O  O101  1  0.31669633  0.82905267  0.74410467  1
  O  O102  1  0.83538667  0.32124033  0.75649833  1
  O  O103  1  0.00482133  0.20053567  0.81097967  1
  O  O104  1  0.17094733  0.48764367  0.74410467  1
  O  O105  1  0.66882133  0.53297067  0.02319967  1
  O  O106  1  0.46702933  0.13585067  0.02319967  1
  O  O107  1  0.86414933  0.33117867  0.02319967  1
