# generated using pymatgen
data_LiFe(PO3)3
_symmetry_space_group_name_H-M   'P 1'
_cell_length_a   11.27000400
_cell_length_b   6.47812000
_cell_length_c   9.76374272
_cell_angle_alpha   90.00000000
_cell_angle_beta   90.22565120
_cell_angle_gamma   90.00000000
_symmetry_Int_Tables_number   1
_chemical_formula_structural   LiFe(PO3)3
_chemical_formula_sum   'Li4 Fe4 P12 O36'
_cell_volume   712.83007987
_cell_formula_units_Z   4
loop_
 _symmetry_equiv_pos_site_id
 _symmetry_equiv_pos_as_xyz
  1  'x, y, z'
loop_
 _atom_site_type_symbol
 _atom_site_label
 _atom_site_symmetry_multiplicity
 _atom_site_fract_x
 _atom_site_fract_y
 _atom_site_fract_z
 _atom_site_occupancy
  Li  Li0  1  0.83458050  0.50742350  0.49996900  1
  Li  Li1  1  0.83458050  0.49257650  0.99996900  1
  Li  Li2  1  0.33458050  0.00742350  0.49996900  1
  Li  Li3  1  0.33458050  0.99257650  0.99996900  1
  Fe  Fe4  1  0.66673550  0.00262950  0.00001200  1
  Fe  Fe5  1  0.66673550  0.99737050  0.50001200  1
  Fe  Fe6  1  0.16673550  0.50262950  0.00001200  1
  Fe  Fe7  1  0.16673550  0.49737050  0.50001200  1
  P  P8  1  0.51448750  0.23602850  0.75023600  1
  P  P9  1  0.62407050  0.34563450  0.24948700  1
  P  P10  1  0.51448750  0.76397150  0.25023600  1
  P  P11  1  0.62407050  0.65436550  0.74948700  1
  P  P12  1  0.86105600  0.11039200  0.75037400  1
  P  P13  1  0.86105600  0.88960800  0.25037400  1
  P  P14  1  0.01448750  0.73602850  0.75023600  1
  P  P15  1  0.12407050  0.84563450  0.24948700  1
  P  P16  1  0.01448750  0.26397150  0.25023600  1
  P  P17  1  0.12407050  0.15436550  0.74948700  1
  P  P18  1  0.36105600  0.61039200  0.75037400  1
  P  P19  1  0.36105600  0.38960800  0.25037400  1
  O  O20  1  0.52041000  0.11729300  0.88235300  1
  O  O21  1  0.51549350  0.12011750  0.61678700  1
  O  O22  1  0.68217950  0.28283750  0.11742000  1
  O  O23  1  0.67916750  0.28053350  0.38293600  1
  O  O24  1  0.51549350  0.87988250  0.11678700  1
  O  O25  1  0.52041000  0.88270700  0.38235300  1
  O  O26  1  0.67916750  0.71946650  0.88293600  1
  O  O27  1  0.68217950  0.71716250  0.61742000  1
  O  O28  1  0.79923950  0.15807250  0.61738100  1
  O  O29  1  0.80284250  0.16965750  0.88310000  1
  O  O30  1  0.61707700  0.59264700  0.24943200  1
  O  O31  1  0.61707700  0.40735300  0.74943200  1
  O  O32  1  0.80284250  0.83034250  0.38310000  1
  O  O33  1  0.79923950  0.84192750  0.11738100  1
  O  O34  1  0.89504500  0.86996000  0.75499800  1
  O  O35  1  0.98745050  0.77705650  0.24554600  1
  O  O36  1  0.89504500  0.13004000  0.25499800  1
  O  O37  1  0.98745050  0.22294350  0.74554600  1
  O  O38  1  0.02041000  0.61729300  0.88235300  1
  O  O39  1  0.01549350  0.62011750  0.61678700  1
  O  O40  1  0.18217950  0.78283750  0.11742000  1
  O  O41  1  0.17916750  0.78053350  0.38293600  1
  O  O42  1  0.01549350  0.37988250  0.11678700  1
  O  O43  1  0.02041000  0.38270700  0.38235300  1
  O  O44  1  0.17916750  0.21946650  0.88293600  1
  O  O45  1  0.18217950  0.21716250  0.61742000  1
  O  O46  1  0.29923950  0.65807250  0.61738100  1
  O  O47  1  0.30284250  0.66965750  0.88310000  1
  O  O48  1  0.11707700  0.09264700  0.24943200  1
  O  O49  1  0.11707700  0.90735300  0.74943200  1
  O  O50  1  0.30284250  0.33034250  0.38310000  1
  O  O51  1  0.29923950  0.34192750  0.11738100  1
  O  O52  1  0.39504500  0.36996000  0.75499800  1
  O  O53  1  0.48745050  0.27705650  0.24554600  1
  O  O54  1  0.39504500  0.63004000  0.25499800  1
  O  O55  1  0.48745050  0.72294350  0.74554600  1
