# generated using pymatgen
data_Li2CrO3
_symmetry_space_group_name_H-M   'P 1'
_cell_length_a   5.09811912
_cell_length_b   8.63410500
_cell_length_c   5.14014462
_cell_angle_alpha   90.00000000
_cell_angle_beta   110.59165731
_cell_angle_gamma   90.00000000
_symmetry_Int_Tables_number   1
_chemical_formula_structural   Li2CrO3
_chemical_formula_sum   'Li8 Cr4 O12'
_cell_volume   211.80191314
_cell_formula_units_Z   4
loop_
 _symmetry_equiv_pos_site_id
 _symmetry_equiv_pos_as_xyz
  1  'x, y, z'
loop_
 _atom_site_type_symbol
 _atom_site_label
 _atom_site_symmetry_multiplicity
 _atom_site_fract_x
 _atom_site_fract_y
 _atom_site_fract_z
 _atom_site_occupancy
  Li  Li0  1  0.50000000  0.00000000  0.50000000  1
  Li  Li1  1  0.00000000  0.00000000  0.00000000  1
  Li  Li2  1  0.50000000  0.65937950  0.50000000  1
  Li  Li3  1  0.50000000  0.34062050  0.50000000  1
  Li  Li4  1  0.00000000  0.50000000  0.50000000  1
  Li  Li5  1  0.50000000  0.50000000  0.00000000  1
  Li  Li6  1  0.00000000  0.15937950  0.50000000  1
  Li  Li7  1  0.00000000  0.84062050  0.50000000  1
  Cr  Cr8  1  0.50000000  0.17121500  0.00000000  1
  Cr  Cr9  1  0.50000000  0.82878500  0.00000000  1
  Cr  Cr10  1  0.00000000  0.67121500  0.00000000  1
  Cr  Cr11  1  0.00000000  0.32878500  0.00000000  1
  O  O12  1  0.71769350  0.00000000  0.22652150  1
  O  O13  1  0.28230650  0.00000000  0.77347850  1
  O  O14  1  0.75011050  0.18148000  0.77452900  1
  O  O15  1  0.75011050  0.81852000  0.77452900  1
  O  O16  1  0.24988950  0.81852000  0.22547100  1
  O  O17  1  0.24988950  0.18148000  0.22547100  1
  O  O18  1  0.21769350  0.50000000  0.22652150  1
  O  O19  1  0.78230650  0.50000000  0.77347850  1
  O  O20  1  0.25011050  0.68148000  0.77452900  1
  O  O21  1  0.25011050  0.31852000  0.77452900  1
  O  O22  1  0.74988950  0.31852000  0.22547100  1
  O  O23  1  0.74988950  0.68148000  0.22547100  1
