# generated using pymatgen
data_Ni3Sb(PO4)4
_symmetry_space_group_name_H-M   'P 1'
_cell_length_a   4.85610000
_cell_length_b   5.87642400
_cell_length_c   9.96260679
_cell_angle_alpha   90.00000000
_cell_angle_beta   90.14012528
_cell_angle_gamma   90.00000000
_symmetry_Int_Tables_number   1
_chemical_formula_structural   Ni3Sb(PO4)4
_chemical_formula_sum   'Ni3 Sb1 P4 O16'
_cell_volume   284.29710433
_cell_formula_units_Z   1
loop_
 _symmetry_equiv_pos_site_id
 _symmetry_equiv_pos_as_xyz
  1  'x, y, z'
loop_
 _atom_site_type_symbol
 _atom_site_label
 _atom_site_symmetry_multiplicity
 _atom_site_fract_x
 _atom_site_fract_y
 _atom_site_fract_z
 _atom_site_occupancy
  Ni  Ni0  1  0.03521400  0.00000000  0.72963600  1
  Ni  Ni1  1  0.45494200  0.00000000  0.22435900  1
  Ni  Ni2  1  0.54533100  0.50000000  0.76519300  1
  Sb  Sb3  1  0.96674400  0.50000000  0.28027000  1
  P  P4  1  0.08998800  0.50000000  0.60098200  1
  P  P5  1  0.39950800  0.50000000  0.09009600  1
  P  P6  1  0.59585100  0.00000000  0.90139000  1
  P  P7  1  0.92137400  0.00000000  0.41321900  1
  O  O8  1  0.18704300  0.50000000  0.44388400  1
  O  O9  1  0.23408400  0.70692400  0.66694600  1
  O  O10  1  0.23408400  0.29307600  0.66694600  1
  O  O11  1  0.22520600  0.00000000  0.38688400  1
  O  O12  1  0.27987400  0.00000000  0.89015600  1
  O  O13  1  0.24812000  0.69904300  0.17229900  1
  O  O14  1  0.24812000  0.30095700  0.17229900  1
  O  O15  1  0.34035400  0.50000000  0.94468800  1
  O  O16  1  0.65786800  0.00000000  0.05292600  1
  O  O17  1  0.73677800  0.20583300  0.83084900  1
  O  O18  1  0.73677800  0.79416700  0.83084900  1
  O  O19  1  0.71538700  0.50000000  0.12063000  1
  O  O20  1  0.77978200  0.50000000  0.59989100  1
  O  O21  1  0.77085000  0.20649300  0.33012000  1
  O  O22  1  0.77085000  0.79350700  0.33012000  1
  O  O23  1  0.82587200  0.00000000  0.55536700  1
