# generated using pymatgen
data_LiMnF3
_symmetry_space_group_name_H-M   'P 1'
_cell_length_a   9.88542000
_cell_length_b   8.96515000
_cell_length_c   5.92977991
_cell_angle_alpha   90.00000000
_cell_angle_beta   92.16528437
_cell_angle_gamma   90.00000000
_symmetry_Int_Tables_number   1
_chemical_formula_structural   LiMnF3
_chemical_formula_sum   'Li8 Mn8 F24'
_cell_volume   525.14720705
_cell_formula_units_Z   8
loop_
 _symmetry_equiv_pos_site_id
 _symmetry_equiv_pos_as_xyz
  1  'x, y, z'
loop_
 _atom_site_type_symbol
 _atom_site_label
 _atom_site_symmetry_multiplicity
 _atom_site_fract_x
 _atom_site_fract_y
 _atom_site_fract_z
 _atom_site_occupancy
  Li  Li0  1  0.32898300  0.00000000  0.88731400  1
  Li  Li1  1  0.50000000  0.82789800  0.50000000  1
  Li  Li2  1  0.50000000  0.17210200  0.50000000  1
  Li  Li3  1  0.67101700  0.00000000  0.11268600  1
  Li  Li4  1  0.82898300  0.50000000  0.88731400  1
  Li  Li5  1  0.00000000  0.32789800  0.50000000  1
  Li  Li6  1  0.00000000  0.67210200  0.50000000  1
  Li  Li7  1  0.17101700  0.50000000  0.11268600  1
  Mn  Mn8  1  0.23242100  0.00000000  0.31088800  1
  Mn  Mn9  1  0.50000000  0.68925300  0.00000000  1
  Mn  Mn10  1  0.50000000  0.31074700  0.00000000  1
  Mn  Mn11  1  0.76757900  0.00000000  0.68911200  1
  Mn  Mn12  1  0.73242100  0.50000000  0.31088800  1
  Mn  Mn13  1  0.00000000  0.18925300  0.00000000  1
  Mn  Mn14  1  0.00000000  0.81074700  0.00000000  1
  Mn  Mn15  1  0.26757900  0.50000000  0.68911200  1
  F  F16  1  0.13771100  0.00000000  0.94702900  1
  F  F17  1  0.37173300  0.00000000  0.58297100  1
  F  F18  1  0.40307400  0.32070400  0.67289900  1
  F  F19  1  0.40307400  0.67929600  0.67289900  1
  F  F20  1  0.37226950  0.14705150  0.13238200  1
  F  F21  1  0.37226950  0.85294850  0.13238200  1
  F  F22  1  0.62773050  0.14705150  0.86761800  1
  F  F23  1  0.62773050  0.85294850  0.86761800  1
  F  F24  1  0.59692600  0.67929600  0.32710100  1
  F  F25  1  0.59692600  0.32070400  0.32710100  1
  F  F26  1  0.62826700  0.00000000  0.41702900  1
  F  F27  1  0.86228900  0.00000000  0.05297100  1
  F  F28  1  0.63771100  0.50000000  0.94702900  1
  F  F29  1  0.87173300  0.50000000  0.58297100  1
  F  F30  1  0.90307400  0.82070400  0.67289900  1
  F  F31  1  0.90307400  0.17929600  0.67289900  1
  F  F32  1  0.87226950  0.64705150  0.13238200  1
  F  F33  1  0.87226950  0.35294850  0.13238200  1
  F  F34  1  0.12773050  0.64705150  0.86761800  1
  F  F35  1  0.12773050  0.35294850  0.86761800  1
  F  F36  1  0.09692600  0.17929600  0.32710100  1
  F  F37  1  0.09692600  0.82070400  0.32710100  1
  F  F38  1  0.12826700  0.50000000  0.41702900  1
  F  F39  1  0.36228900  0.50000000  0.05297100  1
