# generated using pymatgen
data_Li5Fe2P2(CO7)2
_symmetry_space_group_name_H-M   'P 1'
_cell_length_a   5.08665924
_cell_length_b   6.47095437
_cell_length_c   8.43009246
_cell_angle_alpha   89.28218911
_cell_angle_beta   83.86158419
_cell_angle_gamma   88.96153672
_symmetry_Int_Tables_number   1
_chemical_formula_structural   Li5Fe2P2(CO7)2
_chemical_formula_sum   'Li5 Fe2 P2 C2 O14'
_cell_volume   275.82913347
_cell_formula_units_Z   1
loop_
 _symmetry_equiv_pos_site_id
 _symmetry_equiv_pos_as_xyz
  1  'x, y, z'
loop_
 _atom_site_type_symbol
 _atom_site_label
 _atom_site_symmetry_multiplicity
 _atom_site_fract_x
 _atom_site_fract_y
 _atom_site_fract_z
 _atom_site_occupancy
  Li  Li0  1  0.79785900  0.24342400  0.10413600  1
  Li  Li1  1  0.25471250  0.45780500  0.27624500  1
  Li  Li2  1  0.74083350  0.48508700  0.74184900  1
  Li  Li3  1  0.73874600  0.99612700  0.73355500  1
  Li  Li4  1  0.22033750  0.75314300  0.89928600  1
  Fe  Fe5  1  0.78996900  0.76007300  0.32855500  1
  Fe  Fe6  1  0.21617050  0.24626200  0.66562550  1
  P  P7  1  0.72157500  0.26043900  0.41280250  1
  P  P8  1  0.25472800  0.74462700  0.58275350  1
  C  C9  1  0.68847500  0.74218400  0.04072300  1
  C  C10  1  0.33322550  0.25769100  0.96099500  1
  O  O11  1  0.93310250  0.75902800  0.07189700  1
  O  O12  1  0.40971600  0.29082500  0.09693550  1
  O  O13  1  0.51320400  0.73049400  0.16454000  1
  O  O14  1  0.79195800  0.06371600  0.31004450  1
  O  O15  1  0.84501900  0.43918200  0.30291950  1
  O  O16  1  0.12812150  0.73165900  0.42566900  1
  O  O17  1  0.42022800  0.29614200  0.44136700  1
  O  O18  1  0.56326700  0.74979300  0.54201150  1
  O  O19  1  0.83811950  0.24967100  0.57393650  1
  O  O20  1  0.17562800  0.56330000  0.70010100  1
  O  O21  1  0.15901950  0.93410700  0.68639050  1
  O  O22  1  0.51135600  0.23306500  0.83515450  1
  O  O23  1  0.62341100  0.74035100  0.89662850  1
  O  O24  1  0.08598400  0.24981400  0.93476650  1
