# generated using pymatgen
data_Li3MnF7
_symmetry_space_group_name_H-M   'P 1'
_cell_length_a   6.11739761
_cell_length_b   6.11739761
_cell_length_c   13.58854372
_cell_angle_alpha   90.00000000
_cell_angle_beta   90.00000000
_cell_angle_gamma   120.00000000
_symmetry_Int_Tables_number   1
_chemical_formula_structural   Li3MnF7
_chemical_formula_sum   'Li9 Mn3 F21'
_cell_volume   440.38950973
_cell_formula_units_Z   3
loop_
 _symmetry_equiv_pos_site_id
 _symmetry_equiv_pos_as_xyz
  1  'x, y, z'
loop_
 _atom_site_type_symbol
 _atom_site_label
 _atom_site_symmetry_multiplicity
 _atom_site_fract_x
 _atom_site_fract_y
 _atom_site_fract_z
 _atom_site_occupancy
  Li  Li0  1  0.98675933  0.49337967  0.11659567  1
  Li  Li1  1  0.50662033  0.01324067  0.11659567  1
  Li  Li2  1  0.50662033  0.49337967  0.11659567  1
  Li  Li3  1  0.65342600  0.82671300  0.44992900  1
  Li  Li4  1  0.17328700  0.34657400  0.44992900  1
  Li  Li5  1  0.17328700  0.82671300  0.44992900  1
  Li  Li6  1  0.32009267  0.16004633  0.78326233  1
  Li  Li7  1  0.83995367  0.67990733  0.78326233  1
  Li  Li8  1  0.83995367  0.16004633  0.78326233  1
  Mn  Mn9  1  0.33333333  0.66666667  0.66817067  1
  Mn  Mn10  1  0.00000000  0.00000000  0.00150400  1
  Mn  Mn11  1  0.66666667  0.33333333  0.33483733  1
  F  F12  1  0.95012200  0.47506100  0.25971600  1
  F  F13  1  0.52493900  0.04987800  0.25971600  1
  F  F14  1  0.52493900  0.47506100  0.25971600  1
  F  F15  1  0.33333333  0.66666667  0.41377267  1
  F  F16  1  0.70570400  0.85285200  0.08186100  1
  F  F17  1  0.14714800  0.85285200  0.08186100  1
  F  F18  1  0.14714800  0.29429600  0.08186100  1
  F  F19  1  0.61678867  0.80839433  0.59304933  1
  F  F20  1  0.19160567  0.38321133  0.59304933  1
  F  F21  1  0.19160567  0.80839433  0.59304933  1
  F  F22  1  0.00000000  0.00000000  0.74710600  1
  F  F23  1  0.37237067  0.18618533  0.41519433  1
  F  F24  1  0.81381467  0.18618533  0.41519433  1
  F  F25  1  0.81381467  0.62762933  0.41519433  1
  F  F26  1  0.28345533  0.14172767  0.92638267  1
  F  F27  1  0.85827233  0.71654467  0.92638267  1
  F  F28  1  0.85827233  0.14172767  0.92638267  1
  F  F29  1  0.66666667  0.33333333  0.08043933  1
  F  F30  1  0.03903733  0.51951867  0.74852767  1
  F  F31  1  0.48048133  0.51951867  0.74852767  1
  F  F32  1  0.48048133  0.96096267  0.74852767  1
