# generated using pymatgen
data_Li2Ti3CrO8
_symmetry_space_group_name_H-M   'P 1'
_cell_length_a   5.96139103
_cell_length_b   5.96139103
_cell_length_c   14.74094539
_cell_angle_alpha   90.00000000
_cell_angle_beta   90.00000000
_cell_angle_gamma   120.00000000
_symmetry_Int_Tables_number   1
_chemical_formula_structural   Li2Ti3CrO8
_chemical_formula_sum   'Li6 Ti9 Cr3 O24'
_cell_volume   453.68162422
_cell_formula_units_Z   3
loop_
 _symmetry_equiv_pos_site_id
 _symmetry_equiv_pos_as_xyz
  1  'x, y, z'
loop_
 _atom_site_type_symbol
 _atom_site_label
 _atom_site_symmetry_multiplicity
 _atom_site_fract_x
 _atom_site_fract_y
 _atom_site_fract_z
 _atom_site_occupancy
  Li  Li0  1  0.33333333  0.66666667  0.04195292  1
  Li  Li1  1  0.33333333  0.66666667  0.29138042  1
  Li  Li2  1  0.00000000  0.00000000  0.37528625  1
  Li  Li3  1  0.00000000  0.00000000  0.62471375  1
  Li  Li4  1  0.66666667  0.33333333  0.70861958  1
  Li  Li5  1  0.66666667  0.33333333  0.95804708  1
  Ti  Ti6  1  0.33333333  0.16666667  0.16666667  1
  Ti  Ti7  1  0.83333333  0.66666667  0.16666667  1
  Ti  Ti8  1  0.83333333  0.16666667  0.16666667  1
  Ti  Ti9  1  0.00000000  0.50000000  0.50000000  1
  Ti  Ti10  1  0.50000000  0.00000000  0.50000000  1
  Ti  Ti11  1  0.50000000  0.50000000  0.50000000  1
  Ti  Ti12  1  0.66666667  0.83333333  0.83333333  1
  Ti  Ti13  1  0.16666667  0.33333333  0.83333333  1
  Ti  Ti14  1  0.16666667  0.83333333  0.83333333  1
  Cr  Cr15  1  0.66666667  0.33333333  0.33333333  1
  Cr  Cr16  1  0.33333333  0.66666667  0.66666667  1
  Cr  Cr17  1  1.00000000  1.00000000  0.00000000  1
  O  O18  1  0.66666667  0.33333333  0.09547667  1
  O  O19  1  0.00000000  0.00000000  0.23785667  1
  O  O20  1  0.51634979  0.48365021  0.24436058  1
  O  O21  1  0.51634979  0.03269958  0.24436058  1
  O  O22  1  0.96730042  0.48365021  0.24436058  1
  O  O23  1  0.69936625  0.84968312  0.08897275  1
  O  O24  1  0.15031688  0.30063375  0.08897275  1
  O  O25  1  0.15031688  0.84968312  0.08897275  1
  O  O26  1  0.33333333  0.66666667  0.42881000  1
  O  O27  1  0.66666667  0.33333333  0.57119000  1
  O  O28  1  0.18301646  0.81698354  0.57769392  1
  O  O29  1  0.18301646  0.36603292  0.57769392  1
  O  O30  1  0.63396708  0.81698354  0.57769392  1
  O  O31  1  0.36603292  0.18301646  0.42230608  1
  O  O32  1  0.81698354  0.63396708  0.42230608  1
  O  O33  1  0.81698354  0.18301646  0.42230608  1
  O  O34  1  0.00000000  0.00000000  0.76214333  1
  O  O35  1  0.33333333  0.66666667  0.90452333  1
  O  O36  1  0.84968312  0.15031688  0.91102725  1
  O  O37  1  0.84968312  0.69936625  0.91102725  1
  O  O38  1  0.30063375  0.15031688  0.91102725  1
  O  O39  1  0.03269958  0.51634979  0.75563942  1
  O  O40  1  0.48365021  0.96730042  0.75563942  1
  O  O41  1  0.48365021  0.51634979  0.75563942  1
