# generated using pymatgen
data_Mn3VO8
_symmetry_space_group_name_H-M   'P 1'
_cell_length_a   5.86848597
_cell_length_b   5.86848597
_cell_length_c   14.41436792
_cell_angle_alpha   90.00000000
_cell_angle_beta   90.00000000
_cell_angle_gamma   120.00000000
_symmetry_Int_Tables_number   1
_chemical_formula_structural   Mn3VO8
_chemical_formula_sum   'Mn9 V3 O24'
_cell_volume   429.91082021
_cell_formula_units_Z   3
loop_
 _symmetry_equiv_pos_site_id
 _symmetry_equiv_pos_as_xyz
  1  'x, y, z'
loop_
 _atom_site_type_symbol
 _atom_site_label
 _atom_site_symmetry_multiplicity
 _atom_site_fract_x
 _atom_site_fract_y
 _atom_site_fract_z
 _atom_site_occupancy
  Mn  Mn0  1  0.00000000  0.50000000  0.00000000  1
  Mn  Mn1  1  0.50000000  0.00000000  0.00000000  1
  Mn  Mn2  1  0.50000000  0.50000000  0.00000000  1
  Mn  Mn3  1  0.66666667  0.83333333  0.33333333  1
  Mn  Mn4  1  0.16666667  0.33333333  0.33333333  1
  Mn  Mn5  1  0.16666667  0.83333333  0.33333333  1
  Mn  Mn6  1  0.33333333  0.16666667  0.66666667  1
  Mn  Mn7  1  0.83333333  0.66666667  0.66666667  1
  Mn  Mn8  1  0.83333333  0.16666667  0.66666667  1
  V  V9  1  0.00000000  0.00000000  0.00000000  1
  V  V10  1  0.66666667  0.33333333  0.33333333  1
  V  V11  1  0.33333333  0.66666667  0.66666667  1
  O  O12  1  0.66666667  0.33333333  0.06633133  1
  O  O13  1  0.66242067  0.83121033  0.06587833  1
  O  O14  1  0.16878967  0.33757933  0.06587833  1
  O  O15  1  0.00000000  0.00000000  0.26700200  1
  O  O16  1  0.16878967  0.83121033  0.06587833  1
  O  O17  1  0.00424600  0.50212300  0.26745500  1
  O  O18  1  0.49787700  0.99575400  0.26745500  1
  O  O19  1  0.49787700  0.50212300  0.26745500  1
  O  O20  1  0.33333333  0.66666667  0.39966467  1
  O  O21  1  0.32908733  0.16454367  0.39921167  1
  O  O22  1  0.83545633  0.67091267  0.39921167  1
  O  O23  1  0.66666667  0.33333333  0.60033533  1
  O  O24  1  0.83545633  0.16454367  0.39921167  1
  O  O25  1  0.67091267  0.83545633  0.60078833  1
  O  O26  1  0.16454367  0.32908733  0.60078833  1
  O  O27  1  0.16454367  0.83545633  0.60078833  1
  O  O28  1  0.00000000  0.00000000  0.73299800  1
  O  O29  1  0.99575400  0.49787700  0.73254500  1
  O  O30  1  0.50212300  0.00424600  0.73254500  1
  O  O31  1  0.33333333  0.66666667  0.93366867  1
  O  O32  1  0.50212300  0.49787700  0.73254500  1
  O  O33  1  0.33757933  0.16878967  0.93412167  1
  O  O34  1  0.83121033  0.66242067  0.93412167  1
  O  O35  1  0.83121033  0.16878967  0.93412167  1
