# generated using pymatgen
data_LiV2P4(HO8)2
_symmetry_space_group_name_H-M   'P 1'
_cell_length_a   4.88946073
_cell_length_b   7.36947816
_cell_length_c   7.93609828
_cell_angle_alpha   90.40635735
_cell_angle_beta   90.12659942
_cell_angle_gamma   104.35984191
_symmetry_Int_Tables_number   1
_chemical_formula_structural   LiV2P4(HO8)2
_chemical_formula_sum   'Li1 V2 P4 H2 O16'
_cell_volume   277.01617308
_cell_formula_units_Z   1
loop_
 _symmetry_equiv_pos_site_id
 _symmetry_equiv_pos_as_xyz
  1  'x, y, z'
loop_
 _atom_site_type_symbol
 _atom_site_label
 _atom_site_symmetry_multiplicity
 _atom_site_fract_x
 _atom_site_fract_y
 _atom_site_fract_z
 _atom_site_occupancy
  Li  Li0  1  0.39866250  0.85163900  0.13399450  1
  V  V1  1  0.49720950  0.00426200  0.50561250  1
  V  V2  1  0.98858650  0.48675100  0.99402900  1
  P  P3  1  0.12760700  0.27169400  0.64319650  1
  P  P4  1  0.37038850  0.23208700  0.15179750  1
  P  P5  1  0.62160650  0.76025300  0.84551950  1
  P  P6  1  0.87787300  0.73223800  0.34670350  1
  H  H7  1  0.53802700  0.51330600  0.49060400  1
  H  H8  1  0.96050350  0.98515800  0.98963250  1
  O  O9  1  0.14781100  0.84396900  0.43978750  1
  O  O10  1  0.03800950  0.32743900  0.82777400  1
  O  O11  1  0.17230050  0.36848600  0.15722700  1
  O  O12  1  0.26684000  0.44934300  0.55604250  1
  O  O13  1  0.35281900  0.65941300  0.94393750  1
  O  O14  1  0.55774750  0.81820800  0.67017150  1
  O  O15  1  0.24411300  0.05675000  0.04970900  1
  O  O16  1  0.30799400  0.12909500  0.67076500  1
  O  O17  1  0.67267000  0.86091200  0.32440500  1
  O  O18  1  0.74560600  0.93512400  0.95890400  1
  O  O19  1  0.45184100  0.18568500  0.32849250  1
  O  O20  1  0.64631500  0.34863500  0.06016950  1
  O  O21  1  0.74654800  0.55191500  0.44118400  1
  O  O22  1  0.82557500  0.62880500  0.83861650  1
  O  O23  1  0.98203000  0.68046200  0.17027650  1
  O  O24  1  0.84575650  0.16306900  0.55871700  1
