# generated using pymatgen
data_V2Si2O7
_symmetry_space_group_name_H-M   'P 1'
_cell_length_a   6.35023964
_cell_length_b   8.43286301
_cell_length_c   4.69541235
_cell_angle_alpha   90.00000000
_cell_angle_beta   101.78624713
_cell_angle_gamma   90.00000000
_symmetry_Int_Tables_number   1
_chemical_formula_structural   V2Si2O7
_chemical_formula_sum   'V4 Si4 O14'
_cell_volume   246.14131882
_cell_formula_units_Z   2
loop_
 _symmetry_equiv_pos_site_id
 _symmetry_equiv_pos_as_xyz
  1  'x, y, z'
loop_
 _atom_site_type_symbol
 _atom_site_label
 _atom_site_symmetry_multiplicity
 _atom_site_fract_x
 _atom_site_fract_y
 _atom_site_fract_z
 _atom_site_occupancy
  V  V0  1  0.50000000  0.81445300  0.50000000  1
  V  V1  1  0.50000000  0.18554700  0.50000000  1
  V  V2  1  0.00000000  0.31445300  0.50000000  1
  V  V3  1  0.00000000  0.68554700  0.50000000  1
  Si  Si4  1  0.77071850  0.00000000  0.09484100  1
  Si  Si5  1  0.22928150  0.00000000  0.90515900  1
  Si  Si6  1  0.27071850  0.50000000  0.09484100  1
  Si  Si7  1  0.72928150  0.50000000  0.90515900  1
  O  O8  1  0.50000000  0.50000000  0.00000000  1
  O  O9  1  0.60297650  0.00000000  0.77457950  1
  O  O10  1  0.39702350  0.00000000  0.22542050  1
  O  O11  1  0.76021600  0.16177050  0.28936750  1
  O  O12  1  0.76021600  0.83822950  0.28936750  1
  O  O13  1  0.23978400  0.16177050  0.71063250  1
  O  O14  1  0.23978400  0.83822950  0.71063250  1
  O  O15  1  0.00000000  0.00000000  0.00000000  1
  O  O16  1  0.10297650  0.50000000  0.77457950  1
  O  O17  1  0.89702350  0.50000000  0.22542050  1
  O  O18  1  0.26021600  0.66177050  0.28936750  1
  O  O19  1  0.26021600  0.33822950  0.28936750  1
  O  O20  1  0.73978400  0.66177050  0.71063250  1
  O  O21  1  0.73978400  0.33822950  0.71063250  1
