# generated using pymatgen
data_Ti3MnFe2(PO4)6
_symmetry_space_group_name_H-M   'P 1'
_cell_length_a   8.72448161
_cell_length_b   8.72448161
_cell_length_c   20.80328889
_cell_angle_alpha   90.00000000
_cell_angle_beta   90.00000000
_cell_angle_gamma   120.00000000
_symmetry_Int_Tables_number   1
_chemical_formula_structural   Ti3MnFe2(PO4)6
_chemical_formula_sum   'Ti9 Mn3 Fe6 P18 O72'
_cell_volume   1371.32973952
_cell_formula_units_Z   3
loop_
 _symmetry_equiv_pos_site_id
 _symmetry_equiv_pos_as_xyz
  1  'x, y, z'
loop_
 _atom_site_type_symbol
 _atom_site_label
 _atom_site_symmetry_multiplicity
 _atom_site_fract_x
 _atom_site_fract_y
 _atom_site_fract_z
 _atom_site_occupancy
  Ti  Ti0  1  0.33333333  0.66666667  0.52368467  1
  Ti  Ti1  1  0.33333333  0.66666667  0.31188567  1
  Ti  Ti2  1  0.33333333  0.66666667  0.02068967  1
  Ti  Ti3  1  0.00000000  0.00000000  0.85701800  1
  Ti  Ti4  1  0.00000000  0.00000000  0.64521900  1
  Ti  Ti5  1  0.00000000  0.00000000  0.35402300  1
  Ti  Ti6  1  0.66666667  0.33333333  0.19035133  1
  Ti  Ti7  1  0.66666667  0.33333333  0.97855233  1
  Ti  Ti8  1  0.66666667  0.33333333  0.68735633  1
  Mn  Mn9  1  0.33333333  0.66666667  0.80982467  1
  Mn  Mn10  1  0.00000000  0.00000000  0.14315800  1
  Mn  Mn11  1  0.66666667  0.33333333  0.47649133  1
  Fe  Fe12  1  0.33333333  0.66666667  0.66956567  1
  Fe  Fe13  1  0.33333333  0.66666667  0.16802867  1
  Fe  Fe14  1  0.00000000  0.00000000  0.00289900  1
  Fe  Fe15  1  0.00000000  0.00000000  0.50136200  1
  Fe  Fe16  1  0.66666667  0.33333333  0.33623233  1
  Fe  Fe17  1  0.66666667  0.33333333  0.83469533  1
  P  P18  1  0.70283500  0.70156100  0.24906900  1
  P  P19  1  0.29843900  0.00127400  0.24906900  1
  P  P20  1  0.66205333  0.03910767  0.08301967  1
  P  P21  1  0.37705433  0.33794667  0.08301967  1
  P  P22  1  0.96089233  0.62294567  0.08301967  1
  P  P23  1  0.99872600  0.29716500  0.24906900  1
  P  P24  1  0.36950167  0.03489433  0.58240233  1
  P  P25  1  0.96510567  0.33460733  0.58240233  1
  P  P26  1  0.32872000  0.37244100  0.41635300  1
  P  P27  1  0.04372100  0.67128000  0.41635300  1
  P  P28  1  0.62755900  0.95627900  0.41635300  1
  P  P29  1  0.66539267  0.63049833  0.58240233  1
  P  P30  1  0.03616833  0.36822767  0.91573567  1
  P  P31  1  0.63177233  0.66794067  0.91573567  1
  P  P32  1  0.99538667  0.70577433  0.74968633  1
  P  P33  1  0.71038767  0.00461333  0.74968633  1
  P  P34  1  0.29422567  0.28961233  0.74968633  1
  P  P35  1  0.33205933  0.96383167  0.91573567  1
  O  O36  1  0.52925733  0.83731267  0.35808367  1
  O  O37  1  0.30805533  0.47074267  0.35808367  1
  O  O38  1  0.68295200  0.51414800  0.25887000  1
  O  O39  1  0.16268733  0.69194467  0.35808367  1
  O  O40  1  0.79095667  0.78751033  0.18737233  1
  O  O41  1  0.51135633  0.67560867  0.24736067  1
  O  O42  1  0.48585200  0.16880400  0.25887000  1
  O  O43  1  0.32439133  0.83574767  0.24736067  1
  O  O44  1  0.33674433  0.48047167  0.47735967  1
  O  O45  1  0.16425233  0.48864367  0.24736067  1
  O  O46  1  0.82605200  0.02342800  0.07058500  1
  O  O47  1  0.14372733  0.66325567  0.47735967  1
  O  O48  1  0.21248967  0.00344633  0.18737233  1
  O  O49  1  0.83119600  0.31704800  0.25887000  1
  O  O50  1  0.49451833  0.85212367  0.09122167  1
  O  O51  1  0.99655367  0.20904333  0.18737233  1
  O  O52  1  0.35760533  0.50548167  0.09122167  1
  O  O53  1  0.19737600  0.17394800  0.07058500  1
  O  O54  1  0.14787633  0.64239467  0.09122167  1
  O  O55  1  0.51952833  0.85627267  0.47735967  1
  O  O56  1  0.51962967  0.66391833  0.97583133  1
  O  O57  1  0.97657200  0.80262400  0.07058500  1
  O  O58  1  0.33608167  0.85571133  0.97583133  1
  O  O59  1  0.14428867  0.48037033  0.97583133  1
  O  O60  1  0.19592400  0.17064600  0.69141700  1
  O  O61  1  0.97472200  0.80407600  0.69141700  1
  O  O62  1  0.34961867  0.84748133  0.59220333  1
  O  O63  1  0.82935400  0.02527800  0.69141700  1
  O  O64  1  0.45762333  0.12084367  0.52070567  1
  O  O65  1  0.17802300  0.00894200  0.58069400  1
  O  O66  1  0.15251867  0.50213733  0.59220333  1
  O  O67  1  0.99105800  0.16908100  0.58069400  1
  O  O68  1  0.00341100  0.81380500  0.81069300  1
  O  O69  1  0.83091900  0.82197700  0.58069400  1
  O  O70  1  0.49271867  0.35676133  0.40391833  1
  O  O71  1  0.81039400  0.99658900  0.81069300  1
  O  O72  1  0.87915633  0.33677967  0.52070567  1
  O  O73  1  0.49786267  0.65038133  0.59220333  1
  O  O74  1  0.16118500  0.18545700  0.42455500  1
  O  O75  1  0.66322033  0.54237667  0.52070567  1
  O  O76  1  0.02427200  0.83881500  0.42455500  1
  O  O77  1  0.86404267  0.50728133  0.40391833  1
  O  O78  1  0.81454300  0.97572800  0.42455500  1
  O  O79  1  0.18619500  0.18960600  0.81069300  1
  O  O80  1  0.18629633  0.99725167  0.30916467  1
  O  O81  1  0.64323867  0.13595733  0.40391833  1
  O  O82  1  0.00274833  0.18904467  0.30916467  1
  O  O83  1  0.81095533  0.81370367  0.30916467  1
  O  O84  1  0.86259067  0.50397933  0.02475033  1
  O  O85  1  0.64138867  0.13740933  0.02475033  1
  O  O86  1  0.01628533  0.18081467  0.92553667  1
  O  O87  1  0.49602067  0.35861133  0.02475033  1
  O  O88  1  0.12429000  0.45417700  0.85403900  1
  O  O89  1  0.84468967  0.34227533  0.91402733  1
  O  O90  1  0.81918533  0.83547067  0.92553667  1
  O  O91  1  0.65772467  0.50241433  0.91402733  1
  O  O92  1  0.67007767  0.14713833  0.14402633  1
  O  O93  1  0.49758567  0.15531033  0.91402733  1
  O  O94  1  0.15938533  0.69009467  0.73725167  1
  O  O95  1  0.47706067  0.32992233  0.14402633  1
  O  O96  1  0.54582300  0.67011300  0.85403900  1
  O  O97  1  0.16452933  0.98371467  0.92553667  1
  O  O98  1  0.82785167  0.51879033  0.75788833  1
  O  O99  1  0.32988700  0.87571000  0.85403900  1
  O  O100  1  0.69093867  0.17214833  0.75788833  1
  O  O101  1  0.53070933  0.84061467  0.73725167  1
  O  O102  1  0.48120967  0.30906133  0.75788833  1
  O  O103  1  0.85286167  0.52293933  0.14402633  1
  O  O104  1  0.85296300  0.33058500  0.64249800  1
  O  O105  1  0.30990533  0.46929067  0.73725167  1
  O  O106  1  0.66941500  0.52237800  0.64249800  1
  O  O107  1  0.47762200  0.14703700  0.64249800  1
