# generated using pymatgen
data_LiVCSO7
_symmetry_space_group_name_H-M   'P 1'
_cell_length_a   5.28360515
_cell_length_b   6.42295000
_cell_length_c   9.62088318
_cell_angle_alpha   90.00000000
_cell_angle_beta   92.77556391
_cell_angle_gamma   90.00000000
_symmetry_Int_Tables_number   1
_chemical_formula_structural   LiVCSO7
_chemical_formula_sum   'Li2 V2 C2 S2 O14'
_cell_volume   326.11446229
_cell_formula_units_Z   2
loop_
 _symmetry_equiv_pos_site_id
 _symmetry_equiv_pos_as_xyz
  1  'x, y, z'
loop_
 _atom_site_type_symbol
 _atom_site_label
 _atom_site_symmetry_multiplicity
 _atom_site_fract_x
 _atom_site_fract_y
 _atom_site_fract_z
 _atom_site_occupancy
  Li  Li0  1  0.24162150  0.41598500  0.61099550  1
  Li  Li1  1  0.75837850  0.91598500  0.38900450  1
  V  V2  1  0.71932950  0.27337300  0.84565350  1
  V  V3  1  0.28067050  0.77337300  0.15434650  1
  C  C4  1  0.76634450  0.23690900  0.59459150  1
  C  C5  1  0.23365550  0.73690900  0.40540850  1
  S  S6  1  0.77227450  0.77252700  0.92836550  1
  S  S7  1  0.22772550  0.27252700  0.07163450  1
  O  O8  1  0.20134550  0.68274900  0.52716150  1
  O  O9  1  0.54454050  0.25950500  0.65132050  1
  O  O10  1  0.95650750  0.27376500  0.68850650  1
  O  O11  1  0.71920650  0.95654800  0.83886250  1
  O  O12  1  0.71251950  0.58865100  0.83864350  1
  O  O13  1  0.38531350  0.27389800  0.94804450  1
  O  O14  1  0.04430850  0.76793800  0.97446450  1
  O  O15  1  0.95569150  0.26793800  0.02553550  1
  O  O16  1  0.61468650  0.77389800  0.05195550  1
  O  O17  1  0.28748050  0.08865100  0.16135650  1
  O  O18  1  0.28079350  0.45654800  0.16113750  1
  O  O19  1  0.04349250  0.77376500  0.31149350  1
  O  O20  1  0.45545950  0.75950500  0.34867950  1
  O  O21  1  0.79865450  0.18274900  0.47283850  1
