# generated using pymatgen
data_Sm2WO6
_symmetry_space_group_name_H-M   'P 1'
_cell_length_a   16.65408000
_cell_length_b   11.36884400
_cell_length_c   5.52264200
_cell_angle_alpha   90.00000000
_cell_angle_beta   107.28335394
_cell_angle_gamma   90.00000000
_symmetry_Int_Tables_number   1
_chemical_formula_structural   Sm2WO6
_chemical_formula_sum   'Sm16 W8 O48'
_cell_volume   998.43018765
_cell_formula_units_Z   8
loop_
 _symmetry_equiv_pos_site_id
 _symmetry_equiv_pos_as_xyz
  1  'x, y, z'
loop_
 _atom_site_type_symbol
 _atom_site_label
 _atom_site_symmetry_multiplicity
 _atom_site_fract_x
 _atom_site_fract_y
 _atom_site_fract_z
 _atom_site_occupancy
  Sm  Sm0  1  0.82738950  0.88500350  0.61552700  1
  Sm  Sm1  1  0.82738950  0.11499650  0.11552700  1
  Sm  Sm2  1  0.50000000  0.13219700  0.75000000  1
  Sm  Sm3  1  0.50000000  0.60736700  0.75000000  1
  Sm  Sm4  1  0.50000000  0.39263300  0.25000000  1
  Sm  Sm5  1  0.50000000  0.86780300  0.25000000  1
  Sm  Sm6  1  0.17261050  0.88500350  0.88447300  1
  Sm  Sm7  1  0.17261050  0.11499650  0.38447300  1
  Sm  Sm8  1  0.32738950  0.38500350  0.61552700  1
  Sm  Sm9  1  0.32738950  0.61499650  0.11552700  1
  Sm  Sm10  1  0.00000000  0.63219700  0.75000000  1
  Sm  Sm11  1  0.00000000  0.10736700  0.75000000  1
  Sm  Sm12  1  0.00000000  0.89263300  0.25000000  1
  Sm  Sm13  1  0.00000000  0.36780300  0.25000000  1
  Sm  Sm14  1  0.67261050  0.38500350  0.88447300  1
  Sm  Sm15  1  0.67261050  0.61499650  0.38447300  1
  W  W16  1  0.65246000  0.85238600  0.93488600  1
  W  W17  1  0.65246000  0.14761400  0.43488600  1
  W  W18  1  0.34754000  0.85238600  0.56511400  1
  W  W19  1  0.34754000  0.14761400  0.06511400  1
  W  W20  1  0.15246000  0.35238600  0.93488600  1
  W  W21  1  0.15246000  0.64761400  0.43488600  1
  W  W22  1  0.84754000  0.35238600  0.56511400  1
  W  W23  1  0.84754000  0.64761400  0.06511400  1
  O  O24  1  0.90789950  0.01490150  0.92147700  1
  O  O25  1  0.90789950  0.98509850  0.42147700  1
  O  O26  1  0.73175300  0.20429400  0.73238100  1
  O  O27  1  0.73134400  0.94787700  0.85372300  1
  O  O28  1  0.73175300  0.79570600  0.23238100  1
  O  O29  1  0.73134400  0.05212300  0.35372300  1
  O  O30  1  0.60337050  0.77834750  0.62258200  1
  O  O31  1  0.60337050  0.22165250  0.12258200  1
  O  O32  1  0.57883750  0.96498750  0.97766000  1
  O  O33  1  0.57739750  0.26158050  0.57942400  1
  O  O34  1  0.57883750  0.03501250  0.47766000  1
  O  O35  1  0.57739750  0.73841950  0.07942400  1
  O  O36  1  0.42260250  0.26158050  0.92057600  1
  O  O37  1  0.42116250  0.96498750  0.52234000  1
  O  O38  1  0.42260250  0.73841950  0.42057600  1
  O  O39  1  0.42116250  0.03501250  0.02234000  1
  O  O40  1  0.39662950  0.77834750  0.87741800  1
  O  O41  1  0.39662950  0.22165250  0.37741800  1
  O  O42  1  0.26865600  0.94787700  0.64627700  1
  O  O43  1  0.26824700  0.20429400  0.76761900  1
  O  O44  1  0.26865600  0.05212300  0.14627700  1
  O  O45  1  0.26824700  0.79570600  0.26761900  1
  O  O46  1  0.09210050  0.01490150  0.57852300  1
  O  O47  1  0.09210050  0.98509850  0.07852300  1
  O  O48  1  0.40789950  0.51490150  0.92147700  1
  O  O49  1  0.40789950  0.48509850  0.42147700  1
  O  O50  1  0.23175300  0.70429400  0.73238100  1
  O  O51  1  0.23134400  0.44787700  0.85372300  1
  O  O52  1  0.23175300  0.29570600  0.23238100  1
  O  O53  1  0.23134400  0.55212300  0.35372300  1
  O  O54  1  0.10337050  0.27834750  0.62258200  1
  O  O55  1  0.10337050  0.72165250  0.12258200  1
  O  O56  1  0.07883750  0.46498750  0.97766000  1
  O  O57  1  0.07739750  0.76158050  0.57942400  1
  O  O58  1  0.07883750  0.53501250  0.47766000  1
  O  O59  1  0.07739750  0.23841950  0.07942400  1
  O  O60  1  0.92260250  0.76158050  0.92057600  1
  O  O61  1  0.92116250  0.46498750  0.52234000  1
  O  O62  1  0.92260250  0.23841950  0.42057600  1
  O  O63  1  0.92116250  0.53501250  0.02234000  1
  O  O64  1  0.89662950  0.27834750  0.87741800  1
  O  O65  1  0.89662950  0.72165250  0.37741800  1
  O  O66  1  0.76865600  0.44787700  0.64627700  1
  O  O67  1  0.76824700  0.70429400  0.76761900  1
  O  O68  1  0.76865600  0.55212300  0.14627700  1
  O  O69  1  0.76824700  0.29570600  0.26761900  1
  O  O70  1  0.59210050  0.51490150  0.57852300  1
  O  O71  1  0.59210050  0.48509850  0.07852300  1
