# generated using pymatgen
data_Li2Fe3Si3O10
_symmetry_space_group_name_H-M   'P 1'
_cell_length_a   16.02796000
_cell_length_b   4.86387200
_cell_length_c   10.49383155
_cell_angle_alpha   90.00000000
_cell_angle_beta   93.60906433
_cell_angle_gamma   90.00000000
_symmetry_Int_Tables_number   1
_chemical_formula_structural   Li2Fe3Si3O10
_chemical_formula_sum   'Li8 Fe12 Si12 O40'
_cell_volume   816.45512616
_cell_formula_units_Z   4
loop_
 _symmetry_equiv_pos_site_id
 _symmetry_equiv_pos_as_xyz
  1  'x, y, z'
loop_
 _atom_site_type_symbol
 _atom_site_label
 _atom_site_symmetry_multiplicity
 _atom_site_fract_x
 _atom_site_fract_y
 _atom_site_fract_z
 _atom_site_occupancy
  Li  Li0  1  0.55946550  0.29406650  0.97818200  1
  Li  Li1  1  0.55946550  0.70593350  0.47818200  1
  Li  Li2  1  0.94053450  0.79406650  0.52181800  1
  Li  Li3  1  0.94053450  0.20593350  0.02181800  1
  Li  Li4  1  0.05946550  0.79406650  0.97818200  1
  Li  Li5  1  0.05946550  0.20593350  0.47818200  1
  Li  Li6  1  0.44053450  0.29406650  0.52181800  1
  Li  Li7  1  0.44053450  0.70593350  0.02181800  1
  Fe  Fe8  1  0.65624500  0.28316300  0.70934700  1
  Fe  Fe9  1  0.65624500  0.71683700  0.20934700  1
  Fe  Fe10  1  0.75000000  0.25000000  0.00000000  1
  Fe  Fe11  1  0.75000000  0.75000000  0.50000000  1
  Fe  Fe12  1  0.84375500  0.78316300  0.79065300  1
  Fe  Fe13  1  0.84375500  0.21683700  0.29065300  1
  Fe  Fe14  1  0.15624500  0.78316300  0.70934700  1
  Fe  Fe15  1  0.15624500  0.21683700  0.20934700  1
  Fe  Fe16  1  0.25000000  0.75000000  0.00000000  1
  Fe  Fe17  1  0.25000000  0.25000000  0.50000000  1
  Fe  Fe18  1  0.34375500  0.28316300  0.79065300  1
  Fe  Fe19  1  0.34375500  0.71683700  0.29065300  1
  Si  Si20  1  0.65425200  0.81463500  0.90292000  1
  Si  Si21  1  0.65425200  0.18536500  0.40292000  1
  Si  Si22  1  0.84574800  0.31463500  0.59708000  1
  Si  Si23  1  0.84574800  0.68536500  0.09708000  1
  Si  Si24  1  0.00000000  0.18754700  0.75000000  1
  Si  Si25  1  0.00000000  0.81245300  0.25000000  1
  Si  Si26  1  0.15425200  0.31463500  0.90292000  1
  Si  Si27  1  0.15425200  0.68536500  0.40292000  1
  Si  Si28  1  0.34574800  0.81463500  0.59708000  1
  Si  Si29  1  0.34574800  0.18536500  0.09708000  1
  Si  Si30  1  0.50000000  0.68754700  0.75000000  1
  Si  Si31  1  0.50000000  0.31245300  0.25000000  1
  O  O32  1  0.54606650  0.50423150  0.64466500  1
  O  O33  1  0.56483100  0.91233400  0.82590700  1
  O  O34  1  0.54606650  0.49576850  0.14466500  1
  O  O35  1  0.56483100  0.08766600  0.32590700  1
  O  O36  1  0.65597450  0.47934450  0.90014500  1
  O  O37  1  0.65281200  0.04205000  0.54376400  1
  O  O38  1  0.65597450  0.52065550  0.40014500  1
  O  O39  1  0.65281200  0.95795000  0.04376400  1
  O  O40  1  0.72894850  0.97042850  0.82982300  1
  O  O41  1  0.72894850  0.02957150  0.32982300  1
  O  O42  1  0.77105150  0.47042850  0.67017700  1
  O  O43  1  0.77105150  0.52957150  0.17017700  1
  O  O44  1  0.84718800  0.54205000  0.95623600  1
  O  O45  1  0.84402550  0.97934450  0.59985500  1
  O  O46  1  0.84718800  0.45795000  0.45623600  1
  O  O47  1  0.84402550  0.02065550  0.09985500  1
  O  O48  1  0.93516900  0.41233400  0.67409300  1
  O  O49  1  0.95393350  0.00423150  0.85533500  1
  O  O50  1  0.93516900  0.58766600  0.17409300  1
  O  O51  1  0.95393350  0.99576850  0.35533500  1
  O  O52  1  0.04606650  0.00423150  0.64466500  1
  O  O53  1  0.06483100  0.41233400  0.82590700  1
  O  O54  1  0.04606650  0.99576850  0.14466500  1
  O  O55  1  0.06483100  0.58766600  0.32590700  1
  O  O56  1  0.15597450  0.97934450  0.90014500  1
  O  O57  1  0.15281200  0.54205000  0.54376400  1
  O  O58  1  0.15597450  0.02065550  0.40014500  1
  O  O59  1  0.15281200  0.45795000  0.04376400  1
  O  O60  1  0.22894850  0.47042850  0.82982300  1
  O  O61  1  0.22894850  0.52957150  0.32982300  1
  O  O62  1  0.27105150  0.97042850  0.67017700  1
  O  O63  1  0.27105150  0.02957150  0.17017700  1
  O  O64  1  0.34718800  0.04205000  0.95623600  1
  O  O65  1  0.34402550  0.47934450  0.59985500  1
  O  O66  1  0.34718800  0.95795000  0.45623600  1
  O  O67  1  0.34402550  0.52065550  0.09985500  1
  O  O68  1  0.43516900  0.91233400  0.67409300  1
  O  O69  1  0.45393350  0.50423150  0.85533500  1
  O  O70  1  0.43516900  0.08766600  0.17409300  1
  O  O71  1  0.45393350  0.49576850  0.35533500  1
