# generated using pymatgen
data_Li2MnVO4
_symmetry_space_group_name_H-M   'P 1'
_cell_length_a   5.31025827
_cell_length_b   2.91689919
_cell_length_c   5.34929057
_cell_angle_alpha   90.00000000
_cell_angle_beta   112.76979414
_cell_angle_gamma   90.00000000
_symmetry_Int_Tables_number   1
_chemical_formula_structural   Li2MnVO4
_chemical_formula_sum   'Li2 Mn1 V1 O4'
_cell_volume   76.40044398
_cell_formula_units_Z   1
loop_
 _symmetry_equiv_pos_site_id
 _symmetry_equiv_pos_as_xyz
  1  'x, y, z'
loop_
 _atom_site_type_symbol
 _atom_site_label
 _atom_site_symmetry_multiplicity
 _atom_site_fract_x
 _atom_site_fract_y
 _atom_site_fract_z
 _atom_site_occupancy
  Li  Li0  1  0.00000000  0.00000000  0.00000000  1
  Li  Li1  1  0.00000000  0.50000000  0.50000000  1
  Mn  Mn2  1  0.50000000  0.50000000  0.00000000  1
  V  V3  1  0.50000000  0.00000000  0.50000000  1
  O  O4  1  0.28520150  0.00000000  0.76157700  1
  O  O5  1  0.71479850  0.00000000  0.23842300  1
  O  O6  1  0.25761750  0.50000000  0.26611700  1
  O  O7  1  0.74238250  0.50000000  0.73388300  1
