# generated using pymatgen
data_Li3Fe3O8
_symmetry_space_group_name_H-M   'P 1'
_cell_length_a   5.86039178
_cell_length_b   5.86039178
_cell_length_c   14.49211637
_cell_angle_alpha   90.00000000
_cell_angle_beta   90.00000000
_cell_angle_gamma   120.00000000
_symmetry_Int_Tables_number   1
_chemical_formula_structural   Li3Fe3O8
_chemical_formula_sum   'Li9 Fe9 O24'
_cell_volume   431.03818557
_cell_formula_units_Z   3
loop_
 _symmetry_equiv_pos_site_id
 _symmetry_equiv_pos_as_xyz
  1  'x, y, z'
loop_
 _atom_site_type_symbol
 _atom_site_label
 _atom_site_symmetry_multiplicity
 _atom_site_fract_x
 _atom_site_fract_y
 _atom_site_fract_z
 _atom_site_occupancy
  Li  Li0  1  0.00000000  0.00000000  0.00000000  1
  Li  Li1  1  0.33333333  0.66666667  0.04828367  1
  Li  Li2  1  0.33333333  0.66666667  0.28504967  1
  Li  Li3  1  0.66666667  0.33333333  0.33333333  1
  Li  Li4  1  0.00000000  0.00000000  0.38161700  1
  Li  Li5  1  0.00000000  0.00000000  0.61838300  1
  Li  Li6  1  0.33333333  0.66666667  0.66666667  1
  Li  Li7  1  0.66666667  0.33333333  0.71495033  1
  Li  Li8  1  0.66666667  0.33333333  0.95171633  1
  Fe  Fe9  1  0.83333333  0.16666667  0.16666667  1
  Fe  Fe10  1  0.33333333  0.16666667  0.16666667  1
  Fe  Fe11  1  0.83333333  0.66666667  0.16666667  1
  Fe  Fe12  1  0.50000000  0.50000000  0.50000000  1
  Fe  Fe13  1  0.00000000  0.50000000  0.50000000  1
  Fe  Fe14  1  0.50000000  0.00000000  0.50000000  1
  Fe  Fe15  1  0.16666667  0.83333333  0.83333333  1
  Fe  Fe16  1  0.66666667  0.83333333  0.83333333  1
  Fe  Fe17  1  0.16666667  0.33333333  0.83333333  1
  O  O18  1  0.15076900  0.30153800  0.09682900  1
  O  O19  1  0.69846200  0.84923100  0.09682900  1
  O  O20  1  0.15076900  0.84923100  0.09682900  1
  O  O21  1  0.66666667  0.33333333  0.08890733  1
  O  O22  1  0.51589767  0.03179533  0.23650433  1
  O  O23  1  0.96820467  0.48410233  0.23650433  1
  O  O24  1  0.51589767  0.48410233  0.23650433  1
  O  O25  1  0.00000000  0.00000000  0.24442600  1
  O  O26  1  0.81743567  0.63487133  0.43016233  1
  O  O27  1  0.36512867  0.18256433  0.43016233  1
  O  O28  1  0.81743567  0.18256433  0.43016233  1
  O  O29  1  0.33333333  0.66666667  0.42224067  1
  O  O30  1  0.18256433  0.36512867  0.56983767  1
  O  O31  1  0.63487133  0.81743567  0.56983767  1
  O  O32  1  0.18256433  0.81743567  0.56983767  1
  O  O33  1  0.66666667  0.33333333  0.57775933  1
  O  O34  1  0.48410233  0.96820467  0.76349567  1
  O  O35  1  0.03179533  0.51589767  0.76349567  1
  O  O36  1  0.48410233  0.51589767  0.76349567  1
  O  O37  1  0.00000000  0.00000000  0.75557400  1
  O  O38  1  0.84923100  0.69846200  0.90317100  1
  O  O39  1  0.30153800  0.15076900  0.90317100  1
  O  O40  1  0.84923100  0.15076900  0.90317100  1
  O  O41  1  0.33333333  0.66666667  0.91109267  1
