# generated using pymatgen
data_Li2CrPCO7
_symmetry_space_group_name_H-M   'P 1'
_cell_length_a   5.06973220
_cell_length_b   6.41000301
_cell_length_c   8.33695560
_cell_angle_alpha   90.00000000
_cell_angle_beta   96.06339016
_cell_angle_gamma   90.00000000
_symmetry_Int_Tables_number   1
_chemical_formula_structural   Li2CrPCO7
_chemical_formula_sum   'Li4 Cr2 P2 C2 O14'
_cell_volume   269.41037730
_cell_formula_units_Z   2
loop_
 _symmetry_equiv_pos_site_id
 _symmetry_equiv_pos_as_xyz
  1  'x, y, z'
loop_
 _atom_site_type_symbol
 _atom_site_label
 _atom_site_symmetry_multiplicity
 _atom_site_fract_x
 _atom_site_fract_y
 _atom_site_fract_z
 _atom_site_occupancy
  Li  Li0  1  0.78166000  0.24557250  0.90069650  1
  Li  Li1  1  0.21834000  0.74557250  0.09930350  1
  Li  Li2  1  0.26090750  0.46033250  0.71872450  1
  Li  Li3  1  0.73909250  0.96033250  0.28127550  1
  Cr  Cr4  1  0.79606850  0.75330600  0.67580550  1
  Cr  Cr5  1  0.20393150  0.25330600  0.32419450  1
  P  P6  1  0.72886350  0.24953900  0.58164450  1
  P  P7  1  0.27113650  0.74953900  0.41835550  1
  C  C8  1  0.68262950  0.75249900  0.95467950  1
  C  C9  1  0.31737050  0.25249900  0.04532050  1
  O  O10  1  0.93192150  0.75564650  0.92204350  1
  O  O11  1  0.06807850  0.25564650  0.07795650  1
  O  O12  1  0.38934750  0.27985100  0.90652750  1
  O  O13  1  0.61065250  0.77985100  0.09347250  1
  O  O14  1  0.51232950  0.72415900  0.82663150  1
  O  O15  1  0.48767050  0.22415900  0.17336850  1
  O  O16  1  0.78922450  0.06299450  0.69836950  1
  O  O17  1  0.21077550  0.56299450  0.30163050  1
  O  O18  1  0.83625900  0.43673450  0.69044450  1
  O  O19  1  0.16374100  0.93673450  0.30955550  1
  O  O20  1  0.13714450  0.72922600  0.57386850  1
  O  O21  1  0.86285550  0.22922600  0.42613150  1
  O  O22  1  0.42403450  0.27826500  0.53913250  1
  O  O23  1  0.57596550  0.77826500  0.46086750  1
