# generated using pymatgen
data_Li7Ni5O12
_symmetry_space_group_name_H-M   'P 1'
_cell_length_a   5.04821321
_cell_length_b   8.60930806
_cell_length_c   9.47664577
_cell_angle_alpha   90.00000000
_cell_angle_beta   99.79350317
_cell_angle_gamma   90.00000000
_symmetry_Int_Tables_number   1
_chemical_formula_structural   Li7Ni5O12
_chemical_formula_sum   'Li14 Ni10 O24'
_cell_volume   405.86829460
_cell_formula_units_Z   2
loop_
 _symmetry_equiv_pos_site_id
 _symmetry_equiv_pos_as_xyz
  1  'x, y, z'
loop_
 _atom_site_type_symbol
 _atom_site_label
 _atom_site_symmetry_multiplicity
 _atom_site_fract_x
 _atom_site_fract_y
 _atom_site_fract_z
 _atom_site_occupancy
  Li  Li0  1  0.50000000  0.24145700  0.50000000  1
  Li  Li1  1  0.73933500  0.08403100  0.73991100  1
  Li  Li2  1  0.75514300  0.91840200  0.25945600  1
  Li  Li3  1  0.26066500  0.08403100  0.26008900  1
  Li  Li4  1  0.24485700  0.91840200  0.74054400  1
  Li  Li5  1  0.50000000  0.75404700  0.00000000  1
  Li  Li6  1  0.50000000  0.58122400  0.50000000  1
  Li  Li7  1  0.00000000  0.74145700  0.50000000  1
  Li  Li8  1  0.23933500  0.58403100  0.73991100  1
  Li  Li9  1  0.25514300  0.41840200  0.25945600  1
  Li  Li10  1  0.76066500  0.58403100  0.26008900  1
  Li  Li11  1  0.74485700  0.41840200  0.74054400  1
  Li  Li12  1  0.00000000  0.25404700  0.00000000  1
  Li  Li13  1  0.00000000  0.08122400  0.50000000  1
  Ni  Ni14  1  0.50000000  0.42405300  0.00000000  1
  Ni  Ni15  1  0.75029600  0.24634100  0.25453900  1
  Ni  Ni16  1  0.24970400  0.24634100  0.74546100  1
  Ni  Ni17  1  0.50000000  0.08695700  0.00000000  1
  Ni  Ni18  1  0.50000000  0.91432400  0.50000000  1
  Ni  Ni19  1  0.00000000  0.92405300  0.00000000  1
  Ni  Ni20  1  0.25029600  0.74634100  0.25453900  1
  Ni  Ni21  1  0.74970400  0.74634100  0.74546100  1
  Ni  Ni22  1  0.00000000  0.58695700  0.00000000  1
  Ni  Ni23  1  0.00000000  0.41432400  0.50000000  1
  O  O24  1  0.15906200  0.90286100  0.37675700  1
  O  O25  1  0.84093800  0.90286100  0.62324300  1
  O  O26  1  0.59131300  0.24923700  0.87563000  1
  O  O27  1  0.40868700  0.24923700  0.12437000  1
  O  O28  1  0.62494050  0.07361650  0.38253800  1
  O  O29  1  0.37505950  0.07361650  0.61746200  1
  O  O30  1  0.64828600  0.92922300  0.89104700  1
  O  O31  1  0.35171400  0.92922300  0.10895300  1
  O  O32  1  0.59217800  0.75672200  0.36987500  1
  O  O33  1  0.40782200  0.75672200  0.63012500  1
  O  O34  1  0.15683200  0.08853500  0.88053200  1
  O  O35  1  0.84316800  0.08853500  0.11946800  1
  O  O36  1  0.65906200  0.40286100  0.37675700  1
  O  O37  1  0.34093800  0.40286100  0.62324300  1
  O  O38  1  0.09131300  0.74923700  0.87563000  1
  O  O39  1  0.90868700  0.74923700  0.12437000  1
  O  O40  1  0.12494050  0.57361650  0.38253800  1
  O  O41  1  0.87505950  0.57361650  0.61746200  1
  O  O42  1  0.14828600  0.42922300  0.89104700  1
  O  O43  1  0.85171400  0.42922300  0.10895300  1
  O  O44  1  0.09217800  0.25672200  0.36987500  1
  O  O45  1  0.90782200  0.25672200  0.63012500  1
  O  O46  1  0.65683200  0.58853500  0.88053200  1
  O  O47  1  0.34316800  0.58853500  0.11946800  1
