# generated using pymatgen
data_LiCoPO4
_symmetry_space_group_name_H-M   'P 1'
_cell_length_a   5.09875409
_cell_length_b   6.28789512
_cell_length_c   10.95503800
_cell_angle_alpha   90.00000000
_cell_angle_beta   90.00000000
_cell_angle_gamma   90.00000000
_symmetry_Int_Tables_number   1
_chemical_formula_structural   LiCoPO4
_chemical_formula_sum   'Li4 Co4 P4 O16'
_cell_volume   351.22323906
_cell_formula_units_Z   4
loop_
 _symmetry_equiv_pos_site_id
 _symmetry_equiv_pos_as_xyz
  1  'x, y, z'
loop_
 _atom_site_type_symbol
 _atom_site_label
 _atom_site_symmetry_multiplicity
 _atom_site_fract_x
 _atom_site_fract_y
 _atom_site_fract_z
 _atom_site_occupancy
  Li  Li0  1  0.75285500  0.46600100  0.66753300  1
  Li  Li1  1  0.25285500  0.96600100  0.83246700  1
  Li  Li2  1  0.75285500  0.03399900  0.16753300  1
  Li  Li3  1  0.25285500  0.53399900  0.33246700  1
  Co  Co4  1  0.25381100  0.29698600  0.08534200  1
  Co  Co5  1  0.75381100  0.79698600  0.41465800  1
  Co  Co6  1  0.25381100  0.20301400  0.58534200  1
  Co  Co7  1  0.75381100  0.70301400  0.91465800  1
  P  P8  1  0.74980800  0.96340400  0.67171300  1
  P  P9  1  0.24980800  0.46340400  0.82828700  1
  P  P10  1  0.74980800  0.53659600  0.17171300  1
  P  P11  1  0.24980800  0.03659600  0.32828700  1
  O  O12  1  0.81647200  0.76383200  0.59149100  1
  O  O13  1  0.31647200  0.26383200  0.90850900  1
  O  O14  1  0.81647200  0.73616800  0.09149100  1
  O  O15  1  0.31647200  0.23616800  0.40850900  1
  O  O16  1  0.86704200  0.16781500  0.61188100  1
  O  O17  1  0.36704200  0.66781500  0.88811900  1
  O  O18  1  0.86704200  0.33218500  0.11188100  1
  O  O19  1  0.36704200  0.83218500  0.38811900  1
  O  O20  1  0.36634600  0.43626200  0.69813500  1
  O  O21  1  0.86634600  0.93626200  0.80186500  1
  O  O22  1  0.36634600  0.06373800  0.19813500  1
  O  O23  1  0.86634600  0.56373800  0.30186500  1
  O  O24  1  0.44738100  0.98623500  0.67898400  1
  O  O25  1  0.94738100  0.48623500  0.82101600  1
  O  O26  1  0.44738100  0.51376500  0.17898400  1
  O  O27  1  0.94738100  0.01376500  0.32101600  1
