# generated using pymatgen
data_Na2FeO3
_symmetry_space_group_name_H-M   'P 1'
_cell_length_a   6.15028800
_cell_length_b   11.34678500
_cell_length_c   5.10026800
_cell_angle_alpha   90.00000000
_cell_angle_beta   90.00000000
_cell_angle_gamma   90.00000000
_symmetry_Int_Tables_number   1
_chemical_formula_structural   Na2FeO3
_chemical_formula_sum   'Na8 Fe4 O12'
_cell_volume   355.92728040
_cell_formula_units_Z   4
loop_
 _symmetry_equiv_pos_site_id
 _symmetry_equiv_pos_as_xyz
  1  'x, y, z'
loop_
 _atom_site_type_symbol
 _atom_site_label
 _atom_site_symmetry_multiplicity
 _atom_site_fract_x
 _atom_site_fract_y
 _atom_site_fract_z
 _atom_site_occupancy
  Na  Na0  1  0.67346500  0.83451000  0.48759800  1
  Na  Na1  1  0.32653500  0.83451000  0.98759800  1
  Na  Na2  1  0.17346500  0.66549000  0.48759800  1
  Na  Na3  1  0.82653500  0.66549000  0.98759800  1
  Na  Na4  1  0.17346500  0.33451000  0.48759800  1
  Na  Na5  1  0.82653500  0.33451000  0.98759800  1
  Na  Na6  1  0.67346500  0.16549000  0.48759800  1
  Na  Na7  1  0.32653500  0.16549000  0.98759800  1
  Fe  Fe8  1  0.32690300  0.50000000  0.95298100  1
  Fe  Fe9  1  0.67309700  0.50000000  0.45298100  1
  Fe  Fe10  1  0.82690300  0.00000000  0.95298100  1
  Fe  Fe11  1  0.17309700  0.00000000  0.45298100  1
  O  O12  1  0.70625750  0.85958450  0.00898700  1
  O  O13  1  0.29374250  0.85958450  0.50898700  1
  O  O14  1  0.20625750  0.64041550  0.00898700  1
  O  O15  1  0.79374250  0.64041550  0.50898700  1
  O  O16  1  0.38485300  0.50000000  0.59584600  1
  O  O17  1  0.61514700  0.50000000  0.09584600  1
  O  O18  1  0.20625750  0.35958450  0.00898700  1
  O  O19  1  0.79374250  0.35958450  0.50898700  1
  O  O20  1  0.70625750  0.14041550  0.00898700  1
  O  O21  1  0.29374250  0.14041550  0.50898700  1
  O  O22  1  0.88485300  0.00000000  0.59584600  1
  O  O23  1  0.11514700  0.00000000  0.09584600  1
