# generated using pymatgen
data_Fe10O11F9
_symmetry_space_group_name_H-M   'P 1'
_cell_length_a   4.75564500
_cell_length_b   15.31217900
_cell_length_c   4.76464378
_cell_angle_alpha   90.00000000
_cell_angle_beta   93.81205748
_cell_angle_gamma   90.00000000
_symmetry_Int_Tables_number   1
_chemical_formula_structural   Fe10O11F9
_chemical_formula_sum   'Fe10 O11 F9'
_cell_volume   346.19032034
_cell_formula_units_Z   1
loop_
 _symmetry_equiv_pos_site_id
 _symmetry_equiv_pos_as_xyz
  1  'x, y, z'
loop_
 _atom_site_type_symbol
 _atom_site_label
 _atom_site_symmetry_multiplicity
 _atom_site_fract_x
 _atom_site_fract_y
 _atom_site_fract_z
 _atom_site_occupancy
  Fe  Fe0  1  0.00354700  0.70605400  0.98486200  1
  Fe  Fe1  1  0.99911100  0.50000000  0.99747000  1
  Fe  Fe2  1  0.00354700  0.29394600  0.98486200  1
  Fe  Fe3  1  0.04216100  0.09894600  0.00100100  1
  Fe  Fe4  1  0.04216100  0.90105400  0.00100100  1
  Fe  Fe5  1  0.50323200  0.59965400  0.49311300  1
  Fe  Fe6  1  0.46140600  0.20722000  0.51696200  1
  Fe  Fe7  1  0.50323200  0.40034600  0.49311300  1
  Fe  Fe8  1  0.45819700  0.00000000  0.51047100  1
  Fe  Fe9  1  0.46140600  0.79278000  0.51696200  1
  O  O10  1  0.19042400  0.20061800  0.80830600  1
  O  O11  1  0.20043800  0.00000000  0.81292200  1
  O  O12  1  0.19042400  0.79938200  0.80830600  1
  O  O13  1  0.29786400  0.69328000  0.29658100  1
  O  O14  1  0.30423100  0.50000000  0.29541300  1
  O  O15  1  0.29786400  0.30672000  0.29658100  1
  O  O16  1  0.31397500  0.10314800  0.31818700  1
  O  O17  1  0.31397500  0.89685200  0.31818700  1
  O  O18  1  0.69346500  0.69543100  0.69277300  1
  O  O19  1  0.69921700  0.50000000  0.69235200  1
  O  O20  1  0.69346500  0.30456900  0.69277300  1
  F  F21  1  0.19004800  0.59863700  0.80125700  1
  F  F22  1  0.19004800  0.40136300  0.80125700  1
  F  F23  1  0.70132500  0.09973100  0.70738700  1
  F  F24  1  0.70132500  0.90026900  0.70738700  1
  F  F25  1  0.80913600  0.60041400  0.18516700  1
  F  F26  1  0.80642500  0.19892700  0.19166400  1
  F  F27  1  0.80913600  0.39958600  0.18516700  1
  F  F28  1  0.80642500  0.80107300  0.19166400  1
  F  F29  1  0.81279500  0.00000000  0.19685300  1
