# generated using pymatgen
data_LiFeSiO4
_symmetry_space_group_name_H-M   'P 1'
_cell_length_a   8.03221300
_cell_length_b   5.14610700
_cell_length_c   8.41429577
_cell_angle_alpha   90.00000000
_cell_angle_beta   105.39368784
_cell_angle_gamma   90.00000000
_symmetry_Int_Tables_number   1
_chemical_formula_structural   LiFeSiO4
_chemical_formula_sum   'Li4 Fe4 Si4 O16'
_cell_volume   335.32427253
_cell_formula_units_Z   4
loop_
 _symmetry_equiv_pos_site_id
 _symmetry_equiv_pos_as_xyz
  1  'x, y, z'
loop_
 _atom_site_type_symbol
 _atom_site_label
 _atom_site_symmetry_multiplicity
 _atom_site_fract_x
 _atom_site_fract_y
 _atom_site_fract_z
 _atom_site_occupancy
  Li  Li0  1  0.85246800  0.84450900  0.55526400  1
  Li  Li1  1  0.62403600  0.21997300  0.03227400  1
  Li  Li2  1  0.37596400  0.71997300  0.96772600  1
  Li  Li3  1  0.14753200  0.34450900  0.44473600  1
  Fe  Fe4  1  0.95850900  0.92393800  0.24075500  1
  Fe  Fe5  1  0.52888900  0.25625000  0.67715500  1
  Fe  Fe6  1  0.47111100  0.75625000  0.32284500  1
  Fe  Fe7  1  0.04149100  0.42393800  0.75924500  1
  Si  Si8  1  0.75324600  0.30367200  0.41479300  1
  Si  Si9  1  0.73643400  0.72081400  0.87890500  1
  Si  Si10  1  0.26356600  0.22081400  0.12109500  1
  Si  Si11  1  0.24675400  0.80367200  0.58520700  1
  O  O12  1  0.94147100  0.25350700  0.55184100  1
  O  O13  1  0.84607500  0.64258900  0.74649600  1
  O  O14  1  0.78015600  0.16787700  0.24704100  1
  O  O15  1  0.65094700  0.01145700  0.84138400  1
  O  O16  1  0.61052900  0.13878400  0.48719200  1
  O  O17  1  0.69798500  0.61047000  0.38399800  1
  O  O18  1  0.86662900  0.71030000  0.06396100  1
  O  O19  1  0.57725400  0.50837100  0.86242300  1
  O  O20  1  0.42274600  0.00837100  0.13757700  1
  O  O21  1  0.13337100  0.21030000  0.93603900  1
  O  O22  1  0.30201500  0.11047000  0.61600200  1
  O  O23  1  0.38947100  0.63878400  0.51280800  1
  O  O24  1  0.34905300  0.51145700  0.15861600  1
  O  O25  1  0.21984400  0.66787700  0.75295900  1
  O  O26  1  0.15392500  0.14258900  0.25350400  1
  O  O27  1  0.05852900  0.75350700  0.44815900  1
