# generated using pymatgen
data_NaMn2O4
_symmetry_space_group_name_H-M   'P 1'
_cell_length_a   3.01719400
_cell_length_b   9.90824600
_cell_length_c   9.82211200
_cell_angle_alpha   90.00000000
_cell_angle_beta   90.00000000
_cell_angle_gamma   90.00000000
_symmetry_Int_Tables_number   1
_chemical_formula_structural   NaMn2O4
_chemical_formula_sum   'Na4 Mn8 O16'
_cell_volume   293.63302420
_cell_formula_units_Z   4
loop_
 _symmetry_equiv_pos_site_id
 _symmetry_equiv_pos_as_xyz
  1  'x, y, z'
loop_
 _atom_site_type_symbol
 _atom_site_label
 _atom_site_symmetry_multiplicity
 _atom_site_fract_x
 _atom_site_fract_y
 _atom_site_fract_z
 _atom_site_occupancy
  Na  Na0  1  0.50000000  0.10513000  0.75000000  1
  Na  Na1  1  0.00000000  0.39487000  0.25000000  1
  Na  Na2  1  0.00000000  0.60513000  0.75000000  1
  Na  Na3  1  0.50000000  0.89487000  0.25000000  1
  Mn  Mn4  1  0.00000000  0.13732900  0.42798000  1
  Mn  Mn5  1  0.50000000  0.36267100  0.92798000  1
  Mn  Mn6  1  0.00000000  0.13732900  0.07202000  1
  Mn  Mn7  1  0.50000000  0.36267100  0.57202000  1
  Mn  Mn8  1  0.50000000  0.63732900  0.42798000  1
  Mn  Mn9  1  0.00000000  0.86267100  0.92798000  1
  Mn  Mn10  1  0.50000000  0.63732900  0.07202000  1
  Mn  Mn11  1  0.00000000  0.86267100  0.57202000  1
  O  O12  1  0.50000000  0.26581700  0.10404300  1
  O  O13  1  0.50000000  0.26581700  0.39595700  1
  O  O14  1  0.00000000  0.23418300  0.89595700  1
  O  O15  1  0.00000000  0.23418300  0.60404300  1
  O  O16  1  0.50000000  0.43352900  0.75000000  1
  O  O17  1  0.00000000  0.06647100  0.25000000  1
  O  O18  1  0.50000000  0.00000000  0.00000000  1
  O  O19  1  0.50000000  0.00000000  0.50000000  1
  O  O20  1  0.00000000  0.76581700  0.10404300  1
  O  O21  1  0.00000000  0.76581700  0.39595700  1
  O  O22  1  0.50000000  0.73418300  0.89595700  1
  O  O23  1  0.50000000  0.73418300  0.60404300  1
  O  O24  1  0.00000000  0.93352900  0.75000000  1
  O  O25  1  0.50000000  0.56647100  0.25000000  1
  O  O26  1  0.00000000  0.50000000  0.00000000  1
  O  O27  1  0.00000000  0.50000000  0.50000000  1
