# generated using pymatgen
data_Li8VNi3(PO4)6
_symmetry_space_group_name_H-M   'P 1'
_cell_length_a   8.79379003
_cell_length_b   8.79379003
_cell_length_c   20.60968868
_cell_angle_alpha   90.00000000
_cell_angle_beta   90.00000000
_cell_angle_gamma   120.00000000
_symmetry_Int_Tables_number   1
_chemical_formula_structural   Li8VNi3(PO4)6
_chemical_formula_sum   'Li24 V3 Ni9 P18 O72'
_cell_volume   1380.23884785
_cell_formula_units_Z   3
loop_
 _symmetry_equiv_pos_site_id
 _symmetry_equiv_pos_as_xyz
  1  'x, y, z'
loop_
 _atom_site_type_symbol
 _atom_site_label
 _atom_site_symmetry_multiplicity
 _atom_site_fract_x
 _atom_site_fract_y
 _atom_site_fract_z
 _atom_site_occupancy
  Li  Li0  1  0.58412900  0.96818900  0.25943600  1
  Li  Li1  1  0.38406000  0.41587100  0.25943600  1
  Li  Li2  1  0.03181100  0.61594000  0.25943600  1
  Li  Li3  1  0.33333333  0.66666667  0.16620767  1
  Li  Li4  1  0.33333333  0.66666667  0.64873067  1
  Li  Li5  1  0.62688367  0.71472133  0.07086433  1
  Li  Li6  1  0.28527867  0.91216233  0.07086433  1
  Li  Li7  1  0.08783767  0.37311633  0.07086433  1
  Li  Li8  1  0.25079567  0.30152233  0.59276933  1
  Li  Li9  1  0.05072667  0.74920433  0.59276933  1
  Li  Li10  1  0.69847767  0.94927333  0.59276933  1
  Li  Li11  1  0.00000000  0.00000000  0.49954100  1
  Li  Li12  1  0.00000000  0.00000000  0.98206400  1
  Li  Li13  1  0.29355033  0.04805467  0.40419767  1
  Li  Li14  1  0.95194533  0.24549567  0.40419767  1
  Li  Li15  1  0.75450433  0.70644967  0.40419767  1
  Li  Li16  1  0.91746233  0.63485567  0.92610267  1
  Li  Li17  1  0.71739333  0.08253767  0.92610267  1
  Li  Li18  1  0.36514433  0.28260667  0.92610267  1
  Li  Li19  1  0.66666667  0.33333333  0.83287433  1
  Li  Li20  1  0.66666667  0.33333333  0.31539733  1
  Li  Li21  1  0.96021700  0.38138800  0.73753100  1
  Li  Li22  1  0.61861200  0.57882900  0.73753100  1
  Li  Li23  1  0.42117100  0.03978300  0.73753100  1
  V  V24  1  0.33333333  0.66666667  0.81069567  1
  V  V25  1  0.00000000  0.00000000  0.14402900  1
  V  V26  1  0.66666667  0.33333333  0.47736233  1
  Ni  Ni27  1  0.33333333  0.66666667  0.31406767  1
  Ni  Ni28  1  0.33333333  0.66666667  0.52015667  1
  Ni  Ni29  1  0.33333333  0.66666667  0.02074367  1
  Ni  Ni30  1  0.00000000  0.00000000  0.64740100  1
  Ni  Ni31  1  0.00000000  0.00000000  0.85349000  1
  Ni  Ni32  1  0.00000000  0.00000000  0.35407700  1
  Ni  Ni33  1  0.66666667  0.33333333  0.98073433  1
  Ni  Ni34  1  0.66666667  0.33333333  0.18682333  1
  Ni  Ni35  1  0.66666667  0.33333333  0.68741033  1
  P  P36  1  0.70410533  0.70475767  0.25113367  1
  P  P37  1  0.29524233  0.99934767  0.25113367  1
  P  P38  1  0.00065233  0.29589467  0.25113367  1
  P  P39  1  0.66926633  0.03748067  0.08460667  1
  P  P40  1  0.36821433  0.33073367  0.08460667  1
  P  P41  1  0.96251933  0.63178567  0.08460667  1
  P  P42  1  0.37077200  0.03809100  0.58446700  1
  P  P43  1  0.96190900  0.33268100  0.58446700  1
  P  P44  1  0.66731900  0.62922800  0.58446700  1
  P  P45  1  0.33593300  0.37081400  0.41794000  1
  P  P46  1  0.03488100  0.66406700  0.41794000  1
  P  P47  1  0.62918600  0.96511900  0.41794000  1
  P  P48  1  0.03743867  0.37142433  0.91780033  1
  P  P49  1  0.62857567  0.66601433  0.91780033  1
  P  P50  1  0.33398567  0.96256133  0.91780033  1
  P  P51  1  0.00259967  0.70414733  0.75127333  1
  P  P52  1  0.70154767  0.99740033  0.75127333  1
  P  P53  1  0.29585267  0.29845233  0.75127333  1
  O  O54  1  0.55082900  0.68830000  0.98090400  1
  O  O55  1  0.31170000  0.86252900  0.98090400  1
  O  O56  1  0.13747100  0.44917100  0.98090400  1
  O  O57  1  0.52678900  0.68421600  0.85923500  1
  O  O58  1  0.31578400  0.84257300  0.85923500  1
  O  O59  1  0.64462300  0.50684000  0.25244000  1
  O  O60  1  0.15742700  0.47321100  0.85923500  1
  O  O61  1  0.53618167  0.72082033  0.24331733  1
  O  O62  1  0.49316000  0.13778300  0.25244000  1
  O  O63  1  0.27917967  0.81536133  0.24331733  1
  O  O64  1  0.68448767  0.14111033  0.14468933  1
  O  O65  1  0.81230167  0.97647633  0.08294733  1
  O  O66  1  0.18463867  0.46381833  0.24331733  1
  O  O67  1  0.45662267  0.31551233  0.14468933  1
  O  O68  1  0.86221700  0.35537700  0.25244000  1
  O  O69  1  0.48964467  0.86212633  0.08815933  1
  O  O70  1  0.37248167  0.51035533  0.08815933  1
  O  O71  1  0.16417467  0.18769833  0.08294733  1
  O  O72  1  0.13787367  0.62751833  0.08815933  1
  O  O73  1  0.85888967  0.54337733  0.14468933  1
  O  O74  1  0.02352367  0.83582533  0.08294733  1
  O  O75  1  0.52735900  0.89175600  0.35410900  1
  O  O76  1  0.36439700  0.47264100  0.35410900  1
  O  O77  1  0.10824400  0.63560300  0.35410900  1
  O  O78  1  0.21749567  0.02163333  0.31423733  1
  O  O79  1  0.97836667  0.19586233  0.31423733  1
  O  O80  1  0.80413767  0.78250433  0.31423733  1
  O  O81  1  0.19345567  0.01754933  0.19256833  1
  O  O82  1  0.98245067  0.17590633  0.19256833  1
  O  O83  1  0.31128967  0.84017333  0.58577333  1
  O  O84  1  0.82409367  0.80654433  0.19256833  1
  O  O85  1  0.20284833  0.05415367  0.57665067  1
  O  O86  1  0.15982667  0.47111633  0.58577333  1
  O  O87  1  0.94584633  0.14869467  0.57665067  1
  O  O88  1  0.35115433  0.47444367  0.47802267  1
  O  O89  1  0.47896833  0.30980967  0.41628067  1
  O  O90  1  0.85130533  0.79715167  0.57665067  1
  O  O91  1  0.12328933  0.64884567  0.47802267  1
  O  O92  1  0.52888367  0.68871033  0.58577333  1
  O  O93  1  0.15631133  0.19545967  0.42149267  1
  O  O94  1  0.03914833  0.84368867  0.42149267  1
  O  O95  1  0.83084133  0.52103167  0.41628067  1
  O  O96  1  0.80454033  0.96085167  0.42149267  1
  O  O97  1  0.52555633  0.87671067  0.47802267  1
  O  O98  1  0.69019033  0.16915867  0.41628067  1
  O  O99  1  0.19402567  0.22508933  0.68744233  1
  O  O100  1  0.03106367  0.80597433  0.68744233  1
  O  O101  1  0.77491067  0.96893633  0.68744233  1
  O  O102  1  0.88416233  0.35496667  0.64757067  1
  O  O103  1  0.64503333  0.52919567  0.64757067  1
  O  O104  1  0.47080433  0.11583767  0.64757067  1
  O  O105  1  0.86012233  0.35088267  0.52590167  1
  O  O106  1  0.64911733  0.50923967  0.52590167  1
  O  O107  1  0.97795633  0.17350667  0.91910667  1
  O  O108  1  0.49076033  0.13987767  0.52590167  1
  O  O109  1  0.86951500  0.38748700  0.90998400  1
  O  O110  1  0.82649333  0.80444967  0.91910667  1
  O  O111  1  0.61251300  0.48202800  0.90998400  1
  O  O112  1  0.01782100  0.80777700  0.81135600  1
  O  O113  1  0.14563500  0.64314300  0.74961400  1
  O  O114  1  0.51797200  0.13048500  0.90998400  1
  O  O115  1  0.78995600  0.98217900  0.81135600  1
  O  O116  1  0.19555033  0.02204367  0.91910667  1
  O  O117  1  0.82297800  0.52879300  0.75482600  1
  O  O118  1  0.70581500  0.17702200  0.75482600  1
  O  O119  1  0.49750800  0.85436500  0.74961400  1
  O  O120  1  0.47120700  0.29418500  0.75482600  1
  O  O121  1  0.19222300  0.21004400  0.81135600  1
  O  O122  1  0.35685700  0.50249200  0.74961400  1
  O  O123  1  0.86069233  0.55842267  0.02077567  1
  O  O124  1  0.69773033  0.13930767  0.02077567  1
  O  O125  1  0.44157733  0.30226967  0.02077567  1
