# generated using pymatgen
data_LiVAsCO7
_symmetry_space_group_name_H-M   'P 1'
_cell_length_a   5.51061192
_cell_length_b   6.42979306
_cell_length_c   8.92321657
_cell_angle_alpha   90.00000000
_cell_angle_beta   92.98083257
_cell_angle_gamma   90.00000000
_symmetry_Int_Tables_number   1
_chemical_formula_structural   LiVAsCO7
_chemical_formula_sum   'Li2 V2 As2 C2 O14'
_cell_volume   315.74047119
_cell_formula_units_Z   2
loop_
 _symmetry_equiv_pos_site_id
 _symmetry_equiv_pos_as_xyz
  1  'x, y, z'
loop_
 _atom_site_type_symbol
 _atom_site_label
 _atom_site_symmetry_multiplicity
 _atom_site_fract_x
 _atom_site_fract_y
 _atom_site_fract_z
 _atom_site_occupancy
  Li  Li0  1  0.25286375  0.41999400  0.16715450  1
  Li  Li1  1  0.74713625  0.91999400  0.83284550  1
  V  V2  1  0.70626025  0.26447750  0.32614950  1
  V  V3  1  0.29373975  0.76447750  0.67385050  1
  As  As4  1  0.78732725  0.76666450  0.44263150  1
  As  As5  1  0.21267275  0.26666450  0.55736850  1
  C  C6  1  0.76650175  0.24074600  0.05907250  1
  C  C7  1  0.23349825  0.74074600  0.94092750  1
  O  O8  1  0.20478075  0.68893550  0.07169500  1
  O  O9  1  0.79521925  0.18893550  0.92830500  1
  O  O10  1  0.55175475  0.26668800  0.12021750  1
  O  O11  1  0.44824525  0.76668800  0.87978250  1
  O  O12  1  0.94560775  0.26761350  0.16466700  1
  O  O13  1  0.05439225  0.76761350  0.83533300  1
  O  O14  1  0.70603025  0.97605650  0.32955150  1
  O  O15  1  0.29396975  0.47605650  0.67044850  1
  O  O16  1  0.70595675  0.56193250  0.32744200  1
  O  O17  1  0.29404325  0.06193250  0.67255800  1
  O  O18  1  0.36534175  0.27840750  0.39557400  1
  O  O19  1  0.63465825  0.77840750  0.60442600  1
  O  O20  1  0.09470725  0.76998750  0.48065150  1
  O  O21  1  0.90529275  0.26998750  0.51934850  1
