# generated using pymatgen
data_LiMn(PO3)4
_symmetry_space_group_name_H-M   'P 1'
_cell_length_a   12.15443200
_cell_length_b   8.18530800
_cell_length_c   9.88929240
_cell_angle_alpha   90.00000000
_cell_angle_beta   118.97394941
_cell_angle_gamma   90.00000000
_symmetry_Int_Tables_number   1
_chemical_formula_structural   LiMn(PO3)4
_chemical_formula_sum   'Li4 Mn4 P16 O48'
_cell_volume   860.72331260
_cell_formula_units_Z   4
loop_
 _symmetry_equiv_pos_site_id
 _symmetry_equiv_pos_as_xyz
  1  'x, y, z'
loop_
 _atom_site_type_symbol
 _atom_site_label
 _atom_site_symmetry_multiplicity
 _atom_site_fract_x
 _atom_site_fract_y
 _atom_site_fract_z
 _atom_site_occupancy
  Li  Li0  1  0.75000000  0.75000000  0.00000000  1
  Li  Li1  1  0.25000000  0.75000000  0.50000000  1
  Li  Li2  1  0.25000000  0.25000000  0.00000000  1
  Li  Li3  1  0.75000000  0.25000000  0.50000000  1
  Mn  Mn4  1  0.50000000  0.94614900  0.75000000  1
  Mn  Mn5  1  0.00000000  0.55385100  0.25000000  1
  Mn  Mn6  1  0.00000000  0.44614900  0.75000000  1
  Mn  Mn7  1  0.50000000  0.05385100  0.25000000  1
  P  P8  1  0.98911600  0.24063700  0.02133000  1
  P  P9  1  0.30036200  0.50801800  0.80135600  1
  P  P10  1  0.19963800  0.00801800  0.69864400  1
  P  P11  1  0.51088400  0.74063700  0.47867000  1
  P  P12  1  0.98911600  0.75936300  0.52133000  1
  P  P13  1  0.30036200  0.49198200  0.30135600  1
  P  P14  1  0.19963800  0.99198200  0.19864400  1
  P  P15  1  0.51088400  0.25936300  0.97867000  1
  P  P16  1  0.48911600  0.74063700  0.02133000  1
  P  P17  1  0.80036200  0.00801800  0.80135600  1
  P  P18  1  0.69963800  0.50801800  0.69864400  1
  P  P19  1  0.01088400  0.24063700  0.47867000  1
  P  P20  1  0.48911600  0.25936300  0.52133000  1
  P  P21  1  0.80036200  0.99198200  0.30135600  1
  P  P22  1  0.69963800  0.49198200  0.19864400  1
  P  P23  1  0.01088400  0.75936300  0.97867000  1
  O  O24  1  0.53812650  0.77259850  0.90785500  1
  O  O25  1  0.22923650  0.92015250  0.34895700  1
  O  O26  1  0.29944100  0.92232600  0.67727200  1
  O  O27  1  0.08148500  0.11759200  0.15071400  1
  O  O28  1  0.35997000  0.64341000  0.94068300  1
  O  O29  1  0.96588850  0.38607150  0.09641900  1
  O  O30  1  0.64003000  0.64341000  0.55931700  1
  O  O31  1  0.22923650  0.07984750  0.84895700  1
  O  O32  1  0.03812650  0.72740150  0.40785500  1
  O  O33  1  0.03411150  0.38607150  0.40358100  1
  O  O34  1  0.70055900  0.92232600  0.82272800  1
  O  O35  1  0.08148500  0.88240800  0.65071400  1
  O  O36  1  0.41851500  0.61759200  0.34928600  1
  O  O37  1  0.79944100  0.57767400  0.17727200  1
  O  O38  1  0.46588850  0.11392850  0.59641900  1
  O  O39  1  0.46187350  0.77259850  0.59214500  1
  O  O40  1  0.27076350  0.42015250  0.15104300  1
  O  O41  1  0.85997000  0.85659000  0.44068300  1
  O  O42  1  0.53411150  0.11392850  0.90358100  1
  O  O43  1  0.14003000  0.85659000  0.05931700  1
  O  O44  1  0.41851500  0.38240800  0.84928600  1
  O  O45  1  0.20055900  0.57767400  0.32272800  1
  O  O46  1  0.27076350  0.57984750  0.65104300  1
  O  O47  1  0.96187350  0.72740150  0.09214500  1
  O  O48  1  0.03812650  0.27259850  0.90785500  1
  O  O49  1  0.72923650  0.42015250  0.34895700  1
  O  O50  1  0.79944100  0.42232600  0.67727200  1
  O  O51  1  0.58148500  0.61759200  0.15071400  1
  O  O52  1  0.85997000  0.14341000  0.94068300  1
  O  O53  1  0.46588850  0.88607150  0.09641900  1
  O  O54  1  0.14003000  0.14341000  0.55931700  1
  O  O55  1  0.72923650  0.57984750  0.84895700  1
  O  O56  1  0.53812650  0.22740150  0.40785500  1
  O  O57  1  0.53411150  0.88607150  0.40358100  1
  O  O58  1  0.20055900  0.42232600  0.82272800  1
  O  O59  1  0.58148500  0.38240800  0.65071400  1
  O  O60  1  0.91851500  0.11759200  0.34928600  1
  O  O61  1  0.29944100  0.07767400  0.17727200  1
  O  O62  1  0.96588850  0.61392850  0.59641900  1
  O  O63  1  0.96187350  0.27259850  0.59214500  1
  O  O64  1  0.77076350  0.92015250  0.15104300  1
  O  O65  1  0.35997000  0.35659000  0.44068300  1
  O  O66  1  0.03411150  0.61392850  0.90358100  1
  O  O67  1  0.64003000  0.35659000  0.05931700  1
  O  O68  1  0.91851500  0.88240800  0.84928600  1
  O  O69  1  0.70055900  0.07767400  0.32272800  1
  O  O70  1  0.77076350  0.07984750  0.65104300  1
  O  O71  1  0.46187350  0.22740150  0.09214500  1
