# generated using pymatgen
data_NbFe(PO4)2
_symmetry_space_group_name_H-M   'P 1'
_cell_length_a   4.99924650
_cell_length_b   6.16765100
_cell_length_c   10.15283217
_cell_angle_alpha   90.00000000
_cell_angle_beta   92.76473842
_cell_angle_gamma   90.00000000
_symmetry_Int_Tables_number   1
_chemical_formula_structural   NbFe(PO4)2
_chemical_formula_sum   'Nb2 Fe2 P4 O16'
_cell_volume   312.68405912
_cell_formula_units_Z   2
loop_
 _symmetry_equiv_pos_site_id
 _symmetry_equiv_pos_as_xyz
  1  'x, y, z'
loop_
 _atom_site_type_symbol
 _atom_site_label
 _atom_site_symmetry_multiplicity
 _atom_site_fract_x
 _atom_site_fract_y
 _atom_site_fract_z
 _atom_site_occupancy
  Nb  Nb0  1  0.44812300  0.75000000  0.22004300  1
  Nb  Nb1  1  0.55187700  0.25000000  0.77995700  1
  Fe  Fe2  1  0.95559200  0.25000000  0.27801400  1
  Fe  Fe3  1  0.04440800  0.75000000  0.72198600  1
  P  P4  1  0.42360900  0.25000000  0.09405500  1
  P  P5  1  0.89717800  0.75000000  0.40198800  1
  P  P6  1  0.10282200  0.25000000  0.59801200  1
  P  P7  1  0.57639100  0.75000000  0.90594500  1
  O  O8  1  0.67904900  0.75000000  0.05184800  1
  O  O9  1  0.72694100  0.25000000  0.11022700  1
  O  O10  1  0.29638500  0.04892300  0.16673500  1
  O  O11  1  0.29638500  0.45107700  0.16673500  1
  O  O12  1  0.74799400  0.94330300  0.32610300  1
  O  O13  1  0.74799400  0.55669700  0.32610300  1
  O  O14  1  0.19952800  0.75000000  0.37755000  1
  O  O15  1  0.14986300  0.25000000  0.45209900  1
  O  O16  1  0.85013700  0.75000000  0.54790100  1
  O  O17  1  0.80047200  0.25000000  0.62245000  1
  O  O18  1  0.25200600  0.05669700  0.67389700  1
  O  O19  1  0.25200600  0.44330300  0.67389700  1
  O  O20  1  0.70361500  0.54892300  0.83326500  1
  O  O21  1  0.70361500  0.95107700  0.83326500  1
  O  O22  1  0.27305900  0.75000000  0.88977300  1
  O  O23  1  0.32095100  0.25000000  0.94815200  1
