# generated using pymatgen
data_Li2Fe3CoO8
_symmetry_space_group_name_H-M   'P 1'
_cell_length_a   5.95451369
_cell_length_b   5.95451369
_cell_length_c   14.22779695
_cell_angle_alpha   90.00000000
_cell_angle_beta   90.00000000
_cell_angle_gamma   120.00000000
_symmetry_Int_Tables_number   1
_chemical_formula_structural   Li2Fe3CoO8
_chemical_formula_sum   'Li6 Fe9 Co3 O24'
_cell_volume   436.87871553
_cell_formula_units_Z   3
loop_
 _symmetry_equiv_pos_site_id
 _symmetry_equiv_pos_as_xyz
  1  'x, y, z'
loop_
 _atom_site_type_symbol
 _atom_site_label
 _atom_site_symmetry_multiplicity
 _atom_site_fract_x
 _atom_site_fract_y
 _atom_site_fract_z
 _atom_site_occupancy
  Li  Li0  1  0.33333333  0.66666667  0.54147667  1
  Li  Li1  1  0.33333333  0.66666667  0.79185667  1
  Li  Li2  1  0.00000000  0.00000000  0.87481000  1
  Li  Li3  1  0.00000000  0.00000000  0.12519000  1
  Li  Li4  1  0.66666667  0.33333333  0.20814333  1
  Li  Li5  1  0.66666667  0.33333333  0.45852333  1
  Fe  Fe6  1  0.00000000  0.50000000  0.00000000  1
  Fe  Fe7  1  0.50000000  0.50000000  0.00000000  1
  Fe  Fe8  1  0.16666667  0.33333333  0.33333333  1
  Fe  Fe9  1  0.66666667  0.83333333  0.33333333  1
  Fe  Fe10  1  0.16666667  0.83333333  0.33333333  1
  Fe  Fe11  1  0.83333333  0.66666667  0.66666667  1
  Fe  Fe12  1  0.33333333  0.16666667  0.66666667  1
  Fe  Fe13  1  0.83333333  0.16666667  0.66666667  1
  Fe  Fe14  1  0.50000000  0.00000000  0.00000000  1
  Co  Co15  1  0.33333333  0.66666667  0.16666667  1
  Co  Co16  1  1.00000000  1.00000000  0.50000000  1
  Co  Co17  1  0.66666667  0.33333333  0.83333333  1
  O  O18  1  0.33333333  0.66666667  0.40454967  1
  O  O19  1  0.47993967  0.95987933  0.24934533  1
  O  O20  1  0.47993967  0.52006033  0.24934533  1
  O  O21  1  0.04012067  0.52006033  0.24934533  1
  O  O22  1  0.62654600  0.81327300  0.08398800  1
  O  O23  1  0.18672700  0.81327300  0.08398800  1
  O  O24  1  0.18672700  0.37345400  0.08398800  1
  O  O25  1  0.33333333  0.66666667  0.92878367  1
  O  O26  1  0.00000000  0.00000000  0.73788300  1
  O  O27  1  0.14660633  0.29321267  0.58267867  1
  O  O28  1  0.14660633  0.85339367  0.58267867  1
  O  O29  1  0.70678733  0.85339367  0.58267867  1
  O  O30  1  0.29321267  0.14660633  0.41732133  1
  O  O31  1  0.85339367  0.14660633  0.41732133  1
  O  O32  1  0.85339367  0.70678733  0.41732133  1
  O  O33  1  0.00000000  0.00000000  0.26211700  1
  O  O34  1  0.66666667  0.33333333  0.07121633  1
  O  O35  1  0.81327300  0.62654600  0.91601200  1
  O  O36  1  0.81327300  0.18672700  0.91601200  1
  O  O37  1  0.37345400  0.18672700  0.91601200  1
  O  O38  1  0.95987933  0.47993967  0.75065467  1
  O  O39  1  0.52006033  0.47993967  0.75065467  1
  O  O40  1  0.52006033  0.04012067  0.75065467  1
  O  O41  1  0.66666667  0.33333333  0.59545033  1
