# generated using pymatgen
data_LiCoPO4
_symmetry_space_group_name_H-M   'P 1'
_cell_length_a   4.72232400
_cell_length_b   6.23001801
_cell_length_c   10.33990700
_cell_angle_alpha   90.00000000
_cell_angle_beta   90.00000000
_cell_angle_gamma   90.00000000
_symmetry_Int_Tables_number   1
_chemical_formula_structural   LiCoPO4
_chemical_formula_sum   'Li4 Co4 P4 O16'
_cell_volume   304.20175536
_cell_formula_units_Z   4
loop_
 _symmetry_equiv_pos_site_id
 _symmetry_equiv_pos_as_xyz
  1  'x, y, z'
loop_
 _atom_site_type_symbol
 _atom_site_label
 _atom_site_symmetry_multiplicity
 _atom_site_fract_x
 _atom_site_fract_y
 _atom_site_fract_z
 _atom_site_occupancy
  Li  Li0  1  0.49441000  0.25000000  0.71498400  1
  Li  Li1  1  0.99441000  0.75000000  0.78501600  1
  Li  Li2  1  0.00559000  0.25000000  0.21498400  1
  Li  Li3  1  0.50559000  0.75000000  0.28501600  1
  Co  Co4  1  0.00000000  0.00000000  0.50000000  1
  Co  Co5  1  0.50000000  0.50000000  0.00000000  1
  Co  Co6  1  0.00000000  0.50000000  0.50000000  1
  Co  Co7  1  0.50000000  0.00000000  0.00000000  1
  P  P8  1  0.41716800  0.75000000  0.59322200  1
  P  P9  1  0.91716800  0.25000000  0.90677800  1
  P  P10  1  0.08283200  0.75000000  0.09322200  1
  P  P11  1  0.58283200  0.25000000  0.40677800  1
  O  O12  1  0.72194100  0.25000000  0.54748300  1
  O  O13  1  0.22194100  0.75000000  0.95251700  1
  O  O14  1  0.77805900  0.25000000  0.04748300  1
  O  O15  1  0.27805900  0.75000000  0.45251700  1
  O  O16  1  0.74700000  0.75000000  0.58566000  1
  O  O17  1  0.24700000  0.25000000  0.91434000  1
  O  O18  1  0.75300000  0.75000000  0.08566000  1
  O  O19  1  0.25300000  0.25000000  0.41434000  1
  O  O20  1  0.29690400  0.54527500  0.65781400  1
  O  O21  1  0.29690400  0.95472500  0.65781400  1
  O  O22  1  0.79690400  0.04527500  0.84218600  1
  O  O23  1  0.79690400  0.45472500  0.84218600  1
  O  O24  1  0.20309600  0.54527500  0.15781400  1
  O  O25  1  0.20309600  0.95472500  0.15781400  1
  O  O26  1  0.70309600  0.04527500  0.34218600  1
  O  O27  1  0.70309600  0.45472500  0.34218600  1
