# generated using pymatgen
data_Li2Ni(CO3)2
_symmetry_space_group_name_H-M   'P 1'
_cell_length_a   5.18176368
_cell_length_b   6.43234113
_cell_length_c   7.75731584
_cell_angle_alpha   90.03398547
_cell_angle_beta   90.05744737
_cell_angle_gamma   113.33478085
_symmetry_Int_Tables_number   1
_chemical_formula_structural   Li2Ni(CO3)2
_chemical_formula_sum   'Li4 Ni2 C4 O12'
_cell_volume   237.40936604
_cell_formula_units_Z   2
loop_
 _symmetry_equiv_pos_site_id
 _symmetry_equiv_pos_as_xyz
  1  'x, y, z'
loop_
 _atom_site_type_symbol
 _atom_site_label
 _atom_site_symmetry_multiplicity
 _atom_site_fract_x
 _atom_site_fract_y
 _atom_site_fract_z
 _atom_site_occupancy
  Li  Li0  1  0.66084750  0.26386700  0.07584700  1
  Li  Li1  1  0.84815950  0.24863800  0.57595400  1
  Li  Li2  1  0.17768700  0.79907600  0.43594500  1
  Li  Li3  1  0.34223250  0.73708500  0.92626100  1
  Ni  Ni4  1  0.50197700  0.50145100  0.49825800  1
  Ni  Ni5  1  0.00303900  0.00438600  0.99959400  1
  C  C6  1  0.29141250  0.13757500  0.73697700  1
  C  C7  1  0.21207550  0.36590500  0.23774900  1
  C  C8  1  0.79140500  0.63906050  0.76096000  1
  C  C9  1  0.71361850  0.86772650  0.26161800  1
  O  O10  1  0.03499300  0.12355450  0.74378700  1
  O  O11  1  0.39746650  0.09717750  0.88004400  1
  O  O12  1  0.43401700  0.18068750  0.59515700  1
  O  O13  1  0.06782750  0.32062650  0.09660600  1
  O  O14  1  0.10748250  0.40454350  0.38141300  1
  O  O15  1  0.47029350  0.38262200  0.24342100  1
  O  O16  1  0.53337050  0.62127300  0.75420900  1
  O  O17  1  0.89650850  0.59687800  0.61754700  1
  O  O18  1  0.56813300  0.81873850  0.40160200  1
  O  O19  1  0.93746700  0.68846500  0.90089600  1
  O  O20  1  0.60894650  0.91025650  0.11833500  1
  O  O21  1  0.97151350  0.88506150  0.25518100  1
