# generated using pymatgen
data_Mn6O5F7
_symmetry_space_group_name_H-M   'P 1'
_cell_length_a   9.05053200
_cell_length_b   7.00148600
_cell_length_c   7.17494320
_cell_angle_alpha   90.00000000
_cell_angle_beta   109.97423522
_cell_angle_gamma   90.00000000
_symmetry_Int_Tables_number   1
_chemical_formula_structural   Mn6O5F7
_chemical_formula_sum   'Mn12 O10 F14'
_cell_volume   427.30664646
_cell_formula_units_Z   2
loop_
 _symmetry_equiv_pos_site_id
 _symmetry_equiv_pos_as_xyz
  1  'x, y, z'
loop_
 _atom_site_type_symbol
 _atom_site_label
 _atom_site_symmetry_multiplicity
 _atom_site_fract_x
 _atom_site_fract_y
 _atom_site_fract_z
 _atom_site_occupancy
  Mn  Mn0  1  0.00000000  0.66777700  0.00000000  1
  Mn  Mn1  1  0.33263400  0.66324300  0.84535900  1
  Mn  Mn2  1  0.00000000  0.68741800  0.50000000  1
  Mn  Mn3  1  0.85100400  0.15535000  0.33032700  1
  Mn  Mn4  1  0.14899600  0.15535000  0.66967300  1
  Mn  Mn5  1  0.66736600  0.66324300  0.15464100  1
  Mn  Mn6  1  0.50000000  0.16777700  0.00000000  1
  Mn  Mn7  1  0.83263400  0.16324300  0.84535900  1
  Mn  Mn8  1  0.50000000  0.18741800  0.50000000  1
  Mn  Mn9  1  0.35100400  0.65535000  0.33032700  1
  Mn  Mn10  1  0.64899600  0.65535000  0.66967300  1
  Mn  Mn11  1  0.16736600  0.16324300  0.15464100  1
  O  O12  1  0.10621750  0.67329950  0.80126300  1
  O  O13  1  0.94335850  0.16124050  0.13194100  1
  O  O14  1  0.05664150  0.16124050  0.86805900  1
  O  O15  1  0.89378250  0.67329950  0.19873700  1
  O  O16  1  0.00000000  0.98013700  0.50000000  1
  O  O17  1  0.60621750  0.17329950  0.80126300  1
  O  O18  1  0.44335850  0.66124050  0.13194100  1
  O  O19  1  0.55664150  0.66124050  0.86805900  1
  O  O20  1  0.39378250  0.17329950  0.19873700  1
  O  O21  1  0.50000000  0.48013700  0.50000000  1
  F  F22  1  0.32039700  0.34593900  0.81903400  1
  F  F23  1  0.00000000  0.38534600  0.50000000  1
  F  F24  1  0.75237400  0.66795000  0.46074600  1
  F  F25  1  0.24762600  0.66795000  0.53925400  1
  F  F26  1  0.83611400  0.47263900  0.83084400  1
  F  F27  1  0.16388600  0.47263900  0.16915600  1
  F  F28  1  0.67960300  0.34593900  0.18096600  1
  F  F29  1  0.82039700  0.84593900  0.81903400  1
  F  F30  1  0.50000000  0.88534600  0.50000000  1
  F  F31  1  0.25237400  0.16795000  0.46074600  1
  F  F32  1  0.74762600  0.16795000  0.53925400  1
  F  F33  1  0.33611400  0.97263900  0.83084400  1
  F  F34  1  0.66388600  0.97263900  0.16915600  1
  F  F35  1  0.17960300  0.84593900  0.18096600  1
