# generated using pymatgen
data_Li3Mn4O8
_symmetry_space_group_name_H-M   'P 1'
_cell_length_a   10.58677772
_cell_length_b   5.76545800
_cell_length_c   5.94446618
_cell_angle_alpha   90.00000000
_cell_angle_beta   122.99485630
_cell_angle_gamma   90.00000000
_symmetry_Int_Tables_number   1
_chemical_formula_structural   Li3Mn4O8
_chemical_formula_sum   'Li6 Mn8 O16'
_cell_volume   304.31768251
_cell_formula_units_Z   2
loop_
 _symmetry_equiv_pos_site_id
 _symmetry_equiv_pos_as_xyz
  1  'x, y, z'
loop_
 _atom_site_type_symbol
 _atom_site_label
 _atom_site_symmetry_multiplicity
 _atom_site_fract_x
 _atom_site_fract_y
 _atom_site_fract_z
 _atom_site_occupancy
  Li  Li0  1  0.00000000  0.00000000  0.50000000  1
  Li  Li1  1  0.25000000  0.25000000  0.00000000  1
  Li  Li2  1  0.25000000  0.75000000  0.00000000  1
  Li  Li3  1  0.50000000  0.50000000  0.50000000  1
  Li  Li4  1  0.75000000  0.75000000  0.00000000  1
  Li  Li5  1  0.75000000  0.25000000  0.00000000  1
  Mn  Mn6  1  0.00000000  0.50000000  0.00000000  1
  Mn  Mn7  1  0.00000000  0.00000000  0.00000000  1
  Mn  Mn8  1  0.25000000  0.25000000  0.50000000  1
  Mn  Mn9  1  0.75000000  0.25000000  0.50000000  1
  Mn  Mn10  1  0.50000000  0.00000000  0.00000000  1
  Mn  Mn11  1  0.50000000  0.50000000  0.00000000  1
  Mn  Mn12  1  0.75000000  0.75000000  0.50000000  1
  Mn  Mn13  1  0.25000000  0.75000000  0.50000000  1
  O  O14  1  0.77940600  0.00000000  0.76008150  1
  O  O15  1  0.22059400  0.00000000  0.23991850  1
  O  O16  1  0.24353625  0.00000000  0.71305750  1
  O  O17  1  0.75646375  0.00000000  0.28694250  1
  O  O18  1  0.00645750  0.24508700  0.78682050  1
  O  O19  1  0.99354250  0.24508700  0.21317950  1
  O  O20  1  0.00645750  0.75491300  0.78682050  1
  O  O21  1  0.99354250  0.75491300  0.21317950  1
  O  O22  1  0.27940600  0.50000000  0.76008150  1
  O  O23  1  0.72059400  0.50000000  0.23991850  1
  O  O24  1  0.74353625  0.50000000  0.71305750  1
  O  O25  1  0.25646375  0.50000000  0.28694250  1
  O  O26  1  0.50645750  0.74508700  0.78682050  1
  O  O27  1  0.49354250  0.74508700  0.21317950  1
  O  O28  1  0.50645750  0.25491300  0.78682050  1
  O  O29  1  0.49354250  0.25491300  0.21317950  1
