# generated using pymatgen
data_Li2CrO3
_symmetry_space_group_name_H-M   'P 1'
_cell_length_a   9.04902667
_cell_length_b   5.84241200
_cell_length_c   5.35434285
_cell_angle_alpha   90.00000000
_cell_angle_beta   117.89958007
_cell_angle_gamma   90.00000000
_symmetry_Int_Tables_number   1
_chemical_formula_structural   Li2CrO3
_chemical_formula_sum   'Li8 Cr4 O12'
_cell_volume   250.17218251
_cell_formula_units_Z   4
loop_
 _symmetry_equiv_pos_site_id
 _symmetry_equiv_pos_as_xyz
  1  'x, y, z'
loop_
 _atom_site_type_symbol
 _atom_site_label
 _atom_site_symmetry_multiplicity
 _atom_site_fract_x
 _atom_site_fract_y
 _atom_site_fract_z
 _atom_site_occupancy
  Li  Li0  1  0.66140850  0.92237650  0.07613900  1
  Li  Li1  1  0.66140850  0.07762350  0.57613900  1
  Li  Li2  1  0.33859150  0.92237650  0.42386100  1
  Li  Li3  1  0.33859150  0.07762350  0.92386100  1
  Li  Li4  1  0.16140850  0.42237650  0.07613900  1
  Li  Li5  1  0.16140850  0.57762350  0.57613900  1
  Li  Li6  1  0.83859150  0.42237650  0.42386100  1
  Li  Li7  1  0.83859150  0.57762350  0.92386100  1
  Cr  Cr8  1  0.50000000  0.41410700  0.75000000  1
  Cr  Cr9  1  0.50000000  0.58589300  0.25000000  1
  Cr  Cr10  1  0.00000000  0.91410700  0.75000000  1
  Cr  Cr11  1  0.00000000  0.08589300  0.25000000  1
  O  O12  1  0.85045700  0.06742400  0.43374300  1
  O  O13  1  0.85045700  0.93257600  0.93374300  1
  O  O14  1  0.50000000  0.11124150  0.75000000  1
  O  O15  1  0.50000000  0.88875850  0.25000000  1
  O  O16  1  0.14954300  0.06742400  0.06625700  1
  O  O17  1  0.14954300  0.93257600  0.56625700  1
  O  O18  1  0.35045700  0.56742400  0.43374300  1
  O  O19  1  0.35045700  0.43257600  0.93374300  1
  O  O20  1  0.00000000  0.61124150  0.75000000  1
  O  O21  1  0.00000000  0.38875850  0.25000000  1
  O  O22  1  0.64954300  0.56742400  0.06625700  1
  O  O23  1  0.64954300  0.43257600  0.56625700  1
