# generated using pymatgen
data_Li3MnV(PO4)3
_symmetry_space_group_name_H-M   'P 1'
_cell_length_a   15.09521400
_cell_length_b   8.81358200
_cell_length_c   8.65260382
_cell_angle_alpha   90.00000000
_cell_angle_beta   124.38136208
_cell_angle_gamma   90.00000000
_symmetry_Int_Tables_number   1
_chemical_formula_structural   Li3MnV(PO4)3
_chemical_formula_sum   'Li12 Mn4 V4 P12 O48'
_cell_volume   950.05540329
_cell_formula_units_Z   4
loop_
 _symmetry_equiv_pos_site_id
 _symmetry_equiv_pos_as_xyz
  1  'x, y, z'
loop_
 _atom_site_type_symbol
 _atom_site_label
 _atom_site_symmetry_multiplicity
 _atom_site_fract_x
 _atom_site_fract_y
 _atom_site_fract_z
 _atom_site_occupancy
  Li  Li0  1  0.81460250  0.92288650  0.28981100  1
  Li  Li1  1  0.19465350  0.84599250  0.32472500  1
  Li  Li2  1  0.81460250  0.07711350  0.78981100  1
  Li  Li3  1  0.48948000  0.12928400  0.24721000  1
  Li  Li4  1  0.48948000  0.87071600  0.74721000  1
  Li  Li5  1  0.19465350  0.15400750  0.82472500  1
  Li  Li6  1  0.31460250  0.42288650  0.28981100  1
  Li  Li7  1  0.69465350  0.34599250  0.32472500  1
  Li  Li8  1  0.31460250  0.57711350  0.78981100  1
  Li  Li9  1  0.98948000  0.62928400  0.24721000  1
  Li  Li10  1  0.98948000  0.37071600  0.74721000  1
  Li  Li11  1  0.69465350  0.65400750  0.82472500  1
  Mn  Mn12  1  0.40144050  0.75146750  0.36130300  1
  Mn  Mn13  1  0.40144050  0.24853250  0.86130300  1
  Mn  Mn14  1  0.90144050  0.25146750  0.36130300  1
  Mn  Mn15  1  0.90144050  0.74853250  0.86130300  1
  V  V16  1  0.60463650  0.75216750  0.14004400  1
  V  V17  1  0.60463650  0.24783250  0.64004400  1
  V  V18  1  0.10463650  0.25216750  0.14004400  1
  V  V19  1  0.10463650  0.74783250  0.64004400  1
  P  P20  1  0.64097550  0.11136750  0.04567900  1
  P  P21  1  0.64097550  0.88863250  0.54567900  1
  P  P22  1  0.49959300  0.54969800  0.74330900  1
  P  P23  1  0.36038250  0.11423950  0.46251900  1
  P  P24  1  0.49959300  0.45030200  0.24330900  1
  P  P25  1  0.36038250  0.88576050  0.96251900  1
  P  P26  1  0.14097550  0.61136750  0.04567900  1
  P  P27  1  0.14097550  0.38863250  0.54567900  1
  P  P28  1  0.99959300  0.04969800  0.74330900  1
  P  P29  1  0.86038250  0.61423950  0.46251900  1
  P  P30  1  0.99959300  0.95030200  0.24330900  1
  P  P31  1  0.86038250  0.38576050  0.96251900  1
  O  O32  1  0.66070350  0.93780950  0.08068300  1
  O  O33  1  0.54767550  0.16681250  0.06027900  1
  O  O34  1  0.61631850  0.86186550  0.35137600  1
  O  O35  1  0.54767550  0.83318750  0.56027900  1
  O  O36  1  0.74176150  0.19367050  0.20804100  1
  O  O37  1  0.58595550  0.65886150  0.89892500  1
  O  O38  1  0.74176150  0.80632950  0.70804100  1
  O  O39  1  0.06235750  0.05184350  0.19230300  1
  O  O40  1  0.93319600  0.03516900  0.29921500  1
  O  O41  1  0.66070350  0.06219050  0.58068300  1
  O  O42  1  0.58595550  0.34113850  0.39892500  1
  O  O43  1  0.39255300  0.86524700  0.16574100  1
  O  O44  1  0.61631850  0.13813450  0.85137600  1
  O  O45  1  0.41323050  0.65149050  0.57485600  1
  O  O46  1  0.33326600  0.94470200  0.42128900  1
  O  O47  1  0.06235750  0.94815650  0.69230300  1
  O  O48  1  0.93319600  0.96483100  0.79921500  1
  O  O49  1  0.26655550  0.21647250  0.31746100  1
  O  O50  1  0.41323050  0.34850950  0.07485600  1
  O  O51  1  0.26655550  0.78352750  0.81746100  1
  O  O52  1  0.45616400  0.16271200  0.45077200  1
  O  O53  1  0.39255300  0.13475300  0.66574100  1
  O  O54  1  0.45616400  0.83728800  0.95077200  1
  O  O55  1  0.33326600  0.05529800  0.92128900  1
  O  O56  1  0.16070350  0.43780950  0.08068300  1
  O  O57  1  0.04767550  0.66681250  0.06027900  1
  O  O58  1  0.11631850  0.36186550  0.35137600  1
  O  O59  1  0.04767550  0.33318750  0.56027900  1
  O  O60  1  0.24176150  0.69367050  0.20804100  1
  O  O61  1  0.08595550  0.15886150  0.89892500  1
  O  O62  1  0.24176150  0.30632950  0.70804100  1
  O  O63  1  0.56235750  0.55184350  0.19230300  1
  O  O64  1  0.43319600  0.53516900  0.29921500  1
  O  O65  1  0.16070350  0.56219050  0.58068300  1
  O  O66  1  0.08595550  0.84113850  0.39892500  1
  O  O67  1  0.89255300  0.36524700  0.16574100  1
  O  O68  1  0.11631850  0.63813450  0.85137600  1
  O  O69  1  0.91323050  0.15149050  0.57485600  1
  O  O70  1  0.83326600  0.44470200  0.42128900  1
  O  O71  1  0.56235750  0.44815650  0.69230300  1
  O  O72  1  0.43319600  0.46483100  0.79921500  1
  O  O73  1  0.76655550  0.71647250  0.31746100  1
  O  O74  1  0.91323050  0.84850950  0.07485600  1
  O  O75  1  0.76655550  0.28352750  0.81746100  1
  O  O76  1  0.95616400  0.66271200  0.45077200  1
  O  O77  1  0.89255300  0.63475300  0.66574100  1
  O  O78  1  0.95616400  0.33728800  0.95077200  1
  O  O79  1  0.83326600  0.55529800  0.92128900  1
