# generated using pymatgen
data_LiVPCO7
_symmetry_space_group_name_H-M   'P 1'
_cell_length_a   5.21449779
_cell_length_b   6.39845366
_cell_length_c   8.36947676
_cell_angle_alpha   90.00000000
_cell_angle_beta   95.86153541
_cell_angle_gamma   90.00000000
_symmetry_Int_Tables_number   1
_chemical_formula_structural   LiVPCO7
_chemical_formula_sum   'Li2 V2 P2 C2 O14'
_cell_volume   277.78526359
_cell_formula_units_Z   2
loop_
 _symmetry_equiv_pos_site_id
 _symmetry_equiv_pos_as_xyz
  1  'x, y, z'
loop_
 _atom_site_type_symbol
 _atom_site_label
 _atom_site_symmetry_multiplicity
 _atom_site_fract_x
 _atom_site_fract_y
 _atom_site_fract_z
 _atom_site_occupancy
  Li  Li0  1  0.31023550  0.25000000  0.90012700  1
  Li  Li1  1  0.68976450  0.75000000  0.09987300  1
  V  V2  1  0.28868800  0.75000000  0.67702500  1
  V  V3  1  0.71131200  0.25000000  0.32297500  1
  P  P4  1  0.24734550  0.25000000  0.57691650  1
  P  P5  1  0.75265450  0.75000000  0.42308350  1
  C  C6  1  0.15138350  0.75000000  0.94892900  1
  C  C7  1  0.84861650  0.25000000  0.05107100  1
  O  O8  1  0.39964450  0.75000000  0.92303350  1
  O  O9  1  0.60035550  0.25000000  0.07696650  1
  O  O10  1  0.93464300  0.25000000  0.91862950  1
  O  O11  1  0.06535700  0.75000000  0.08137050  1
  O  O12  1  0.00375200  0.75000000  0.80963850  1
  O  O13  1  0.99624800  0.25000000  0.19036150  1
  O  O14  1  0.57711900  0.75000000  0.56179300  1
  O  O15  1  0.42288100  0.25000000  0.43820700  1
  O  O16  1  0.96519550  0.25000000  0.50377550  1
  O  O17  1  0.03480450  0.75000000  0.49622450  1
  O  O18  1  0.30622350  0.06112700  0.69035350  1
  O  O19  1  0.30622350  0.43887300  0.69035350  1
  O  O20  1  0.69377650  0.56112700  0.30964650  1
  O  O21  1  0.69377650  0.93887300  0.30964650  1
