# generated using pymatgen
data_Li4V2Fe3Cu3O16
_symmetry_space_group_name_H-M   'P 1'
_cell_length_a   10.24916942
_cell_length_b   5.90773228
_cell_length_c   9.53870024
_cell_angle_alpha   90.00000000
_cell_angle_beta   90.05903067
_cell_angle_gamma   90.00000000
_symmetry_Int_Tables_number   1
_chemical_formula_structural   Li4V2Fe3Cu3O16
_chemical_formula_sum   'Li8 V4 Fe6 Cu6 O32'
_cell_volume   577.56178395
_cell_formula_units_Z   2
loop_
 _symmetry_equiv_pos_site_id
 _symmetry_equiv_pos_as_xyz
  1  'x, y, z'
loop_
 _atom_site_type_symbol
 _atom_site_label
 _atom_site_symmetry_multiplicity
 _atom_site_fract_x
 _atom_site_fract_y
 _atom_site_fract_z
 _atom_site_occupancy
  Li  Li0  1  0.83946500  0.50000000  0.09684400  1
  Li  Li1  1  0.99860700  0.00000000  0.00781200  1
  Li  Li2  1  0.99458300  0.00000000  0.51180600  1
  Li  Li3  1  0.67190650  0.00000000  0.59718800  1
  Li  Li4  1  0.33946500  0.00000000  0.09684400  1
  Li  Li5  1  0.49860700  0.50000000  0.00781200  1
  Li  Li6  1  0.49458300  0.50000000  0.51180600  1
  Li  Li7  1  0.17190650  0.50000000  0.59718800  1
  V  V8  1  0.83468600  0.50000000  0.50172100  1
  V  V9  1  0.66772000  0.00000000  0.00271500  1
  V  V10  1  0.33468600  0.00000000  0.50172100  1
  V  V11  1  0.16772000  0.50000000  0.00271500  1
  Fe  Fe12  1  0.67298950  0.50000000  0.77909100  1
  Fe  Fe13  1  0.58816600  0.75705500  0.28058300  1
  Fe  Fe14  1  0.58816600  0.24294500  0.28058300  1
  Fe  Fe15  1  0.17298950  0.00000000  0.77909100  1
  Fe  Fe16  1  0.08816600  0.25705500  0.28058300  1
  Fe  Fe17  1  0.08816600  0.74294500  0.28058300  1
  Cu  Cu18  1  0.91431700  0.25606000  0.78846900  1
  Cu  Cu19  1  0.91431700  0.74394000  0.78846900  1
  Cu  Cu20  1  0.82725200  0.00000000  0.28508700  1
  Cu  Cu21  1  0.41431700  0.75606000  0.78846900  1
  Cu  Cu22  1  0.41431700  0.24394000  0.78846900  1
  Cu  Cu23  1  0.32725200  0.50000000  0.28508700  1
  O  O24  1  0.91549450  0.26484950  0.41336900  1
  O  O25  1  0.97738950  0.50000000  0.65023800  1
  O  O26  1  0.83766000  0.50000000  0.88906100  1
  O  O27  1  0.99460850  0.00000000  0.70456900  1
  O  O28  1  0.99783850  0.00000000  0.20003300  1
  O  O29  1  0.91549450  0.73515050  0.41336900  1
  O  O30  1  0.75875850  0.28176350  0.65024200  1
  O  O31  1  0.75875850  0.71823650  0.65024200  1
  O  O32  1  0.82533950  0.00000000  0.91603200  1
  O  O33  1  0.67318000  0.50000000  0.41301700  1
  O  O34  1  0.74123300  0.77782100  0.15195300  1
  O  O35  1  0.74123300  0.22217900  0.15195300  1
  O  O36  1  0.66619750  0.00000000  0.39413500  1
  O  O37  1  0.59187400  0.75559100  0.91313600  1
  O  O38  1  0.52188300  0.00000000  0.15083200  1
  O  O39  1  0.59187400  0.24440900  0.91313600  1
  O  O40  1  0.41549450  0.76484950  0.41336900  1
  O  O41  1  0.47738950  0.00000000  0.65023800  1
  O  O42  1  0.33766000  0.00000000  0.88906100  1
  O  O43  1  0.49460850  0.50000000  0.70456900  1
  O  O44  1  0.49783850  0.50000000  0.20003300  1
  O  O45  1  0.41549450  0.23515050  0.41336900  1
  O  O46  1  0.25875850  0.78176350  0.65024200  1
  O  O47  1  0.25875850  0.21823650  0.65024200  1
  O  O48  1  0.32533950  0.50000000  0.91603200  1
  O  O49  1  0.17318000  0.00000000  0.41301700  1
  O  O50  1  0.24123300  0.27782100  0.15195300  1
  O  O51  1  0.24123300  0.72217900  0.15195300  1
  O  O52  1  0.16619750  0.50000000  0.39413500  1
  O  O53  1  0.09187400  0.25559100  0.91313600  1
  O  O54  1  0.02188300  0.50000000  0.15083200  1
  O  O55  1  0.09187400  0.74440900  0.91313600  1
