# generated using pymatgen
data_Li3CoPCO7
_symmetry_space_group_name_H-M   'P 1'
_cell_length_a   5.07676733
_cell_length_b   6.52688152
_cell_length_c   8.45417098
_cell_angle_alpha   90.00000000
_cell_angle_beta   91.99045541
_cell_angle_gamma   90.00000000
_symmetry_Int_Tables_number   1
_chemical_formula_structural   Li3CoPCO7
_chemical_formula_sum   'Li6 Co2 P2 C2 O14'
_cell_volume   279.96381017
_cell_formula_units_Z   2
loop_
 _symmetry_equiv_pos_site_id
 _symmetry_equiv_pos_as_xyz
  1  'x, y, z'
loop_
 _atom_site_type_symbol
 _atom_site_label
 _atom_site_symmetry_multiplicity
 _atom_site_fract_x
 _atom_site_fract_y
 _atom_site_fract_z
 _atom_site_occupancy
  Li  Li0  1  0.54280150  0.52421500  0.00670525  1
  Li  Li1  1  0.45719850  0.02421500  0.99329475  1
  Li  Li2  1  0.92033950  0.20650650  0.80979775  1
  Li  Li3  1  0.07966050  0.70650650  0.19020225  1
  Li  Li4  1  0.94064200  0.39444250  0.46768475  1
  Li  Li5  1  0.05935800  0.89444250  0.53231525  1
  Co  Co6  1  0.54710250  0.73921050  0.72068075  1
  Co  Co7  1  0.45289750  0.23921050  0.27931925  1
  P  P8  1  0.45480250  0.24915850  0.66104875  1
  P  P9  1  0.54519750  0.74915850  0.33895125  1
  C  C10  1  0.03813250  0.73953550  0.87695575  1
  C  C11  1  0.96186750  0.23953550  0.12304425  1
  O  O12  1  0.87689350  0.70142400  0.98770625  1
  O  O13  1  0.12310650  0.20142400  0.01229375  1
  O  O14  1  0.28987200  0.75882650  0.91129075  1
  O  O15  1  0.71012800  0.25882650  0.08870925  1
  O  O16  1  0.57256200  0.06461700  0.75768525  1
  O  O17  1  0.42743800  0.56461700  0.24231475  1
  O  O18  1  0.53214400  0.43773950  0.76595575  1
  O  O19  1  0.46785600  0.93773950  0.23404425  1
  O  O20  1  0.95264200  0.76202900  0.73140425  1
  O  O21  1  0.04735800  0.26202900  0.26859575  1
  O  O22  1  0.15383000  0.22402050  0.62938175  1
  O  O23  1  0.84617000  0.72402050  0.37061825  1
  O  O24  1  0.59553450  0.27292000  0.50144325  1
  O  O25  1  0.40446550  0.77292000  0.49855675  1
