# generated using pymatgen
data_CrCo3O8
_symmetry_space_group_name_H-M   'P 1'
_cell_length_a   5.73942244
_cell_length_b   5.73942244
_cell_length_c   14.53008366
_cell_angle_alpha   90.00000000
_cell_angle_beta   90.00000000
_cell_angle_gamma   120.00000000
_symmetry_Int_Tables_number   1
_chemical_formula_structural   CrCo3O8
_chemical_formula_sum   'Cr3 Co9 O24'
_cell_volume   414.51011186
_cell_formula_units_Z   3
loop_
 _symmetry_equiv_pos_site_id
 _symmetry_equiv_pos_as_xyz
  1  'x, y, z'
loop_
 _atom_site_type_symbol
 _atom_site_label
 _atom_site_symmetry_multiplicity
 _atom_site_fract_x
 _atom_site_fract_y
 _atom_site_fract_z
 _atom_site_occupancy
  Cr  Cr0  1  0.00000000  0.00000000  0.00000000  1
  Cr  Cr1  1  0.66666667  0.33333333  0.33333333  1
  Cr  Cr2  1  0.33333333  0.66666667  0.66666667  1
  Co  Co3  1  0.50000000  0.50000000  0.00000000  1
  Co  Co4  1  0.00000000  0.50000000  0.00000000  1
  Co  Co5  1  0.50000000  0.00000000  0.00000000  1
  Co  Co6  1  0.16666667  0.83333333  0.33333333  1
  Co  Co7  1  0.66666667  0.83333333  0.33333333  1
  Co  Co8  1  0.16666667  0.33333333  0.33333333  1
  Co  Co9  1  0.83333333  0.16666667  0.66666667  1
  Co  Co10  1  0.33333333  0.16666667  0.66666667  1
  Co  Co11  1  0.83333333  0.66666667  0.66666667  1
  O  O12  1  0.17030333  0.34060667  0.06523967  1
  O  O13  1  0.65939333  0.82969667  0.06523967  1
  O  O14  1  0.17030333  0.82969667  0.06523967  1
  O  O15  1  0.66666667  0.33333333  0.06519833  1
  O  O16  1  0.00000000  0.00000000  0.26813500  1
  O  O17  1  0.49636333  0.50363667  0.26809367  1
  O  O18  1  0.00727333  0.50363667  0.26809367  1
  O  O19  1  0.49636333  0.99272667  0.26809367  1
  O  O20  1  0.83697000  0.67394000  0.39857300  1
  O  O21  1  0.32606000  0.16303000  0.39857300  1
  O  O22  1  0.83697000  0.16303000  0.39857300  1
  O  O23  1  0.33333333  0.66666667  0.39853167  1
  O  O24  1  0.66666667  0.33333333  0.60146833  1
  O  O25  1  0.16303000  0.83697000  0.60142700  1
  O  O26  1  0.67394000  0.83697000  0.60142700  1
  O  O27  1  0.16303000  0.32606000  0.60142700  1
  O  O28  1  0.50363667  0.00727333  0.73190633  1
  O  O29  1  0.99272667  0.49636333  0.73190633  1
  O  O30  1  0.50363667  0.49636333  0.73190633  1
  O  O31  1  0.00000000  0.00000000  0.73186500  1
  O  O32  1  0.33333333  0.66666667  0.93480167  1
  O  O33  1  0.82969667  0.17030333  0.93476033  1
  O  O34  1  0.34060667  0.17030333  0.93476033  1
  O  O35  1  0.82969667  0.65939333  0.93476033  1
