# generated using pymatgen
data_LiFeO2
_symmetry_space_group_name_H-M   'P 1'
_cell_length_a   2.99283189
_cell_length_b   4.08172405
_cell_length_c   6.14432100
_cell_angle_alpha   90.00000000
_cell_angle_beta   90.00000000
_cell_angle_gamma   90.00000000
_symmetry_Int_Tables_number   1
_chemical_formula_structural   LiFeO2
_chemical_formula_sum   'Li2 Fe2 O4'
_cell_volume   75.05849650
_cell_formula_units_Z   2
loop_
 _symmetry_equiv_pos_site_id
 _symmetry_equiv_pos_as_xyz
  1  'x, y, z'
loop_
 _atom_site_type_symbol
 _atom_site_label
 _atom_site_symmetry_multiplicity
 _atom_site_fract_x
 _atom_site_fract_y
 _atom_site_fract_z
 _atom_site_occupancy
  Li  Li0  1  0.00000000  0.00000000  0.10484875  1
  Li  Li1  1  0.50000000  0.50000000  0.89515125  1
  Fe  Fe2  1  0.00000000  0.00000000  0.64632625  1
  Fe  Fe3  1  0.50000000  0.50000000  0.35367375  1
  O  O4  1  0.50000000  0.00000000  0.39762525  1
  O  O5  1  0.00000000  0.50000000  0.60237475  1
  O  O6  1  0.50000000  0.00000000  0.85574775  1
  O  O7  1  0.00000000  0.50000000  0.14425225  1
