# generated using pymatgen
data_Mn3CrCu2(PO4)6
_symmetry_space_group_name_H-M   'P 1'
_cell_length_a   8.51341606
_cell_length_b   8.51341606
_cell_length_c   20.91554265
_cell_angle_alpha   90.00000000
_cell_angle_beta   90.00000000
_cell_angle_gamma   120.00000000
_symmetry_Int_Tables_number   1
_chemical_formula_structural   Mn3CrCu2(PO4)6
_chemical_formula_sum   'Mn9 Cr3 Cu6 P18 O72'
_cell_volume   1312.82695367
_cell_formula_units_Z   3
loop_
 _symmetry_equiv_pos_site_id
 _symmetry_equiv_pos_as_xyz
  1  'x, y, z'
loop_
 _atom_site_type_symbol
 _atom_site_label
 _atom_site_symmetry_multiplicity
 _atom_site_fract_x
 _atom_site_fract_y
 _atom_site_fract_z
 _atom_site_occupancy
  Mn  Mn0  1  0.66666667  0.33333333  0.19085533  1
  Mn  Mn1  1  0.33333333  0.66666667  0.30884767  1
  Mn  Mn2  1  0.33333333  0.66666667  0.02416867  1
  Mn  Mn3  1  0.33333333  0.66666667  0.52418867  1
  Mn  Mn4  1  0.00000000  0.00000000  0.64218100  1
  Mn  Mn5  1  0.00000000  0.00000000  0.35750200  1
  Mn  Mn6  1  0.00000000  0.00000000  0.85752200  1
  Mn  Mn7  1  0.66666667  0.33333333  0.97551433  1
  Mn  Mn8  1  0.66666667  0.33333333  0.69083533  1
  Cr  Cr9  1  0.00000000  0.00000000  0.14109600  1
  Cr  Cr10  1  0.66666667  0.33333333  0.47442933  1
  Cr  Cr11  1  0.33333333  0.66666667  0.80776267  1
  Cu  Cu12  1  0.00000000  0.00000000  0.00090200  1
  Cu  Cu13  1  0.33333333  0.66666667  0.16684667  1
  Cu  Cu14  1  0.66666667  0.33333333  0.33423533  1
  Cu  Cu15  1  0.00000000  0.00000000  0.50018000  1
  Cu  Cu16  1  0.33333333  0.66666667  0.66756867  1
  Cu  Cu17  1  0.66666667  0.33333333  0.83351333  1
  P  P18  1  0.28997133  0.00032867  0.25053867  1
  P  P19  1  0.99967133  0.28964267  0.25053867  1
  P  P20  1  0.71035733  0.71002867  0.25053867  1
  P  P21  1  0.95527433  0.62172467  0.08243767  1
  P  P22  1  0.66645033  0.04472567  0.08243767  1
  P  P23  1  0.37827533  0.33354967  0.08243767  1
  P  P24  1  0.95663800  0.33366200  0.58387200  1
  P  P25  1  0.66633800  0.62297600  0.58387200  1
  P  P26  1  0.37702400  0.04336200  0.58387200  1
  P  P27  1  0.62194100  0.95505800  0.41577100  1
  P  P28  1  0.33311700  0.37805900  0.41577100  1
  P  P29  1  0.04494200  0.66688300  0.41577100  1
  P  P30  1  0.62330467  0.66699533  0.91720533  1
  P  P31  1  0.33300467  0.95630933  0.91720533  1
  P  P32  1  0.04369067  0.37669533  0.91720533  1
  P  P33  1  0.28860767  0.28839133  0.74910433  1
  P  P34  1  0.99978367  0.71139233  0.74910433  1
  P  P35  1  0.71160867  0.00021633  0.74910433  1
  O  O36  1  0.47235333  0.32602767  0.02117967  1
  O  O37  1  0.85367433  0.52764667  0.02117967  1
  O  O38  1  0.48353367  0.17257533  0.25513333  1
  O  O39  1  0.67397233  0.14632567  0.02117967  1
  O  O40  1  0.19134200  0.99155000  0.18909200  1
  O  O41  1  0.31005133  0.82638167  0.24690667  1
  O  O42  1  0.82742467  0.31095833  0.25513333  1
  O  O43  1  0.17361833  0.48366967  0.24690667  1
  O  O44  1  0.86523000  0.52240100  0.14451500  1
  O  O45  1  0.51633033  0.68994867  0.24690667  1
  O  O46  1  0.97745633  0.81377667  0.07795867  1
  O  O47  1  0.65717100  0.13477000  0.14451500  1
  O  O48  1  0.00845000  0.19979200  0.18909200  1
  O  O49  1  0.68904167  0.51646633  0.25513333  1
  O  O50  1  0.14825667  0.64024033  0.08684333  1
  O  O51  1  0.80020800  0.80865800  0.18909200  1
  O  O52  1  0.49198367  0.85174333  0.08684333  1
  O  O53  1  0.83632033  0.02254367  0.07795867  1
  O  O54  1  0.35975967  0.50801633  0.08684333  1
  O  O55  1  0.47759900  0.34282900  0.14451500  1
  O  O56  1  0.99052133  0.18931567  0.31226667  1
  O  O57  1  0.18622333  0.16367967  0.07795867  1
  O  O58  1  0.81068433  0.80120567  0.31226667  1
  O  O59  1  0.19879433  0.00947867  0.31226667  1
  O  O60  1  0.13902000  0.65936100  0.35451300  1
  O  O61  1  0.52034100  0.86098000  0.35451300  1
  O  O62  1  0.15020033  0.50590867  0.58846667  1
  O  O63  1  0.34063900  0.47965900  0.35451300  1
  O  O64  1  0.85800867  0.32488333  0.52242533  1
  O  O65  1  0.97671800  0.15971500  0.58024000  1
  O  O66  1  0.49409133  0.64429167  0.58846667  1
  O  O67  1  0.84028500  0.81700300  0.58024000  1
  O  O68  1  0.53189667  0.85573433  0.47784833  1
  O  O69  1  0.18299700  0.02328200  0.58024000  1
  O  O70  1  0.64412300  0.14711000  0.41129200  1
  O  O71  1  0.32383767  0.46810333  0.47784833  1
  O  O72  1  0.67511667  0.53312533  0.52242533  1
  O  O73  1  0.35570833  0.84979967  0.58846667  1
  O  O74  1  0.81492333  0.97357367  0.42017667  1
  O  O75  1  0.46687467  0.14199133  0.52242533  1
  O  O76  1  0.15865033  0.18507667  0.42017667  1
  O  O77  1  0.50298700  0.35587700  0.41129200  1
  O  O78  1  0.02642633  0.84134967  0.42017667  1
  O  O79  1  0.14426567  0.67616233  0.47784833  1
  O  O80  1  0.65718800  0.52264900  0.64560000  1
  O  O81  1  0.85289000  0.49701300  0.41129200  1
  O  O82  1  0.47735100  0.13453900  0.64560000  1
  O  O83  1  0.86546100  0.34281200  0.64560000  1
  O  O84  1  0.80568667  0.99269433  0.68784633  1
  O  O85  1  0.18700767  0.19431333  0.68784633  1
  O  O86  1  0.81686700  0.83924200  0.92180000  1
  O  O87  1  0.00730567  0.81299233  0.68784633  1
  O  O88  1  0.52467533  0.65821667  0.85575867  1
  O  O89  1  0.64338467  0.49304833  0.91357333  1
  O  O90  1  0.16075800  0.97762500  0.92180000  1
  O  O91  1  0.50695167  0.15033633  0.91357333  1
  O  O92  1  0.19856333  0.18906767  0.81118167  1
  O  O93  1  0.84966367  0.35661533  0.91357333  1
  O  O94  1  0.31078967  0.48044333  0.74462533  1
  O  O95  1  0.99050433  0.80143667  0.81118167  1
  O  O96  1  0.34178333  0.86645867  0.85575867  1
  O  O97  1  0.02237500  0.18313300  0.92180000  1
  O  O98  1  0.48159000  0.30690700  0.75351000  1
  O  O99  1  0.13354133  0.47532467  0.85575867  1
  O  O100  1  0.82531700  0.51841000  0.75351000  1
  O  O101  1  0.16965367  0.68921033  0.74462533  1
  O  O102  1  0.69309300  0.17468300  0.75351000  1
  O  O103  1  0.81093233  0.00949567  0.81118167  1
  O  O104  1  0.32385467  0.85598233  0.97893333  1
  O  O105  1  0.51955667  0.83034633  0.74462533  1
  O  O106  1  0.14401767  0.46787233  0.97893333  1
  O  O107  1  0.53212767  0.67614533  0.97893333  1
