# generated using pymatgen
data_LiCo3Sb(PO4)6
_symmetry_space_group_name_H-M   'P 1'
_cell_length_a   8.48765005
_cell_length_b   8.48994211
_cell_length_c   8.51320041
_cell_angle_alpha   119.81363804
_cell_angle_beta   90.08736407
_cell_angle_gamma   119.97888358
_symmetry_Int_Tables_number   1
_chemical_formula_structural   LiCo3Sb(PO4)6
_chemical_formula_sum   'Li1 Co3 Sb1 P6 O24'
_cell_volume   434.80768417
_cell_formula_units_Z   1
loop_
 _symmetry_equiv_pos_site_id
 _symmetry_equiv_pos_as_xyz
  1  'x, y, z'
loop_
 _atom_site_type_symbol
 _atom_site_label
 _atom_site_symmetry_multiplicity
 _atom_site_fract_x
 _atom_site_fract_y
 _atom_site_fract_z
 _atom_site_occupancy
  Li  Li0  1  0.01496800  0.51061250  0.48536247  1
  Co  Co1  1  0.72481029  0.86335187  0.41572489  1
  Co  Co2  1  0.28817487  0.64204714  0.06765454  1
  Co  Co3  1  0.72477648  0.36290949  0.91635034  1
  Sb  Sb4  1  0.27990470  0.13887574  0.58042909  1
  P  P5  1  0.50391371  0.95667671  0.24351917  1
  P  P6  1  0.80118062  0.54864057  0.24280832  1
  P  P7  1  0.78338738  0.74620950  0.74185012  1
  P  P8  1  0.21033624  0.25310318  0.24321228  1
  P  P9  1  0.22238678  0.47504939  0.74451786  1
  P  P10  1  0.51283074  0.03510633  0.74113138  1
  O  O11  1  0.44088110  0.63634193  0.55820494  1
  O  O12  1  0.37367789  0.86885168  0.92579473  1
  O  O13  1  0.56907857  0.69451220  0.93021771  1
  O  O14  1  0.67385506  0.93413446  0.24473828  1
  O  O15  1  0.35769651  0.97897197  0.43360019  1
  O  O16  1  0.19375582  0.49240712  0.93420172  1
  O  O17  1  0.32839392  0.76402956  0.24844516  1
  O  O18  1  0.82318653  0.73906438  0.24339232  1
  O  O19  1  0.81739294  0.80806479  0.55135917  1
  O  O20  1  0.98843897  0.56342037  0.25018168  1
  O  O21  1  0.96923593  0.91318735  0.75452720  1
  O  O22  1  0.18807387  0.42466193  0.25159235  1
  O  O23  1  0.58634938  0.37833552  0.43006049  1
  O  O24  1  0.81085419  0.58081565  0.73191453  1
  O  O25  1  0.02018168  0.08457125  0.24001331  1
  O  O26  1  0.18675437  0.20475569  0.43331816  1
  O  O27  1  0.04062426  0.45827855  0.73321834  1
  O  O28  1  0.19343219  0.27714405  0.75142521  1
  O  O29  1  0.68393122  0.22775774  0.73776235  1
  O  O30  1  0.81001111  0.51339102  0.06466311  1
  O  O31  1  0.65089849  0.01525555  0.55028365  1
  O  O32  1  0.33456237  0.05461288  0.75125449  1
  O  O33  1  0.42286515  0.29699201  0.06823411  1
  O  O34  1  0.63893568  0.12815791  0.06906333  1
