# generated using pymatgen
data_Li3MnV3O8
_symmetry_space_group_name_H-M   'P 1'
_cell_length_a   5.95679229
_cell_length_b   5.95679229
_cell_length_c   14.60096295
_cell_angle_alpha   90.00000000
_cell_angle_beta   90.00000000
_cell_angle_gamma   120.00000000
_symmetry_Int_Tables_number   1
_chemical_formula_structural   Li3MnV3O8
_chemical_formula_sum   'Li9 Mn3 V9 O24'
_cell_volume   448.68034349
_cell_formula_units_Z   3
loop_
 _symmetry_equiv_pos_site_id
 _symmetry_equiv_pos_as_xyz
  1  'x, y, z'
loop_
 _atom_site_type_symbol
 _atom_site_label
 _atom_site_symmetry_multiplicity
 _atom_site_fract_x
 _atom_site_fract_y
 _atom_site_fract_z
 _atom_site_occupancy
  Li  Li0  1  0.83333333  0.16666667  0.16666667  1
  Li  Li1  1  0.83333333  0.66666667  0.16666667  1
  Li  Li2  1  0.33333333  0.16666667  0.16666667  1
  Li  Li3  1  0.50000000  0.50000000  0.50000000  1
  Li  Li4  1  0.50000000  0.00000000  0.50000000  1
  Li  Li5  1  0.00000000  0.50000000  0.50000000  1
  Li  Li6  1  0.16666667  0.83333333  0.83333333  1
  Li  Li7  1  0.16666667  0.33333333  0.83333333  1
  Li  Li8  1  0.66666667  0.83333333  0.83333333  1
  Mn  Mn9  1  0.33333333  0.66666667  0.16666667  1
  Mn  Mn10  1  1.00000000  1.00000000  0.50000000  1
  Mn  Mn11  1  0.66666667  0.33333333  0.83333333  1
  V  V12  1  0.50000000  0.00000000  0.00000000  1
  V  V13  1  0.50000000  0.50000000  0.00000000  1
  V  V14  1  0.66666667  0.83333333  0.33333333  1
  V  V15  1  0.16666667  0.33333333  0.33333333  1
  V  V16  1  0.16666667  0.83333333  0.33333333  1
  V  V17  1  0.33333333  0.16666667  0.66666667  1
  V  V18  1  0.83333333  0.66666667  0.66666667  1
  V  V19  1  0.83333333  0.16666667  0.66666667  1
  V  V20  1  0.00000000  0.50000000  0.00000000  1
  O  O21  1  0.66666667  0.33333333  0.07681233  1
  O  O22  1  0.00000000  0.00000000  0.25652100  1
  O  O23  1  0.62849567  0.81424783  0.08634933  1
  O  O24  1  0.18575217  0.37150433  0.08634933  1
  O  O25  1  0.18575217  0.81424783  0.08634933  1
  O  O26  1  0.48091450  0.51908550  0.24698400  1
  O  O27  1  0.48091450  0.96182900  0.24698400  1
  O  O28  1  0.03817100  0.51908550  0.24698400  1
  O  O29  1  0.33333333  0.66666667  0.41014567  1
  O  O30  1  0.66666667  0.33333333  0.58985433  1
  O  O31  1  0.29516233  0.14758117  0.41968267  1
  O  O32  1  0.85241883  0.70483767  0.41968267  1
  O  O33  1  0.85241883  0.14758117  0.41968267  1
  O  O34  1  0.14758117  0.85241883  0.58031733  1
  O  O35  1  0.14758117  0.29516233  0.58031733  1
  O  O36  1  0.70483767  0.85241883  0.58031733  1
  O  O37  1  0.00000000  0.00000000  0.74347900  1
  O  O38  1  0.33333333  0.66666667  0.92318767  1
  O  O39  1  0.96182900  0.48091450  0.75301600  1
  O  O40  1  0.51908550  0.03817100  0.75301600  1
  O  O41  1  0.51908550  0.48091450  0.75301600  1
  O  O42  1  0.81424783  0.18575217  0.91365067  1
  O  O43  1  0.81424783  0.62849567  0.91365067  1
  O  O44  1  0.37150433  0.18575217  0.91365067  1
