# generated using pymatgen
data_Li6Fe5WO12
_symmetry_space_group_name_H-M   'P 1'
_cell_length_a   5.18246800
_cell_length_b   9.05224600
_cell_length_c   10.29711896
_cell_angle_alpha   90.00000000
_cell_angle_beta   98.88420662
_cell_angle_gamma   90.00000000
_symmetry_Int_Tables_number   1
_chemical_formula_structural   Li6Fe5WO12
_chemical_formula_sum   'Li12 Fe10 W2 O24'
_cell_volume   477.27285956
_cell_formula_units_Z   2
loop_
 _symmetry_equiv_pos_site_id
 _symmetry_equiv_pos_as_xyz
  1  'x, y, z'
loop_
 _atom_site_type_symbol
 _atom_site_label
 _atom_site_symmetry_multiplicity
 _atom_site_fract_x
 _atom_site_fract_y
 _atom_site_fract_z
 _atom_site_occupancy
  Li  Li0  1  0.88184950  0.82514150  0.24406500  1
  Li  Li1  1  0.11770200  0.82540600  0.75412800  1
  Li  Li2  1  0.61829000  0.00000000  0.75409000  1
  Li  Li3  1  0.38059400  0.00000000  0.24979300  1
  Li  Li4  1  0.38184950  0.67485850  0.24406500  1
  Li  Li5  1  0.61770200  0.67459400  0.75412800  1
  Li  Li6  1  0.38184950  0.32514150  0.24406500  1
  Li  Li7  1  0.61770200  0.32540600  0.75412800  1
  Li  Li8  1  0.11829000  0.50000000  0.75409000  1
  Li  Li9  1  0.88059400  0.50000000  0.24979300  1
  Li  Li10  1  0.88184950  0.17485850  0.24406500  1
  Li  Li11  1  0.11770200  0.17459400  0.75412800  1
  Fe  Fe12  1  0.49410100  0.83220400  0.00028000  1
  Fe  Fe13  1  0.50022600  0.00000000  0.50065000  1
  Fe  Fe14  1  0.99410100  0.66779600  0.00028000  1
  Fe  Fe15  1  0.49976300  0.66635700  0.49979500  1
  Fe  Fe16  1  0.99976300  0.83364300  0.49979500  1
  Fe  Fe17  1  0.99410100  0.33220400  0.00028000  1
  Fe  Fe18  1  0.00022600  0.50000000  0.50065000  1
  Fe  Fe19  1  0.49410100  0.16779600  0.00028000  1
  Fe  Fe20  1  0.99976300  0.16635700  0.49979500  1
  Fe  Fe21  1  0.49976300  0.33364300  0.49979500  1
  W  W22  1  0.01169000  0.00000000  0.99914400  1
  W  W23  1  0.51169000  0.50000000  0.99914400  1
  O  O24  1  0.68977250  0.65772250  0.12250800  1
  O  O25  1  0.31705050  0.66266350  0.88371800  1
  O  O26  1  0.62952350  0.83307050  0.38723600  1
  O  O27  1  0.86807200  0.00000000  0.61028500  1
  O  O28  1  0.37100200  0.83254400  0.61284800  1
  O  O29  1  0.71645600  0.00000000  0.10715900  1
  O  O30  1  0.27182200  0.00000000  0.87934300  1
  O  O31  1  0.12952350  0.66692950  0.38723600  1
  O  O32  1  0.13132800  0.00000000  0.39037800  1
  O  O33  1  0.87100200  0.66745600  0.61284800  1
  O  O34  1  0.18977250  0.84227750  0.12250800  1
  O  O35  1  0.81705050  0.83733650  0.88371800  1
  O  O36  1  0.18977250  0.15772250  0.12250800  1
  O  O37  1  0.81705050  0.16266350  0.88371800  1
  O  O38  1  0.12952350  0.33307050  0.38723600  1
  O  O39  1  0.36807200  0.50000000  0.61028500  1
  O  O40  1  0.87100200  0.33254400  0.61284800  1
  O  O41  1  0.21645600  0.50000000  0.10715900  1
  O  O42  1  0.77182200  0.50000000  0.87934300  1
  O  O43  1  0.62952350  0.16692950  0.38723600  1
  O  O44  1  0.63132800  0.50000000  0.39037800  1
  O  O45  1  0.37100200  0.16745600  0.61284800  1
  O  O46  1  0.68977250  0.34227750  0.12250800  1
  O  O47  1  0.31705050  0.33733650  0.88371800  1
