# generated using pymatgen
data_Li6Mn5SbO12
_symmetry_space_group_name_H-M   'P 1'
_cell_length_a   5.55269400
_cell_length_b   9.07173600
_cell_length_c   10.44754596
_cell_angle_alpha   90.00000000
_cell_angle_beta   96.38137645
_cell_angle_gamma   90.00000000
_symmetry_Int_Tables_number   1
_chemical_formula_structural   Li6Mn5SbO12
_chemical_formula_sum   'Li12 Mn10 Sb2 O24'
_cell_volume   523.00906713
_cell_formula_units_Z   2
loop_
 _symmetry_equiv_pos_site_id
 _symmetry_equiv_pos_as_xyz
  1  'x, y, z'
loop_
 _atom_site_type_symbol
 _atom_site_label
 _atom_site_symmetry_multiplicity
 _atom_site_fract_x
 _atom_site_fract_y
 _atom_site_fract_z
 _atom_site_occupancy
  Li  Li0  1  0.73256500  0.83049500  0.71452900  1
  Li  Li1  1  0.76408300  0.00000000  0.28529700  1
  Li  Li2  1  0.26743500  0.83049500  0.28547100  1
  Li  Li3  1  0.73256500  0.16950500  0.71452900  1
  Li  Li4  1  0.23591700  0.00000000  0.71470300  1
  Li  Li5  1  0.26743500  0.16950500  0.28547100  1
  Li  Li6  1  0.23256500  0.33049500  0.71452900  1
  Li  Li7  1  0.26408300  0.50000000  0.28529700  1
  Li  Li8  1  0.76743500  0.33049500  0.28547100  1
  Li  Li9  1  0.23256500  0.66950500  0.71452900  1
  Li  Li10  1  0.73591700  0.50000000  0.71470300  1
  Li  Li11  1  0.76743500  0.66950500  0.28547100  1
  Mn  Mn12  1  0.50000000  0.66767100  0.50000000  1
  Mn  Mn13  1  0.50000000  0.00000000  0.50000000  1
  Mn  Mn14  1  0.50000000  0.33232900  0.50000000  1
  Mn  Mn15  1  0.50000000  0.83310100  0.00000000  1
  Mn  Mn16  1  0.50000000  0.16689900  0.00000000  1
  Mn  Mn17  1  0.00000000  0.16767100  0.50000000  1
  Mn  Mn18  1  0.00000000  0.50000000  0.50000000  1
  Mn  Mn19  1  0.00000000  0.83232900  0.50000000  1
  Mn  Mn20  1  0.00000000  0.33310100  0.00000000  1
  Mn  Mn21  1  0.00000000  0.66689900  0.00000000  1
  Sb  Sb22  1  0.00000000  0.00000000  0.00000000  1
  Sb  Sb23  1  0.50000000  0.50000000  0.00000000  1
  O  O24  1  0.16395700  0.16168800  0.10607800  1
  O  O25  1  0.83604300  0.16168800  0.89392200  1
  O  O26  1  0.60885200  0.82212300  0.38349100  1
  O  O27  1  0.89660400  0.00000000  0.60886200  1
  O  O28  1  0.39114800  0.82212300  0.61650900  1
  O  O29  1  0.70122800  0.00000000  0.09912300  1
  O  O30  1  0.29877200  0.00000000  0.90087700  1
  O  O31  1  0.60885200  0.17787700  0.38349100  1
  O  O32  1  0.10339600  0.00000000  0.39113800  1
  O  O33  1  0.39114800  0.17787700  0.61650900  1
  O  O34  1  0.16395700  0.83831200  0.10607800  1
  O  O35  1  0.83604300  0.83831200  0.89392200  1
  O  O36  1  0.66395700  0.66168800  0.10607800  1
  O  O37  1  0.33604300  0.66168800  0.89392200  1
  O  O38  1  0.10885200  0.32212300  0.38349100  1
  O  O39  1  0.39660400  0.50000000  0.60886200  1
  O  O40  1  0.89114800  0.32212300  0.61650900  1
  O  O41  1  0.20122800  0.50000000  0.09912300  1
  O  O42  1  0.79877200  0.50000000  0.90087700  1
  O  O43  1  0.10885200  0.67787700  0.38349100  1
  O  O44  1  0.60339600  0.50000000  0.39113800  1
  O  O45  1  0.89114800  0.67787700  0.61650900  1
  O  O46  1  0.66395700  0.33831200  0.10607800  1
  O  O47  1  0.33604300  0.33831200  0.89392200  1
