# generated using pymatgen
data_CoOF
_symmetry_space_group_name_H-M   'P 1'
_cell_length_a   4.64711200
_cell_length_b   2.94868400
_cell_length_c   18.50953315
_cell_angle_alpha   90.00000000
_cell_angle_beta   96.62234625
_cell_angle_gamma   90.00000000
_symmetry_Int_Tables_number   1
_chemical_formula_structural   CoOF
_chemical_formula_sum   'Co8 O8 F8'
_cell_volume   251.94135182
_cell_formula_units_Z   8
loop_
 _symmetry_equiv_pos_site_id
 _symmetry_equiv_pos_as_xyz
  1  'x, y, z'
loop_
 _atom_site_type_symbol
 _atom_site_label
 _atom_site_symmetry_multiplicity
 _atom_site_fract_x
 _atom_site_fract_y
 _atom_site_fract_z
 _atom_site_occupancy
  Co  Co0  1  0.04954800  0.00000000  0.99833100  1
  Co  Co1  1  0.01080000  0.00000000  0.24954000  1
  Co  Co2  1  0.99755300  0.00000000  0.50046900  1
  Co  Co3  1  0.97114100  0.00000000  0.75160400  1
  Co  Co4  1  0.51914600  0.50000000  0.12231300  1
  Co  Co5  1  0.50371900  0.50000000  0.37546300  1
  Co  Co6  1  0.48978500  0.50000000  0.62633800  1
  Co  Co7  1  0.44362100  0.50000000  0.87611900  1
  O  O8  1  0.20838800  0.50000000  0.95482300  1
  O  O9  1  0.33802000  0.00000000  0.07321900  1
  O  O10  1  0.30375600  0.00000000  0.57759300  1
  O  O11  1  0.25620300  0.00000000  0.82685900  1
  O  O12  1  0.31530800  0.00000000  0.32778100  1
  O  O13  1  0.71011200  0.00000000  0.17080700  1
  O  O14  1  0.69085700  0.00000000  0.42333300  1
  O  O15  1  0.67760700  0.00000000  0.67423400  1
  F  F16  1  0.20600000  0.50000000  0.20028200  1
  F  F17  1  0.19273400  0.50000000  0.45174600  1
  F  F18  1  0.16913700  0.50000000  0.70357400  1
  F  F19  1  0.70565000  0.00000000  0.92458200  1
  F  F20  1  0.85866800  0.50000000  0.04503500  1
  F  F21  1  0.81513100  0.50000000  0.29845400  1
  F  F22  1  0.80112100  0.50000000  0.54887800  1
  F  F23  1  0.76599700  0.50000000  0.79862300  1
