# generated using pymatgen
data_Li3Fe(PO4)2
_symmetry_space_group_name_H-M   'P 1'
_cell_length_a   8.89804244
_cell_length_b   8.89804244
_cell_length_c   20.33396601
_cell_angle_alpha   90.00000000
_cell_angle_beta   90.00000000
_cell_angle_gamma   120.00000000
_symmetry_Int_Tables_number   1
_chemical_formula_structural   Li3Fe(PO4)2
_chemical_formula_sum   'Li27 Fe9 P18 O72'
_cell_volume   1394.25326453
_cell_formula_units_Z   9
loop_
 _symmetry_equiv_pos_site_id
 _symmetry_equiv_pos_as_xyz
  1  'x, y, z'
loop_
 _atom_site_type_symbol
 _atom_site_label
 _atom_site_symmetry_multiplicity
 _atom_site_fract_x
 _atom_site_fract_y
 _atom_site_fract_z
 _atom_site_occupancy
  Li  Li0  1  0.73153533  0.07138567  0.41655467  1
  Li  Li1  1  0.61258300  0.71598900  0.57350000  1
  Li  Li2  1  0.10340600  0.38741700  0.57350000  1
  Li  Li3  1  0.00000000  0.00000000  0.99160333  1
  Li  Li4  1  0.00000000  0.00000000  0.84552800  1
  Li  Li5  1  0.00000000  0.00000000  0.50293400  1
  Li  Li6  1  0.92861433  0.66014967  0.41655467  1
  Li  Li7  1  0.33985033  0.26846467  0.41655467  1
  Li  Li8  1  0.28401100  0.89659400  0.57350000  1
  Li  Li9  1  0.39820200  0.40471900  0.74988800  1
  Li  Li10  1  0.27924967  0.04932233  0.90683333  1
  Li  Li11  1  0.77007267  0.72075033  0.90683333  1
  Li  Li12  1  0.66666667  0.33333333  0.32493667  1
  Li  Li13  1  0.66666667  0.33333333  0.17886133  1
  Li  Li14  1  0.66666667  0.33333333  0.83626733  1
  Li  Li15  1  0.59528100  0.99348300  0.74988800  1
  Li  Li16  1  0.00651700  0.60179800  0.74988800  1
  Li  Li17  1  0.95067767  0.22992733  0.90683333  1
  Li  Li18  1  0.06486867  0.73805233  0.08322133  1
  Li  Li19  1  0.94591633  0.38265567  0.24016667  1
  Li  Li20  1  0.43673933  0.05408367  0.24016667  1
  Li  Li21  1  0.33333333  0.66666667  0.65827000  1
  Li  Li22  1  0.33333333  0.66666667  0.51219467  1
  Li  Li23  1  0.33333333  0.66666667  0.16960067  1
  Li  Li24  1  0.26194767  0.32681633  0.08322133  1
  Li  Li25  1  0.67318367  0.93513133  0.08322133  1
  Li  Li26  1  0.61734433  0.56326067  0.24016667  1
  Fe  Fe27  1  0.00000000  0.00000000  0.64618100  1
  Fe  Fe28  1  0.00000000  0.00000000  0.14532200  1
  Fe  Fe29  1  0.00000000  0.00000000  0.35556333  1
  Fe  Fe30  1  0.66666667  0.33333333  0.97951433  1
  Fe  Fe31  1  0.66666667  0.33333333  0.47865533  1
  Fe  Fe32  1  0.66666667  0.33333333  0.68889667  1
  Fe  Fe33  1  0.33333333  0.66666667  0.31284767  1
  Fe  Fe34  1  0.33333333  0.66666667  0.81198867  1
  Fe  Fe35  1  0.33333333  0.66666667  0.02223000  1
  P  P36  1  0.66938200  0.03829300  0.58493800  1
  P  P37  1  0.63204867  0.66609633  0.41889733  1
  P  P38  1  0.03404767  0.36795133  0.41889733  1
  P  P39  1  0.96170700  0.63108900  0.58493800  1
  P  P40  1  0.36891100  0.33061800  0.58493800  1
  P  P41  1  0.33390367  0.96595233  0.41889733  1
  P  P42  1  0.33604867  0.37162633  0.91827133  1
  P  P43  1  0.29871533  0.99942967  0.75223067  1
  P  P44  1  0.70071433  0.70128467  0.75223067  1
  P  P45  1  0.62837367  0.96442233  0.91827133  1
  P  P46  1  0.03557767  0.66395133  0.91827133  1
  P  P47  1  0.00057033  0.29928567  0.75223067  1
  P  P48  1  0.00271533  0.70495967  0.25160467  1
  P  P49  1  0.96538200  0.33276300  0.08556400  1
  P  P50  1  0.36738100  0.03461800  0.08556400  1
  P  P51  1  0.29504033  0.29775567  0.25160467  1
  P  P52  1  0.70224433  0.99728467  0.25160467  1
  P  P53  1  0.66723700  0.63261900  0.08556400  1
  O  O54  1  0.50047600  0.86205800  0.59201500  1
  O  O55  1  0.84739900  0.34585800  0.41116900  1
  O  O56  1  0.79531600  0.98455800  0.31349400  1
  O  O57  1  0.46252233  0.32312467  0.52165067  1
  O  O58  1  0.82432533  0.00251267  0.57877867  1
  O  O59  1  0.12713833  0.45466467  0.48188067  1
  O  O60  1  0.00336867  0.19942533  0.69063933  1
  O  O61  1  0.82453833  0.82356367  0.42125467  1
  O  O62  1  0.65414200  0.50154100  0.41116900  1
  O  O63  1  0.32752633  0.87286167  0.48188067  1
  O  O64  1  0.80057467  0.80394333  0.69063933  1
  O  O65  1  0.99902533  0.17546167  0.42125467  1
  O  O66  1  0.99748733  0.82181267  0.57877867  1
  O  O67  1  0.18924200  0.20468400  0.31349400  1
  O  O68  1  0.67687533  0.13939767  0.52165067  1
  O  O69  1  0.17818733  0.17567467  0.57877867  1
  O  O70  1  0.36158200  0.49952400  0.59201500  1
  O  O71  1  0.86060233  0.53747767  0.52165067  1
  O  O72  1  0.01544200  0.81075800  0.31349400  1
  O  O73  1  0.17643633  0.00097467  0.42125467  1
  O  O74  1  0.54533533  0.67247367  0.48188067  1
  O  O75  1  0.19605667  0.99663133  0.69063933  1
  O  O76  1  0.13794200  0.63841800  0.59201500  1
  O  O77  1  0.49845900  0.15260100  0.41116900  1
  O  O78  1  0.16714267  0.19539133  0.92534833  1
  O  O79  1  0.51406567  0.67919133  0.74450233  1
  O  O80  1  0.46198267  0.31789133  0.64682733  1
  O  O81  1  0.12918900  0.65645800  0.85498400  1
  O  O82  1  0.49099200  0.33584600  0.91211200  1
  O  O83  1  0.79380500  0.78799800  0.81521400  1
  O  O84  1  0.67003533  0.53275867  0.02397267  1
  O  O85  1  0.49120500  0.15689700  0.75458800  1
  O  O86  1  0.32080867  0.83487433  0.74450233  1
  O  O87  1  0.99419300  0.20619500  0.81521400  1
  O  O88  1  0.46724133  0.13727667  0.02397267  1
  O  O89  1  0.66569200  0.50879500  0.75458800  1
  O  O90  1  0.66415400  0.15514600  0.91211200  1
  O  O91  1  0.85590867  0.53801733  0.64682733  1
  O  O92  1  0.34354200  0.47273100  0.85498400  1
  O  O93  1  0.84485400  0.50900800  0.91211200  1
  O  O94  1  0.02824867  0.83285733  0.92534833  1
  O  O95  1  0.52726900  0.87081100  0.85498400  1
  O  O96  1  0.68210867  0.14409133  0.64682733  1
  O  O97  1  0.84310300  0.33430800  0.75458800  1
  O  O98  1  0.21200200  0.00580700  0.81521400  1
  O  O99  1  0.86272333  0.32996467  0.02397267  1
  O  O100  1  0.80460867  0.97175133  0.92534833  1
  O  O101  1  0.16512567  0.48593433  0.74450233  1
  O  O102  1  0.83380933  0.52872467  0.25868167  1
  O  O103  1  0.18073233  0.01252467  0.07783567  1
  O  O104  1  0.12864933  0.65122467  0.98016067  1
  O  O105  1  0.79585567  0.98979133  0.18831733  1
  O  O106  1  0.15765867  0.66917933  0.24544533  1
  O  O107  1  0.46047167  0.12133133  0.14854733  1
  O  O108  1  0.33670200  0.86609200  0.35730600  1
  O  O109  1  0.15787167  0.49023033  0.08792133  1
  O  O110  1  0.98747533  0.16820767  0.07783567  1
  O  O111  1  0.66085967  0.53952833  0.14854733  1
  O  O112  1  0.13390800  0.47061000  0.35730600  1
  O  O113  1  0.33235867  0.84212833  0.08792133  1
  O  O114  1  0.33082067  0.48847933  0.24544533  1
  O  O115  1  0.52257533  0.87135067  0.98016067  1
  O  O116  1  0.01020867  0.80606433  0.18831733  1
  O  O117  1  0.51152067  0.84234133  0.24544533  1
  O  O118  1  0.69491533  0.16619067  0.25868167  1
  O  O119  1  0.19393567  0.20414433  0.18831733  1
  O  O120  1  0.34877533  0.47742467  0.98016067  1
  O  O121  1  0.50976967  0.66764133  0.08792133  1
  O  O122  1  0.87866867  0.33914033  0.14854733  1
  O  O123  1  0.52939000  0.66329800  0.35730600  1
  O  O124  1  0.47127533  0.30508467  0.25868167  1
  O  O125  1  0.83179233  0.81926767  0.07783567  1
