# generated using pymatgen
data_V6O7F5
_symmetry_space_group_name_H-M   'P 1'
_cell_length_a   9.06174600
_cell_length_b   6.56714000
_cell_length_c   7.35758973
_cell_angle_alpha   90.00000000
_cell_angle_beta   110.62002158
_cell_angle_gamma   90.00000000
_symmetry_Int_Tables_number   1
_chemical_formula_structural   V6O7F5
_chemical_formula_sum   'V12 O14 F10'
_cell_volume   409.79827417
_cell_formula_units_Z   2
loop_
 _symmetry_equiv_pos_site_id
 _symmetry_equiv_pos_as_xyz
  1  'x, y, z'
loop_
 _atom_site_type_symbol
 _atom_site_label
 _atom_site_symmetry_multiplicity
 _atom_site_fract_x
 _atom_site_fract_y
 _atom_site_fract_z
 _atom_site_occupancy
  V  V0  1  0.19301800  0.50000000  0.17194100  1
  V  V1  1  0.83739900  0.50000000  0.33195200  1
  V  V2  1  0.15299200  0.50000000  0.68419800  1
  V  V3  1  0.80428500  0.50000000  0.80852800  1
  V  V4  1  0.49211500  0.50000000  0.49331400  1
  V  V5  1  0.50356700  0.50000000  0.99572700  1
  V  V6  1  0.69301800  0.00000000  0.17194100  1
  V  V7  1  0.33739900  0.00000000  0.33195200  1
  V  V8  1  0.65299200  0.00000000  0.68419800  1
  V  V9  1  0.30428500  0.00000000  0.80852800  1
  V  V10  1  0.99211500  0.00000000  0.49331400  1
  V  V11  1  0.00356700  0.00000000  0.99572700  1
  O  O12  1  0.84142450  0.20223650  0.33802500  1
  O  O13  1  0.15847750  0.19513850  0.66433800  1
  O  O14  1  0.73536600  0.50000000  0.02795800  1
  O  O15  1  0.28101800  0.50000000  0.97087200  1
  O  O16  1  0.92917000  0.50000000  0.64695700  1
  O  O17  1  0.84142450  0.79776350  0.33802500  1
  O  O18  1  0.15847750  0.80486150  0.66433800  1
  O  O19  1  0.34142450  0.70223650  0.33802500  1
  O  O20  1  0.65847750  0.69513850  0.66433800  1
  O  O21  1  0.23536600  0.00000000  0.02795800  1
  O  O22  1  0.78101800  0.00000000  0.97087200  1
  O  O23  1  0.42917000  0.00000000  0.64695700  1
  O  O24  1  0.34142450  0.29776350  0.33802500  1
  O  O25  1  0.65847750  0.30486150  0.66433800  1
  F  F26  1  0.07308200  0.50000000  0.36947200  1
  F  F27  1  0.38921000  0.50000000  0.70024400  1
  F  F28  1  0.60129800  0.50000000  0.29160500  1
  F  F29  1  0.00383950  0.30543050  0.00125300  1
  F  F30  1  0.00383950  0.69456950  0.00125300  1
  F  F31  1  0.57308200  0.00000000  0.36947200  1
  F  F32  1  0.88921000  0.00000000  0.70024400  1
  F  F33  1  0.10129800  0.00000000  0.29160500  1
  F  F34  1  0.50383950  0.80543050  0.00125300  1
  F  F35  1  0.50383950  0.19456950  0.00125300  1
