# generated using pymatgen
data_Li4Co3Ni3(SbO8)2
_symmetry_space_group_name_H-M   'P 1'
_cell_length_a   10.10225967
_cell_length_b   5.76955333
_cell_length_c   9.50160992
_cell_angle_alpha   90.00000000
_cell_angle_beta   91.80744999
_cell_angle_gamma   90.00000000
_symmetry_Int_Tables_number   1
_chemical_formula_structural   Li4Co3Ni3(SbO8)2
_chemical_formula_sum   'Li8 Co6 Ni6 Sb4 O32'
_cell_volume   553.53079472
_cell_formula_units_Z   2
loop_
 _symmetry_equiv_pos_site_id
 _symmetry_equiv_pos_as_xyz
  1  'x, y, z'
loop_
 _atom_site_type_symbol
 _atom_site_label
 _atom_site_symmetry_multiplicity
 _atom_site_fract_x
 _atom_site_fract_y
 _atom_site_fract_z
 _atom_site_occupancy
  Li  Li0  1  0.16296200  0.50000000  0.90082200  1
  Li  Li1  1  0.00275300  0.00000000  0.99179000  1
  Li  Li2  1  0.00458200  0.00000000  0.49195700  1
  Li  Li3  1  0.33338100  0.00000000  0.40048900  1
  Li  Li4  1  0.66296200  0.00000000  0.90082200  1
  Li  Li5  1  0.50275300  0.50000000  0.99179000  1
  Li  Li6  1  0.50458200  0.50000000  0.49195700  1
  Li  Li7  1  0.83338100  0.50000000  0.40048900  1
  Co  Co8  1  0.08553500  0.25448500  0.21483700  1
  Co  Co9  1  0.08553500  0.74551500  0.21483700  1
  Co  Co10  1  0.17127600  0.00000000  0.71517600  1
  Co  Co11  1  0.58553500  0.75448500  0.21483700  1
  Co  Co12  1  0.58553500  0.24551500  0.21483700  1
  Co  Co13  1  0.67127600  0.50000000  0.71517600  1
  Ni  Ni14  1  0.33190750  0.50000000  0.21321000  1
  Ni  Ni15  1  0.41606300  0.75263900  0.71410200  1
  Ni  Ni16  1  0.41606300  0.24736100  0.71410200  1
  Ni  Ni17  1  0.83190750  0.00000000  0.21321000  1
  Ni  Ni18  1  0.91606300  0.25263900  0.71410200  1
  Ni  Ni19  1  0.91606300  0.74736100  0.71410200  1
  Sb  Sb20  1  0.16927400  0.50000000  0.48633600  1
  Sb  Sb21  1  0.32959400  0.00000000  0.98953300  1
  Sb  Sb22  1  0.66927400  0.00000000  0.48633600  1
  Sb  Sb23  1  0.82959400  0.50000000  0.98953300  1
  O  O24  1  0.08775000  0.24439500  0.59475500  1
  O  O25  1  0.01663450  0.50000000  0.33363100  1
  O  O26  1  0.16612800  0.50000000  0.11693600  1
  O  O27  1  0.00142100  0.00000000  0.30306000  1
  O  O28  1  0.00641150  0.00000000  0.80207900  1
  O  O29  1  0.08775000  0.75560500  0.59475500  1
  O  O30  1  0.23936400  0.26975600  0.34173700  1
  O  O31  1  0.23936400  0.73024400  0.34173700  1
  O  O32  1  0.16220250  0.00000000  0.10304600  1
  O  O33  1  0.34396050  0.50000000  0.59407900  1
  O  O34  1  0.24913200  0.77618600  0.84390700  1
  O  O35  1  0.24913200  0.22381400  0.84390700  1
  O  O36  1  0.32879850  0.00000000  0.61819100  1
  O  O37  1  0.42132500  0.74317600  0.09362400  1
  O  O38  1  0.48002100  0.00000000  0.84139100  1
  O  O39  1  0.42132500  0.25682400  0.09362400  1
  O  O40  1  0.58775000  0.74439500  0.59475500  1
  O  O41  1  0.51663450  0.00000000  0.33363100  1
  O  O42  1  0.66612800  0.00000000  0.11693600  1
  O  O43  1  0.50142100  0.50000000  0.30306000  1
  O  O44  1  0.50641150  0.50000000  0.80207900  1
  O  O45  1  0.58775000  0.25560500  0.59475500  1
  O  O46  1  0.73936400  0.76975600  0.34173700  1
  O  O47  1  0.73936400  0.23024400  0.34173700  1
  O  O48  1  0.66220250  0.50000000  0.10304600  1
  O  O49  1  0.84396050  0.00000000  0.59407900  1
  O  O50  1  0.74913200  0.27618600  0.84390700  1
  O  O51  1  0.74913200  0.72381400  0.84390700  1
  O  O52  1  0.82879850  0.50000000  0.61819100  1
  O  O53  1  0.92132500  0.24317600  0.09362400  1
  O  O54  1  0.98002100  0.50000000  0.84139100  1
  O  O55  1  0.92132500  0.75682400  0.09362400  1
