# generated using pymatgen
data_Li3Cr4P2O8F9
_symmetry_space_group_name_H-M   'P 1'
_cell_length_a   6.94415800
_cell_length_b   14.37121000
_cell_length_c   7.16433843
_cell_angle_alpha   90.00000000
_cell_angle_beta   103.54969338
_cell_angle_gamma   90.00000000
_symmetry_Int_Tables_number   1
_chemical_formula_structural   Li3Cr4P2O8F9
_chemical_formula_sum   'Li6 Cr8 P4 O16 F18'
_cell_volume   695.07222535
_cell_formula_units_Z   2
loop_
 _symmetry_equiv_pos_site_id
 _symmetry_equiv_pos_as_xyz
  1  'x, y, z'
loop_
 _atom_site_type_symbol
 _atom_site_label
 _atom_site_symmetry_multiplicity
 _atom_site_fract_x
 _atom_site_fract_y
 _atom_site_fract_z
 _atom_site_occupancy
  Li  Li0  1  0.96747600  0.25000000  0.44617500  1
  Li  Li1  1  0.21542400  0.49510300  0.67598400  1
  Li  Li2  1  0.21542400  0.00489700  0.67598400  1
  Li  Li3  1  0.78457600  0.50489700  0.32401600  1
  Li  Li4  1  0.78457600  0.99510300  0.32401600  1
  Li  Li5  1  0.03252400  0.75000000  0.55382500  1
  Cr  Cr6  1  0.03712300  0.25000000  0.06680000  1
  Cr  Cr7  1  0.47484000  0.75000000  0.93175600  1
  Cr  Cr8  1  0.31014000  0.61872500  0.31278200  1
  Cr  Cr9  1  0.31014000  0.88127500  0.31278200  1
  Cr  Cr10  1  0.68986000  0.11872500  0.68721800  1
  Cr  Cr11  1  0.68986000  0.38127500  0.68721800  1
  Cr  Cr12  1  0.52516000  0.25000000  0.06824400  1
  Cr  Cr13  1  0.96287700  0.75000000  0.93320000  1
  P  P14  1  0.33258400  0.10082300  0.31385300  1
  P  P15  1  0.33258400  0.39917700  0.31385300  1
  P  P16  1  0.66741600  0.89917700  0.68614700  1
  P  P17  1  0.66741600  0.60082300  0.68614700  1
  O  O18  1  0.13898700  0.15907300  0.27481300  1
  O  O19  1  0.13898700  0.34092700  0.27481300  1
  O  O20  1  0.28334800  0.49343200  0.21121300  1
  O  O21  1  0.28334800  0.00656800  0.21121300  1
  O  O22  1  0.50083700  0.64764000  0.76071500  1
  O  O23  1  0.50083700  0.85236000  0.76071500  1
  O  O24  1  0.40727500  0.08809800  0.53576300  1
  O  O25  1  0.40727500  0.41190200  0.53576300  1
  O  O26  1  0.59272500  0.91190200  0.46423700  1
  O  O27  1  0.59272500  0.58809800  0.46423700  1
  O  O28  1  0.49916300  0.14764000  0.23928500  1
  O  O29  1  0.49916300  0.35236000  0.23928500  1
  O  O30  1  0.71665200  0.50656800  0.78878700  1
  O  O31  1  0.71665200  0.99343200  0.78878700  1
  O  O32  1  0.86101300  0.65907300  0.72518700  1
  O  O33  1  0.86101300  0.84092700  0.72518700  1
  F  F34  1  0.19094400  0.75000000  0.81613600  1
  F  F35  1  0.25099300  0.25000000  0.93982700  1
  F  F36  1  0.13559600  0.58668900  0.48489000  1
  F  F37  1  0.13559600  0.91331100  0.48489000  1
  F  F38  1  0.06193400  0.65099600  0.12216000  1
  F  F39  1  0.06193400  0.84900400  0.12216000  1
  F  F40  1  0.29711500  0.75000000  0.40735300  1
  F  F41  1  0.55154500  0.15285900  0.88405500  1
  F  F42  1  0.55154500  0.34714100  0.88405500  1
  F  F43  1  0.44845500  0.65285900  0.11594500  1
  F  F44  1  0.44845500  0.84714100  0.11594500  1
  F  F45  1  0.70288500  0.25000000  0.59264700  1
  F  F46  1  0.93806600  0.15099600  0.87784000  1
  F  F47  1  0.93806600  0.34900400  0.87784000  1
  F  F48  1  0.86440400  0.08668900  0.51511000  1
  F  F49  1  0.86440400  0.41331100  0.51511000  1
  F  F50  1  0.74900700  0.75000000  0.06017300  1
  F  F51  1  0.80905600  0.25000000  0.18386400  1
