# generated using pymatgen
data_Al15Fe9O32
_symmetry_space_group_name_H-M   'P 1'
_cell_length_a   10.15905600
_cell_length_b   5.81336800
_cell_length_c   19.30884358
_cell_angle_alpha   90.00000000
_cell_angle_beta   99.64867085
_cell_angle_gamma   90.00000000
_symmetry_Int_Tables_number   1
_chemical_formula_structural   Al15Fe9O32
_chemical_formula_sum   'Al30 Fe18 O64'
_cell_volume   1124.21673163
_cell_formula_units_Z   2
loop_
 _symmetry_equiv_pos_site_id
 _symmetry_equiv_pos_as_xyz
  1  'x, y, z'
loop_
 _atom_site_type_symbol
 _atom_site_label
 _atom_site_symmetry_multiplicity
 _atom_site_fract_x
 _atom_site_fract_y
 _atom_site_fract_z
 _atom_site_occupancy
  Al  Al0  1  0.75000000  0.75000000  0.50000000  1
  Al  Al1  1  0.74980100  0.50000000  0.75079500  1
  Al  Al2  1  0.62722100  0.00000000  0.37430200  1
  Al  Al3  1  0.87277900  0.50000000  0.62569800  1
  Al  Al4  1  0.75000000  0.25000000  0.50000000  1
  Al  Al5  1  0.50003950  0.24939950  0.75044800  1
  Al  Al6  1  0.50003950  0.75060050  0.75044800  1
  Al  Al7  1  0.62525700  0.50000000  0.87527300  1
  Al  Al8  1  0.99996050  0.25060050  0.24955200  1
  Al  Al9  1  0.75000000  0.25000000  0.00000000  1
  Al  Al10  1  0.75000000  0.75000000  0.00000000  1
  Al  Al11  1  0.75019900  0.00000000  0.24920500  1
  Al  Al12  1  0.00000000  0.00000000  0.00000000  1
  Al  Al13  1  0.87474300  0.00000000  0.12472700  1
  Al  Al14  1  0.99996050  0.74939950  0.24955200  1
  Al  Al15  1  0.25000000  0.25000000  0.50000000  1
  Al  Al16  1  0.24980100  0.00000000  0.75079500  1
  Al  Al17  1  0.12722100  0.50000000  0.37430200  1
  Al  Al18  1  0.37277900  0.00000000  0.62569800  1
  Al  Al19  1  0.25000000  0.75000000  0.50000000  1
  Al  Al20  1  0.00003950  0.74939950  0.75044800  1
  Al  Al21  1  0.00003950  0.25060050  0.75044800  1
  Al  Al22  1  0.12525700  0.00000000  0.87527300  1
  Al  Al23  1  0.49996050  0.75060050  0.24955200  1
  Al  Al24  1  0.25000000  0.75000000  0.00000000  1
  Al  Al25  1  0.25000000  0.25000000  0.00000000  1
  Al  Al26  1  0.25019900  0.50000000  0.24920500  1
  Al  Al27  1  0.50000000  0.50000000  0.00000000  1
  Al  Al28  1  0.37474300  0.50000000  0.12472700  1
  Al  Al29  1  0.49996050  0.24939950  0.24955200  1
  Fe  Fe30  1  0.96954800  0.00000000  0.40669900  1
  Fe  Fe31  1  0.00000000  0.50000000  0.50000000  1
  Fe  Fe32  1  0.53045200  0.50000000  0.59330100  1
  Fe  Fe33  1  0.96851400  0.50000000  0.90695400  1
  Fe  Fe34  1  0.71816700  0.00000000  0.65707400  1
  Fe  Fe35  1  0.53148600  0.00000000  0.09304600  1
  Fe  Fe36  1  0.78232500  0.00000000  0.84335300  1
  Fe  Fe37  1  0.71767500  0.50000000  0.15664700  1
  Fe  Fe38  1  0.78183300  0.50000000  0.34292600  1
  Fe  Fe39  1  0.46954800  0.50000000  0.40669900  1
  Fe  Fe40  1  0.50000000  0.00000000  0.50000000  1
  Fe  Fe41  1  0.03045200  0.00000000  0.59330100  1
  Fe  Fe42  1  0.46851400  0.00000000  0.90695400  1
  Fe  Fe43  1  0.21816700  0.50000000  0.65707400  1
  Fe  Fe44  1  0.03148600  0.50000000  0.09304600  1
  Fe  Fe45  1  0.28232500  0.50000000  0.84335300  1
  Fe  Fe46  1  0.21767500  0.00000000  0.15664700  1
  Fe  Fe47  1  0.28183300  0.00000000  0.34292600  1
  O  O48  1  0.57902250  0.77822350  0.44004900  1
  O  O49  1  0.79494000  0.00000000  0.44060100  1
  O  O50  1  0.81421300  0.50000000  0.44918200  1
  O  O51  1  0.70506000  0.50000000  0.55939900  1
  O  O52  1  0.92097750  0.72177650  0.55995100  1
  O  O53  1  0.92097750  0.27822350  0.55995100  1
  O  O54  1  0.57902250  0.22177650  0.44004900  1
  O  O55  1  0.82361000  0.71888500  0.69252200  1
  O  O56  1  0.79229200  0.50000000  0.94095700  1
  O  O57  1  0.54217500  0.00000000  0.69181400  1
  O  O58  1  0.68578700  0.00000000  0.55081800  1
  O  O59  1  0.93250000  0.50000000  0.80140300  1
  O  O60  1  0.56719100  0.50000000  0.69950100  1
  O  O61  1  0.67506000  0.27947900  0.80890000  1
  O  O62  1  0.67506000  0.72052100  0.80890000  1
  O  O63  1  0.92535500  0.21966400  0.05816000  1
  O  O64  1  0.57464500  0.28033600  0.94184000  1
  O  O65  1  0.82361000  0.28111500  0.69252200  1
  O  O66  1  0.57464500  0.71966400  0.94184000  1
  O  O67  1  0.68293800  0.50000000  0.05098800  1
  O  O68  1  0.81706200  0.00000000  0.94901200  1
  O  O69  1  0.95825700  0.00000000  0.80941500  1
  O  O70  1  0.56750000  0.00000000  0.19859700  1
  O  O71  1  0.70770800  0.00000000  0.05904300  1
  O  O72  1  0.92535500  0.78033600  0.05816000  1
  O  O73  1  0.67639000  0.78111500  0.30747800  1
  O  O74  1  0.82494000  0.77947900  0.19110000  1
  O  O75  1  0.82494000  0.22052100  0.19110000  1
  O  O76  1  0.54174300  0.50000000  0.19058500  1
  O  O77  1  0.93280900  0.00000000  0.30049900  1
  O  O78  1  0.95782500  0.50000000  0.30818600  1
  O  O79  1  0.67639000  0.21888500  0.30747800  1
  O  O80  1  0.07902250  0.27822350  0.44004900  1
  O  O81  1  0.29494000  0.50000000  0.44060100  1
  O  O82  1  0.31421300  0.00000000  0.44918200  1
  O  O83  1  0.20506000  0.00000000  0.55939900  1
  O  O84  1  0.42097750  0.22177650  0.55995100  1
  O  O85  1  0.42097750  0.77822350  0.55995100  1
  O  O86  1  0.07902250  0.72177650  0.44004900  1
  O  O87  1  0.32361000  0.21888500  0.69252200  1
  O  O88  1  0.29229200  0.00000000  0.94095700  1
  O  O89  1  0.04217500  0.50000000  0.69181400  1
  O  O90  1  0.18578700  0.50000000  0.55081800  1
  O  O91  1  0.43250000  0.00000000  0.80140300  1
  O  O92  1  0.06719100  0.00000000  0.69950100  1
  O  O93  1  0.17506000  0.77947900  0.80890000  1
  O  O94  1  0.17506000  0.22052100  0.80890000  1
  O  O95  1  0.42535500  0.71966400  0.05816000  1
  O  O96  1  0.07464500  0.78033600  0.94184000  1
  O  O97  1  0.32361000  0.78111500  0.69252200  1
  O  O98  1  0.07464500  0.21966400  0.94184000  1
  O  O99  1  0.18293800  0.00000000  0.05098800  1
  O  O100  1  0.31706200  0.50000000  0.94901200  1
  O  O101  1  0.45825700  0.50000000  0.80941500  1
  O  O102  1  0.06750000  0.50000000  0.19859700  1
  O  O103  1  0.20770800  0.50000000  0.05904300  1
  O  O104  1  0.42535500  0.28033600  0.05816000  1
  O  O105  1  0.17639000  0.28111500  0.30747800  1
  O  O106  1  0.32494000  0.27947900  0.19110000  1
  O  O107  1  0.32494000  0.72052100  0.19110000  1
  O  O108  1  0.04174300  0.00000000  0.19058500  1
  O  O109  1  0.43280900  0.50000000  0.30049900  1
  O  O110  1  0.45782500  0.00000000  0.30818600  1
  O  O111  1  0.17639000  0.71888500  0.30747800  1
