# generated using pymatgen
data_VOF2
_symmetry_space_group_name_H-M   'P 1'
_cell_length_a   3.08513720
_cell_length_b   3.73186612
_cell_length_c   9.67251416
_cell_angle_alpha   90.00000000
_cell_angle_beta   90.00000000
_cell_angle_gamma   90.00000000
_symmetry_Int_Tables_number   1
_chemical_formula_structural   VOF2
_chemical_formula_sum   'V2 O2 F4'
_cell_volume   111.36274070
_cell_formula_units_Z   2
loop_
 _symmetry_equiv_pos_site_id
 _symmetry_equiv_pos_as_xyz
  1  'x, y, z'
loop_
 _atom_site_type_symbol
 _atom_site_label
 _atom_site_symmetry_multiplicity
 _atom_site_fract_x
 _atom_site_fract_y
 _atom_site_fract_z
 _atom_site_occupancy
  V  V0  1  0.50000000  0.45912300  0.50000000  1
  V  V1  1  0.00000000  0.95912300  0.00000000  1
  O  O2  1  0.50000000  0.00850600  0.50000000  1
  O  O3  1  0.00000000  0.50850600  0.00000000  1
  F  F4  1  0.50000000  0.01298850  0.87100975  1
  F  F5  1  0.00000000  0.51298850  0.62899025  1
  F  F6  1  0.00000000  0.51298850  0.37100975  1
  F  F7  1  0.50000000  0.01298850  0.12899025  1
