# generated using pymatgen
data_Fe5O3F7
_symmetry_space_group_name_H-M   'P 1'
_cell_length_a   6.83666600
_cell_length_b   6.75128000
_cell_length_c   15.61296542
_cell_angle_alpha   90.00000000
_cell_angle_beta   90.24126151
_cell_angle_gamma   90.00000000
_symmetry_Int_Tables_number   1
_chemical_formula_structural   Fe5O3F7
_chemical_formula_sum   'Fe20 O12 F28'
_cell_volume   720.62949052
_cell_formula_units_Z   4
loop_
 _symmetry_equiv_pos_site_id
 _symmetry_equiv_pos_as_xyz
  1  'x, y, z'
loop_
 _atom_site_type_symbol
 _atom_site_label
 _atom_site_symmetry_multiplicity
 _atom_site_fract_x
 _atom_site_fract_y
 _atom_site_fract_z
 _atom_site_occupancy
  Fe  Fe0  1  0.50940600  0.46777900  0.19167000  1
  Fe  Fe1  1  0.50000000  0.50643500  0.00000000  1
  Fe  Fe2  1  0.49059400  0.46777900  0.80833000  1
  Fe  Fe3  1  0.49990500  0.52591200  0.60176200  1
  Fe  Fe4  1  0.50009500  0.52591200  0.39823800  1
  Fe  Fe5  1  0.46761450  0.00859250  0.10365100  1
  Fe  Fe6  1  0.49535250  0.00121650  0.69992900  1
  Fe  Fe7  1  0.53238550  0.00859250  0.89634900  1
  Fe  Fe8  1  0.50000000  0.97483300  0.50000000  1
  Fe  Fe9  1  0.50464750  0.00121650  0.30007100  1
  Fe  Fe10  1  0.00940600  0.96777900  0.19167000  1
  Fe  Fe11  1  0.00000000  0.00643500  0.00000000  1
  Fe  Fe12  1  0.99059400  0.96777900  0.80833000  1
  Fe  Fe13  1  0.99990500  0.02591200  0.60176200  1
  Fe  Fe14  1  0.00009500  0.02591200  0.39823800  1
  Fe  Fe15  1  0.96761450  0.50859250  0.10365100  1
  Fe  Fe16  1  0.99535250  0.50121650  0.69992900  1
  Fe  Fe17  1  0.03238550  0.50859250  0.89634900  1
  Fe  Fe18  1  0.00000000  0.47483300  0.50000000  1
  Fe  Fe19  1  0.00464750  0.50121650  0.30007100  1
  O  O20  1  0.81551450  0.99655350  0.89905400  1
  O  O21  1  0.49914250  0.82229750  0.60242900  1
  O  O22  1  0.50085750  0.82229750  0.39757100  1
  O  O23  1  0.49782650  0.18386050  0.20618700  1
  O  O24  1  0.50217350  0.18386050  0.79381300  1
  O  O25  1  0.18448550  0.99655350  0.10094600  1
  O  O26  1  0.31551450  0.49655350  0.89905400  1
  O  O27  1  0.99914250  0.32229750  0.60242900  1
  O  O28  1  0.00085750  0.32229750  0.39757100  1
  O  O29  1  0.99782650  0.68386050  0.20618700  1
  O  O30  1  0.00217350  0.68386050  0.79381300  1
  O  O31  1  0.68448550  0.49655350  0.10094600  1
  F  F32  1  0.79504100  0.99689700  0.10271600  1
  F  F33  1  0.80011250  0.99728750  0.70494100  1
  F  F34  1  0.79307450  0.00874650  0.49984000  1
  F  F35  1  0.80309150  0.99733350  0.29333600  1
  F  F36  1  0.49588550  0.79175250  0.20520300  1
  F  F37  1  0.50000000  0.82048200  0.00000000  1
  F  F38  1  0.50411450  0.79175250  0.79479700  1
  F  F39  1  0.50000000  0.18974400  0.00000000  1
  F  F40  1  0.49886000  0.20602500  0.59852400  1
  F  F41  1  0.50114000  0.20602500  0.40147600  1
  F  F42  1  0.19690850  0.99733350  0.70666400  1
  F  F43  1  0.20495900  0.99689700  0.89728400  1
  F  F44  1  0.19988750  0.99728750  0.29505900  1
  F  F45  1  0.20692550  0.00874650  0.50016000  1
  F  F46  1  0.29504100  0.49689700  0.10271600  1
  F  F47  1  0.30011250  0.49728750  0.70494100  1
  F  F48  1  0.29307450  0.50874650  0.49984000  1
  F  F49  1  0.30309150  0.49733350  0.29333600  1
  F  F50  1  0.99588550  0.29175250  0.20520300  1
  F  F51  1  0.00000000  0.32048200  0.00000000  1
  F  F52  1  0.00411450  0.29175250  0.79479700  1
  F  F53  1  0.00000000  0.68974400  0.00000000  1
  F  F54  1  0.99886000  0.70602500  0.59852400  1
  F  F55  1  0.00114000  0.70602500  0.40147600  1
  F  F56  1  0.69690850  0.49733350  0.70666400  1
  F  F57  1  0.70495900  0.49689700  0.89728400  1
  F  F58  1  0.69988750  0.49728750  0.29505900  1
  F  F59  1  0.70692550  0.50874650  0.50016000  1
