# generated using pymatgen
data_Li3CrBPO7
_symmetry_space_group_name_H-M   'P 1'
_cell_length_a   5.04986620
_cell_length_b   6.38948400
_cell_length_c   8.39173946
_cell_angle_alpha   90.00000000
_cell_angle_beta   95.59099849
_cell_angle_gamma   90.00000000
_symmetry_Int_Tables_number   1
_chemical_formula_structural   Li3CrBPO7
_chemical_formula_sum   'Li6 Cr2 B2 P2 O14'
_cell_volume   269.48007480
_cell_formula_units_Z   2
loop_
 _symmetry_equiv_pos_site_id
 _symmetry_equiv_pos_as_xyz
  1  'x, y, z'
loop_
 _atom_site_type_symbol
 _atom_site_label
 _atom_site_symmetry_multiplicity
 _atom_site_fract_x
 _atom_site_fract_y
 _atom_site_fract_z
 _atom_site_occupancy
  Li  Li0  1  0.74044000  0.75000000  0.09410150  1
  Li  Li1  1  0.24609900  0.00520800  0.23517850  1
  Li  Li2  1  0.24609900  0.49479200  0.23517850  1
  Li  Li3  1  0.75390100  0.50520800  0.76482150  1
  Li  Li4  1  0.75390100  0.99479200  0.76482150  1
  Li  Li5  1  0.25956000  0.25000000  0.90589850  1
  Cr  Cr6  1  0.71225400  0.25000000  0.32407650  1
  Cr  Cr7  1  0.28774600  0.75000000  0.67592350  1
  B  B8  1  0.79387300  0.25000000  0.04360050  1
  B  B9  1  0.20612700  0.75000000  0.95639950  1
  P  P10  1  0.76865400  0.75000000  0.41934550  1
  P  P11  1  0.23134600  0.25000000  0.58065450  1
  O  O12  1  0.14345900  0.75000000  0.10942850  1
  O  O13  1  0.53607600  0.25000000  0.09377150  1
  O  O14  1  0.99054000  0.25000000  0.17509650  1
  O  O15  1  0.67856300  0.93760300  0.30876650  1
  O  O16  1  0.67856300  0.56239700  0.30876650  1
  O  O17  1  0.07490700  0.75000000  0.45874050  1
  O  O18  1  0.36206800  0.25000000  0.42250850  1
  O  O19  1  0.63793200  0.75000000  0.57749150  1
  O  O20  1  0.92509300  0.25000000  0.54125950  1
  O  O21  1  0.32143700  0.43760300  0.69123350  1
  O  O22  1  0.32143700  0.06239700  0.69123350  1
  O  O23  1  0.00946000  0.75000000  0.82490350  1
  O  O24  1  0.46392400  0.75000000  0.90622850  1
  O  O25  1  0.85654100  0.25000000  0.89057150  1
