# generated using pymatgen
data_RbFeSe2O7
_symmetry_space_group_name_H-M   'P 1'
_cell_length_a   5.52024797
_cell_length_b   5.52024797
_cell_length_c   41.96970968
_cell_angle_alpha   90.00000000
_cell_angle_beta   90.00000000
_cell_angle_gamma   120.00000000
_symmetry_Int_Tables_number   1
_chemical_formula_structural   RbFeSe2O7
_chemical_formula_sum   'Rb6 Fe6 Se12 O42'
_cell_volume   1107.60210007
_cell_formula_units_Z   6
loop_
 _symmetry_equiv_pos_site_id
 _symmetry_equiv_pos_as_xyz
  1  'x, y, z'
loop_
 _atom_site_type_symbol
 _atom_site_label
 _atom_site_symmetry_multiplicity
 _atom_site_fract_x
 _atom_site_fract_y
 _atom_site_fract_z
 _atom_site_occupancy
  Rb  Rb0  1  0.00000000  0.00000000  0.00000000  1
  Rb  Rb1  1  0.33333333  0.66666667  0.16666667  1
  Rb  Rb2  1  0.66666667  0.33333333  0.33333333  1
  Rb  Rb3  1  1.00000000  1.00000000  0.50000000  1
  Rb  Rb4  1  0.33333333  0.66666667  0.66666667  1
  Rb  Rb5  1  0.66666667  0.33333333  0.83333333  1
  Fe  Fe6  1  0.00000000  0.00000000  0.09883800  1
  Fe  Fe7  1  0.66666667  0.33333333  0.23449533  1
  Fe  Fe8  1  0.66666667  0.33333333  0.43217133  1
  Fe  Fe9  1  0.33333333  0.66666667  0.56782867  1
  Fe  Fe10  1  0.33333333  0.66666667  0.76550467  1
  Fe  Fe11  1  0.00000000  0.00000000  0.90116200  1
  Se  Se12  1  0.33333333  0.66666667  0.05284967  1
  Se  Se13  1  0.00000000  0.00000000  0.22830700  1
  Se  Se14  1  0.33333333  0.66666667  0.28048367  1
  Se  Se15  1  0.66666667  0.33333333  0.10502633  1
  Se  Se16  1  0.00000000  0.00000000  0.38618300  1
  Se  Se17  1  0.66666667  0.33333333  0.56164033  1
  Se  Se18  1  0.00000000  0.00000000  0.61381700  1
  Se  Se19  1  0.33333333  0.66666667  0.43835967  1
  Se  Se20  1  0.66666667  0.33333333  0.71951633  1
  Se  Se21  1  0.33333333  0.66666667  0.89497367  1
  Se  Se22  1  0.66666667  0.33333333  0.94715033  1
  Se  Se23  1  0.00000000  0.00000000  0.77169300  1
  O  O24  1  0.16749633  0.83250367  0.06632567  1
  O  O25  1  0.31969200  0.15984600  0.20862000  1
  O  O26  1  0.34697467  0.17348733  0.12471333  1
  O  O27  1  0.82651267  0.17348733  0.12471333  1
  O  O28  1  0.84015400  0.15984600  0.20862000  1
  O  O29  1  0.49917033  0.99834067  0.26700767  1
  O  O30  1  0.82651267  0.65302533  0.12471333  1
  O  O31  1  0.33333333  0.66666667  0.31954267  1
  O  O32  1  0.16749633  0.33499267  0.06632567  1
  O  O33  1  0.00165933  0.50082967  0.26700767  1
  O  O34  1  0.66500733  0.83250367  0.06632567  1
  O  O35  1  0.84015400  0.68030800  0.20862000  1
  O  O36  1  0.33333333  0.66666667  0.01379067  1
  O  O37  1  0.49917033  0.50082967  0.26700767  1
  O  O38  1  0.83416300  0.16583700  0.39965900  1
  O  O39  1  0.98635867  0.49317933  0.54195333  1
  O  O40  1  0.01364133  0.50682067  0.45804667  1
  O  O41  1  0.49317933  0.50682067  0.45804667  1
  O  O42  1  0.50682067  0.49317933  0.54195333  1
  O  O43  1  0.16583700  0.33167400  0.60034100  1
  O  O44  1  0.49317933  0.98635867  0.45804667  1
  O  O45  1  0.00000000  0.00000000  0.65287600  1
  O  O46  1  0.83416300  0.66832600  0.39965900  1
  O  O47  1  0.66832600  0.83416300  0.60034100  1
  O  O48  1  0.33167400  0.16583700  0.39965900  1
  O  O49  1  0.50682067  0.01364133  0.54195333  1
  O  O50  1  0.00000000  0.00000000  0.34712400  1
  O  O51  1  0.16583700  0.83416300  0.60034100  1
  O  O52  1  0.50082967  0.49917033  0.73299233  1
  O  O53  1  0.65302533  0.82651267  0.87528667  1
  O  O54  1  0.68030800  0.84015400  0.79138000  1
  O  O55  1  0.15984600  0.84015400  0.79138000  1
  O  O56  1  0.17348733  0.82651267  0.87528667  1
  O  O57  1  0.83250367  0.66500733  0.93367433  1
  O  O58  1  0.15984600  0.31969200  0.79138000  1
  O  O59  1  0.66666667  0.33333333  0.98620933  1
  O  O60  1  0.50082967  0.00165933  0.73299233  1
  O  O61  1  0.33499267  0.16749633  0.93367433  1
  O  O62  1  0.99834067  0.49917033  0.73299233  1
  O  O63  1  0.17348733  0.34697467  0.87528667  1
  O  O64  1  0.66666667  0.33333333  0.68045733  1
  O  O65  1  0.83250367  0.16749633  0.93367433  1
