# generated using pymatgen
data_LiAgF3
_symmetry_space_group_name_H-M   'P 1'
_cell_length_a   7.86370000
_cell_length_b   10.44417800
_cell_length_c   3.20346500
_cell_angle_alpha   90.00000000
_cell_angle_beta   90.00000000
_cell_angle_gamma   90.00000000
_symmetry_Int_Tables_number   1
_chemical_formula_structural   LiAgF3
_chemical_formula_sum   'Li4 Ag4 F12'
_cell_volume   263.10020417
_cell_formula_units_Z   4
loop_
 _symmetry_equiv_pos_site_id
 _symmetry_equiv_pos_as_xyz
  1  'x, y, z'
loop_
 _atom_site_type_symbol
 _atom_site_label
 _atom_site_symmetry_multiplicity
 _atom_site_fract_x
 _atom_site_fract_y
 _atom_site_fract_z
 _atom_site_occupancy
  Li  Li0  1  0.25000000  0.25000000  0.00000000  1
  Li  Li1  1  0.25000000  0.75000000  0.00000000  1
  Li  Li2  1  0.75000000  0.75000000  0.00000000  1
  Li  Li3  1  0.75000000  0.25000000  0.00000000  1
  Ag  Ag4  1  0.50000000  0.00000000  0.50000000  1
  Ag  Ag5  1  0.00000000  0.00000000  0.50000000  1
  Ag  Ag6  1  0.00000000  0.50000000  0.50000000  1
  Ag  Ag7  1  0.50000000  0.50000000  0.50000000  1
  F  F8  1  0.50000000  0.85637800  0.00000000  1
  F  F9  1  0.18782150  0.13853650  0.50000000  1
  F  F10  1  0.81217850  0.13853650  0.50000000  1
  F  F11  1  0.18782150  0.86146350  0.50000000  1
  F  F12  1  0.81217850  0.86146350  0.50000000  1
  F  F13  1  0.50000000  0.14362200  0.00000000  1
  F  F14  1  0.00000000  0.35637800  0.00000000  1
  F  F15  1  0.68782150  0.63853650  0.50000000  1
  F  F16  1  0.31217850  0.63853650  0.50000000  1
  F  F17  1  0.68782150  0.36146350  0.50000000  1
  F  F18  1  0.31217850  0.36146350  0.50000000  1
  F  F19  1  0.00000000  0.64362200  0.00000000  1
