# generated using pymatgen
data_Na4MnO4
_symmetry_space_group_name_H-M   'P 1'
_cell_length_a   6.33791902
_cell_length_b   5.70318100
_cell_length_c   9.85391984
_cell_angle_alpha   90.00000000
_cell_angle_beta   129.64370875
_cell_angle_gamma   90.00000000
_symmetry_Int_Tables_number   1
_chemical_formula_structural   Na4MnO4
_chemical_formula_sum   'Na8 Mn2 O8'
_cell_volume   274.27023590
_cell_formula_units_Z   2
loop_
 _symmetry_equiv_pos_site_id
 _symmetry_equiv_pos_as_xyz
  1  'x, y, z'
loop_
 _atom_site_type_symbol
 _atom_site_label
 _atom_site_symmetry_multiplicity
 _atom_site_fract_x
 _atom_site_fract_y
 _atom_site_fract_z
 _atom_site_occupancy
  Na  Na0  1  0.71051000  0.39435700  0.66542650  1
  Na  Na1  1  0.71051000  0.60564300  0.16542650  1
  Na  Na2  1  0.03481500  0.81124300  0.72615000  1
  Na  Na3  1  0.03481500  0.18875700  0.22615000  1
  Na  Na4  1  0.54273350  0.87871300  0.31510700  1
  Na  Na5  1  0.54273350  0.12128700  0.81510700  1
  Na  Na6  1  0.26344850  0.19744900  0.00133100  1
  Na  Na7  1  0.26344850  0.80255100  0.50133100  1
  Mn  Mn8  1  0.98618750  0.68235200  0.99644700  1
  Mn  Mn9  1  0.98618750  0.31764800  0.49644700  1
  O  O10  1  0.28785950  0.75845600  0.02518200  1
  O  O11  1  0.28785950  0.24154400  0.52518200  1
  O  O12  1  0.91067800  0.62661300  0.47622450  1
  O  O13  1  0.91067800  0.37338700  0.97622450  1
  O  O14  1  0.70223300  0.22634800  0.26927050  1
  O  O15  1  0.70223300  0.77365200  0.76927050  1
  O  O16  1  0.08462000  0.19964600  0.70433400  1
  O  O17  1  0.08462000  0.80035400  0.20433400  1
