# generated using pymatgen
data_Fe10O11F9
_symmetry_space_group_name_H-M   'P 1'
_cell_length_a   6.49652200
_cell_length_b   6.95601200
_cell_length_c   15.30827395
_cell_angle_alpha   90.00000000
_cell_angle_beta   90.18862240
_cell_angle_gamma   90.00000000
_symmetry_Int_Tables_number   1
_chemical_formula_structural   Fe10O11F9
_chemical_formula_sum   'Fe20 O22 F18'
_cell_volume   691.77539070
_cell_formula_units_Z   2
loop_
 _symmetry_equiv_pos_site_id
 _symmetry_equiv_pos_as_xyz
  1  'x, y, z'
loop_
 _atom_site_type_symbol
 _atom_site_label
 _atom_site_symmetry_multiplicity
 _atom_site_fract_x
 _atom_site_fract_y
 _atom_site_fract_z
 _atom_site_occupancy
  Fe  Fe0  1  0.50527000  0.49099600  0.20554900  1
  Fe  Fe1  1  0.50000000  0.49996200  0.00000000  1
  Fe  Fe2  1  0.49473000  0.49099600  0.79445100  1
  Fe  Fe3  1  0.02853200  0.97709100  0.59886100  1
  Fe  Fe4  1  0.97146800  0.97709100  0.40113900  1
  Fe  Fe5  1  0.50083350  0.99598150  0.09868400  1
  Fe  Fe6  1  0.48924700  0.02734400  0.70801500  1
  Fe  Fe7  1  0.49916650  0.99598150  0.90131600  1
  Fe  Fe8  1  0.50000000  0.02425600  0.50000000  1
  Fe  Fe9  1  0.51075300  0.02734400  0.29198500  1
  Fe  Fe10  1  0.00527000  0.99099600  0.20554900  1
  Fe  Fe11  1  0.00000000  0.99996200  0.00000000  1
  Fe  Fe12  1  0.99473000  0.99099600  0.79445100  1
  Fe  Fe13  1  0.52853200  0.47709100  0.59886100  1
  Fe  Fe14  1  0.47146800  0.47709100  0.40113900  1
  Fe  Fe15  1  0.00083350  0.49598150  0.09868400  1
  Fe  Fe16  1  0.98924700  0.52734400  0.70801500  1
  Fe  Fe17  1  0.99916650  0.49598150  0.90131600  1
  Fe  Fe18  1  0.00000000  0.52425600  0.50000000  1
  Fe  Fe19  1  0.01075300  0.52734400  0.29198500  1
  O  O20  1  0.50404500  0.30916800  0.70112300  1
  O  O21  1  0.50000000  0.30468700  0.50000000  1
  O  O22  1  0.49595500  0.30916800  0.29887700  1
  O  O23  1  0.70152750  0.00097450  0.19234600  1
  O  O24  1  0.69544000  0.99742600  0.99989000  1
  O  O25  1  0.69371950  0.00049550  0.80571500  1
  O  O26  1  0.67805000  0.00036600  0.39863100  1
  O  O27  1  0.30628050  0.00049550  0.19428500  1
  O  O28  1  0.30456000  0.99742600  0.00011000  1
  O  O29  1  0.29847250  0.00097450  0.80765400  1
  O  O30  1  0.32195000  0.00036600  0.60136900  1
  O  O31  1  0.00404500  0.80916800  0.70112300  1
  O  O32  1  0.00000000  0.80468700  0.50000000  1
  O  O33  1  0.99595500  0.80916800  0.29887700  1
  O  O34  1  0.20152750  0.50097450  0.19234600  1
  O  O35  1  0.19544000  0.49742600  0.99989000  1
  O  O36  1  0.19371950  0.50049550  0.80571500  1
  O  O37  1  0.17805000  0.50036600  0.39863100  1
  O  O38  1  0.80628050  0.50049550  0.19428500  1
  O  O39  1  0.80456000  0.49742600  0.00011000  1
  O  O40  1  0.79847250  0.50097450  0.80765400  1
  O  O41  1  0.82195000  0.50036600  0.60136900  1
  F  F42  1  0.50311000  0.30700800  0.09742600  1
  F  F43  1  0.49689000  0.30700800  0.90257400  1
  F  F44  1  0.70869800  0.00298000  0.60217200  1
  F  F45  1  0.29130200  0.00298000  0.39782800  1
  F  F46  1  0.50269150  0.68939450  0.09838100  1
  F  F47  1  0.50365300  0.69260300  0.69925200  1
  F  F48  1  0.49730850  0.68939450  0.90161900  1
  F  F49  1  0.49634700  0.69260300  0.30074800  1
  F  F50  1  0.50000000  0.68743900  0.50000000  1
  F  F51  1  0.00311000  0.80700800  0.09742600  1
  F  F52  1  0.99689000  0.80700800  0.90257400  1
  F  F53  1  0.20869800  0.50298000  0.60217200  1
  F  F54  1  0.79130200  0.50298000  0.39782800  1
  F  F55  1  0.00269150  0.18939450  0.09838100  1
  F  F56  1  0.00365300  0.19260300  0.69925200  1
  F  F57  1  0.99730850  0.18939450  0.90161900  1
  F  F58  1  0.99634700  0.19260300  0.30074800  1
  F  F59  1  0.00000000  0.18743900  0.50000000  1
