# generated using pymatgen
data_Sc16O15
_symmetry_space_group_name_H-M   'P 1'
_cell_length_a   6.33913789
_cell_length_b   6.33913789
_cell_length_c   31.12839292
_cell_angle_alpha   90.00000000
_cell_angle_beta   90.00000000
_cell_angle_gamma   120.00000000
_symmetry_Int_Tables_number   1
_chemical_formula_structural   Sc16O15
_chemical_formula_sum   'Sc48 O45'
_cell_volume   1083.29746869
_cell_formula_units_Z   3
loop_
 _symmetry_equiv_pos_site_id
 _symmetry_equiv_pos_as_xyz
  1  'x, y, z'
loop_
 _atom_site_type_symbol
 _atom_site_label
 _atom_site_symmetry_multiplicity
 _atom_site_fract_x
 _atom_site_fract_y
 _atom_site_fract_z
 _atom_site_occupancy
  Sc  Sc0  1  0.83175167  0.16824833  0.04195733  1
  Sc  Sc1  1  0.83175167  0.66350333  0.04195733  1
  Sc  Sc2  1  0.33017000  0.16508500  0.29137600  1
  Sc  Sc3  1  0.33333333  0.66666667  0.29186567  1
  Sc  Sc4  1  0.33333333  0.66666667  0.04146767  1
  Sc  Sc5  1  0.33649667  0.16824833  0.04195733  1
  Sc  Sc6  1  0.16695367  0.33390733  0.20864933  1
  Sc  Sc7  1  0.16695367  0.83304633  0.20864933  1
  Sc  Sc8  1  0.83491500  0.16508500  0.29137600  1
  Sc  Sc9  1  0.83491500  0.66983000  0.29137600  1
  Sc  Sc10  1  0.00000000  0.00000000  0.12463300  1
  Sc  Sc11  1  0.66609267  0.83304633  0.20864933  1
  Sc  Sc12  1  0.00057400  0.50028700  0.12468400  1
  Sc  Sc13  1  0.66666667  0.33333333  0.20870033  1
  Sc  Sc14  1  0.49971300  0.99942600  0.12468400  1
  Sc  Sc15  1  0.49971300  0.50028700  0.12468400  1
  Sc  Sc16  1  0.49841833  0.50158167  0.37529067  1
  Sc  Sc17  1  0.49841833  0.99683667  0.37529067  1
  Sc  Sc18  1  0.99683667  0.49841833  0.62470933  1
  Sc  Sc19  1  0.00000000  0.00000000  0.62519900  1
  Sc  Sc20  1  0.00000000  0.00000000  0.37480100  1
  Sc  Sc21  1  0.00316333  0.50158167  0.37529067  1
  Sc  Sc22  1  0.83362033  0.66724067  0.54198267  1
  Sc  Sc23  1  0.83362033  0.16637967  0.54198267  1
  Sc  Sc24  1  0.50158167  0.49841833  0.62470933  1
  Sc  Sc25  1  0.50158167  0.00316333  0.62470933  1
  Sc  Sc26  1  0.66666667  0.33333333  0.45796633  1
  Sc  Sc27  1  0.33275933  0.16637967  0.54198267  1
  Sc  Sc28  1  0.66724067  0.83362033  0.45801733  1
  Sc  Sc29  1  0.33333333  0.66666667  0.54203367  1
  Sc  Sc30  1  0.16637967  0.33275933  0.45801733  1
  Sc  Sc31  1  0.16637967  0.83362033  0.45801733  1
  Sc  Sc32  1  0.16508500  0.83491500  0.70862400  1
  Sc  Sc33  1  0.16508500  0.33017000  0.70862400  1
  Sc  Sc34  1  0.66350333  0.83175167  0.95804267  1
  Sc  Sc35  1  0.66666667  0.33333333  0.95853233  1
  Sc  Sc36  1  0.66666667  0.33333333  0.70813433  1
  Sc  Sc37  1  0.66983000  0.83491500  0.70862400  1
  Sc  Sc38  1  0.50028700  0.00057400  0.87531600  1
  Sc  Sc39  1  0.50028700  0.49971300  0.87531600  1
  Sc  Sc40  1  0.16824833  0.83175167  0.95804267  1
  Sc  Sc41  1  0.16824833  0.33649667  0.95804267  1
  Sc  Sc42  1  0.33333333  0.66666667  0.79129967  1
  Sc  Sc43  1  0.99942600  0.49971300  0.87531600  1
  Sc  Sc44  1  0.33390733  0.16695367  0.79135067  1
  Sc  Sc45  1  0.00000000  0.00000000  0.87536700  1
  Sc  Sc46  1  0.83304633  0.66609267  0.79135067  1
  Sc  Sc47  1  0.83304633  0.16695367  0.79135067  1
  O  O48  1  0.00000000  0.50000000  0.00000000  1
  O  O49  1  0.50000000  0.00000000  0.00000000  1
  O  O50  1  0.49934067  0.99868133  0.24965833  1
  O  O51  1  0.49934067  0.50065933  0.24965833  1
  O  O52  1  0.50000000  0.50000000  0.00000000  1
  O  O53  1  0.33333333  0.16666667  0.16666667  1
  O  O54  1  0.00000000  0.00000000  0.24958000  1
  O  O55  1  0.00131867  0.50065933  0.24965833  1
  O  O56  1  0.33333333  0.66666667  0.16666667  1
  O  O57  1  0.16732600  0.83267400  0.08367500  1
  O  O58  1  0.83333333  0.16666667  0.16666667  1
  O  O59  1  0.16732600  0.33465200  0.08367500  1
  O  O60  1  0.83333333  0.66666667  0.16666667  1
  O  O61  1  0.66666667  0.33333333  0.08375333  1
  O  O62  1  0.66534800  0.83267400  0.08367500  1
  O  O63  1  0.66666667  0.83333333  0.33333333  1
  O  O64  1  0.16666667  0.33333333  0.33333333  1
  O  O65  1  0.16600733  0.33201467  0.58299167  1
  O  O66  1  0.16600733  0.83399267  0.58299167  1
  O  O67  1  0.16666667  0.83333333  0.33333333  1
  O  O68  1  0.00000000  0.50000000  0.50000000  1
  O  O69  1  0.66666667  0.33333333  0.58291333  1
  O  O70  1  0.66798533  0.83399267  0.58299167  1
  O  O71  1  1.00000000  1.00000000  0.50000000  1
  O  O72  1  0.83399267  0.16600733  0.41700833  1
  O  O73  1  0.50000000  0.50000000  0.50000000  1
  O  O74  1  0.83399267  0.66798533  0.41700833  1
  O  O75  1  0.50000000  0.00000000  0.50000000  1
  O  O76  1  0.33333333  0.66666667  0.41708667  1
  O  O77  1  0.33201467  0.16600733  0.41700833  1
  O  O78  1  0.33333333  0.16666667  0.66666667  1
  O  O79  1  0.83333333  0.66666667  0.66666667  1
  O  O80  1  0.83267400  0.66534800  0.91632500  1
  O  O81  1  0.83267400  0.16732600  0.91632500  1
  O  O82  1  0.83333333  0.16666667  0.66666667  1
  O  O83  1  0.66666667  0.83333333  0.83333333  1
  O  O84  1  0.33333333  0.66666667  0.91624667  1
  O  O85  1  0.33465200  0.16732600  0.91632500  1
  O  O86  1  0.66666667  0.33333333  0.83333333  1
  O  O87  1  0.50065933  0.49934067  0.75034167  1
  O  O88  1  0.16666667  0.83333333  0.83333333  1
  O  O89  1  0.50065933  0.00131867  0.75034167  1
  O  O90  1  0.16666667  0.33333333  0.83333333  1
  O  O91  1  0.00000000  0.00000000  0.75042000  1
  O  O92  1  0.99868133  0.49934067  0.75034167  1
