# generated using pymatgen
data_Li4Mn2Cr3Co3O16
_symmetry_space_group_name_H-M   'P 1'
_cell_length_a   9.93627000
_cell_length_b   5.77401000
_cell_length_c   9.28373366
_cell_angle_alpha   90.00000000
_cell_angle_beta   90.16320283
_cell_angle_gamma   90.00000000
_symmetry_Int_Tables_number   1
_chemical_formula_structural   Li4Mn2Cr3Co3O16
_chemical_formula_sum   'Li8 Mn4 Cr6 Co6 O32'
_cell_volume   532.62534270
_cell_formula_units_Z   2
loop_
 _symmetry_equiv_pos_site_id
 _symmetry_equiv_pos_as_xyz
  1  'x, y, z'
loop_
 _atom_site_type_symbol
 _atom_site_label
 _atom_site_symmetry_multiplicity
 _atom_site_fract_x
 _atom_site_fract_y
 _atom_site_fract_z
 _atom_site_occupancy
  Li  Li0  1  0.66880900  0.00000000  0.10546700  1
  Li  Li1  1  0.99145400  0.00000000  0.00492300  1
  Li  Li2  1  0.99239500  0.00000000  0.50297600  1
  Li  Li3  1  0.33483400  0.00000000  0.59965700  1
  Li  Li4  1  0.16880900  0.50000000  0.10546700  1
  Li  Li5  1  0.49145400  0.50000000  0.00492300  1
  Li  Li6  1  0.49239500  0.50000000  0.50297600  1
  Li  Li7  1  0.83483400  0.50000000  0.59965700  1
  Mn  Mn8  1  0.66950500  0.00000000  0.51391300  1
  Mn  Mn9  1  0.33484700  0.00000000  0.01745100  1
  Mn  Mn10  1  0.16950500  0.50000000  0.51391300  1
  Mn  Mn11  1  0.83484700  0.50000000  0.01745100  1
  Cr  Cr12  1  0.58432950  0.75589150  0.78861800  1
  Cr  Cr13  1  0.58432950  0.24410850  0.78861800  1
  Cr  Cr14  1  0.16893900  0.00000000  0.29139600  1
  Cr  Cr15  1  0.08432950  0.25589150  0.78861800  1
  Cr  Cr16  1  0.08432950  0.74410850  0.78861800  1
  Cr  Cr17  1  0.66893900  0.50000000  0.29139600  1
  Co  Co18  1  0.82906400  0.00000000  0.78696500  1
  Co  Co19  1  0.41371300  0.75535400  0.28629600  1
  Co  Co20  1  0.41371300  0.24464600  0.28629600  1
  Co  Co21  1  0.32906400  0.50000000  0.78696500  1
  Co  Co22  1  0.91371300  0.25535400  0.28629600  1
  Co  Co23  1  0.91371300  0.74464600  0.28629600  1
  O  O24  1  0.58406800  0.74612800  0.39785200  1
  O  O25  1  0.52065900  0.00000000  0.65433600  1
  O  O26  1  0.66980200  0.00000000  0.89803400  1
  O  O27  1  0.99602500  0.00000000  0.69131300  1
  O  O28  1  0.99606900  0.00000000  0.19261400  1
  O  O29  1  0.58406800  0.25387200  0.39785200  1
  O  O30  1  0.74290200  0.78266300  0.65744800  1
  O  O31  1  0.74290200  0.21733700  0.65744800  1
  O  O32  1  0.16532500  0.00000000  0.90143300  1
  O  O33  1  0.83308700  0.00000000  0.39726400  1
  O  O34  1  0.26088500  0.78237900  0.15888100  1
  O  O35  1  0.26088500  0.21762100  0.15888100  1
  O  O36  1  0.33714600  0.00000000  0.39311700  1
  O  O37  1  0.41454250  0.74919050  0.90062500  1
  O  O38  1  0.48021200  0.00000000  0.16287500  1
  O  O39  1  0.41454250  0.25080950  0.90062500  1
  O  O40  1  0.08406800  0.24612800  0.39785200  1
  O  O41  1  0.02065900  0.50000000  0.65433600  1
  O  O42  1  0.16980200  0.50000000  0.89803400  1
  O  O43  1  0.49602500  0.50000000  0.69131300  1
  O  O44  1  0.49606900  0.50000000  0.19261400  1
  O  O45  1  0.08406800  0.75387200  0.39785200  1
  O  O46  1  0.24290200  0.28266300  0.65744800  1
  O  O47  1  0.24290200  0.71733700  0.65744800  1
  O  O48  1  0.66532500  0.50000000  0.90143300  1
  O  O49  1  0.33308700  0.50000000  0.39726400  1
  O  O50  1  0.76088500  0.28237900  0.15888100  1
  O  O51  1  0.76088500  0.71762100  0.15888100  1
  O  O52  1  0.83714600  0.50000000  0.39311700  1
  O  O53  1  0.91454250  0.24919050  0.90062500  1
  O  O54  1  0.98021200  0.50000000  0.16287500  1
  O  O55  1  0.91454250  0.75080950  0.90062500  1
