# generated using pymatgen
data_Li8BiS6
_symmetry_space_group_name_H-M   'P 1'
_cell_length_a   6.93305790
_cell_length_b   6.93305790
_cell_length_c   19.28063814
_cell_angle_alpha   90.00000000
_cell_angle_beta   90.00000000
_cell_angle_gamma   120.00000000
_symmetry_Int_Tables_number   1
_chemical_formula_structural   Li8BiS6
_chemical_formula_sum   'Li24 Bi3 S18'
_cell_volume   802.60468333
_cell_formula_units_Z   3
loop_
 _symmetry_equiv_pos_site_id
 _symmetry_equiv_pos_as_xyz
  1  'x, y, z'
loop_
 _atom_site_type_symbol
 _atom_site_label
 _atom_site_symmetry_multiplicity
 _atom_site_fract_x
 _atom_site_fract_y
 _atom_site_fract_z
 _atom_site_occupancy
  Li  Li0  1  0.66285600  0.64488000  0.12146900  1
  Li  Li1  1  0.68464267  0.99618933  0.21186433  1
  Li  Li2  1  0.31154667  0.31535733  0.21186433  1
  Li  Li3  1  0.33333333  0.66666667  0.01239467  1
  Li  Li4  1  0.33333333  0.66666667  0.32093867  1
  Li  Li5  1  0.35512000  0.01797600  0.12146900  1
  Li  Li6  1  0.98202400  0.33714400  0.12146900  1
  Li  Li7  1  0.00381067  0.68845333  0.21186433  1
  Li  Li8  1  0.32952267  0.97821333  0.45480233  1
  Li  Li9  1  0.35130933  0.32952267  0.54519767  1
  Li  Li10  1  0.97821333  0.64869067  0.54519767  1
  Li  Li11  1  0.00000000  0.00000000  0.34572800  1
  Li  Li12  1  0.00000000  0.00000000  0.65427200  1
  Li  Li13  1  0.02178667  0.35130933  0.45480233  1
  Li  Li14  1  0.64869067  0.67047733  0.45480233  1
  Li  Li15  1  0.67047733  0.02178667  0.54519767  1
  Li  Li16  1  0.99618933  0.31154667  0.78813567  1
  Li  Li17  1  0.01797600  0.66285600  0.87853100  1
  Li  Li18  1  0.64488000  0.98202400  0.87853100  1
  Li  Li19  1  0.66666667  0.33333333  0.67906133  1
  Li  Li20  1  0.66666667  0.33333333  0.98760533  1
  Li  Li21  1  0.68845333  0.68464267  0.78813567  1
  Li  Li22  1  0.31535733  0.00381067  0.78813567  1
  Li  Li23  1  0.33714400  0.35512000  0.87853100  1
  Bi  Bi24  1  0.00000000  0.00000000  0.00000000  1
  Bi  Bi25  1  0.66666667  0.33333333  0.33333333  1
  Bi  Bi26  1  0.33333333  0.66666667  0.66666667  1
  S  S27  1  0.65162967  0.64970133  0.25045733  1
  S  S28  1  0.66859500  0.98496300  0.08287600  1
  S  S29  1  0.31636800  0.33140500  0.08287600  1
  S  S30  1  0.35029867  0.00192833  0.25045733  1
  S  S31  1  0.99807167  0.34837033  0.25045733  1
  S  S32  1  0.01503700  0.68363200  0.08287600  1
  S  S33  1  0.31829633  0.98303467  0.58379067  1
  S  S34  1  0.33526167  0.31829633  0.41620933  1
  S  S35  1  0.98303467  0.66473833  0.41620933  1
  S  S36  1  0.01696533  0.33526167  0.58379067  1
  S  S37  1  0.66473833  0.68170367  0.58379067  1
  S  S38  1  0.68170367  0.01696533  0.41620933  1
  S  S39  1  0.98496300  0.31636800  0.91712400  1
  S  S40  1  0.00192833  0.65162967  0.74954267  1
  S  S41  1  0.64970133  0.99807167  0.74954267  1
  S  S42  1  0.68363200  0.66859500  0.91712400  1
  S  S43  1  0.33140500  0.01503700  0.91712400  1
  S  S44  1  0.34837033  0.35029867  0.74954267  1
