# generated using pymatgen
data_TlAsO4
_symmetry_space_group_name_H-M   'P 1'
_cell_length_a   4.99534600
_cell_length_b   4.99534600
_cell_length_c   11.84947400
_cell_angle_alpha   90.00000000
_cell_angle_beta   90.00000000
_cell_angle_gamma   90.00000000
_symmetry_Int_Tables_number   1
_chemical_formula_structural   TlAsO4
_chemical_formula_sum   'Tl4 As4 O16'
_cell_volume   295.68563214
_cell_formula_units_Z   4
loop_
 _symmetry_equiv_pos_site_id
 _symmetry_equiv_pos_as_xyz
  1  'x, y, z'
loop_
 _atom_site_type_symbol
 _atom_site_label
 _atom_site_symmetry_multiplicity
 _atom_site_fract_x
 _atom_site_fract_y
 _atom_site_fract_z
 _atom_site_occupancy
  Tl  Tl0  1  0.50000000  0.50000000  0.00000000  1
  Tl  Tl1  1  0.50000000  0.00000000  0.25000000  1
  Tl  Tl2  1  0.00000000  0.00000000  0.50000000  1
  Tl  Tl3  1  0.00000000  0.50000000  0.75000000  1
  As  As4  1  0.00000000  0.00000000  0.00000000  1
  As  As5  1  0.00000000  0.50000000  0.25000000  1
  As  As6  1  0.50000000  0.50000000  0.50000000  1
  As  As7  1  0.50000000  0.00000000  0.75000000  1
  O  O8  1  0.65618550  0.24941050  0.42240650  1
  O  O9  1  0.15618550  0.24941050  0.32759350  1
  O  O10  1  0.74941050  0.34381450  0.17240650  1
  O  O11  1  0.74941050  0.84381450  0.07759350  1
  O  O12  1  0.25058950  0.15618550  0.07759350  1
  O  O13  1  0.25058950  0.65618550  0.17240650  1
  O  O14  1  0.84381450  0.75058950  0.32759350  1
  O  O15  1  0.34381450  0.75058950  0.42240650  1
  O  O16  1  0.15618550  0.74941050  0.92240650  1
  O  O17  1  0.65618550  0.74941050  0.82759350  1
  O  O18  1  0.24941050  0.84381450  0.67240650  1
  O  O19  1  0.24941050  0.34381450  0.57759350  1
  O  O20  1  0.75058950  0.65618550  0.57759350  1
  O  O21  1  0.75058950  0.15618550  0.67240650  1
  O  O22  1  0.34381450  0.25058950  0.82759350  1
  O  O23  1  0.84381450  0.25058950  0.92240650  1
