# generated using pymatgen
data_LiV2P4(HO8)2
_symmetry_space_group_name_H-M   'P 1'
_cell_length_a   7.77858693
_cell_length_b   9.28229811
_cell_length_c   9.28830758
_cell_angle_alpha   116.36518751
_cell_angle_beta   102.10492056
_cell_angle_gamma   101.93347364
_symmetry_Int_Tables_number   1
_chemical_formula_structural   LiV2P4(HO8)2
_chemical_formula_sum   'Li2 V4 P8 H4 O32'
_cell_volume   552.02658025
_cell_formula_units_Z   2
loop_
 _symmetry_equiv_pos_site_id
 _symmetry_equiv_pos_as_xyz
  1  'x, y, z'
loop_
 _atom_site_type_symbol
 _atom_site_label
 _atom_site_symmetry_multiplicity
 _atom_site_fract_x
 _atom_site_fract_y
 _atom_site_fract_z
 _atom_site_occupancy
  Li  Li0  1  0.64384972  0.63027506  0.45924608  1
  Li  Li1  1  0.85606728  0.12807773  0.65832150  1
  V  V2  1  0.49577404  0.01088411  0.24026325  1
  V  V3  1  0.01251524  0.50669613  0.49998506  1
  V  V4  1  0.99806485  0.49737399  0.99765293  1
  V  V5  1  0.49551611  0.99628383  0.75351632  1
  P  P6  1  0.73200417  0.35329858  0.25309812  1
  P  P7  1  0.73503878  0.35012426  0.75201734  1
  P  P8  1  0.76744413  0.84869582  0.64426144  1
  P  P9  1  0.76540688  0.85307408  0.14640897  1
  P  P10  1  0.23193367  0.14934017  0.35448984  1
  P  P11  1  0.23394163  0.15324701  0.85077548  1
  P  P12  1  0.26841211  0.64872577  0.75007955  1
  P  P13  1  0.26410434  0.65559590  0.23833577  1
  H  H14  1  0.48720533  0.50834217  0.75939661  1
  H  H15  1  0.50773063  0.49446077  0.24230911  1
  H  H16  1  0.01263747  0.00721006  0.48424812  1
  H  H17  1  0.98400975  0.99238854  0.01727415  1
  O  O18  1  0.94794327  0.94850980  0.12393242  1
  O  O19  1  0.65544009  0.95223306  0.17660295  1
  O  O20  1  0.36675673  0.16651969  0.01403942  1
  O  O21  1  0.32340485  0.83490936  0.21968004  1
  O  O22  1  0.84811951  0.44532561  0.62594373  1
  O  O23  1  0.83981951  0.44181527  0.12600572  1
  O  O24  1  0.67003620  0.17349295  0.27182765  1
  O  O25  1  0.63528771  0.82924067  0.48598577  1
  O  O26  1  0.56584233  0.45861063  0.67704726  1
  O  O27  1  0.55315349  0.45261204  0.17959700  1
  O  O28  1  0.34085158  0.05965121  0.31490685  1
  O  O29  1  0.17167151  0.32809610  0.19429435  1
  O  O30  1  0.18999168  0.33264865  0.69729868  1
  O  O31  1  0.93627139  0.95824824  0.61349106  1
  O  O32  1  0.86969227  0.33701333  0.92800674  1
  O  O33  1  0.86227921  0.32915396  0.43057394  1
  O  O34  1  0.13692305  0.66807844  0.57517038  1
  O  O35  1  0.12767877  0.66605349  0.06790420  1
  O  O36  1  0.05352328  0.04768978  0.37854694  1
  O  O37  1  0.82686152  0.66817105  0.80314660  1
  O  O38  1  0.81218121  0.67959574  0.31076867  1
  O  O39  1  0.65676864  0.93899981  0.68092311  1
  O  O40  1  0.44720155  0.54676018  0.82541889  1
  O  O41  1  0.44099248  0.55595263  0.31438474  1
  O  O42  1  0.36502650  0.16567854  0.50976395  1
  O  O43  1  0.31878670  0.82548105  0.72825730  1
  O  O44  1  0.15798107  0.55414519  0.87782588  1
  O  O45  1  0.15115982  0.56833605  0.36375419  1
  O  O46  1  0.69136408  0.17306181  0.77085155  1
  O  O47  1  0.63585686  0.83379689  0.99154675  1
  O  O48  1  0.35202357  0.06111159  0.82312936  1
  O  O49  1  0.05745244  0.05694320  0.87667629  1
