# generated using pymatgen
data_K2TbO3
_symmetry_space_group_name_H-M   'P 1'
_cell_length_a   6.31716400
_cell_length_b   10.97782000
_cell_length_c   12.61152519
_cell_angle_alpha   90.00000000
_cell_angle_beta   99.93927101
_cell_angle_gamma   90.00000000
_symmetry_Int_Tables_number   1
_chemical_formula_structural   K2TbO3
_chemical_formula_sum   'K16 Tb8 O24'
_cell_volume   861.46620090
_cell_formula_units_Z   8
loop_
 _symmetry_equiv_pos_site_id
 _symmetry_equiv_pos_as_xyz
  1  'x, y, z'
loop_
 _atom_site_type_symbol
 _atom_site_label
 _atom_site_symmetry_multiplicity
 _atom_site_fract_x
 _atom_site_fract_y
 _atom_site_fract_z
 _atom_site_occupancy
  K  K0  1  0.26359250  0.57882150  0.50018100  1
  K  K1  1  0.76359250  0.92117850  0.00018100  1
  K  K2  1  0.00000000  0.91430600  0.75000000  1
  K  K3  1  0.75000000  0.75000000  0.50000000  1
  K  K4  1  0.50000000  0.58569400  0.25000000  1
  K  K5  1  0.25000000  0.75000000  0.00000000  1
  K  K6  1  0.73640750  0.57882150  0.99981900  1
  K  K7  1  0.23640750  0.92117850  0.49981900  1
  K  K8  1  0.76359250  0.07882150  0.50018100  1
  K  K9  1  0.26359250  0.42117850  0.00018100  1
  K  K10  1  0.50000000  0.41430600  0.75000000  1
  K  K11  1  0.25000000  0.25000000  0.50000000  1
  K  K12  1  0.00000000  0.08569400  0.25000000  1
  K  K13  1  0.75000000  0.25000000  0.00000000  1
  K  K14  1  0.23640750  0.07882150  0.99981900  1
  K  K15  1  0.73640750  0.42117850  0.49981900  1
  Tb  Tb16  1  0.00000000  0.58181100  0.75000000  1
  Tb  Tb17  1  0.50000000  0.74755500  0.75000000  1
  Tb  Tb18  1  0.50000000  0.91818900  0.25000000  1
  Tb  Tb19  1  0.00000000  0.75244500  0.25000000  1
  Tb  Tb20  1  0.50000000  0.08181100  0.75000000  1
  Tb  Tb21  1  0.00000000  0.24755500  0.75000000  1
  Tb  Tb22  1  0.00000000  0.41818900  0.25000000  1
  Tb  Tb23  1  0.50000000  0.25244500  0.25000000  1
  O  O24  1  0.34014000  0.60890200  0.84856000  1
  O  O25  1  0.16056150  0.71963550  0.65132600  1
  O  O26  1  0.84014000  0.89109800  0.34856000  1
  O  O27  1  0.57589050  0.91474850  0.65187600  1
  O  O28  1  0.66056150  0.78036450  0.15132600  1
  O  O29  1  0.07589050  0.58525150  0.15187600  1
  O  O30  1  0.42410950  0.91474850  0.84812400  1
  O  O31  1  0.83943850  0.71963550  0.84867400  1
  O  O32  1  0.92410950  0.58525150  0.34812400  1
  O  O33  1  0.65986000  0.60890200  0.65144000  1
  O  O34  1  0.33943850  0.78036450  0.34867400  1
  O  O35  1  0.15986000  0.89109800  0.15144000  1
  O  O36  1  0.84014000  0.10890200  0.84856000  1
  O  O37  1  0.66056150  0.21963550  0.65132600  1
  O  O38  1  0.34014000  0.39109800  0.34856000  1
  O  O39  1  0.07589050  0.41474850  0.65187600  1
  O  O40  1  0.16056150  0.28036450  0.15132600  1
  O  O41  1  0.57589050  0.08525150  0.15187600  1
  O  O42  1  0.92410950  0.41474850  0.84812400  1
  O  O43  1  0.33943850  0.21963550  0.84867400  1
  O  O44  1  0.42410950  0.08525150  0.34812400  1
  O  O45  1  0.15986000  0.10890200  0.65144000  1
  O  O46  1  0.83943850  0.28036450  0.34867400  1
  O  O47  1  0.65986000  0.39109800  0.15144000  1
