# generated using pymatgen
data_Li4Mn2Nb3V3O16
_symmetry_space_group_name_H-M   'P 1'
_cell_length_a   10.57368200
_cell_length_b   6.10848000
_cell_length_c   10.07097443
_cell_angle_alpha   90.00000000
_cell_angle_beta   90.06961306
_cell_angle_gamma   90.00000000
_symmetry_Int_Tables_number   1
_chemical_formula_structural   Li4Mn2Nb3V3O16
_chemical_formula_sum   'Li8 Mn4 Nb6 V6 O32'
_cell_volume   650.47494667
_cell_formula_units_Z   2
loop_
 _symmetry_equiv_pos_site_id
 _symmetry_equiv_pos_as_xyz
  1  'x, y, z'
loop_
 _atom_site_type_symbol
 _atom_site_label
 _atom_site_symmetry_multiplicity
 _atom_site_fract_x
 _atom_site_fract_y
 _atom_site_fract_z
 _atom_site_occupancy
  Li  Li0  1  0.66569600  0.00000000  0.09865000  1
  Li  Li1  1  0.00450700  0.00000000  0.99649200  1
  Li  Li2  1  0.00890900  0.00000000  0.50848000  1
  Li  Li3  1  0.33467600  0.00000000  0.61616700  1
  Li  Li4  1  0.16569600  0.50000000  0.09865000  1
  Li  Li5  1  0.50450700  0.50000000  0.99649200  1
  Li  Li6  1  0.50890900  0.50000000  0.50848000  1
  Li  Li7  1  0.83467600  0.50000000  0.61616700  1
  Mn  Mn8  1  0.65852700  0.00000000  0.51406900  1
  Mn  Mn9  1  0.32693700  0.00000000  0.98778700  1
  Mn  Mn10  1  0.15852700  0.50000000  0.51406900  1
  Mn  Mn11  1  0.82693700  0.50000000  0.98778700  1
  Nb  Nb12  1  0.82949300  0.00000000  0.78205800  1
  Nb  Nb13  1  0.41287750  0.75235450  0.28435700  1
  Nb  Nb14  1  0.41287750  0.24764550  0.28435700  1
  Nb  Nb15  1  0.32949300  0.50000000  0.78205800  1
  Nb  Nb16  1  0.91287750  0.25235450  0.28435700  1
  Nb  Nb17  1  0.91287750  0.74764550  0.28435700  1
  V  V18  1  0.58327800  0.75753500  0.78746600  1
  V  V19  1  0.58327800  0.24246500  0.78746600  1
  V  V20  1  0.16796000  0.00000000  0.28618800  1
  V  V21  1  0.08327800  0.25753500  0.78746600  1
  V  V22  1  0.08327800  0.74246500  0.78746600  1
  V  V23  1  0.66796000  0.50000000  0.28618800  1
  O  O24  1  0.57606800  0.73325600  0.39135200  1
  O  O25  1  0.51764500  0.00000000  0.67274200  1
  O  O26  1  0.67564000  0.00000000  0.90110200  1
  O  O27  1  0.99634400  0.00000000  0.68632600  1
  O  O28  1  0.99713800  0.00000000  0.18064300  1
  O  O29  1  0.57606800  0.26674400  0.39135200  1
  O  O30  1  0.74434700  0.77406200  0.66937500  1
  O  O31  1  0.74434700  0.22593800  0.66937500  1
  O  O32  1  0.15337700  0.00000000  0.88742300  1
  O  O33  1  0.84341400  0.00000000  0.39825900  1
  O  O34  1  0.25987450  0.77013650  0.17327700  1
  O  O35  1  0.25987450  0.22986350  0.17327700  1
  O  O36  1  0.33850500  0.00000000  0.39938100  1
  O  O37  1  0.42166250  0.73440350  0.89605800  1
  O  O38  1  0.48539900  0.00000000  0.17262900  1
  O  O39  1  0.42166250  0.26559650  0.89605800  1
  O  O40  1  0.07606800  0.23325600  0.39135200  1
  O  O41  1  0.01764500  0.50000000  0.67274200  1
  O  O42  1  0.17564000  0.50000000  0.90110200  1
  O  O43  1  0.49634400  0.50000000  0.68632600  1
  O  O44  1  0.49713800  0.50000000  0.18064300  1
  O  O45  1  0.07606800  0.76674400  0.39135200  1
  O  O46  1  0.24434700  0.27406200  0.66937500  1
  O  O47  1  0.24434700  0.72593800  0.66937500  1
  O  O48  1  0.65337700  0.50000000  0.88742300  1
  O  O49  1  0.34341400  0.50000000  0.39825900  1
  O  O50  1  0.75987450  0.27013650  0.17327700  1
  O  O51  1  0.75987450  0.72986350  0.17327700  1
  O  O52  1  0.83850500  0.50000000  0.39938100  1
  O  O53  1  0.92166250  0.23440350  0.89605800  1
  O  O54  1  0.98539900  0.50000000  0.17262900  1
  O  O55  1  0.92166250  0.76559650  0.89605800  1
