# generated using pymatgen
data_V3CrNi2(PO4)6
_symmetry_space_group_name_H-M   'P 1'
_cell_length_a   8.59776605
_cell_length_b   8.59776605
_cell_length_c   20.57730011
_cell_angle_alpha   90.00000000
_cell_angle_beta   90.00000000
_cell_angle_gamma   120.00000000
_symmetry_Int_Tables_number   1
_chemical_formula_structural   V3CrNi2(PO4)6
_chemical_formula_sum   'V9 Cr3 Ni6 P18 O72'
_cell_volume   1317.31691975
_cell_formula_units_Z   3
loop_
 _symmetry_equiv_pos_site_id
 _symmetry_equiv_pos_as_xyz
  1  'x, y, z'
loop_
 _atom_site_type_symbol
 _atom_site_label
 _atom_site_symmetry_multiplicity
 _atom_site_fract_x
 _atom_site_fract_y
 _atom_site_fract_z
 _atom_site_occupancy
  V  V0  1  0.66666667  0.33333333  0.69074400  1
  V  V1  1  0.66666667  0.33333333  0.47556833  1
  V  V2  1  0.66666667  0.33333333  0.97508400  1
  V  V3  1  0.33333333  0.66666667  0.02407733  1
  V  V4  1  0.33333333  0.66666667  0.80890167  1
  V  V5  1  0.33333333  0.66666667  0.30841733  1
  V  V6  1  0.00000000  0.00000000  0.35741067  1
  V  V7  1  0.00000000  0.00000000  0.14223500  1
  V  V8  1  0.00000000  0.00000000  0.64175067  1
  Cr  Cr9  1  0.66666667  0.33333333  0.19223633  1
  Cr  Cr10  1  0.33333333  0.66666667  0.52556967  1
  Cr  Cr11  1  0.00000000  0.00000000  0.85890300  1
  Ni  Ni12  1  0.66666667  0.33333333  0.33324600  1
  Ni  Ni13  1  0.66666667  0.33333333  0.83272267  1
  Ni  Ni14  1  0.33333333  0.66666667  0.66657933  1
  Ni  Ni15  1  0.33333333  0.66666667  0.16605600  1
  Ni  Ni16  1  0.00000000  0.00000000  0.99991267  1
  Ni  Ni17  1  0.00000000  0.00000000  0.49938933  1
  P  P18  1  0.00004233  0.70700867  0.75069267  1
  P  P19  1  0.29299133  0.29303367  0.75069267  1
  P  P20  1  0.70696633  0.99995767  0.75069267  1
  P  P21  1  0.62659600  0.66675600  0.91602200  1
  P  P22  1  0.04016000  0.37340400  0.91602200  1
  P  P23  1  0.33324400  0.95984000  0.91602200  1
  P  P24  1  0.66670900  0.04034200  0.08402600  1
  P  P25  1  0.95965800  0.62636700  0.08402600  1
  P  P26  1  0.37363300  0.33329100  0.08402600  1
  P  P27  1  0.29326267  0.00008933  0.24935533  1
  P  P28  1  0.70682667  0.70673733  0.24935533  1
  P  P29  1  0.99991067  0.29317333  0.24935533  1
  P  P30  1  0.33337567  0.37367533  0.41735933  1
  P  P31  1  0.62632467  0.95970033  0.41735933  1
  P  P32  1  0.04029967  0.66662433  0.41735933  1
  P  P33  1  0.95992933  0.33342267  0.58268867  1
  P  P34  1  0.37349333  0.04007067  0.58268867  1
  P  P35  1  0.66657733  0.62650667  0.58268867  1
  O  O36  1  0.86678067  0.52864633  0.02230033  1
  O  O37  1  0.47135367  0.33813433  0.02230033  1
  O  O38  1  0.66186567  0.13321933  0.02230033  1
  O  O39  1  0.16994133  0.68348367  0.74400267  1
  O  O40  1  0.00222400  0.80268400  0.81263000  1
  O  O41  1  0.83188033  0.51175967  0.75630767  1
  O  O42  1  0.31651633  0.48645767  0.74400267  1
  O  O43  1  0.48824033  0.32012067  0.75630767  1
  O  O44  1  0.86062333  0.33976067  0.52141967  1
  O  O45  1  0.67987933  0.16811967  0.75630767  1
  O  O46  1  0.81425533  0.83566067  0.92588867  1
  O  O47  1  0.47913733  0.13937667  0.52141967  1
  O  O48  1  0.19731600  0.19954000  0.81263000  1
  O  O49  1  0.51354233  0.83005867  0.74400267  1
  O  O50  1  0.64808767  0.50020733  0.90641133  1
  O  O51  1  0.80046000  0.99777600  0.81263000  1
  O  O52  1  0.85211967  0.35191233  0.90641133  1
  O  O53  1  0.02140533  0.18574467  0.92588867  1
  O  O54  1  0.49979267  0.14788033  0.90641133  1
  O  O55  1  0.66023933  0.52086267  0.52141967  1
  O  O56  1  0.16433933  0.97859467  0.92588867  1
  O  O57  1  0.67504633  0.52865567  0.64444967  1
  O  O58  1  0.85360933  0.32495367  0.64444967  1
  O  O59  1  0.47134433  0.14639067  0.64444967  1
  O  O60  1  0.53344733  0.86197967  0.35563367  1
  O  O61  1  0.13802033  0.67146767  0.35563367  1
  O  O62  1  0.32853233  0.46655267  0.35563367  1
  O  O63  1  0.83660800  0.01681700  0.07733600  1
  O  O64  1  0.66889067  0.13601733  0.14596333  1
  O  O65  1  0.49854700  0.84509300  0.08964100  1
  O  O66  1  0.98318300  0.81979100  0.07733600  1
  O  O67  1  0.15490700  0.65345400  0.08964100  1
  O  O68  1  0.52729000  0.67309400  0.85475300  1
  O  O69  1  0.34654600  0.50145300  0.08964100  1
  O  O70  1  0.48092200  0.16899400  0.25922200  1
  O  O71  1  0.14580400  0.47271000  0.85475300  1
  O  O72  1  0.86398267  0.53287333  0.14596333  1
  O  O73  1  0.18020900  0.16339200  0.07733600  1
  O  O74  1  0.31475433  0.83354067  0.23974467  1
  O  O75  1  0.46712667  0.33110933  0.14596333  1
  O  O76  1  0.51878633  0.68524567  0.23974467  1
  O  O77  1  0.68807200  0.51907800  0.25922200  1
  O  O78  1  0.16645933  0.48121367  0.23974467  1
  O  O79  1  0.32690600  0.85419600  0.85475300  1
  O  O80  1  0.83100600  0.31192800  0.25922200  1
  O  O81  1  0.34171300  0.86198900  0.97778300  1
  O  O82  1  0.52027600  0.65828700  0.97778300  1
  O  O83  1  0.13801100  0.47972400  0.97778300  1
  O  O84  1  0.20011400  0.19531300  0.68896700  1
  O  O85  1  0.80468700  0.00480100  0.68896700  1
  O  O86  1  0.99519900  0.79988600  0.68896700  1
  O  O87  1  0.50327467  0.35015033  0.41066933  1
  O  O88  1  0.33555733  0.46935067  0.47929667  1
  O  O89  1  0.16521367  0.17842633  0.42297433  1
  O  O90  1  0.64984967  0.15312433  0.41066933  1
  O  O91  1  0.82157367  0.98678733  0.42297433  1
  O  O92  1  0.19395667  0.00642733  0.18808633  1
  O  O93  1  0.01321267  0.83478633  0.42297433  1
  O  O94  1  0.14758867  0.50232733  0.59255533  1
  O  O95  1  0.81247067  0.80604333  0.18808633  1
  O  O96  1  0.53064933  0.86620667  0.47929667  1
  O  O97  1  0.84687567  0.49672533  0.41066933  1
  O  O98  1  0.98142100  0.16687400  0.57307800  1
  O  O99  1  0.13379333  0.66444267  0.47929667  1
  O  O100  1  0.18545300  0.01857900  0.57307800  1
  O  O101  1  0.35473867  0.85241133  0.59255533  1
  O  O102  1  0.83312600  0.81454700  0.57307800  1
  O  O103  1  0.99357267  0.18752933  0.18808633  1
  O  O104  1  0.49767267  0.64526133  0.59255533  1
  O  O105  1  0.00837967  0.19532233  0.31111633  1
  O  O106  1  0.18694267  0.99162033  0.31111633  1
  O  O107  1  0.80467767  0.81305733  0.31111633  1
