# generated using pymatgen
data_Li4V3Cr3(SbO8)2
_symmetry_space_group_name_H-M   'P 1'
_cell_length_a   10.39440000
_cell_length_b   5.99009000
_cell_length_c   9.69718849
_cell_angle_alpha   90.00000000
_cell_angle_beta   90.55898194
_cell_angle_gamma   90.00000000
_symmetry_Int_Tables_number   1
_chemical_formula_structural   Li4V3Cr3(SbO8)2
_chemical_formula_sum   'Li8 V6 Cr6 Sb4 O32'
_cell_volume   603.75110943
_cell_formula_units_Z   2
loop_
 _symmetry_equiv_pos_site_id
 _symmetry_equiv_pos_as_xyz
  1  'x, y, z'
loop_
 _atom_site_type_symbol
 _atom_site_label
 _atom_site_symmetry_multiplicity
 _atom_site_fract_x
 _atom_site_fract_y
 _atom_site_fract_z
 _atom_site_occupancy
  Li  Li0  1  0.83284300  0.50000000  0.09650700  1
  Li  Li1  1  0.99941200  0.00000000  0.00958200  1
  Li  Li2  1  0.99930700  0.00000000  0.50930700  1
  Li  Li3  1  0.66693300  0.00000000  0.59968700  1
  Li  Li4  1  0.33284300  0.00000000  0.09650700  1
  Li  Li5  1  0.49941200  0.50000000  0.00958200  1
  Li  Li6  1  0.49930700  0.50000000  0.50930700  1
  Li  Li7  1  0.16693300  0.50000000  0.59968700  1
  V  V8  1  0.67012800  0.50000000  0.78342500  1
  V  V9  1  0.58345550  0.24057850  0.28472900  1
  V  V10  1  0.58345550  0.75942150  0.28472900  1
  V  V11  1  0.17012800  0.00000000  0.78342500  1
  V  V12  1  0.08345550  0.74057850  0.28472900  1
  V  V13  1  0.08345550  0.25942150  0.28472900  1
  Cr  Cr14  1  0.91433650  0.74464250  0.78639500  1
  Cr  Cr15  1  0.91433650  0.25535750  0.78639500  1
  Cr  Cr16  1  0.83039400  0.00000000  0.28661900  1
  Cr  Cr17  1  0.41433650  0.24464250  0.78639500  1
  Cr  Cr18  1  0.41433650  0.75535750  0.78639500  1
  Cr  Cr19  1  0.33039400  0.50000000  0.28661900  1
  Sb  Sb20  1  0.83311500  0.50000000  0.51227500  1
  Sb  Sb21  1  0.66680300  0.00000000  0.01082400  1
  Sb  Sb22  1  0.33311500  0.00000000  0.51227500  1
  Sb  Sb23  1  0.16680300  0.50000000  0.01082400  1
  O  O24  1  0.91449150  0.75086750  0.40618100  1
  O  O25  1  0.98079400  0.50000000  0.65787900  1
  O  O26  1  0.83256200  0.50000000  0.89097400  1
  O  O27  1  0.99916000  0.00000000  0.69574900  1
  O  O28  1  0.50018500  0.50000000  0.19619000  1
  O  O29  1  0.91449150  0.24913250  0.40618100  1
  O  O30  1  0.76047500  0.72294400  0.65470300  1
  O  O31  1  0.76047500  0.27705600  0.65470300  1
  O  O32  1  0.83384700  0.00000000  0.90390600  1
  O  O33  1  0.66537300  0.50000000  0.40830700  1
  O  O34  1  0.74386450  0.21838650  0.15489500  1
  O  O35  1  0.74386450  0.78161350  0.15489500  1
  O  O36  1  0.66782100  0.00000000  0.39290100  1
  O  O37  1  0.58206150  0.25144850  0.90566300  1
  O  O38  1  0.51821100  0.00000000  0.15169000  1
  O  O39  1  0.58206150  0.74855150  0.90566300  1
  O  O40  1  0.41449150  0.25086750  0.40618100  1
  O  O41  1  0.48079400  0.00000000  0.65787900  1
  O  O42  1  0.33256200  0.00000000  0.89097400  1
  O  O43  1  0.49916000  0.50000000  0.69574900  1
  O  O44  1  0.00018500  0.00000000  0.19619000  1
  O  O45  1  0.41449150  0.74913250  0.40618100  1
  O  O46  1  0.26047500  0.22294400  0.65470300  1
  O  O47  1  0.26047500  0.77705600  0.65470300  1
  O  O48  1  0.33384700  0.50000000  0.90390600  1
  O  O49  1  0.16537300  0.00000000  0.40830700  1
  O  O50  1  0.24386450  0.71838650  0.15489500  1
  O  O51  1  0.24386450  0.28161350  0.15489500  1
  O  O52  1  0.16782100  0.50000000  0.39290100  1
  O  O53  1  0.08206150  0.75144850  0.90566300  1
  O  O54  1  0.01821100  0.50000000  0.15169000  1
  O  O55  1  0.08206150  0.24855150  0.90566300  1
