# generated using pymatgen
data_Fe6O7F6
_symmetry_space_group_name_H-M   'P 1'
_cell_length_a   15.26681200
_cell_length_b   3.82710400
_cell_length_c   9.48645643
_cell_angle_alpha   90.00000000
_cell_angle_beta   100.01233432
_cell_angle_gamma   90.00000000
_symmetry_Int_Tables_number   1
_chemical_formula_structural   Fe6O7F6
_chemical_formula_sum   'Fe12 O14 F12'
_cell_volume   545.83025095
_cell_formula_units_Z   2
loop_
 _symmetry_equiv_pos_site_id
 _symmetry_equiv_pos_as_xyz
  1  'x, y, z'
loop_
 _atom_site_type_symbol
 _atom_site_label
 _atom_site_symmetry_multiplicity
 _atom_site_fract_x
 _atom_site_fract_y
 _atom_site_fract_z
 _atom_site_occupancy
  Fe  Fe0  1  0.61197700  0.50000000  0.09570600  1
  Fe  Fe1  1  0.67323300  0.50000000  0.43242100  1
  Fe  Fe2  1  0.73820900  0.50000000  0.76726200  1
  Fe  Fe3  1  0.76179100  0.00000000  0.23273800  1
  Fe  Fe4  1  0.82676700  0.00000000  0.56757900  1
  Fe  Fe5  1  0.88802300  0.00000000  0.90429400  1
  Fe  Fe6  1  0.11197700  0.00000000  0.09570600  1
  Fe  Fe7  1  0.17323300  0.00000000  0.43242100  1
  Fe  Fe8  1  0.23820900  0.00000000  0.76726200  1
  Fe  Fe9  1  0.26179100  0.50000000  0.23273800  1
  Fe  Fe10  1  0.32676700  0.50000000  0.56757900  1
  Fe  Fe11  1  0.38802300  0.50000000  0.90429400  1
  O  O12  1  0.00000000  0.00000000  0.00000000  1
  O  O13  1  0.85888600  0.50000000  0.88555000  1
  O  O14  1  0.73197700  0.50000000  0.23628700  1
  O  O15  1  0.79353600  0.50000000  0.57693300  1
  O  O16  1  0.70646400  0.00000000  0.42306700  1
  O  O17  1  0.76802300  0.00000000  0.76371300  1
  O  O18  1  0.64111400  0.00000000  0.11445000  1
  O  O19  1  0.50000000  0.50000000  0.00000000  1
  O  O20  1  0.35888600  0.00000000  0.88555000  1
  O  O21  1  0.23197700  0.00000000  0.23628700  1
  O  O22  1  0.29353600  0.00000000  0.57693300  1
  O  O23  1  0.20646400  0.50000000  0.42306700  1
  O  O24  1  0.26802300  0.50000000  0.76371300  1
  O  O25  1  0.14111400  0.50000000  0.11445000  1
  F  F26  1  0.66720500  0.50000000  0.91461300  1
  F  F27  1  0.56784500  0.50000000  0.29079900  1
  F  F28  1  0.62840000  0.50000000  0.61426600  1
  F  F29  1  0.87160000  0.00000000  0.38573400  1
  F  F30  1  0.93215500  0.00000000  0.70920100  1
  F  F31  1  0.83279500  0.00000000  0.08538700  1
  F  F32  1  0.16720500  0.00000000  0.91461300  1
  F  F33  1  0.06784500  0.00000000  0.29079900  1
  F  F34  1  0.12840000  0.00000000  0.61426600  1
  F  F35  1  0.37160000  0.50000000  0.38573400  1
  F  F36  1  0.43215500  0.50000000  0.70920100  1
  F  F37  1  0.33279500  0.50000000  0.08538700  1
