# generated using pymatgen
data_Rb(WO3)2
_symmetry_space_group_name_H-M   'P 1'
_cell_length_a   10.49562800
_cell_length_b   10.49562800
_cell_length_c   10.49562800
_cell_angle_alpha   90.00000000
_cell_angle_beta   90.00000000
_cell_angle_gamma   90.00000000
_symmetry_Int_Tables_number   1
_chemical_formula_structural   Rb(WO3)2
_chemical_formula_sum   'Rb8 W16 O48'
_cell_volume   1156.17956302
_cell_formula_units_Z   8
loop_
 _symmetry_equiv_pos_site_id
 _symmetry_equiv_pos_as_xyz
  1  'x, y, z'
loop_
 _atom_site_type_symbol
 _atom_site_label
 _atom_site_symmetry_multiplicity
 _atom_site_fract_x
 _atom_site_fract_y
 _atom_site_fract_z
 _atom_site_occupancy
  Rb  Rb0  1  0.25000000  0.25000000  0.25000000  1
  Rb  Rb1  1  0.50000000  0.00000000  0.50000000  1
  Rb  Rb2  1  0.25000000  0.75000000  0.75000000  1
  Rb  Rb3  1  0.50000000  0.50000000  0.00000000  1
  Rb  Rb4  1  0.75000000  0.25000000  0.75000000  1
  Rb  Rb5  1  0.00000000  0.00000000  0.00000000  1
  Rb  Rb6  1  0.75000000  0.75000000  0.25000000  1
  Rb  Rb7  1  0.00000000  0.50000000  0.50000000  1
  W  W8  1  0.12500000  0.62500000  0.12500000  1
  W  W9  1  0.12500000  0.87500000  0.37500000  1
  W  W10  1  0.37500000  0.62500000  0.37500000  1
  W  W11  1  0.37500000  0.87500000  0.12500000  1
  W  W12  1  0.12500000  0.12500000  0.62500000  1
  W  W13  1  0.12500000  0.37500000  0.87500000  1
  W  W14  1  0.37500000  0.12500000  0.87500000  1
  W  W15  1  0.37500000  0.37500000  0.62500000  1
  W  W16  1  0.62500000  0.62500000  0.62500000  1
  W  W17  1  0.62500000  0.87500000  0.87500000  1
  W  W18  1  0.87500000  0.62500000  0.87500000  1
  W  W19  1  0.87500000  0.87500000  0.62500000  1
  W  W20  1  0.62500000  0.12500000  0.12500000  1
  W  W21  1  0.62500000  0.37500000  0.37500000  1
  W  W22  1  0.87500000  0.12500000  0.37500000  1
  W  W23  1  0.87500000  0.37500000  0.12500000  1
  O  O24  1  0.43632500  0.75000000  0.25000000  1
  O  O25  1  0.00000000  0.00000000  0.31367500  1
  O  O26  1  0.18632500  0.00000000  0.50000000  1
  O  O27  1  0.25000000  0.56367500  0.25000000  1
  O  O28  1  0.25000000  0.75000000  0.06367500  1
  O  O29  1  0.25000000  0.93632500  0.25000000  1
  O  O30  1  0.50000000  0.00000000  0.18632500  1
  O  O31  1  0.50000000  0.68632500  0.50000000  1
  O  O32  1  0.50000000  0.31367500  0.50000000  1
  O  O33  1  0.06367500  0.75000000  0.25000000  1
  O  O34  1  0.25000000  0.75000000  0.43632500  1
  O  O35  1  0.81367500  0.00000000  0.50000000  1
  O  O36  1  0.43632500  0.25000000  0.75000000  1
  O  O37  1  0.00000000  0.50000000  0.81367500  1
  O  O38  1  0.18632500  0.50000000  0.00000000  1
  O  O39  1  0.25000000  0.06367500  0.75000000  1
  O  O40  1  0.25000000  0.25000000  0.56367500  1
  O  O41  1  0.25000000  0.43632500  0.75000000  1
  O  O42  1  0.50000000  0.50000000  0.68632500  1
  O  O43  1  0.50000000  0.18632500  0.00000000  1
  O  O44  1  0.50000000  0.81367500  0.00000000  1
  O  O45  1  0.06367500  0.25000000  0.75000000  1
  O  O46  1  0.25000000  0.25000000  0.93632500  1
  O  O47  1  0.81367500  0.50000000  0.00000000  1
  O  O48  1  0.93632500  0.75000000  0.75000000  1
  O  O49  1  0.50000000  0.00000000  0.81367500  1
  O  O50  1  0.68632500  0.00000000  0.00000000  1
  O  O51  1  0.75000000  0.56367500  0.75000000  1
  O  O52  1  0.75000000  0.75000000  0.56367500  1
  O  O53  1  0.75000000  0.93632500  0.75000000  1
  O  O54  1  0.00000000  0.00000000  0.68632500  1
  O  O55  1  0.00000000  0.68632500  0.00000000  1
  O  O56  1  0.00000000  0.31367500  0.00000000  1
  O  O57  1  0.56367500  0.75000000  0.75000000  1
  O  O58  1  0.75000000  0.75000000  0.93632500  1
  O  O59  1  0.31367500  0.00000000  0.00000000  1
  O  O60  1  0.93632500  0.25000000  0.25000000  1
  O  O61  1  0.50000000  0.50000000  0.31367500  1
  O  O62  1  0.68632500  0.50000000  0.50000000  1
  O  O63  1  0.75000000  0.06367500  0.25000000  1
  O  O64  1  0.75000000  0.25000000  0.06367500  1
  O  O65  1  0.75000000  0.43632500  0.25000000  1
  O  O66  1  0.00000000  0.50000000  0.18632500  1
  O  O67  1  0.00000000  0.18632500  0.50000000  1
  O  O68  1  0.00000000  0.81367500  0.50000000  1
  O  O69  1  0.56367500  0.25000000  0.25000000  1
  O  O70  1  0.75000000  0.25000000  0.43632500  1
  O  O71  1  0.31367500  0.50000000  0.50000000  1
