# generated using pymatgen
data_Li3Fe4CoO8
_symmetry_space_group_name_H-M   'P 1'
_cell_length_a   10.43785200
_cell_length_b   5.99306000
_cell_length_c   5.99725988
_cell_angle_alpha   90.00000000
_cell_angle_beta   124.93119528
_cell_angle_gamma   90.00000000
_symmetry_Int_Tables_number   1
_chemical_formula_structural   Li3Fe4CoO8
_chemical_formula_sum   'Li6 Fe8 Co2 O16'
_cell_volume   307.56850494
_cell_formula_units_Z   2
loop_
 _symmetry_equiv_pos_site_id
 _symmetry_equiv_pos_as_xyz
  1  'x, y, z'
loop_
 _atom_site_type_symbol
 _atom_site_label
 _atom_site_symmetry_multiplicity
 _atom_site_fract_x
 _atom_site_fract_y
 _atom_site_fract_z
 _atom_site_occupancy
  Li  Li0  1  0.25000000  0.25000000  0.00000000  1
  Li  Li1  1  0.00000000  0.00000000  0.50000000  1
  Li  Li2  1  0.25000000  0.75000000  0.00000000  1
  Li  Li3  1  0.75000000  0.75000000  0.00000000  1
  Li  Li4  1  0.50000000  0.50000000  0.50000000  1
  Li  Li5  1  0.75000000  0.25000000  0.00000000  1
  Fe  Fe6  1  0.00000000  0.50000000  0.50000000  1
  Fe  Fe7  1  0.00000000  0.00000000  0.00000000  1
  Fe  Fe8  1  0.25000000  0.25000000  0.50000000  1
  Fe  Fe9  1  0.25000000  0.75000000  0.50000000  1
  Fe  Fe10  1  0.50000000  0.00000000  0.50000000  1
  Fe  Fe11  1  0.50000000  0.50000000  0.00000000  1
  Fe  Fe12  1  0.75000000  0.75000000  0.50000000  1
  Fe  Fe13  1  0.75000000  0.25000000  0.50000000  1
  Co  Co14  1  0.00000000  0.50000000  0.00000000  1
  Co  Co15  1  0.50000000  0.00000000  0.00000000  1
  O  O16  1  0.25433800  0.00000000  0.73460700  1
  O  O17  1  0.00787100  0.74384200  0.26379900  1
  O  O18  1  0.00787100  0.25615800  0.26379900  1
  O  O19  1  0.24233600  0.50000000  0.73343400  1
  O  O20  1  0.25766400  0.00000000  0.26656600  1
  O  O21  1  0.49212900  0.24384200  0.73620100  1
  O  O22  1  0.49212900  0.75615800  0.73620100  1
  O  O23  1  0.24566200  0.50000000  0.26539300  1
  O  O24  1  0.75433800  0.50000000  0.73460700  1
  O  O25  1  0.50787100  0.24384200  0.26379900  1
  O  O26  1  0.50787100  0.75615800  0.26379900  1
  O  O27  1  0.74233600  0.00000000  0.73343400  1
  O  O28  1  0.75766400  0.50000000  0.26656600  1
  O  O29  1  0.99212900  0.74384200  0.73620100  1
  O  O30  1  0.99212900  0.25615800  0.73620100  1
  O  O31  1  0.74566200  0.00000000  0.26539300  1
