# generated using pymatgen
data_Na3VBPO7
_symmetry_space_group_name_H-M   'P 1'
_cell_length_a   5.32418938
_cell_length_b   6.61357754
_cell_length_c   8.99493187
_cell_angle_alpha   90.00000000
_cell_angle_beta   91.48947714
_cell_angle_gamma   90.00000000
_symmetry_Int_Tables_number   1
_chemical_formula_structural   Na3VBPO7
_chemical_formula_sum   'Na6 V2 B2 P2 O14'
_cell_volume   316.62197762
_cell_formula_units_Z   2
loop_
 _symmetry_equiv_pos_site_id
 _symmetry_equiv_pos_as_xyz
  1  'x, y, z'
loop_
 _atom_site_type_symbol
 _atom_site_label
 _atom_site_symmetry_multiplicity
 _atom_site_fract_x
 _atom_site_fract_y
 _atom_site_fract_z
 _atom_site_occupancy
  Na  Na0  1  0.24372125  0.75000000  0.07161875  1
  Na  Na1  1  0.75627875  0.25000000  0.92838125  1
  Na  Na2  1  0.74724225  0.99703700  0.25184075  1
  Na  Na3  1  0.74724225  0.50296300  0.25184075  1
  Na  Na4  1  0.25275775  0.49703700  0.74815925  1
  Na  Na5  1  0.25275775  0.00296300  0.74815925  1
  V  V6  1  0.21911075  0.25000000  0.33585725  1
  V  V7  1  0.78088925  0.75000000  0.66414275  1
  B  B8  1  0.27016725  0.25000000  0.06611475  1
  B  B9  1  0.72983275  0.75000000  0.93388525  1
  P  P10  1  0.28259975  0.75000000  0.42135075  1
  P  P11  1  0.71740025  0.25000000  0.57864925  1
  O  O12  1  0.69405575  0.75000000  0.08144025  1
  O  O13  1  0.30594425  0.25000000  0.91855975  1
  O  O14  1  0.03511075  0.25000000  0.13399625  1
  O  O15  1  0.96488925  0.75000000  0.86600375  1
  O  O16  1  0.46867275  0.25000000  0.17466975  1
  O  O17  1  0.53132725  0.75000000  0.82533025  1
  O  O18  1  0.56878675  0.75000000  0.46055725  1
  O  O19  1  0.43121325  0.25000000  0.53944275  1
  O  O20  1  0.87068525  0.25000000  0.43456625  1
  O  O21  1  0.12931475  0.75000000  0.56543375  1
  O  O22  1  0.21476625  0.93720100  0.32290075  1
  O  O23  1  0.21476625  0.56279900  0.32290075  1
  O  O24  1  0.78523375  0.43720100  0.67709925  1
  O  O25  1  0.78523375  0.06279900  0.67709925  1
