# generated using pymatgen
data_Ni5(TeO6)2
_symmetry_space_group_name_H-M   'P 1'
_cell_length_a   5.08012000
_cell_length_b   9.04119800
_cell_length_c   9.94938720
_cell_angle_alpha   90.00000000
_cell_angle_beta   103.14927685
_cell_angle_gamma   90.00000000
_symmetry_Int_Tables_number   1
_chemical_formula_structural   Ni5(TeO6)2
_chemical_formula_sum   'Ni10 Te4 O24'
_cell_volume   444.99736188
_cell_formula_units_Z   2
loop_
 _symmetry_equiv_pos_site_id
 _symmetry_equiv_pos_as_xyz
  1  'x, y, z'
loop_
 _atom_site_type_symbol
 _atom_site_label
 _atom_site_symmetry_multiplicity
 _atom_site_fract_x
 _atom_site_fract_y
 _atom_site_fract_z
 _atom_site_occupancy
  Ni  Ni0  1  0.50000000  0.58186600  0.00000000  1
  Ni  Ni1  1  0.76330200  0.76477700  0.25693100  1
  Ni  Ni2  1  0.23669800  0.76477700  0.74306900  1
  Ni  Ni3  1  0.50000000  0.92146500  0.00000000  1
  Ni  Ni4  1  0.00000000  0.57607100  0.50000000  1
  Ni  Ni5  1  0.00000000  0.08186600  0.00000000  1
  Ni  Ni6  1  0.26330200  0.26477700  0.25693100  1
  Ni  Ni7  1  0.73669800  0.26477700  0.74306900  1
  Ni  Ni8  1  0.00000000  0.42146500  0.00000000  1
  Ni  Ni9  1  0.50000000  0.07607100  0.50000000  1
  Te  Te10  1  0.50000000  0.74796600  0.50000000  1
  Te  Te11  1  0.00000000  0.74989900  0.00000000  1
  Te  Te12  1  0.00000000  0.24796600  0.50000000  1
  Te  Te13  1  0.50000000  0.24989900  0.00000000  1
  O  O14  1  0.64795550  0.60736150  0.38336300  1
  O  O15  1  0.35204450  0.60736150  0.61663700  1
  O  O16  1  0.62309750  0.75143750  0.88929900  1
  O  O17  1  0.37690250  0.75143750  0.11070100  1
  O  O18  1  0.58902300  0.90750900  0.38810100  1
  O  O19  1  0.41097700  0.90750900  0.61189900  1
  O  O20  1  0.11586200  0.59971200  0.88617000  1
  O  O21  1  0.88413800  0.59971200  0.11383000  1
  O  O22  1  0.12608600  0.71720300  0.39022000  1
  O  O23  1  0.87391400  0.71720300  0.60978000  1
  O  O24  1  0.11277000  0.90265500  0.88546700  1
  O  O25  1  0.88723000  0.90265500  0.11453300  1
  O  O26  1  0.14795550  0.10736150  0.38336300  1
  O  O27  1  0.85204450  0.10736150  0.61663700  1
  O  O28  1  0.12309750  0.25143750  0.88929900  1
  O  O29  1  0.87690250  0.25143750  0.11070100  1
  O  O30  1  0.08902300  0.40750900  0.38810100  1
  O  O31  1  0.91097700  0.40750900  0.61189900  1
  O  O32  1  0.61586200  0.09971200  0.88617000  1
  O  O33  1  0.38413800  0.09971200  0.11383000  1
  O  O34  1  0.62608600  0.21720300  0.39022000  1
  O  O35  1  0.37391400  0.21720300  0.60978000  1
  O  O36  1  0.61277000  0.40265500  0.88546700  1
  O  O37  1  0.38723000  0.40265500  0.11453300  1
