# generated using pymatgen
data_Ti3Fe2Cu(PO4)6
_symmetry_space_group_name_H-M   'P 1'
_cell_length_a   8.68247391
_cell_length_b   8.68247391
_cell_length_c   20.70390027
_cell_angle_alpha   90.00000000
_cell_angle_beta   90.00000000
_cell_angle_gamma   120.00000000
_symmetry_Int_Tables_number   1
_chemical_formula_structural   Ti3Fe2Cu(PO4)6
_chemical_formula_sum   'Ti9 Fe6 Cu3 P18 O72'
_cell_volume   1351.66719357
_cell_formula_units_Z   3
loop_
 _symmetry_equiv_pos_site_id
 _symmetry_equiv_pos_as_xyz
  1  'x, y, z'
loop_
 _atom_site_type_symbol
 _atom_site_label
 _atom_site_symmetry_multiplicity
 _atom_site_fract_x
 _atom_site_fract_y
 _atom_site_fract_z
 _atom_site_occupancy
  Ti  Ti0  1  0.33333333  0.66666667  0.52446367  1
  Ti  Ti1  1  0.33333333  0.66666667  0.31135267  1
  Ti  Ti2  1  0.33333333  0.66666667  0.02149267  1
  Ti  Ti3  1  0.00000000  0.00000000  0.85779700  1
  Ti  Ti4  1  0.00000000  0.00000000  0.64468600  1
  Ti  Ti5  1  0.00000000  0.00000000  0.35482600  1
  Ti  Ti6  1  0.66666667  0.33333333  0.19113033  1
  Ti  Ti7  1  0.66666667  0.33333333  0.97801933  1
  Ti  Ti8  1  0.66666667  0.33333333  0.68815933  1
  Fe  Fe9  1  0.33333333  0.66666667  0.67035967  1
  Fe  Fe10  1  0.33333333  0.66666667  0.16783267  1
  Fe  Fe11  1  0.00000000  0.00000000  0.00369300  1
  Fe  Fe12  1  0.00000000  0.00000000  0.50116600  1
  Fe  Fe13  1  0.66666667  0.33333333  0.33702633  1
  Fe  Fe14  1  0.66666667  0.33333333  0.83449933  1
  Cu  Cu15  1  0.33333333  0.66666667  0.81182267  1
  Cu  Cu16  1  0.00000000  0.00000000  0.14515600  1
  Cu  Cu17  1  0.66666667  0.33333333  0.47848933  1
  P  P18  1  0.70610867  0.70575033  0.24829633  1
  P  P19  1  0.29424967  0.00035833  0.24829633  1
  P  P20  1  0.66588567  0.03909633  0.08349133  1
  P  P21  1  0.37321067  0.33411433  0.08349133  1
  P  P22  1  0.96090367  0.62678933  0.08349133  1
  P  P23  1  0.99964167  0.29389133  0.24829633  1
  P  P24  1  0.37277533  0.03908367  0.58162967  1
  P  P25  1  0.96091633  0.33369167  0.58162967  1
  P  P26  1  0.33255233  0.37242967  0.41682467  1
  P  P27  1  0.03987733  0.66744767  0.41682467  1
  P  P28  1  0.62757033  0.96012267  0.41682467  1
  P  P29  1  0.66630833  0.62722467  0.58162967  1
  P  P30  1  0.03944200  0.37241700  0.91496300  1
  P  P31  1  0.62758300  0.66702500  0.91496300  1
  P  P32  1  0.99921900  0.70576300  0.75015800  1
  P  P33  1  0.70654400  0.00078100  0.75015800  1
  P  P34  1  0.29423700  0.29345600  0.75015800  1
  P  P35  1  0.33297500  0.96055800  0.91496300  1
  O  O36  1  0.52855700  0.84454600  0.35734600  1
  O  O37  1  0.31598900  0.47144300  0.35734600  1
  O  O38  1  0.68404500  0.51606700  0.25816900  1
  O  O39  1  0.15545400  0.68401100  0.35734600  1
  O  O40  1  0.79498567  0.79475533  0.18654233  1
  O  O41  1  0.51331800  0.67844100  0.24614600  1
  O  O42  1  0.48393300  0.16797800  0.25816900  1
  O  O43  1  0.32155900  0.83487700  0.24614600  1
  O  O44  1  0.33709533  0.47955167  0.47760667  1
  O  O45  1  0.16512300  0.48668200  0.24614600  1
  O  O46  1  0.83018167  0.02161333  0.07293533  1
  O  O47  1  0.14245633  0.66290467  0.47760667  1
  O  O48  1  0.20524467  0.00023033  0.18654233  1
  O  O49  1  0.83202200  0.31595500  0.25816900  1
  O  O50  1  0.49558200  0.85228200  0.09092300  1
  O  O51  1  0.99976967  0.20501433  0.18654233  1
  O  O52  1  0.35670000  0.50441800  0.09092300  1
  O  O53  1  0.19143167  0.16981833  0.07293533  1
  O  O54  1  0.14771800  0.64330000  0.09092300  1
  O  O55  1  0.52044833  0.85754367  0.47760667  1
  O  O56  1  0.51996300  0.66378600  0.97610300  1
  O  O57  1  0.97838667  0.80856833  0.07293533  1
  O  O58  1  0.33621400  0.85617700  0.97610300  1
  O  O59  1  0.14382300  0.48003700  0.97610300  1
  O  O60  1  0.19522367  0.17787933  0.69067933  1
  O  O61  1  0.98265567  0.80477633  0.69067933  1
  O  O62  1  0.35071167  0.84940033  0.59150233  1
  O  O63  1  0.82212067  0.01734433  0.69067933  1
  O  O64  1  0.46165233  0.12808867  0.51987567  1
  O  O65  1  0.17998467  0.01177433  0.57947933  1
  O  O66  1  0.15059967  0.50131133  0.59150233  1
  O  O67  1  0.98822567  0.16821033  0.57947933  1
  O  O68  1  0.00376200  0.81288500  0.81094000  1
  O  O69  1  0.83178967  0.82001533  0.57947933  1
  O  O70  1  0.49684833  0.35494667  0.40626867  1
  O  O71  1  0.80912300  0.99623800  0.81094000  1
  O  O72  1  0.87191133  0.33356367  0.51987567  1
  O  O73  1  0.49868867  0.64928833  0.59150233  1
  O  O74  1  0.16224867  0.18561533  0.42425633  1
  O  O75  1  0.66643633  0.53834767  0.51987567  1
  O  O76  1  0.02336667  0.83775133  0.42425633  1
  O  O77  1  0.85809833  0.50315167  0.40626867  1
  O  O78  1  0.81438467  0.97663333  0.42425633  1
  O  O79  1  0.18711500  0.19087700  0.81094000  1
  O  O80  1  0.18662967  0.99711933  0.30943633  1
  O  O81  1  0.64505333  0.14190167  0.40626867  1
  O  O82  1  0.00288067  0.18951033  0.30943633  1
  O  O83  1  0.81048967  0.81337033  0.30943633  1
  O  O84  1  0.86189033  0.51121267  0.02401267  1
  O  O85  1  0.64932233  0.13810967  0.02401267  1
  O  O86  1  0.01737833  0.18273367  0.92483567  1
  O  O87  1  0.48878733  0.35067767  0.02401267  1
  O  O88  1  0.12831900  0.46142200  0.85320900  1
  O  O89  1  0.84665133  0.34510767  0.91281267  1
  O  O90  1  0.81726633  0.83464467  0.92483567  1
  O  O91  1  0.65489233  0.50154367  0.91281267  1
  O  O92  1  0.67042867  0.14621833  0.14427333  1
  O  O93  1  0.49845633  0.15334867  0.91281267  1
  O  O94  1  0.16351500  0.68828000  0.73960200  1
  O  O95  1  0.47578967  0.32957133  0.14427333  1
  O  O96  1  0.53857800  0.66689700  0.85320900  1
  O  O97  1  0.16535533  0.98262167  0.92483567  1
  O  O98  1  0.82891533  0.51894867  0.75758967  1
  O  O99  1  0.33310300  0.87168100  0.85320900  1
  O  O100  1  0.69003333  0.17108467  0.75758967  1
  O  O101  1  0.52476500  0.83648500  0.73960200  1
  O  O102  1  0.48105133  0.30996667  0.75758967  1
  O  O103  1  0.85378167  0.52421033  0.14427333  1
  O  O104  1  0.85329633  0.33045267  0.64276967  1
  O  O105  1  0.31172000  0.47523500  0.73960200  1
  O  O106  1  0.66954733  0.52284367  0.64276967  1
  O  O107  1  0.47715633  0.14670367  0.64276967  1
