# generated using pymatgen
data_Mn3Cr2Sb3O16
_symmetry_space_group_name_H-M   'P 1'
_cell_length_a   10.57440971
_cell_length_b   6.03200005
_cell_length_c   9.04669038
_cell_angle_alpha   90.00000000
_cell_angle_beta   90.22410392
_cell_angle_gamma   90.00000000
_symmetry_Int_Tables_number   1
_chemical_formula_structural   Mn3Cr2Sb3O16
_chemical_formula_sum   'Mn6 Cr4 Sb6 O32'
_cell_volume   577.03728344
_cell_formula_units_Z   2
loop_
 _symmetry_equiv_pos_site_id
 _symmetry_equiv_pos_as_xyz
  1  'x, y, z'
loop_
 _atom_site_type_symbol
 _atom_site_label
 _atom_site_symmetry_multiplicity
 _atom_site_fract_x
 _atom_site_fract_y
 _atom_site_fract_z
 _atom_site_occupancy
  Mn  Mn0  1  0.83079250  0.00000000  0.78529400  1
  Mn  Mn1  1  0.91356200  0.74886100  0.28987500  1
  Mn  Mn2  1  0.91356200  0.25113900  0.28987500  1
  Mn  Mn3  1  0.33079250  0.50000000  0.78529400  1
  Mn  Mn4  1  0.41356200  0.24886100  0.28987500  1
  Mn  Mn5  1  0.41356200  0.75113900  0.28987500  1
  Cr  Cr6  1  0.67008200  0.00000000  0.50715500  1
  Cr  Cr7  1  0.84106900  0.50000000  0.01592900  1
  Cr  Cr8  1  0.17008200  0.50000000  0.50715500  1
  Cr  Cr9  1  0.34106900  0.00000000  0.01592900  1
  Sb  Sb10  1  0.58206600  0.24859700  0.79017200  1
  Sb  Sb11  1  0.58206600  0.75140300  0.79017200  1
  Sb  Sb12  1  0.66458700  0.50000000  0.29052700  1
  Sb  Sb13  1  0.08206600  0.74859700  0.79017200  1
  Sb  Sb14  1  0.08206600  0.25140300  0.79017200  1
  Sb  Sb15  1  0.16458700  0.00000000  0.29052700  1
  O  O16  1  0.58144250  0.25069850  0.39582300  1
  O  O17  1  0.52180650  0.00000000  0.65289300  1
  O  O18  1  0.65312200  0.00000000  0.91383900  1
  O  O19  1  0.51150750  0.50000000  0.67321100  1
  O  O20  1  0.99443600  0.00000000  0.18426100  1
  O  O21  1  0.58144250  0.74930150  0.39582300  1
  O  O22  1  0.73755700  0.21472300  0.66260900  1
  O  O23  1  0.73755700  0.78527700  0.66260900  1
  O  O24  1  0.66728950  0.50000000  0.90333900  1
  O  O25  1  0.83759900  0.00000000  0.39669500  1
  O  O26  1  0.76556150  0.71752350  0.16234600  1
  O  O27  1  0.76556150  0.28247650  0.16234600  1
  O  O28  1  0.83606050  0.50000000  0.40006300  1
  O  O29  1  0.91772700  0.75294400  0.89483200  1
  O  O30  1  0.97565650  0.50000000  0.16976800  1
  O  O31  1  0.91772700  0.24705600  0.89483200  1
  O  O32  1  0.08144250  0.75069850  0.39582300  1
  O  O33  1  0.02180650  0.50000000  0.65289300  1
  O  O34  1  0.15312200  0.50000000  0.91383900  1
  O  O35  1  0.01150750  0.00000000  0.67321100  1
  O  O36  1  0.49443600  0.50000000  0.18426100  1
  O  O37  1  0.08144250  0.24930150  0.39582300  1
  O  O38  1  0.23755700  0.71472300  0.66260900  1
  O  O39  1  0.23755700  0.28527700  0.66260900  1
  O  O40  1  0.16728950  0.00000000  0.90333900  1
  O  O41  1  0.33759900  0.50000000  0.39669500  1
  O  O42  1  0.26556150  0.21752350  0.16234600  1
  O  O43  1  0.26556150  0.78247650  0.16234600  1
  O  O44  1  0.33606050  0.00000000  0.40006300  1
  O  O45  1  0.41772700  0.25294400  0.89483200  1
  O  O46  1  0.47565650  0.00000000  0.16976800  1
  O  O47  1  0.41772700  0.74705600  0.89483200  1
