# generated using pymatgen
data_Li4Cu3Ni(PO4)4
_symmetry_space_group_name_H-M   'P 1'
_cell_length_a   4.73731941
_cell_length_b   6.07298800
_cell_length_c   9.96623351
_cell_angle_alpha   90.00000000
_cell_angle_beta   90.92142943
_cell_angle_gamma   90.00000000
_symmetry_Int_Tables_number   1
_chemical_formula_structural   Li4Cu3Ni(PO4)4
_chemical_formula_sum   'Li4 Cu3 Ni1 P4 O16'
_cell_volume   286.68831074
_cell_formula_units_Z   1
loop_
 _symmetry_equiv_pos_site_id
 _symmetry_equiv_pos_as_xyz
  1  'x, y, z'
loop_
 _atom_site_type_symbol
 _atom_site_label
 _atom_site_symmetry_multiplicity
 _atom_site_fract_x
 _atom_site_fract_y
 _atom_site_fract_z
 _atom_site_occupancy
  Li  Li0  1  0.00249800  0.25007800  0.99773900  1
  Li  Li1  1  0.00249800  0.74992200  0.99773900  1
  Li  Li2  1  0.49921000  0.75260700  0.50037200  1
  Li  Li3  1  0.49921000  0.24739300  0.50037200  1
  Cu  Cu4  1  0.95031300  0.50000000  0.71320500  1
  Cu  Cu5  1  0.55008200  0.50000000  0.21688100  1
  Cu  Cu6  1  0.45226600  0.00000000  0.78456800  1
  Ni  Ni7  1  0.02114200  0.00000000  0.27796600  1
  P  P8  1  0.91838300  0.00000000  0.59628500  1
  P  P9  1  0.57978400  0.00000000  0.09423400  1
  P  P10  1  0.42395900  0.50000000  0.90490200  1
  P  P11  1  0.08133700  0.50000000  0.40325500  1
  O  O12  1  0.80132700  0.00000000  0.44983300  1
  O  O13  1  0.78195800  0.20384800  0.66522400  1
  O  O14  1  0.78195800  0.79615200  0.66522400  1
  O  O15  1  0.75384300  0.50000000  0.39461400  1
  O  O16  1  0.74885900  0.50000000  0.89748700  1
  O  O17  1  0.72663900  0.20100700  0.16525200  1
  O  O18  1  0.72663900  0.79899300  0.16525200  1
  O  O19  1  0.69227300  0.00000000  0.94790700  1
  O  O20  1  0.31764100  0.50000000  0.05333400  1
  O  O21  1  0.28203500  0.70430700  0.83792100  1
  O  O22  1  0.28203500  0.29569300  0.83792100  1
  O  O23  1  0.25751400  0.00000000  0.09984400  1
  O  O24  1  0.24458600  0.00000000  0.60466800  1
  O  O25  1  0.21659600  0.70662000  0.33775600  1
  O  O26  1  0.21659600  0.29338000  0.33775600  1
  O  O27  1  0.18881600  0.50000000  0.55248700  1
