# generated using pymatgen
data_Li3Mn2VO6
_symmetry_space_group_name_H-M   'P 1'
_cell_length_a   14.08568704
_cell_length_b   2.89280732
_cell_length_c   5.83454612
_cell_angle_alpha   90.00000000
_cell_angle_beta   102.46115317
_cell_angle_gamma   90.00000000
_symmetry_Int_Tables_number   1
_chemical_formula_structural   Li3Mn2VO6
_chemical_formula_sum   'Li6 Mn4 V2 O12'
_cell_volume   232.14070894
_cell_formula_units_Z   2
loop_
 _symmetry_equiv_pos_site_id
 _symmetry_equiv_pos_as_xyz
  1  'x, y, z'
loop_
 _atom_site_type_symbol
 _atom_site_label
 _atom_site_symmetry_multiplicity
 _atom_site_fract_x
 _atom_site_fract_y
 _atom_site_fract_z
 _atom_site_occupancy
  Li  Li0  1  0.50000000  0.00000000  0.50000000  1
  Li  Li1  1  0.65500200  0.50000000  0.82331500  1
  Li  Li2  1  0.34499800  0.50000000  0.17668500  1
  Li  Li3  1  0.00000000  0.50000000  0.50000000  1
  Li  Li4  1  0.15500200  0.00000000  0.82331500  1
  Li  Li5  1  0.84499800  0.00000000  0.17668500  1
  Mn  Mn6  1  0.66313800  0.50000000  0.33483600  1
  Mn  Mn7  1  0.33686200  0.50000000  0.66516400  1
  Mn  Mn8  1  0.16313800  0.00000000  0.33483600  1
  Mn  Mn9  1  0.83686200  0.00000000  0.66516400  1
  V  V10  1  0.50000000  0.00000000  0.00000000  1
  V  V11  1  0.00000000  0.50000000  0.00000000  1
  O  O12  1  0.65645600  0.00000000  0.10081650  1
  O  O13  1  0.34354400  0.00000000  0.89918350  1
  O  O14  1  0.33166400  0.00000000  0.43460750  1
  O  O15  1  0.16833600  0.50000000  0.56539250  1
  O  O16  1  0.50327950  0.50000000  0.76215400  1
  O  O17  1  0.49672050  0.50000000  0.23784600  1
  O  O18  1  0.15645600  0.50000000  0.10081650  1
  O  O19  1  0.84354400  0.50000000  0.89918350  1
  O  O20  1  0.83166400  0.50000000  0.43460750  1
  O  O21  1  0.66833600  0.00000000  0.56539250  1
  O  O22  1  0.00327950  0.00000000  0.76215400  1
  O  O23  1  0.99672050  0.00000000  0.23784600  1
