# generated using pymatgen
data_LiCu3O4
_symmetry_space_group_name_H-M   'P 1'
_cell_length_a   8.41618600
_cell_length_b   7.74521400
_cell_length_c   6.39877898
_cell_angle_alpha   90.00000000
_cell_angle_beta   131.11814812
_cell_angle_gamma   90.00000000
_symmetry_Int_Tables_number   1
_chemical_formula_structural   LiCu3O4
_chemical_formula_sum   'Li4 Cu12 O16'
_cell_volume   314.22852647
_cell_formula_units_Z   4
loop_
 _symmetry_equiv_pos_site_id
 _symmetry_equiv_pos_as_xyz
  1  'x, y, z'
loop_
 _atom_site_type_symbol
 _atom_site_label
 _atom_site_symmetry_multiplicity
 _atom_site_fract_x
 _atom_site_fract_y
 _atom_site_fract_z
 _atom_site_occupancy
  Li  Li0  1  0.00000000  0.00000000  0.00000000  1
  Li  Li1  1  0.00000000  0.00000000  0.50000000  1
  Li  Li2  1  0.50000000  0.50000000  0.00000000  1
  Li  Li3  1  0.50000000  0.50000000  0.50000000  1
  Cu  Cu4  1  0.75000000  0.75000000  0.00000000  1
  Cu  Cu5  1  0.00000000  0.50000000  0.00000000  1
  Cu  Cu6  1  0.25000000  0.25000000  0.50000000  1
  Cu  Cu7  1  0.25000000  0.75000000  0.00000000  1
  Cu  Cu8  1  0.50000000  0.00000000  0.50000000  1
  Cu  Cu9  1  0.25000000  0.75000000  0.50000000  1
  Cu  Cu10  1  0.25000000  0.25000000  0.00000000  1
  Cu  Cu11  1  0.50000000  0.00000000  0.00000000  1
  Cu  Cu12  1  0.75000000  0.75000000  0.50000000  1
  Cu  Cu13  1  0.75000000  0.25000000  0.00000000  1
  Cu  Cu14  1  0.00000000  0.50000000  0.50000000  1
  Cu  Cu15  1  0.75000000  0.25000000  0.50000000  1
  O  O16  1  0.25191650  0.00145250  0.95671500  1
  O  O17  1  0.42211750  0.76100050  0.90248200  1
  O  O18  1  0.25191650  0.99854750  0.45671500  1
  O  O19  1  0.57788250  0.76100050  0.59751800  1
  O  O20  1  0.92211750  0.73899950  0.40248200  1
  O  O21  1  0.24808350  0.50145250  0.54328500  1
  O  O22  1  0.07788250  0.73899950  0.09751800  1
  O  O23  1  0.24808350  0.49854750  0.04328500  1
  O  O24  1  0.75191650  0.50145250  0.95671500  1
  O  O25  1  0.92211750  0.26100050  0.90248200  1
  O  O26  1  0.75191650  0.49854750  0.45671500  1
  O  O27  1  0.07788250  0.26100050  0.59751800  1
  O  O28  1  0.42211750  0.23899950  0.40248200  1
  O  O29  1  0.74808350  0.00145250  0.54328500  1
  O  O30  1  0.57788250  0.23899950  0.09751800  1
  O  O31  1  0.74808350  0.99854750  0.04328500  1
