# generated using pymatgen
data_Li6Mn5O10
_symmetry_space_group_name_H-M   'P 1'
_cell_length_a   5.74419000
_cell_length_b   14.79422800
_cell_length_c   5.17595201
_cell_angle_alpha   90.00000000
_cell_angle_beta   92.80715883
_cell_angle_gamma   90.00000000
_symmetry_Int_Tables_number   1
_chemical_formula_structural   Li6Mn5O10
_chemical_formula_sum   'Li12 Mn10 O20'
_cell_volume   439.32901825
_cell_formula_units_Z   2
loop_
 _symmetry_equiv_pos_site_id
 _symmetry_equiv_pos_as_xyz
  1  'x, y, z'
loop_
 _atom_site_type_symbol
 _atom_site_label
 _atom_site_symmetry_multiplicity
 _atom_site_fract_x
 _atom_site_fract_y
 _atom_site_fract_z
 _atom_site_occupancy
  Li  Li0  1  0.17576600  0.90791700  0.60096600  1
  Li  Li1  1  0.33661350  0.78544050  0.40046400  1
  Li  Li2  1  0.78603400  0.89757600  0.41384000  1
  Li  Li3  1  0.67576600  0.59208300  0.60096600  1
  Li  Li4  1  0.83661350  0.71455950  0.40046400  1
  Li  Li5  1  0.28603400  0.60242400  0.41384000  1
  Li  Li6  1  0.67576600  0.40791700  0.60096600  1
  Li  Li7  1  0.83661350  0.28544050  0.40046400  1
  Li  Li8  1  0.28603400  0.39757600  0.41384000  1
  Li  Li9  1  0.17576600  0.09208300  0.60096600  1
  Li  Li10  1  0.33661350  0.21455950  0.40046400  1
  Li  Li11  1  0.78603400  0.10242400  0.41384000  1
  Mn  Mn12  1  0.02035300  0.00000000  0.03110800  1
  Mn  Mn13  1  0.52919350  0.90170150  0.96709300  1
  Mn  Mn14  1  0.50832800  0.70370700  0.97941800  1
  Mn  Mn15  1  0.00832800  0.79629300  0.97941800  1
  Mn  Mn16  1  0.02919350  0.59829850  0.96709300  1
  Mn  Mn17  1  0.52035300  0.50000000  0.03110800  1
  Mn  Mn18  1  0.02919350  0.40170150  0.96709300  1
  Mn  Mn19  1  0.00832800  0.20370700  0.97941800  1
  Mn  Mn20  1  0.50832800  0.29629300  0.97941800  1
  Mn  Mn21  1  0.52919350  0.09829850  0.96709300  1
  O  O22  1  0.34871200  0.00000000  0.79724300  1
  O  O23  1  0.11515150  0.88047750  0.24741900  1
  O  O24  1  0.36022400  0.80654500  0.77454000  1
  O  O25  1  0.66411600  0.00000000  0.18759900  1
  O  O26  1  0.87395950  0.89161450  0.77170300  1
  O  O27  1  0.62881300  0.80334600  0.20313800  1
  O  O28  1  0.86022400  0.69345500  0.77454000  1
  O  O29  1  0.61515150  0.61952250  0.24741900  1
  O  O30  1  0.12881300  0.69665400  0.20313800  1
  O  O31  1  0.37395950  0.60838550  0.77170300  1
  O  O32  1  0.84871200  0.50000000  0.79724300  1
  O  O33  1  0.61515150  0.38047750  0.24741900  1
  O  O34  1  0.86022400  0.30654500  0.77454000  1
  O  O35  1  0.16411600  0.50000000  0.18759900  1
  O  O36  1  0.37395950  0.39161450  0.77170300  1
  O  O37  1  0.12881300  0.30334600  0.20313800  1
  O  O38  1  0.36022400  0.19345500  0.77454000  1
  O  O39  1  0.11515150  0.11952250  0.24741900  1
  O  O40  1  0.62881300  0.19665400  0.20313800  1
  O  O41  1  0.87395950  0.10838550  0.77170300  1
