# generated using pymatgen
data_Li3Fe2Co3O10
_symmetry_space_group_name_H-M   'P 1'
_cell_length_a   5.25802800
_cell_length_b   2.87658400
_cell_length_c   23.33946430
_cell_angle_alpha   90.00000000
_cell_angle_beta   93.93938151
_cell_angle_gamma   90.00000000
_symmetry_Int_Tables_number   1
_chemical_formula_structural   Li3Fe2Co3O10
_chemical_formula_sum   'Li6 Fe4 Co6 O20'
_cell_volume   352.17904724
_cell_formula_units_Z   2
loop_
 _symmetry_equiv_pos_site_id
 _symmetry_equiv_pos_as_xyz
  1  'x, y, z'
loop_
 _atom_site_type_symbol
 _atom_site_label
 _atom_site_symmetry_multiplicity
 _atom_site_fract_x
 _atom_site_fract_y
 _atom_site_fract_z
 _atom_site_occupancy
  Li  Li0  1  0.19809600  0.00000000  0.60416600  1
  Li  Li1  1  0.20594600  0.50000000  0.10085200  1
  Li  Li2  1  0.56378300  0.00000000  0.78774600  1
  Li  Li3  1  0.84021500  0.50000000  0.91288400  1
  Li  Li4  1  0.57113400  0.50000000  0.28652800  1
  Li  Li5  1  0.83126000  0.00000000  0.41115500  1
  Fe  Fe6  1  0.09713200  0.00000000  0.30145200  1
  Fe  Fe7  1  0.50059500  0.00000000  0.50390700  1
  Fe  Fe8  1  0.69403800  0.00000000  0.09582900  1
  Fe  Fe9  1  0.90798200  0.50000000  0.19847100  1
  Co  Co10  1  0.09202100  0.50000000  0.80049300  1
  Co  Co11  1  0.30608600  0.00000000  0.89612300  1
  Co  Co12  1  0.48919200  0.50000000  0.99509900  1
  Co  Co13  1  0.31155800  0.50000000  0.40181600  1
  Co  Co14  1  0.70337300  0.50000000  0.60442600  1
  Co  Co15  1  0.89711500  0.00000000  0.70196900  1
  O  O16  1  0.00087600  0.50000000  0.65317400  1
  O  O17  1  0.20640200  0.50000000  0.94255700  1
  O  O18  1  0.19105400  0.00000000  0.75457900  1
  O  O19  1  0.02107700  0.00000000  0.14482000  1
  O  O20  1  0.19476300  0.00000000  0.44649600  1
  O  O21  1  0.40544100  0.50000000  0.84635700  1
  O  O22  1  0.21986300  0.50000000  0.25436700  1
  O  O23  1  0.39276600  0.50000000  0.55769500  1
  O  O24  1  0.60576100  0.00000000  0.94733300  1
  O  O25  1  0.43027300  0.00000000  0.35620100  1
  O  O26  1  0.59914100  0.00000000  0.64999700  1
  O  O27  1  0.37120700  0.00000000  0.03986300  1
  O  O28  1  0.61608400  0.50000000  0.45006800  1
  O  O29  1  0.79103700  0.50000000  0.75057700  1
  O  O30  1  0.57456800  0.50000000  0.14242500  1
  O  O31  1  0.81710400  0.00000000  0.55939100  1
  O  O32  1  0.98978000  0.00000000  0.84895700  1
  O  O33  1  0.77757300  0.00000000  0.25130200  1
  O  O34  1  0.78460500  0.50000000  0.04295400  1
  O  O35  1  0.99873600  0.50000000  0.35791100  1
