# generated using pymatgen
data_Li4Nb2Fe3Ni3O16
_symmetry_space_group_name_H-M   'P 1'
_cell_length_a   10.33894200
_cell_length_b   5.87321400
_cell_length_c   9.69886555
_cell_angle_alpha   90.00000000
_cell_angle_beta   91.39717887
_cell_angle_gamma   90.00000000
_symmetry_Int_Tables_number   1
_chemical_formula_structural   Li4Nb2Fe3Ni3O16
_chemical_formula_sum   'Li8 Nb4 Fe6 Ni6 O32'
_cell_volume   588.76735904
_cell_formula_units_Z   2
loop_
 _symmetry_equiv_pos_site_id
 _symmetry_equiv_pos_as_xyz
  1  'x, y, z'
loop_
 _atom_site_type_symbol
 _atom_site_label
 _atom_site_symmetry_multiplicity
 _atom_site_fract_x
 _atom_site_fract_y
 _atom_site_fract_z
 _atom_site_occupancy
  Li  Li0  1  0.66146200  0.00000000  0.89832400  1
  Li  Li1  1  0.99794300  0.00000000  0.98995300  1
  Li  Li2  1  0.99939400  0.00000000  0.49163900  1
  Li  Li3  1  0.83666000  0.50000000  0.40546500  1
  Li  Li4  1  0.16146200  0.50000000  0.89832400  1
  Li  Li5  1  0.49794300  0.50000000  0.98995300  1
  Li  Li6  1  0.49939400  0.50000000  0.49163900  1
  Li  Li7  1  0.33666000  0.00000000  0.40546500  1
  Nb  Nb8  1  0.67047500  0.00000000  0.49599800  1
  Nb  Nb9  1  0.82766100  0.50000000  0.99295100  1
  Nb  Nb10  1  0.17047500  0.50000000  0.49599800  1
  Nb  Nb11  1  0.32766100  0.00000000  0.99295100  1
  Fe  Fe12  1  0.58760250  0.24526350  0.21877400  1
  Fe  Fe13  1  0.58760250  0.75473650  0.21877400  1
  Fe  Fe14  1  0.67070600  0.50000000  0.71788700  1
  Fe  Fe15  1  0.08760250  0.74526350  0.21877400  1
  Fe  Fe16  1  0.08760250  0.25473650  0.21877400  1
  Fe  Fe17  1  0.17070600  0.00000000  0.71788700  1
  Ni  Ni18  1  0.83043800  0.00000000  0.21217300  1
  Ni  Ni19  1  0.91366850  0.74716350  0.71425300  1
  Ni  Ni20  1  0.91366850  0.25283650  0.71425300  1
  Ni  Ni21  1  0.33043800  0.50000000  0.21217300  1
  Ni  Ni22  1  0.41366850  0.24716350  0.71425300  1
  Ni  Ni23  1  0.41366850  0.75283650  0.71425300  1
  O  O24  1  0.59035950  0.25117050  0.59024500  1
  O  O25  1  0.51991600  0.00000000  0.34459200  1
  O  O26  1  0.66240800  0.00000000  0.10944900  1
  O  O27  1  0.50091300  0.50000000  0.30333600  1
  O  O28  1  0.99681700  0.00000000  0.80116900  1
  O  O29  1  0.59035950  0.74882950  0.59024500  1
  O  O30  1  0.74179450  0.22558650  0.34567800  1
  O  O31  1  0.74179450  0.77441350  0.34567800  1
  O  O32  1  0.66639700  0.50000000  0.09440400  1
  O  O33  1  0.84106300  0.00000000  0.59638400  1
  O  O34  1  0.75371250  0.72394650  0.84518300  1
  O  O35  1  0.75371250  0.27605350  0.84518300  1
  O  O36  1  0.83790500  0.50000000  0.61438600  1
  O  O37  1  0.91905300  0.74832500  0.08790700  1
  O  O38  1  0.97637800  0.50000000  0.83565000  1
  O  O39  1  0.91905300  0.25167500  0.08790700  1
  O  O40  1  0.09035950  0.75117050  0.59024500  1
  O  O41  1  0.01991600  0.50000000  0.34459200  1
  O  O42  1  0.16240800  0.50000000  0.10944900  1
  O  O43  1  0.00091300  0.00000000  0.30333600  1
  O  O44  1  0.49681700  0.50000000  0.80116900  1
  O  O45  1  0.09035950  0.24882950  0.59024500  1
  O  O46  1  0.24179450  0.72558650  0.34567800  1
  O  O47  1  0.24179450  0.27441350  0.34567800  1
  O  O48  1  0.16639700  0.00000000  0.09440400  1
  O  O49  1  0.34106300  0.50000000  0.59638400  1
  O  O50  1  0.25371250  0.22394650  0.84518300  1
  O  O51  1  0.25371250  0.77605350  0.84518300  1
  O  O52  1  0.33790500  0.00000000  0.61438600  1
  O  O53  1  0.41905300  0.24832500  0.08790700  1
  O  O54  1  0.47637800  0.00000000  0.83565000  1
  O  O55  1  0.41905300  0.75167500  0.08790700  1
