# generated using pymatgen
data_Mn2O3F
_symmetry_space_group_name_H-M   'P 1'
_cell_length_a   6.32858400
_cell_length_b   6.65022200
_cell_length_c   12.07329300
_cell_angle_alpha   90.00000000
_cell_angle_beta   90.00000000
_cell_angle_gamma   90.00000000
_symmetry_Int_Tables_number   1
_chemical_formula_structural   Mn2O3F
_chemical_formula_sum   'Mn16 O24 F8'
_cell_volume   508.12250755
_cell_formula_units_Z   8
loop_
 _symmetry_equiv_pos_site_id
 _symmetry_equiv_pos_as_xyz
  1  'x, y, z'
loop_
 _atom_site_type_symbol
 _atom_site_label
 _atom_site_symmetry_multiplicity
 _atom_site_fract_x
 _atom_site_fract_y
 _atom_site_fract_z
 _atom_site_occupancy
  Mn  Mn0  1  0.00000000  0.00000000  0.00000000  1
  Mn  Mn1  1  0.50000000  0.51092400  0.25000000  1
  Mn  Mn2  1  0.00000000  0.00000000  0.50000000  1
  Mn  Mn3  1  0.50000000  0.48907600  0.75000000  1
  Mn  Mn4  1  0.50000000  0.02047200  0.62492400  1
  Mn  Mn5  1  0.50000000  0.97952800  0.12492400  1
  Mn  Mn6  1  0.50000000  0.97952800  0.37507600  1
  Mn  Mn7  1  0.50000000  0.02047200  0.87507600  1
  Mn  Mn8  1  0.50000000  0.50000000  0.00000000  1
  Mn  Mn9  1  0.00000000  0.01092400  0.25000000  1
  Mn  Mn10  1  0.50000000  0.50000000  0.50000000  1
  Mn  Mn11  1  0.00000000  0.98907600  0.75000000  1
  Mn  Mn12  1  0.00000000  0.52047200  0.62492400  1
  Mn  Mn13  1  0.00000000  0.47952800  0.12492400  1
  Mn  Mn14  1  0.00000000  0.47952800  0.37507600  1
  Mn  Mn15  1  0.00000000  0.52047200  0.87507600  1
  O  O16  1  0.50000000  0.31101000  0.62442200  1
  O  O17  1  0.50000000  0.31101000  0.87557800  1
  O  O18  1  0.30943900  0.00000000  0.00000000  1
  O  O19  1  0.30555550  0.98715950  0.25000000  1
  O  O20  1  0.30943900  0.00000000  0.50000000  1
  O  O21  1  0.30555550  0.01284050  0.75000000  1
  O  O22  1  0.69056100  0.00000000  0.00000000  1
  O  O23  1  0.69444450  0.98715950  0.25000000  1
  O  O24  1  0.69056100  0.00000000  0.50000000  1
  O  O25  1  0.69444450  0.01284050  0.75000000  1
  O  O26  1  0.50000000  0.68899000  0.12442200  1
  O  O27  1  0.50000000  0.68899000  0.37557800  1
  O  O28  1  0.00000000  0.81101000  0.62442200  1
  O  O29  1  0.00000000  0.81101000  0.87557800  1
  O  O30  1  0.80943900  0.50000000  0.00000000  1
  O  O31  1  0.80555550  0.48715950  0.25000000  1
  O  O32  1  0.80943900  0.50000000  0.50000000  1
  O  O33  1  0.80555550  0.51284050  0.75000000  1
  O  O34  1  0.19056100  0.50000000  0.00000000  1
  O  O35  1  0.19444450  0.48715950  0.25000000  1
  O  O36  1  0.19056100  0.50000000  0.50000000  1
  O  O37  1  0.19444450  0.51284050  0.75000000  1
  O  O38  1  0.00000000  0.18899000  0.12442200  1
  O  O39  1  0.00000000  0.18899000  0.37557800  1
  F  F40  1  0.50000000  0.28959100  0.13124600  1
  F  F41  1  0.50000000  0.28959100  0.36875400  1
  F  F42  1  0.50000000  0.71040900  0.63124600  1
  F  F43  1  0.50000000  0.71040900  0.86875400  1
  F  F44  1  0.00000000  0.78959100  0.13124600  1
  F  F45  1  0.00000000  0.78959100  0.36875400  1
  F  F46  1  0.00000000  0.21040900  0.63124600  1
  F  F47  1  0.00000000  0.21040900  0.86875400  1
