# generated using pymatgen
data_Na2FeO3
_symmetry_space_group_name_H-M   'P 1'
_cell_length_a   5.64232600
_cell_length_b   10.20344400
_cell_length_c   5.29248100
_cell_angle_alpha   90.00000000
_cell_angle_beta   106.16702629
_cell_angle_gamma   90.00000000
_symmetry_Int_Tables_number   1
_chemical_formula_structural   Na2FeO3
_chemical_formula_sum   'Na8 Fe4 O12'
_cell_volume   292.64484358
_cell_formula_units_Z   4
loop_
 _symmetry_equiv_pos_site_id
 _symmetry_equiv_pos_as_xyz
  1  'x, y, z'
loop_
 _atom_site_type_symbol
 _atom_site_label
 _atom_site_symmetry_multiplicity
 _atom_site_fract_x
 _atom_site_fract_y
 _atom_site_fract_z
 _atom_site_occupancy
  Na  Na0  1  0.99727400  0.59262600  0.49162600  1
  Na  Na1  1  0.49397050  0.75284550  0.50176600  1
  Na  Na2  1  0.99397050  0.74715450  0.00176600  1
  Na  Na3  1  0.49727400  0.90737400  0.99162600  1
  Na  Na4  1  0.49727400  0.09262600  0.49162600  1
  Na  Na5  1  0.99397050  0.25284550  0.50176600  1
  Na  Na6  1  0.49397050  0.24715450  0.00176600  1
  Na  Na7  1  0.99727400  0.40737400  0.99162600  1
  Fe  Fe8  1  0.02299550  0.93748750  0.51690900  1
  Fe  Fe9  1  0.52299550  0.56251250  0.01690900  1
  Fe  Fe10  1  0.52299550  0.43748750  0.51690900  1
  Fe  Fe11  1  0.02299550  0.06251250  0.01690900  1
  O  O12  1  0.71176450  0.57310050  0.76937400  1
  O  O13  1  0.21176450  0.92689950  0.26937400  1
  O  O14  1  0.16686100  0.79023500  0.67247400  1
  O  O15  1  0.80593300  0.95162700  0.74565100  1
  O  O16  1  0.66686100  0.70976500  0.17247400  1
  O  O17  1  0.30593300  0.54837300  0.24565100  1
  O  O18  1  0.21176450  0.07310050  0.76937400  1
  O  O19  1  0.71176450  0.42689950  0.26937400  1
  O  O20  1  0.66686100  0.29023500  0.67247400  1
  O  O21  1  0.30593300  0.45162700  0.74565100  1
  O  O22  1  0.16686100  0.20976500  0.17247400  1
  O  O23  1  0.80593300  0.04837300  0.24565100  1
