# generated using pymatgen
data_Li2MnAsCO7
_symmetry_space_group_name_H-M   'P 1'
_cell_length_a   5.25124791
_cell_length_b   6.49229600
_cell_length_c   8.73370370
_cell_angle_alpha   90.00000000
_cell_angle_beta   93.04577447
_cell_angle_gamma   90.00000000
_symmetry_Int_Tables_number   1
_chemical_formula_structural   Li2MnAsCO7
_chemical_formula_sum   'Li4 Mn2 As2 C2 O14'
_cell_volume   297.33454642
_cell_formula_units_Z   2
loop_
 _symmetry_equiv_pos_site_id
 _symmetry_equiv_pos_as_xyz
  1  'x, y, z'
loop_
 _atom_site_type_symbol
 _atom_site_label
 _atom_site_symmetry_multiplicity
 _atom_site_fract_x
 _atom_site_fract_y
 _atom_site_fract_z
 _atom_site_occupancy
  Li  Li0  1  0.20964000  0.48023800  0.79300850  1
  Li  Li1  1  0.20964000  0.01976200  0.79300850  1
  Li  Li2  1  0.79036000  0.51976200  0.20699150  1
  Li  Li3  1  0.79036000  0.98023800  0.20699150  1
  Mn  Mn4  1  0.77646800  0.25000000  0.65869550  1
  Mn  Mn5  1  0.22353200  0.75000000  0.34130450  1
  As  As6  1  0.70863450  0.75000000  0.56947700  1
  As  As7  1  0.29136550  0.25000000  0.43052300  1
  C  C8  1  0.71669250  0.25000000  0.94952500  1
  C  C9  1  0.28330750  0.75000000  0.05047500  1
  O  O10  1  0.27116500  0.75000000  0.90500850  1
  O  O11  1  0.72883500  0.25000000  0.09499150  1
  O  O12  1  0.93212450  0.25000000  0.87348700  1
  O  O13  1  0.06787550  0.75000000  0.12651300  1
  O  O14  1  0.50924400  0.25000000  0.86297250  1
  O  O15  1  0.49075600  0.75000000  0.13702750  1
  O  O16  1  0.18301050  0.25000000  0.61172700  1
  O  O17  1  0.81698950  0.75000000  0.38827300  1
  O  O18  1  0.37708250  0.75000000  0.54917300  1
  O  O19  1  0.62291750  0.25000000  0.45082700  1
  O  O20  1  0.81352200  0.95328800  0.68057850  1
  O  O21  1  0.81352200  0.54671200  0.68057850  1
  O  O22  1  0.18647800  0.45328800  0.31942150  1
  O  O23  1  0.18647800  0.04671200  0.31942150  1
