# generated using pymatgen
data_MnCrO4
_symmetry_space_group_name_H-M   'P 1'
_cell_length_a   5.63846600
_cell_length_b   8.58483700
_cell_length_c   6.68876600
_cell_angle_alpha   90.00000000
_cell_angle_beta   90.00000000
_cell_angle_gamma   90.00000000
_symmetry_Int_Tables_number   1
_chemical_formula_structural   MnCrO4
_chemical_formula_sum   'Mn4 Cr4 O16'
_cell_volume   323.77180212
_cell_formula_units_Z   4
loop_
 _symmetry_equiv_pos_site_id
 _symmetry_equiv_pos_as_xyz
  1  'x, y, z'
loop_
 _atom_site_type_symbol
 _atom_site_label
 _atom_site_symmetry_multiplicity
 _atom_site_fract_x
 _atom_site_fract_y
 _atom_site_fract_z
 _atom_site_occupancy
  Mn  Mn0  1  0.00000000  0.00000000  0.00000000  1
  Mn  Mn1  1  0.50000000  0.50000000  0.50000000  1
  Mn  Mn2  1  0.50000000  0.50000000  0.00000000  1
  Mn  Mn3  1  0.00000000  0.00000000  0.50000000  1
  Cr  Cr4  1  0.50000000  0.85635100  0.75000000  1
  Cr  Cr5  1  0.50000000  0.14364900  0.25000000  1
  Cr  Cr6  1  0.00000000  0.35635100  0.75000000  1
  Cr  Cr7  1  0.00000000  0.64364900  0.25000000  1
  O  O8  1  0.50000000  0.74435450  0.94951200  1
  O  O9  1  0.50000000  0.25564550  0.05048800  1
  O  O10  1  0.50000000  0.74435450  0.55048800  1
  O  O11  1  0.50000000  0.25564550  0.44951200  1
  O  O12  1  0.24914050  0.96809700  0.75000000  1
  O  O13  1  0.24914050  0.03190300  0.25000000  1
  O  O14  1  0.75085950  0.03190300  0.25000000  1
  O  O15  1  0.75085950  0.96809700  0.75000000  1
  O  O16  1  0.00000000  0.24435450  0.94951200  1
  O  O17  1  0.00000000  0.75564550  0.05048800  1
  O  O18  1  0.00000000  0.24435450  0.55048800  1
  O  O19  1  0.00000000  0.75564550  0.44951200  1
  O  O20  1  0.74914050  0.46809700  0.75000000  1
  O  O21  1  0.74914050  0.53190300  0.25000000  1
  O  O22  1  0.25085950  0.53190300  0.25000000  1
  O  O23  1  0.25085950  0.46809700  0.75000000  1
