# generated using pymatgen
data_LiMn5O7F
_symmetry_space_group_name_H-M   'P 1'
_cell_length_a   6.16144073
_cell_length_b   6.16144073
_cell_length_c   14.72959346
_cell_angle_alpha   90.00000000
_cell_angle_beta   90.00000000
_cell_angle_gamma   120.00000000
_symmetry_Int_Tables_number   1
_chemical_formula_structural   LiMn5O7F
_chemical_formula_sum   'Li3 Mn15 O21 F3'
_cell_volume   484.26818938
_cell_formula_units_Z   3
loop_
 _symmetry_equiv_pos_site_id
 _symmetry_equiv_pos_as_xyz
  1  'x, y, z'
loop_
 _atom_site_type_symbol
 _atom_site_label
 _atom_site_symmetry_multiplicity
 _atom_site_fract_x
 _atom_site_fract_y
 _atom_site_fract_z
 _atom_site_occupancy
  Li  Li0  1  0.33333333  0.66666667  0.42962667  1
  Li  Li1  1  0.00000000  0.00000000  0.76296000  1
  Li  Li2  1  0.66666667  0.33333333  0.09629333  1
  Mn  Mn3  1  0.33333333  0.66666667  0.04318067  1
  Mn  Mn4  1  0.33333333  0.66666667  0.65369567  1
  Mn  Mn5  1  0.67317800  0.83658900  0.20393100  1
  Mn  Mn6  1  0.16341100  0.83658900  0.20393100  1
  Mn  Mn7  1  0.16341100  0.32682200  0.20393100  1
  Mn  Mn8  1  0.00000000  0.00000000  0.37651400  1
  Mn  Mn9  1  0.00000000  0.00000000  0.98702900  1
  Mn  Mn10  1  0.33984467  0.16992233  0.53726433  1
  Mn  Mn11  1  0.83007767  0.16992233  0.53726433  1
  Mn  Mn12  1  0.83007767  0.66015533  0.53726433  1
  Mn  Mn13  1  0.66666667  0.33333333  0.70984733  1
  Mn  Mn14  1  0.66666667  0.33333333  0.32036233  1
  Mn  Mn15  1  0.00651133  0.50325567  0.87059767  1
  Mn  Mn16  1  0.49674433  0.50325567  0.87059767  1
  Mn  Mn17  1  0.49674433  0.99348867  0.87059767  1
  O  O18  1  0.48061067  0.96122133  0.13760033  1
  O  O19  1  0.48061067  0.51938933  0.13760033  1
  O  O20  1  0.18622333  0.81377667  0.94752167  1
  O  O21  1  0.33333333  0.66666667  0.78870567  1
  O  O22  1  0.18622333  0.37244667  0.94752167  1
  O  O23  1  0.62755333  0.81377667  0.94752167  1
  O  O24  1  0.03877867  0.51938933  0.13760033  1
  O  O25  1  0.14727733  0.29455467  0.47093367  1
  O  O26  1  0.14727733  0.85272267  0.47093367  1
  O  O27  1  0.85289000  0.14711000  0.28085500  1
  O  O28  1  0.00000000  0.00000000  0.12203900  1
  O  O29  1  0.85289000  0.70578000  0.28085500  1
  O  O30  1  0.29422000  0.14711000  0.28085500  1
  O  O31  1  0.70544533  0.85272267  0.47093367  1
  O  O32  1  0.81394400  0.62788800  0.80426700  1
  O  O33  1  0.81394400  0.18605600  0.80426700  1
  O  O34  1  0.51955667  0.48044333  0.61418833  1
  O  O35  1  0.66666667  0.33333333  0.45537233  1
  O  O36  1  0.51955667  0.03911333  0.61418833  1
  O  O37  1  0.96088667  0.48044333  0.61418833  1
  O  O38  1  0.37211200  0.18605600  0.80426700  1
  F  F39  1  0.33333333  0.66666667  0.30096767  1
  F  F40  1  0.00000000  0.00000000  0.63430100  1
  F  F41  1  0.66666667  0.33333333  0.96763433  1
