# generated using pymatgen
data_Li3Cr2(FeO4)2
_symmetry_space_group_name_H-M   'P 1'
_cell_length_a   10.30401200
_cell_length_b   5.96356200
_cell_length_c   5.94739274
_cell_angle_alpha   90.00000000
_cell_angle_beta   125.00273635
_cell_angle_gamma   90.00000000
_symmetry_Int_Tables_number   1
_chemical_formula_structural   Li3Cr2(FeO4)2
_chemical_formula_sum   'Li6 Cr4 Fe4 O16'
_cell_volume   299.35651109
_cell_formula_units_Z   2
loop_
 _symmetry_equiv_pos_site_id
 _symmetry_equiv_pos_as_xyz
  1  'x, y, z'
loop_
 _atom_site_type_symbol
 _atom_site_label
 _atom_site_symmetry_multiplicity
 _atom_site_fract_x
 _atom_site_fract_y
 _atom_site_fract_z
 _atom_site_occupancy
  Li  Li0  1  0.25000000  0.25000000  0.00000000  1
  Li  Li1  1  0.50000000  0.00000000  0.50000000  1
  Li  Li2  1  0.25000000  0.75000000  0.00000000  1
  Li  Li3  1  0.75000000  0.75000000  0.00000000  1
  Li  Li4  1  0.00000000  0.50000000  0.50000000  1
  Li  Li5  1  0.75000000  0.25000000  0.00000000  1
  Cr  Cr6  1  0.00000000  0.00000000  0.50000000  1
  Cr  Cr7  1  0.00000000  0.00000000  0.00000000  1
  Cr  Cr8  1  0.50000000  0.50000000  0.50000000  1
  Cr  Cr9  1  0.50000000  0.50000000  0.00000000  1
  Fe  Fe10  1  0.25000000  0.25000000  0.50000000  1
  Fe  Fe11  1  0.25000000  0.75000000  0.50000000  1
  Fe  Fe12  1  0.75000000  0.75000000  0.50000000  1
  Fe  Fe13  1  0.75000000  0.25000000  0.50000000  1
  O  O14  1  0.50741800  0.72257700  0.26809200  1
  O  O15  1  0.77073800  0.00000000  0.28298400  1
  O  O16  1  0.49258200  0.72257700  0.73190800  1
  O  O17  1  0.75833800  0.00000000  0.74176800  1
  O  O18  1  0.24166200  0.00000000  0.25823200  1
  O  O19  1  0.50741800  0.27742300  0.26809200  1
  O  O20  1  0.22926200  0.00000000  0.71701600  1
  O  O21  1  0.49258200  0.27742300  0.73190800  1
  O  O22  1  0.00741800  0.22257700  0.26809200  1
  O  O23  1  0.27073800  0.50000000  0.28298400  1
  O  O24  1  0.99258200  0.22257700  0.73190800  1
  O  O25  1  0.25833800  0.50000000  0.74176800  1
  O  O26  1  0.74166200  0.50000000  0.25823200  1
  O  O27  1  0.00741800  0.77742300  0.26809200  1
  O  O28  1  0.72926200  0.50000000  0.71701600  1
  O  O29  1  0.99258200  0.77742300  0.73190800  1
