# generated using pymatgen
data_Li6Co3Ni5O16
_symmetry_space_group_name_H-M   'P 1'
_cell_length_a   10.00129895
_cell_length_b   5.58441958
_cell_length_c   9.25513616
_cell_angle_alpha   90.00000000
_cell_angle_beta   91.96698062
_cell_angle_gamma   90.00000000
_symmetry_Int_Tables_number   1
_chemical_formula_structural   Li6Co3Ni5O16
_chemical_formula_sum   'Li12 Co6 Ni10 O32'
_cell_volume   516.60819335
_cell_formula_units_Z   2
loop_
 _symmetry_equiv_pos_site_id
 _symmetry_equiv_pos_as_xyz
  1  'x, y, z'
loop_
 _atom_site_type_symbol
 _atom_site_label
 _atom_site_symmetry_multiplicity
 _atom_site_fract_x
 _atom_site_fract_y
 _atom_site_fract_z
 _atom_site_occupancy
  Li  Li0  1  0.66840450  0.50000000  0.44999500  1
  Li  Li1  1  0.91801750  0.25478750  0.44588600  1
  Li  Li2  1  0.91801750  0.74521250  0.44588600  1
  Li  Li3  1  0.58240100  0.75754000  0.95106600  1
  Li  Li4  1  0.58240100  0.24246000  0.95106600  1
  Li  Li5  1  0.82977950  0.00000000  0.94701800  1
  Li  Li6  1  0.16840450  0.00000000  0.44999500  1
  Li  Li7  1  0.41801750  0.75478750  0.44588600  1
  Li  Li8  1  0.41801750  0.24521250  0.44588600  1
  Li  Li9  1  0.08240100  0.25754000  0.95106600  1
  Li  Li10  1  0.08240100  0.74246000  0.95106600  1
  Li  Li11  1  0.32977950  0.50000000  0.94701800  1
  Co  Co12  1  0.66537200  0.50000000  0.71100800  1
  Co  Co13  1  0.58228650  0.75411750  0.21560800  1
  Co  Co14  1  0.58228650  0.24588250  0.21560800  1
  Co  Co15  1  0.16537200  0.00000000  0.71100800  1
  Co  Co16  1  0.08228650  0.25411750  0.21560800  1
  Co  Co17  1  0.08228650  0.74588250  0.21560800  1
  Ni  Ni18  1  0.83021300  0.50000000  0.98871600  1
  Ni  Ni19  1  0.91512950  0.25387450  0.71496900  1
  Ni  Ni20  1  0.91512950  0.74612550  0.71496900  1
  Ni  Ni21  1  0.67222750  0.00000000  0.48585800  1
  Ni  Ni22  1  0.82944350  0.00000000  0.21426300  1
  Ni  Ni23  1  0.33021300  0.00000000  0.98871600  1
  Ni  Ni24  1  0.41512950  0.75387450  0.71496900  1
  Ni  Ni25  1  0.41512950  0.24612550  0.71496900  1
  Ni  Ni26  1  0.17222750  0.50000000  0.48585800  1
  Ni  Ni27  1  0.32944350  0.50000000  0.21426300  1
  O  O28  1  0.65280050  0.50000000  0.10766000  1
  O  O29  1  0.74823800  0.27974900  0.84284900  1
  O  O30  1  0.74823800  0.72025100  0.84284900  1
  O  O31  1  0.82660650  0.50000000  0.60268700  1
  O  O32  1  0.91995500  0.23767900  0.09705900  1
  O  O33  1  0.97886200  0.50000000  0.83907700  1
  O  O34  1  0.58853150  0.73984050  0.59695900  1
  O  O35  1  0.91995500  0.76232100  0.09705900  1
  O  O36  1  0.51581050  0.00000000  0.33052500  1
  O  O37  1  0.58853150  0.26015950  0.59695900  1
  O  O38  1  0.73878100  0.77236900  0.33476200  1
  O  O39  1  0.65445050  0.00000000  0.09960300  1
  O  O40  1  0.73878100  0.22763100  0.33476200  1
  O  O41  1  0.84746850  0.00000000  0.59584400  1
  O  O42  1  0.50625800  0.50000000  0.81945000  1
  O  O43  1  0.50717250  0.50000000  0.32506700  1
  O  O44  1  0.15280050  0.00000000  0.10766000  1
  O  O45  1  0.24823800  0.77974900  0.84284900  1
  O  O46  1  0.24823800  0.22025100  0.84284900  1
  O  O47  1  0.32660650  0.00000000  0.60268700  1
  O  O48  1  0.41995500  0.73767900  0.09705900  1
  O  O49  1  0.47886200  0.00000000  0.83907700  1
  O  O50  1  0.08853150  0.23984050  0.59695900  1
  O  O51  1  0.41995500  0.26232100  0.09705900  1
  O  O52  1  0.01581050  0.50000000  0.33052500  1
  O  O53  1  0.08853150  0.76015950  0.59695900  1
  O  O54  1  0.23878100  0.27236900  0.33476200  1
  O  O55  1  0.15445050  0.50000000  0.09960300  1
  O  O56  1  0.23878100  0.72763100  0.33476200  1
  O  O57  1  0.34746850  0.50000000  0.59584400  1
  O  O58  1  0.00625800  0.00000000  0.81945000  1
  O  O59  1  0.00717250  0.00000000  0.32506700  1
