# generated using pymatgen
data_Li3Ti4O8
_symmetry_space_group_name_H-M   'P 1'
_cell_length_a   8.17038000
_cell_length_b   8.37577600
_cell_length_c   5.82602306
_cell_angle_alpha   90.00000000
_cell_angle_beta   134.25375778
_cell_angle_gamma   90.00000000
_symmetry_Int_Tables_number   1
_chemical_formula_structural   Li3Ti4O8
_chemical_formula_sum   'Li6 Ti8 O16'
_cell_volume   285.56691454
_cell_formula_units_Z   2
loop_
 _symmetry_equiv_pos_site_id
 _symmetry_equiv_pos_as_xyz
  1  'x, y, z'
loop_
 _atom_site_type_symbol
 _atom_site_label
 _atom_site_symmetry_multiplicity
 _atom_site_fract_x
 _atom_site_fract_y
 _atom_site_fract_z
 _atom_site_occupancy
  Li  Li0  1  0.00000000  0.00000000  0.50000000  1
  Li  Li1  1  0.25000000  0.25000000  0.50000000  1
  Li  Li2  1  0.25000000  0.75000000  0.50000000  1
  Li  Li3  1  0.50000000  0.50000000  0.50000000  1
  Li  Li4  1  0.75000000  0.75000000  0.50000000  1
  Li  Li5  1  0.75000000  0.25000000  0.50000000  1
  Ti  Ti6  1  0.50000000  0.00000000  0.50000000  1
  Ti  Ti7  1  0.25000000  0.75000000  0.00000000  1
  Ti  Ti8  1  0.00000000  0.00000000  0.00000000  1
  Ti  Ti9  1  0.25000000  0.25000000  0.00000000  1
  Ti  Ti10  1  0.00000000  0.50000000  0.50000000  1
  Ti  Ti11  1  0.75000000  0.25000000  0.00000000  1
  Ti  Ti12  1  0.50000000  0.50000000  0.00000000  1
  Ti  Ti13  1  0.75000000  0.75000000  0.00000000  1
  O  O14  1  0.50000000  0.75063600  0.50000000  1
  O  O15  1  0.75041700  0.00000000  0.00029800  1
  O  O16  1  0.50000000  0.25645900  0.00000000  1
  O  O17  1  0.24445000  0.00000000  0.46236100  1
  O  O18  1  0.75555000  0.00000000  0.53763900  1
  O  O19  1  0.50000000  0.74354100  0.00000000  1
  O  O20  1  0.24958300  0.00000000  0.99970200  1
  O  O21  1  0.50000000  0.24936400  0.50000000  1
  O  O22  1  0.00000000  0.25063600  0.50000000  1
  O  O23  1  0.25041700  0.50000000  0.00029800  1
  O  O24  1  0.00000000  0.75645900  0.00000000  1
  O  O25  1  0.74445000  0.50000000  0.46236100  1
  O  O26  1  0.25555000  0.50000000  0.53763900  1
  O  O27  1  0.00000000  0.24354100  0.00000000  1
  O  O28  1  0.74958300  0.50000000  0.99970200  1
  O  O29  1  0.00000000  0.74936400  0.50000000  1
