# generated using pymatgen
data_MnNb3(PO4)6
_symmetry_space_group_name_H-M   'P 1'
_cell_length_a   8.78705611
_cell_length_b   8.78705611
_cell_length_c   22.24608208
_cell_angle_alpha   90.00000000
_cell_angle_beta   90.00000000
_cell_angle_gamma   120.00000000
_symmetry_Int_Tables_number   1
_chemical_formula_structural   MnNb3(PO4)6
_chemical_formula_sum   'Mn3 Nb9 P18 O72'
_cell_volume   1487.54792428
_cell_formula_units_Z   3
loop_
 _symmetry_equiv_pos_site_id
 _symmetry_equiv_pos_as_xyz
  1  'x, y, z'
loop_
 _atom_site_type_symbol
 _atom_site_label
 _atom_site_symmetry_multiplicity
 _atom_site_fract_x
 _atom_site_fract_y
 _atom_site_fract_z
 _atom_site_occupancy
  Mn  Mn0  1  0.66666667  0.33333333  0.19018633  1
  Mn  Mn1  1  0.33333333  0.66666667  0.52351967  1
  Mn  Mn2  1  0.00000000  0.00000000  0.85685300  1
  Nb  Nb3  1  0.00000000  0.00000000  0.14056100  1
  Nb  Nb4  1  0.33333333  0.66666667  0.02500967  1
  Nb  Nb5  1  0.33333333  0.66666667  0.30623467  1
  Nb  Nb6  1  0.66666667  0.33333333  0.47389433  1
  Nb  Nb7  1  0.00000000  0.00000000  0.35834300  1
  Nb  Nb8  1  0.00000000  0.00000000  0.63956800  1
  Nb  Nb9  1  0.33333333  0.66666667  0.80722767  1
  Nb  Nb10  1  0.66666667  0.33333333  0.69167633  1
  Nb  Nb11  1  0.66666667  0.33333333  0.97290133  1
  P  P12  1  0.94782100  0.33404500  0.08457800  1
  P  P13  1  0.38622400  0.05217900  0.08457800  1
  P  P14  1  0.66595500  0.61377600  0.08457800  1
  P  P15  1  0.99321967  0.70924633  0.24929033  1
  P  P16  1  0.29075367  0.28397333  0.24929033  1
  P  P17  1  0.71602667  0.00678033  0.24929033  1
  P  P18  1  0.61448767  0.66737833  0.41791133  1
  P  P19  1  0.05289067  0.38551233  0.41791133  1
  P  P20  1  0.33262167  0.94710933  0.41791133  1
  P  P21  1  0.65988633  0.04257967  0.58262367  1
  P  P22  1  0.95742033  0.61730667  0.58262367  1
  P  P23  1  0.38269333  0.34011367  0.58262367  1
  P  P24  1  0.28115433  0.00071167  0.75124467  1
  P  P25  1  0.71955733  0.71884567  0.75124467  1
  P  P26  1  0.99928833  0.28044267  0.75124467  1
  P  P27  1  0.32655300  0.37591300  0.91595700  1
  P  P28  1  0.62408700  0.95064000  0.91595700  1
  P  P29  1  0.04936000  0.67344700  0.91595700  1
  O  O30  1  0.82713200  0.02133600  0.30556200  1
  O  O31  1  0.97866400  0.80579600  0.30556200  1
  O  O32  1  0.97192833  0.17026867  0.09035967  1
  O  O33  1  0.19420400  0.17286800  0.30556200  1
  O  O34  1  0.13561633  0.49412567  0.07467767  1
  O  O35  1  0.87162967  0.36476933  0.14065633  1
  O  O36  1  0.19834033  0.02807167  0.09035967  1
  O  O37  1  0.35850933  0.86438367  0.07467767  1
  O  O38  1  0.50587433  0.64149067  0.07467767  1
  O  O39  1  0.02614433  0.82899267  0.19375167  1
  O  O40  1  0.83321267  0.52972733  0.24486733  1
  O  O41  1  0.17100733  0.19715167  0.19375167  1
  O  O42  1  0.49313967  0.12837033  0.14065633  1
  O  O43  1  0.82973133  0.80165967  0.09035967  1
  O  O44  1  0.63523067  0.50686033  0.14065633  1
  O  O45  1  0.16385967  0.69685633  0.25732233  1
  O  O46  1  0.30314367  0.46700333  0.25732233  1
  O  O47  1  0.47027267  0.30348533  0.24486733  1
  O  O48  1  0.80284833  0.97385567  0.19375167  1
  O  O49  1  0.53299667  0.83614033  0.25732233  1
  O  O50  1  0.46984700  0.16215600  0.02716000  1
  O  O51  1  0.69651467  0.16678733  0.24486733  1
  O  O52  1  0.69230900  0.53015300  0.02716000  1
  O  O53  1  0.83784400  0.30769100  0.02716000  1
  O  O54  1  0.49379867  0.35466933  0.63889533  1
  O  O55  1  0.64533067  0.13912933  0.63889533  1
  O  O56  1  0.63859500  0.50360200  0.42369300  1
  O  O57  1  0.86087067  0.50620133  0.63889533  1
  O  O58  1  0.80228300  0.82745900  0.40801100  1
  O  O59  1  0.53829633  0.69810267  0.47398967  1
  O  O60  1  0.86500700  0.36140500  0.42369300  1
  O  O61  1  0.02517600  0.19771700  0.40801100  1
  O  O62  1  0.17254100  0.97482400  0.40801100  1
  O  O63  1  0.69281100  0.16232600  0.52708500  1
  O  O64  1  0.49987933  0.86306067  0.57820067  1
  O  O65  1  0.83767400  0.53048500  0.52708500  1
  O  O66  1  0.15980633  0.46170367  0.47398967  1
  O  O67  1  0.49639800  0.13499300  0.42369300  1
  O  O68  1  0.30189733  0.84019367  0.47398967  1
  O  O69  1  0.83052633  0.03018967  0.59065567  1
  O  O70  1  0.96981033  0.80033667  0.59065567  1
  O  O71  1  0.13693933  0.63681867  0.57820067  1
  O  O72  1  0.46951500  0.30718900  0.52708500  1
  O  O73  1  0.19966333  0.16947367  0.59065567  1
  O  O74  1  0.13651367  0.49548933  0.36049333  1
  O  O75  1  0.36318133  0.50012067  0.57820067  1
  O  O76  1  0.35897567  0.86348633  0.36049333  1
  O  O77  1  0.50451067  0.64102433  0.36049333  1
  O  O78  1  0.16046533  0.68800267  0.97222867  1
  O  O79  1  0.31199733  0.47246267  0.97222867  1
  O  O80  1  0.30526167  0.83693533  0.75702633  1
  O  O81  1  0.52753733  0.83953467  0.97222867  1
  O  O82  1  0.46894967  0.16079233  0.74134433  1
  O  O83  1  0.20496300  0.03143600  0.80732300  1
  O  O84  1  0.53167367  0.69473833  0.75702633  1
  O  O85  1  0.69184267  0.53105033  0.74134433  1
  O  O86  1  0.83920767  0.30815733  0.74134433  1
  O  O87  1  0.35947767  0.49565933  0.86041833  1
  O  O88  1  0.16654600  0.19639400  0.91153400  1
  O  O89  1  0.50434067  0.86381833  0.86041833  1
  O  O90  1  0.82647300  0.79503700  0.80732300  1
  O  O91  1  0.16306467  0.46832633  0.75702633  1
  O  O92  1  0.96856400  0.17352700  0.80732300  1
  O  O93  1  0.49719300  0.36352300  0.92398900  1
  O  O94  1  0.63647700  0.13367000  0.92398900  1
  O  O95  1  0.80360600  0.97015200  0.91153400  1
  O  O96  1  0.13618167  0.64052233  0.86041833  1
  O  O97  1  0.86633000  0.50280700  0.92398900  1
  O  O98  1  0.80318033  0.82882267  0.69382667  1
  O  O99  1  0.02984800  0.83345400  0.91153400  1
  O  O100  1  0.02564233  0.19681967  0.69382667  1
  O  O101  1  0.17117733  0.97435767  0.69382667  1
