# generated using pymatgen
data_NaCr6O11
_symmetry_space_group_name_H-M   'P 1'
_cell_length_a   5.82414737
_cell_length_b   5.82414737
_cell_length_c   12.99973225
_cell_angle_alpha   90.00000000
_cell_angle_beta   90.00000000
_cell_angle_gamma   120.00000000
_symmetry_Int_Tables_number   1
_chemical_formula_structural   NaCr6O11
_chemical_formula_sum   'Na2 Cr12 O22'
_cell_volume   381.88249445
_cell_formula_units_Z   2
loop_
 _symmetry_equiv_pos_site_id
 _symmetry_equiv_pos_as_xyz
  1  'x, y, z'
loop_
 _atom_site_type_symbol
 _atom_site_label
 _atom_site_symmetry_multiplicity
 _atom_site_fract_x
 _atom_site_fract_y
 _atom_site_fract_z
 _atom_site_occupancy
  Na  Na0  1  0.33333333  0.66666667  0.25384275  1
  Na  Na1  1  0.66666667  0.33333333  0.75384275  1
  Cr  Cr2  1  0.00010891  0.50005446  0.00043032  1
  Cr  Cr3  1  0.33333333  0.66666667  0.75030863  1
  Cr  Cr4  1  0.00000000  0.00000000  0.14581623  1
  Cr  Cr5  1  0.00000000  0.00000000  0.35494277  1
  Cr  Cr6  1  0.00000000  0.00000000  0.64581623  1
  Cr  Cr7  1  0.00000000  0.00000000  0.85494277  1
  Cr  Cr8  1  0.49994554  0.99989109  0.00043032  1
  Cr  Cr9  1  0.49994554  0.50005446  0.00043032  1
  Cr  Cr10  1  0.50005446  0.49994554  0.50043032  1
  Cr  Cr11  1  0.66666667  0.33333333  0.25030863  1
  Cr  Cr12  1  0.50005446  0.00010891  0.50043032  1
  Cr  Cr13  1  0.99989109  0.49994554  0.50043032  1
  O  O14  1  0.15431088  0.84568912  0.75030197  1
  O  O15  1  0.17550491  0.82449509  0.42237725  1
  O  O16  1  0.17580217  0.82419783  0.07853912  1
  O  O17  1  0.33333333  0.66666667  0.91310103  1
  O  O18  1  0.33333333  0.66666667  0.58771553  1
  O  O19  1  0.15431088  0.30862176  0.75030197  1
  O  O20  1  0.17550491  0.35100983  0.42237725  1
  O  O21  1  0.17580217  0.35160434  0.07853912  1
  O  O22  1  0.30862176  0.15431088  0.25030197  1
  O  O23  1  0.64839566  0.82419783  0.07853912  1
  O  O24  1  0.64899017  0.82449509  0.42237725  1
  O  O25  1  0.35100983  0.17550491  0.92237725  1
  O  O26  1  0.35160434  0.17580217  0.57853912  1
  O  O27  1  0.69137824  0.84568912  0.75030197  1
  O  O28  1  0.84568912  0.69137824  0.25030197  1
  O  O29  1  0.66666667  0.33333333  0.08771553  1
  O  O30  1  0.82419783  0.64839566  0.57853912  1
  O  O31  1  0.66666667  0.33333333  0.41310103  1
  O  O32  1  0.82449509  0.64899017  0.92237725  1
  O  O33  1  0.82419783  0.17580217  0.57853912  1
  O  O34  1  0.82449509  0.17550491  0.92237725  1
  O  O35  1  0.84568912  0.15431088  0.25030197  1
