# generated using pymatgen
data_Li7Ti11O24
_symmetry_space_group_name_H-M   'P 1'
_cell_length_a   10.34865400
_cell_length_b   17.92506600
_cell_length_c   5.96483802
_cell_angle_alpha   90.00000000
_cell_angle_beta   125.28301677
_cell_angle_gamma   90.00000000
_symmetry_Int_Tables_number   1
_chemical_formula_structural   Li7Ti11O24
_chemical_formula_sum   'Li14 Ti22 O48'
_cell_volume   903.22881477
_cell_formula_units_Z   2
loop_
 _symmetry_equiv_pos_site_id
 _symmetry_equiv_pos_as_xyz
  1  'x, y, z'
loop_
 _atom_site_type_symbol
 _atom_site_label
 _atom_site_symmetry_multiplicity
 _atom_site_fract_x
 _atom_site_fract_y
 _atom_site_fract_z
 _atom_site_occupancy
  Li  Li0  1  0.87676000  0.33492700  0.13020900  1
  Li  Li1  1  0.37676000  0.16507300  0.13020900  1
  Li  Li2  1  0.50000000  0.00000000  0.00000000  1
  Li  Li3  1  0.12324000  0.33492700  0.86979100  1
  Li  Li4  1  0.62324000  0.16507300  0.86979100  1
  Li  Li5  1  0.87595800  0.00000000  0.12802000  1
  Li  Li6  1  0.12404200  0.00000000  0.87198000  1
  Li  Li7  1  0.37676000  0.83492700  0.13020900  1
  Li  Li8  1  0.87676000  0.66507300  0.13020900  1
  Li  Li9  1  0.00000000  0.50000000  0.00000000  1
  Li  Li10  1  0.62324000  0.83492700  0.86979100  1
  Li  Li11  1  0.12324000  0.66507300  0.86979100  1
  Li  Li12  1  0.37595800  0.50000000  0.12802000  1
  Li  Li13  1  0.62404200  0.50000000  0.87198000  1
  Ti  Ti14  1  0.25000000  0.25000000  0.50000000  1
  Ti  Ti15  1  0.26114900  0.08177500  0.52113700  1
  Ti  Ti16  1  0.50000000  0.00000000  0.50000000  1
  Ti  Ti17  1  0.73885100  0.08177500  0.47886300  1
  Ti  Ti18  1  0.23885100  0.41822500  0.47886300  1
  Ti  Ti19  1  0.75000000  0.25000000  0.50000000  1
  Ti  Ti20  1  0.50000000  0.33387800  0.50000000  1
  Ti  Ti21  1  0.00000000  0.16612200  0.50000000  1
  Ti  Ti22  1  0.50000000  0.33413000  0.00000000  1
  Ti  Ti23  1  0.00000000  0.16587000  0.00000000  1
  Ti  Ti24  1  0.76114900  0.41822500  0.52113700  1
  Ti  Ti25  1  0.75000000  0.75000000  0.50000000  1
  Ti  Ti26  1  0.76114900  0.58177500  0.52113700  1
  Ti  Ti27  1  0.00000000  0.50000000  0.50000000  1
  Ti  Ti28  1  0.23885100  0.58177500  0.47886300  1
  Ti  Ti29  1  0.73885100  0.91822500  0.47886300  1
  Ti  Ti30  1  0.25000000  0.75000000  0.50000000  1
  Ti  Ti31  1  0.00000000  0.83387800  0.50000000  1
  Ti  Ti32  1  0.50000000  0.66612200  0.50000000  1
  Ti  Ti33  1  0.00000000  0.83413000  0.00000000  1
  Ti  Ti34  1  0.50000000  0.66587000  0.00000000  1
  Ti  Ti35  1  0.26114900  0.91822500  0.52113700  1
  O  O36  1  0.98710150  0.24177450  0.73624600  1
  O  O37  1  0.01289850  0.24177450  0.26375400  1
  O  O38  1  0.23853400  0.16613600  0.71480200  1
  O  O39  1  0.23590900  0.16671200  0.26276100  1
  O  O40  1  0.24914800  0.00000000  0.71476100  1
  O  O41  1  0.26300400  0.00000000  0.28709800  1
  O  O42  1  0.48197000  0.07703100  0.71755700  1
  O  O43  1  0.48710150  0.25822550  0.73624600  1
  O  O44  1  0.98197000  0.42296900  0.71755700  1
  O  O45  1  0.51803000  0.07703100  0.28244300  1
  O  O46  1  0.01803000  0.42296900  0.28244300  1
  O  O47  1  0.51289850  0.25822550  0.26375400  1
  O  O48  1  0.73699600  0.00000000  0.71290200  1
  O  O49  1  0.75085200  0.00000000  0.28523900  1
  O  O50  1  0.76409100  0.16671200  0.73723900  1
  O  O51  1  0.76146600  0.16613600  0.28519800  1
  O  O52  1  0.26409100  0.33328800  0.73723900  1
  O  O53  1  0.26146600  0.33386400  0.28519800  1
  O  O54  1  0.98738400  0.09292200  0.73807100  1
  O  O55  1  0.48738400  0.40707800  0.73807100  1
  O  O56  1  0.01261600  0.09292200  0.26192900  1
  O  O57  1  0.51261600  0.40707800  0.26192900  1
  O  O58  1  0.73853400  0.33386400  0.71480200  1
  O  O59  1  0.73590900  0.33328800  0.26276100  1
  O  O60  1  0.48710150  0.74177450  0.73624600  1
  O  O61  1  0.51289850  0.74177450  0.26375400  1
  O  O62  1  0.73853400  0.66613600  0.71480200  1
  O  O63  1  0.73590900  0.66671200  0.26276100  1
  O  O64  1  0.74914800  0.50000000  0.71476100  1
  O  O65  1  0.76300400  0.50000000  0.28709800  1
  O  O66  1  0.98197000  0.57703100  0.71755700  1
  O  O67  1  0.98710150  0.75822550  0.73624600  1
  O  O68  1  0.48197000  0.92296900  0.71755700  1
  O  O69  1  0.01803000  0.57703100  0.28244300  1
  O  O70  1  0.51803000  0.92296900  0.28244300  1
  O  O71  1  0.01289850  0.75822550  0.26375400  1
  O  O72  1  0.23699600  0.50000000  0.71290200  1
  O  O73  1  0.25085200  0.50000000  0.28523900  1
  O  O74  1  0.26409100  0.66671200  0.73723900  1
  O  O75  1  0.26146600  0.66613600  0.28519800  1
  O  O76  1  0.76409100  0.83328800  0.73723900  1
  O  O77  1  0.76146600  0.83386400  0.28519800  1
  O  O78  1  0.48738400  0.59292200  0.73807100  1
  O  O79  1  0.98738400  0.90707800  0.73807100  1
  O  O80  1  0.51261600  0.59292200  0.26192900  1
  O  O81  1  0.01261600  0.90707800  0.26192900  1
  O  O82  1  0.23853400  0.83386400  0.71480200  1
  O  O83  1  0.23590900  0.83328800  0.26276100  1
