# generated using pymatgen
data_MnCo(PO4)2
_symmetry_space_group_name_H-M   'P 1'
_cell_length_a   8.60073991
_cell_length_b   8.60073991
_cell_length_c   20.52438641
_cell_angle_alpha   90.00000000
_cell_angle_beta   90.00000000
_cell_angle_gamma   120.00000000
_symmetry_Int_Tables_number   1
_chemical_formula_structural   MnCo(PO4)2
_chemical_formula_sum   'Mn9 Co9 P18 O72'
_cell_volume   1314.83859436
_cell_formula_units_Z   9
loop_
 _symmetry_equiv_pos_site_id
 _symmetry_equiv_pos_as_xyz
  1  'x, y, z'
loop_
 _atom_site_type_symbol
 _atom_site_label
 _atom_site_symmetry_multiplicity
 _atom_site_fract_x
 _atom_site_fract_y
 _atom_site_fract_z
 _atom_site_occupancy
  Mn  Mn0  1  0.33333333  0.66666667  0.02475567  1
  Mn  Mn1  1  0.33333333  0.66666667  0.80844367  1
  Mn  Mn2  1  0.33333333  0.66666667  0.30928967  1
  Mn  Mn3  1  0.00000000  0.00000000  0.35808900  1
  Mn  Mn4  1  0.00000000  0.00000000  0.14177700  1
  Mn  Mn5  1  0.00000000  0.00000000  0.64262300  1
  Mn  Mn6  1  0.66666667  0.33333333  0.69142233  1
  Mn  Mn7  1  0.66666667  0.33333333  0.47511033  1
  Mn  Mn8  1  0.66666667  0.33333333  0.97595633  1
  Co  Co9  1  0.33333333  0.66666667  0.66410567  1
  Co  Co10  1  0.33333333  0.66666667  0.52342667  1
  Co  Co11  1  0.33333333  0.66666667  0.16738167  1
  Co  Co12  1  0.00000000  0.00000000  0.99743900  1
  Co  Co13  1  0.00000000  0.00000000  0.85676000  1
  Co  Co14  1  0.00000000  0.00000000  0.50071500  1
  Co  Co15  1  0.66666667  0.33333333  0.33077233  1
  Co  Co16  1  0.66666667  0.33333333  0.19009333  1
  Co  Co17  1  0.66666667  0.33333333  0.83404833  1
  P  P18  1  0.66753900  0.62761800  0.08271200  1
  P  P19  1  0.96007900  0.33246100  0.08271200  1
  P  P20  1  0.37238200  0.03992100  0.08271200  1
  P  P21  1  0.29082833  0.29106567  0.25093167  1
  P  P22  1  0.70893433  0.99976267  0.25093167  1
  P  P23  1  0.00023733  0.70917167  0.25093167  1
  P  P24  1  0.33420567  0.96095133  0.41604533  1
  P  P25  1  0.62674567  0.66579433  0.41604533  1
  P  P26  1  0.03904867  0.37325433  0.41604533  1
  P  P27  1  0.95749500  0.62439900  0.58426500  1
  P  P28  1  0.37560100  0.33309600  0.58426500  1
  P  P29  1  0.66690400  0.04250500  0.58426500  1
  P  P30  1  0.00087233  0.29428467  0.74937867  1
  P  P31  1  0.29341233  0.99912767  0.74937867  1
  P  P32  1  0.70571533  0.70658767  0.74937867  1
  P  P33  1  0.62416167  0.95773233  0.91759833  1
  P  P34  1  0.04226767  0.66642933  0.91759833  1
  P  P35  1  0.33357067  0.37583833  0.91759833  1
  O  O36  1  0.52974133  0.66496267  0.35377767  1
  O  O37  1  0.13522133  0.47025867  0.35377767  1
  O  O38  1  0.33503733  0.86477867  0.35377767  1
  O  O39  1  0.83418200  0.82143800  0.07417100  1
  O  O40  1  0.66759433  0.53403767  0.14584967  1
  O  O41  1  0.49626100  0.65028600  0.08973700  1
  O  O42  1  0.98725600  0.16581800  0.07417100  1
  O  O43  1  0.15402500  0.50373900  0.08973700  1
  O  O44  1  0.19697667  0.19532033  0.18794933  1
  O  O45  1  0.34971400  0.84597500  0.08973700  1
  O  O46  1  0.48273333  0.31655467  0.25950567  1
  O  O47  1  0.80467967  0.00165633  0.18794933  1
  O  O48  1  0.86644333  0.33240567  0.14584967  1
  O  O49  1  0.17856200  0.01274400  0.07417100  1
  O  O50  1  0.31137900  0.48221800  0.24299500  1
  O  O51  1  0.46596233  0.13355667  0.14584967  1
  O  O52  1  0.51778200  0.82916100  0.24299500  1
  O  O53  1  0.68344533  0.16617867  0.25950567  1
  O  O54  1  0.17083900  0.68862100  0.24299500  1
  O  O55  1  0.99834367  0.80302333  0.18794933  1
  O  O56  1  0.83382133  0.51726667  0.25950567  1
  O  O57  1  0.33787667  0.47746233  0.97989533  1
  O  O58  1  0.52253767  0.86041433  0.97989533  1
  O  O59  1  0.13958567  0.66212333  0.97989533  1
  O  O60  1  0.19640800  0.99829600  0.68711100  1
  O  O61  1  0.80188800  0.80359200  0.68711100  1
  O  O62  1  0.00170400  0.19811200  0.68711100  1
  O  O63  1  0.50084867  0.15477133  0.40750433  1
  O  O64  1  0.33426100  0.86737100  0.47918300  1
  O  O65  1  0.16292767  0.98361933  0.42307033  1
  O  O66  1  0.65392267  0.49915133  0.40750433  1
  O  O67  1  0.82069167  0.83707233  0.42307033  1
  O  O68  1  0.86364333  0.52865367  0.52128267  1
  O  O69  1  0.01638067  0.17930833  0.42307033  1
  O  O70  1  0.14940000  0.64988800  0.59283900  1
  O  O71  1  0.47134633  0.33498967  0.52128267  1
  O  O72  1  0.53311000  0.66573900  0.47918300  1
  O  O73  1  0.84522867  0.34607733  0.40750433  1
  O  O74  1  0.97804567  0.81555133  0.57632833  1
  O  O75  1  0.13262900  0.46689000  0.47918300  1
  O  O76  1  0.18444867  0.16249433  0.57632833  1
  O  O77  1  0.35011200  0.49951200  0.59283900  1
  O  O78  1  0.83750567  0.02195433  0.57632833  1
  O  O79  1  0.66501033  0.13635667  0.52128267  1
  O  O80  1  0.50048800  0.85060000  0.59283900  1
  O  O81  1  0.00454333  0.81079567  0.31322867  1
  O  O82  1  0.18920433  0.19374767  0.31322867  1
  O  O83  1  0.80625233  0.99545667  0.31322867  1
  O  O84  1  0.86307467  0.33162933  0.02044433  1
  O  O85  1  0.46855467  0.13692533  0.02044433  1
  O  O86  1  0.66837067  0.53144533  0.02044433  1
  O  O87  1  0.16751533  0.48810467  0.74083767  1
  O  O88  1  0.00092767  0.20070433  0.81251633  1
  O  O89  1  0.82959433  0.31695267  0.75640367  1
  O  O90  1  0.32058933  0.83248467  0.74083767  1
  O  O91  1  0.48735833  0.17040567  0.75640367  1
  O  O92  1  0.53031000  0.86198700  0.85461600  1
  O  O93  1  0.68304733  0.51264167  0.75640367  1
  O  O94  1  0.81606667  0.98322133  0.92617233  1
  O  O95  1  0.13801300  0.66832300  0.85461600  1
  O  O96  1  0.19977667  0.99907233  0.81251633  1
  O  O97  1  0.51189533  0.67941067  0.74083767  1
  O  O98  1  0.64471233  0.14888467  0.90966167  1
  O  O99  1  0.79929567  0.80022333  0.81251633  1
  O  O100  1  0.85111533  0.49582767  0.90966167  1
  O  O101  1  0.01677867  0.83284533  0.92617233  1
  O  O102  1  0.50417233  0.35528767  0.90966167  1
  O  O103  1  0.33167700  0.46969000  0.85461600  1
  O  O104  1  0.16715467  0.18393333  0.92617233  1
  O  O105  1  0.67121000  0.14412900  0.64656200  1
  O  O106  1  0.85587100  0.52708100  0.64656200  1
  O  O107  1  0.47291900  0.32879000  0.64656200  1
