# generated using pymatgen
data_Li4Fe3WO8
_symmetry_space_group_name_H-M   'P 1'
_cell_length_a   6.18251213
_cell_length_b   6.18251213
_cell_length_c   14.69502191
_cell_angle_alpha   90.00000000
_cell_angle_beta   90.00000000
_cell_angle_gamma   120.00000000
_symmetry_Int_Tables_number   1
_chemical_formula_structural   Li4Fe3WO8
_chemical_formula_sum   'Li12 Fe9 W3 O24'
_cell_volume   486.44173029
_cell_formula_units_Z   3
loop_
 _symmetry_equiv_pos_site_id
 _symmetry_equiv_pos_as_xyz
  1  'x, y, z'
loop_
 _atom_site_type_symbol
 _atom_site_label
 _atom_site_symmetry_multiplicity
 _atom_site_fract_x
 _atom_site_fract_y
 _atom_site_fract_z
 _atom_site_occupancy
  Li  Li0  1  0.33333333  0.66666667  0.16666667  1
  Li  Li1  1  0.16666667  0.33333333  0.83333333  1
  Li  Li2  1  0.33333333  0.16666667  0.16666667  1
  Li  Li3  1  0.83333333  0.16666667  0.16666667  1
  Li  Li4  1  1.00000000  1.00000000  0.50000000  1
  Li  Li5  1  0.83333333  0.66666667  0.16666667  1
  Li  Li6  1  0.00000000  0.50000000  0.50000000  1
  Li  Li7  1  0.50000000  0.50000000  0.50000000  1
  Li  Li8  1  0.66666667  0.33333333  0.83333333  1
  Li  Li9  1  0.50000000  0.00000000  0.50000000  1
  Li  Li10  1  0.66666667  0.83333333  0.83333333  1
  Li  Li11  1  0.16666667  0.83333333  0.83333333  1
  Fe  Fe12  1  0.16666667  0.33333333  0.33333333  1
  Fe  Fe13  1  0.00000000  0.50000000  0.00000000  1
  Fe  Fe14  1  0.50000000  0.50000000  0.00000000  1
  Fe  Fe15  1  0.83333333  0.66666667  0.66666667  1
  Fe  Fe16  1  0.66666667  0.83333333  0.33333333  1
  Fe  Fe17  1  0.16666667  0.83333333  0.33333333  1
  Fe  Fe18  1  0.50000000  0.00000000  0.00000000  1
  Fe  Fe19  1  0.33333333  0.16666667  0.66666667  1
  Fe  Fe20  1  0.83333333  0.16666667  0.66666667  1
  W  W21  1  0.00000000  0.00000000  0.00000000  1
  W  W22  1  0.66666667  0.33333333  0.33333333  1
  W  W23  1  0.33333333  0.66666667  0.66666667  1
  O  O24  1  0.33333333  0.66666667  0.93075467  1
  O  O25  1  0.51813100  0.03626200  0.25373400  1
  O  O26  1  0.96373800  0.48186900  0.25373400  1
  O  O27  1  0.33333333  0.66666667  0.40257867  1
  O  O28  1  0.51813100  0.48186900  0.25373400  1
  O  O29  1  0.14853567  0.29707133  0.07959933  1
  O  O30  1  0.70292867  0.85146433  0.07959933  1
  O  O31  1  0.14853567  0.85146433  0.07959933  1
  O  O32  1  0.00000000  0.00000000  0.26408800  1
  O  O33  1  0.18479767  0.36959533  0.58706733  1
  O  O34  1  0.63040467  0.81520233  0.58706733  1
  O  O35  1  0.00000000  0.00000000  0.73591200  1
  O  O36  1  0.18479767  0.81520233  0.58706733  1
  O  O37  1  0.81520233  0.63040467  0.41293267  1
  O  O38  1  0.36959533  0.18479767  0.41293267  1
  O  O39  1  0.81520233  0.18479767  0.41293267  1
  O  O40  1  0.66666667  0.33333333  0.59742133  1
  O  O41  1  0.85146433  0.70292867  0.92040067  1
  O  O42  1  0.29707133  0.14853567  0.92040067  1
  O  O43  1  0.66666667  0.33333333  0.06924533  1
  O  O44  1  0.85146433  0.14853567  0.92040067  1
  O  O45  1  0.48186900  0.96373800  0.74626600  1
  O  O46  1  0.03626200  0.51813100  0.74626600  1
  O  O47  1  0.48186900  0.51813100  0.74626600  1
