# generated using pymatgen
data_LiY4Ti4(S2O5)2
_symmetry_space_group_name_H-M   'P 1'
_cell_length_a   5.46475200
_cell_length_b   22.60681600
_cell_length_c   5.46536878
_cell_angle_alpha   90.00000000
_cell_angle_beta   90.88691214
_cell_angle_gamma   90.00000000
_symmetry_Int_Tables_number   1
_chemical_formula_structural   LiY4Ti4(S2O5)2
_chemical_formula_sum   'Li2 Y8 Ti8 S8 O20'
_cell_volume   675.11428110
_cell_formula_units_Z   2
loop_
 _symmetry_equiv_pos_site_id
 _symmetry_equiv_pos_as_xyz
  1  'x, y, z'
loop_
 _atom_site_type_symbol
 _atom_site_label
 _atom_site_symmetry_multiplicity
 _atom_site_fract_x
 _atom_site_fract_y
 _atom_site_fract_z
 _atom_site_occupancy
  Li  Li0  1  0.50000000  0.00000000  0.00000000  1
  Li  Li1  1  0.00000000  0.50000000  0.00000000  1
  Y  Y2  1  0.75128950  0.33414150  0.75149900  1
  Y  Y3  1  0.25128950  0.16585850  0.75149900  1
  Y  Y4  1  0.24871050  0.33414150  0.24850100  1
  Y  Y5  1  0.74871050  0.16585850  0.24850100  1
  Y  Y6  1  0.25128950  0.83414150  0.75149900  1
  Y  Y7  1  0.75128950  0.66585850  0.75149900  1
  Y  Y8  1  0.74871050  0.83414150  0.24850100  1
  Y  Y9  1  0.24871050  0.66585850  0.24850100  1
  Ti  Ti10  1  0.75500400  0.08227100  0.74489500  1
  Ti  Ti11  1  0.25500400  0.41772900  0.74489500  1
  Ti  Ti12  1  0.24499600  0.08227100  0.25510500  1
  Ti  Ti13  1  0.74499600  0.41772900  0.25510500  1
  Ti  Ti14  1  0.25500400  0.58227100  0.74489500  1
  Ti  Ti15  1  0.75500400  0.91772900  0.74489500  1
  Ti  Ti16  1  0.74499600  0.58227100  0.25510500  1
  Ti  Ti17  1  0.24499600  0.91772900  0.25510500  1
  S  S18  1  0.74860400  0.20467400  0.75099900  1
  S  S19  1  0.24860400  0.29532600  0.75099900  1
  S  S20  1  0.25139600  0.20467400  0.24900100  1
  S  S21  1  0.75139600  0.29532600  0.24900100  1
  S  S22  1  0.24860400  0.70467400  0.75099900  1
  S  S23  1  0.74860400  0.79532600  0.75099900  1
  S  S24  1  0.75139600  0.70467400  0.24900100  1
  S  S25  1  0.25139600  0.79532600  0.24900100  1
  O  O26  1  0.50000000  0.10055300  0.50000000  1
  O  O27  1  0.74208600  0.00000000  0.75804100  1
  O  O28  1  0.50000000  0.39897100  0.50000000  1
  O  O29  1  0.00000000  0.40547500  0.00000000  1
  O  O30  1  0.25791400  0.00000000  0.24195900  1
  O  O31  1  0.00000000  0.10064500  0.00000000  1
  O  O32  1  0.00000000  0.10102900  0.50000000  1
  O  O33  1  0.00000000  0.39944700  0.50000000  1
  O  O34  1  0.50000000  0.39935500  0.00000000  1
  O  O35  1  0.50000000  0.09452500  0.00000000  1
  O  O36  1  0.00000000  0.60055300  0.50000000  1
  O  O37  1  0.24208600  0.50000000  0.75804100  1
  O  O38  1  0.00000000  0.89897100  0.50000000  1
  O  O39  1  0.50000000  0.90547500  0.00000000  1
  O  O40  1  0.75791400  0.50000000  0.24195900  1
  O  O41  1  0.50000000  0.60064500  0.00000000  1
  O  O42  1  0.50000000  0.60102900  0.50000000  1
  O  O43  1  0.50000000  0.89944700  0.50000000  1
  O  O44  1  0.00000000  0.89935500  0.00000000  1
  O  O45  1  0.00000000  0.59452500  0.00000000  1
