# generated using pymatgen
data_LiCoB2O5
_symmetry_space_group_name_H-M   'P 1'
_cell_length_a   10.27949600
_cell_length_b   10.36284000
_cell_length_c   9.66717193
_cell_angle_alpha   90.00000000
_cell_angle_beta   120.86396093
_cell_angle_gamma   90.00000000
_symmetry_Int_Tables_number   1
_chemical_formula_structural   LiCoB2O5
_chemical_formula_sum   'Li8 Co8 B16 O40'
_cell_volume   883.96194829
_cell_formula_units_Z   8
loop_
 _symmetry_equiv_pos_site_id
 _symmetry_equiv_pos_as_xyz
  1  'x, y, z'
loop_
 _atom_site_type_symbol
 _atom_site_label
 _atom_site_symmetry_multiplicity
 _atom_site_fract_x
 _atom_site_fract_y
 _atom_site_fract_z
 _atom_site_occupancy
  Li  Li0  1  0.50000000  0.66251300  0.75000000  1
  Li  Li1  1  0.50000000  0.11998200  0.75000000  1
  Li  Li2  1  0.50000000  0.88001800  0.25000000  1
  Li  Li3  1  0.50000000  0.33748700  0.25000000  1
  Li  Li4  1  0.00000000  0.16251300  0.75000000  1
  Li  Li5  1  0.00000000  0.61998200  0.75000000  1
  Li  Li6  1  0.00000000  0.38001800  0.25000000  1
  Li  Li7  1  0.00000000  0.83748700  0.25000000  1
  Co  Co8  1  0.19355500  0.84457400  0.64779200  1
  Co  Co9  1  0.19355500  0.15542600  0.14779200  1
  Co  Co10  1  0.80644500  0.84457400  0.85220800  1
  Co  Co11  1  0.80644500  0.15542600  0.35220800  1
  Co  Co12  1  0.69355500  0.34457400  0.64779200  1
  Co  Co13  1  0.69355500  0.65542600  0.14779200  1
  Co  Co14  1  0.30644500  0.34457400  0.85220800  1
  Co  Co15  1  0.30644500  0.65542600  0.35220800  1
  B  B16  1  0.23388750  0.00348550  0.90615600  1
  B  B17  1  0.43169000  0.83055300  0.97333000  1
  B  B18  1  0.23388750  0.99651450  0.40615600  1
  B  B19  1  0.43169000  0.16944700  0.47333000  1
  B  B20  1  0.56831000  0.83055300  0.52667000  1
  B  B21  1  0.76611250  0.00348550  0.59384400  1
  B  B22  1  0.56831000  0.16944700  0.02667000  1
  B  B23  1  0.76611250  0.99651450  0.09384400  1
  B  B24  1  0.73388750  0.50348550  0.90615600  1
  B  B25  1  0.93169000  0.33055300  0.97333000  1
  B  B26  1  0.73388750  0.49651450  0.40615600  1
  B  B27  1  0.93169000  0.66944700  0.47333000  1
  B  B28  1  0.06831000  0.33055300  0.52667000  1
  B  B29  1  0.26611250  0.50348550  0.59384400  1
  B  B30  1  0.06831000  0.66944700  0.02667000  1
  B  B31  1  0.26611250  0.49651450  0.09384400  1
  O  O32  1  0.19093250  0.10420650  0.96578900  1
  O  O33  1  0.15588850  0.98473750  0.74409700  1
  O  O34  1  0.19093250  0.89579350  0.46578900  1
  O  O35  1  0.38797700  0.79330100  0.82129500  1
  O  O36  1  0.44710200  0.21873300  0.88835000  1
  O  O37  1  0.15588850  0.01526250  0.24409700  1
  O  O38  1  0.35737200  0.07378900  0.51385700  1
  O  O39  1  0.64262800  0.07378900  0.98614300  1
  O  O40  1  0.38797700  0.20669900  0.32129500  1
  O  O41  1  0.44710200  0.78126700  0.38835000  1
  O  O42  1  0.55289800  0.21873300  0.61165000  1
  O  O43  1  0.61202300  0.79330100  0.67870500  1
  O  O44  1  0.35737200  0.92621100  0.01385700  1
  O  O45  1  0.64262800  0.92621100  0.48614300  1
  O  O46  1  0.84411150  0.98473750  0.75590300  1
  O  O47  1  0.55289800  0.78126700  0.11165000  1
  O  O48  1  0.61202300  0.20669900  0.17870500  1
  O  O49  1  0.80906750  0.10420650  0.53421100  1
  O  O50  1  0.84411150  0.01526250  0.25590300  1
  O  O51  1  0.80906750  0.89579350  0.03421100  1
  O  O52  1  0.69093250  0.60420650  0.96578900  1
  O  O53  1  0.65588850  0.48473750  0.74409700  1
  O  O54  1  0.69093250  0.39579350  0.46578900  1
  O  O55  1  0.88797700  0.29330100  0.82129500  1
  O  O56  1  0.94710200  0.71873300  0.88835000  1
  O  O57  1  0.65588850  0.51526250  0.24409700  1
  O  O58  1  0.85737200  0.57378900  0.51385700  1
  O  O59  1  0.14262800  0.57378900  0.98614300  1
  O  O60  1  0.88797700  0.70669900  0.32129500  1
  O  O61  1  0.94710200  0.28126700  0.38835000  1
  O  O62  1  0.05289800  0.71873300  0.61165000  1
  O  O63  1  0.11202300  0.29330100  0.67870500  1
  O  O64  1  0.85737200  0.42621100  0.01385700  1
  O  O65  1  0.14262800  0.42621100  0.48614300  1
  O  O66  1  0.34411150  0.48473750  0.75590300  1
  O  O67  1  0.05289800  0.28126700  0.11165000  1
  O  O68  1  0.11202300  0.70669900  0.17870500  1
  O  O69  1  0.30906750  0.60420650  0.53421100  1
  O  O70  1  0.34411150  0.51526250  0.25590300  1
  O  O71  1  0.30906750  0.39579350  0.03421100  1
