# generated using pymatgen
data_Mn6O7F5
_symmetry_space_group_name_H-M   'P 1'
_cell_length_a   9.26777800
_cell_length_b   6.39954400
_cell_length_c   7.57700471
_cell_angle_alpha   90.00000000
_cell_angle_beta   115.21263923
_cell_angle_gamma   90.00000000
_symmetry_Int_Tables_number   1
_chemical_formula_structural   Mn6O7F5
_chemical_formula_sum   'Mn12 O14 F10'
_cell_volume   406.57689115
_cell_formula_units_Z   2
loop_
 _symmetry_equiv_pos_site_id
 _symmetry_equiv_pos_as_xyz
  1  'x, y, z'
loop_
 _atom_site_type_symbol
 _atom_site_label
 _atom_site_symmetry_multiplicity
 _atom_site_fract_x
 _atom_site_fract_y
 _atom_site_fract_z
 _atom_site_occupancy
  Mn  Mn0  1  0.18608950  0.49510050  0.15516400  1
  Mn  Mn1  1  0.83374800  0.49549100  0.32122300  1
  Mn  Mn2  1  0.16625200  0.49549100  0.67877700  1
  Mn  Mn3  1  0.81391050  0.49510050  0.84483600  1
  Mn  Mn4  1  0.00000000  0.99432100  0.50000000  1
  Mn  Mn5  1  0.00000000  0.02499600  0.00000000  1
  Mn  Mn6  1  0.68608950  0.99510050  0.15516400  1
  Mn  Mn7  1  0.33374800  0.99549100  0.32122300  1
  Mn  Mn8  1  0.66625200  0.99549100  0.67877700  1
  Mn  Mn9  1  0.31391050  0.99510050  0.84483600  1
  Mn  Mn10  1  0.50000000  0.49432100  0.50000000  1
  Mn  Mn11  1  0.50000000  0.52499600  0.00000000  1
  O  O12  1  0.83605400  0.18948700  0.33073900  1
  O  O13  1  0.16394600  0.18948700  0.66926100  1
  O  O14  1  0.72181450  0.50421150  0.04341500  1
  O  O15  1  0.27818550  0.50421150  0.95658500  1
  O  O16  1  0.16356350  0.79917150  0.66818100  1
  O  O17  1  0.83643650  0.79917150  0.33181900  1
  O  O18  1  0.00000000  0.32289300  0.00000000  1
  O  O19  1  0.33605400  0.68948700  0.33073900  1
  O  O20  1  0.66394600  0.68948700  0.66926100  1
  O  O21  1  0.22181450  0.00421150  0.04341500  1
  O  O22  1  0.77818550  0.00421150  0.95658500  1
  O  O23  1  0.66356350  0.29917150  0.66818100  1
  O  O24  1  0.33643650  0.29917150  0.33181900  1
  O  O25  1  0.50000000  0.82289300  0.00000000  1
  F  F26  1  0.40184800  0.49569400  0.69811600  1
  F  F27  1  0.07598300  0.49767400  0.38333500  1
  F  F28  1  0.59815200  0.49569400  0.30188400  1
  F  F29  1  0.92401700  0.49767400  0.61666500  1
  F  F30  1  0.00000000  0.70412900  0.00000000  1
  F  F31  1  0.90184800  0.99569400  0.69811600  1
  F  F32  1  0.57598300  0.99767400  0.38333500  1
  F  F33  1  0.09815200  0.99569400  0.30188400  1
  F  F34  1  0.42401700  0.99767400  0.61666500  1
  F  F35  1  0.50000000  0.20412900  0.00000000  1
