# generated using pymatgen
data_Mn2VNi3(PO4)6
_symmetry_space_group_name_H-M   'P 1'
_cell_length_a   8.64547803
_cell_length_b   8.64547803
_cell_length_c   20.85627646
_cell_angle_alpha   90.00000000
_cell_angle_beta   90.00000000
_cell_angle_gamma   120.00000000
_symmetry_Int_Tables_number   1
_chemical_formula_structural   Mn2VNi3(PO4)6
_chemical_formula_sum   'Mn6 V3 Ni9 P18 O72'
_cell_volume   1350.03625077
_cell_formula_units_Z   3
loop_
 _symmetry_equiv_pos_site_id
 _symmetry_equiv_pos_as_xyz
  1  'x, y, z'
loop_
 _atom_site_type_symbol
 _atom_site_label
 _atom_site_symmetry_multiplicity
 _atom_site_fract_x
 _atom_site_fract_y
 _atom_site_fract_z
 _atom_site_occupancy
  Mn  Mn0  1  0.33333333  0.66666667  0.66416767  1
  Mn  Mn1  1  0.33333333  0.66666667  0.16560967  1
  Mn  Mn2  1  0.00000000  0.00000000  0.99750100  1
  Mn  Mn3  1  0.00000000  0.00000000  0.49894300  1
  Mn  Mn4  1  0.66666667  0.33333333  0.33083433  1
  Mn  Mn5  1  0.66666667  0.33333333  0.83227633  1
  V  V6  1  0.33333333  0.66666667  0.81137467  1
  V  V7  1  0.00000000  0.00000000  0.14470800  1
  V  V8  1  0.66666667  0.33333333  0.47804133  1
  Ni  Ni9  1  0.33333333  0.66666667  0.30890167  1
  Ni  Ni10  1  0.33333333  0.66666667  0.52273867  1
  Ni  Ni11  1  0.33333333  0.66666667  0.02371767  1
  Ni  Ni12  1  0.00000000  0.00000000  0.64223500  1
  Ni  Ni13  1  0.00000000  0.00000000  0.85607200  1
  Ni  Ni14  1  0.00000000  0.00000000  0.35705100  1
  Ni  Ni15  1  0.66666667  0.33333333  0.97556833  1
  Ni  Ni16  1  0.66666667  0.33333333  0.18940533  1
  Ni  Ni17  1  0.66666667  0.33333333  0.69038433  1
  P  P18  1  0.70559533  0.70672867  0.25032167  1
  P  P19  1  0.29327133  0.99886667  0.25032167  1
  P  P20  1  0.00113333  0.29440467  0.25032167  1
  P  P21  1  0.66658867  0.03947533  0.08399233  1
  P  P22  1  0.37288667  0.33341133  0.08399233  1
  P  P23  1  0.96052467  0.62711333  0.08399233  1
  P  P24  1  0.37226200  0.04006200  0.58365500  1
  P  P25  1  0.95993800  0.33220000  0.58365500  1
  P  P26  1  0.66780000  0.62773800  0.58365500  1
  P  P27  1  0.33325533  0.37280867  0.41732567  1
  P  P28  1  0.03955333  0.66674467  0.41732567  1
  P  P29  1  0.62719133  0.96044667  0.41732567  1
  P  P30  1  0.03892867  0.37339533  0.91698833  1
  P  P31  1  0.62660467  0.66553333  0.91698833  1
  P  P32  1  0.33446667  0.96107133  0.91698833  1
  P  P33  1  0.99992200  0.70614200  0.75065900  1
  P  P34  1  0.70622000  0.00007800  0.75065900  1
  P  P35  1  0.29385800  0.29378000  0.75065900  1
  O  O36  1  0.52876600  0.65824300  0.97781800  1
  O  O37  1  0.34175700  0.87052300  0.97781800  1
  O  O38  1  0.12947700  0.47123400  0.97781800  1
  O  O39  1  0.68692067  0.52026533  0.25562433  1
  O  O40  1  0.15745267  0.48073733  0.85670233  1
  O  O41  1  0.52395300  0.69403900  0.23746400  1
  O  O42  1  0.47973467  0.16665533  0.25562433  1
  O  O43  1  0.30596100  0.82991400  0.23746400  1
  O  O44  1  0.66643667  0.13205133  0.14550633  1
  O  O45  1  0.17008600  0.47604700  0.23746400  1
  O  O46  1  0.83594700  0.01118100  0.08062600  1
  O  O47  1  0.46561467  0.33356333  0.14550633  1
  O  O48  1  0.51926267  0.67671533  0.85670233  1
  O  O49  1  0.83334467  0.31307933  0.25562433  1
  O  O50  1  0.50139733  0.84737667  0.09104967  1
  O  O51  1  0.32328467  0.84254733  0.85670233  1
  O  O52  1  0.34597933  0.49860267  0.09104967  1
  O  O53  1  0.17523400  0.16405300  0.08062600  1
  O  O54  1  0.15262333  0.65402067  0.09104967  1
  O  O55  1  0.86794867  0.53438533  0.14550633  1
  O  O56  1  0.98881900  0.82476600  0.08062600  1
  O  O57  1  0.53383733  0.87401967  0.35539567  1
  O  O58  1  0.34018233  0.46616267  0.35539567  1
  O  O59  1  0.12598033  0.65981767  0.35539567  1
  O  O60  1  0.19543267  0.99157633  0.31115133  1
  O  O61  1  0.00842367  0.20385633  0.31115133  1
  O  O62  1  0.79614367  0.80456733  0.31115133  1
  O  O63  1  0.35358733  0.85359867  0.58895767  1
  O  O64  1  0.82411933  0.81407067  0.19003567  1
  O  O65  1  0.19061967  0.02737233  0.57079733  1
  O  O66  1  0.14640133  0.49998867  0.58895767  1
  O  O67  1  0.97262767  0.16324733  0.57079733  1
  O  O68  1  0.33310333  0.46538467  0.47883967  1
  O  O69  1  0.83675267  0.80938033  0.57079733  1
  O  O70  1  0.50261367  0.34451433  0.41395933  1
  O  O71  1  0.13228133  0.66689667  0.47883967  1
  O  O72  1  0.18592933  0.01004867  0.19003567  1
  O  O73  1  0.50001133  0.64641267  0.58895767  1
  O  O74  1  0.16806400  0.18071000  0.42438300  1
  O  O75  1  0.98995133  0.17588067  0.19003567  1
  O  O76  1  0.01264600  0.83193600  0.42438300  1
  O  O77  1  0.84190067  0.49738633  0.41395933  1
  O  O78  1  0.81929000  0.98735400  0.42438300  1
  O  O79  1  0.53461533  0.86771867  0.47883967  1
  O  O80  1  0.65548567  0.15809933  0.41395933  1
  O  O81  1  0.20050400  0.20735300  0.68872900  1
  O  O82  1  0.00684900  0.79949600  0.68872900  1
  O  O83  1  0.79264700  0.99315100  0.68872900  1
  O  O84  1  0.86209933  0.32490967  0.64448467  1
  O  O85  1  0.67509033  0.53718967  0.64448467  1
  O  O86  1  0.46281033  0.13790067  0.64448467  1
  O  O87  1  0.02025400  0.18693200  0.92229100  1
  O  O88  1  0.49078600  0.14740400  0.52336900  1
  O  O89  1  0.85728633  0.36070567  0.90413067  1
  O  O90  1  0.81306800  0.83332200  0.92229100  1
  O  O91  1  0.63929433  0.49658067  0.90413067  1
  O  O92  1  0.99977000  0.79871800  0.81217300  1
  O  O93  1  0.50341933  0.14271367  0.90413067  1
  O  O94  1  0.16928033  0.67784767  0.74729267  1
  O  O95  1  0.79894800  0.00023000  0.81217300  1
  O  O96  1  0.85259600  0.34338200  0.52336900  1
  O  O97  1  0.16667800  0.97974600  0.92229100  1
  O  O98  1  0.83473067  0.51404333  0.75771633  1
  O  O99  1  0.65661800  0.50921400  0.52336900  1
  O  O100  1  0.67931267  0.16526933  0.75771633  1
  O  O101  1  0.50856733  0.83071967  0.74729267  1
  O  O102  1  0.48595667  0.32068733  0.75771633  1
  O  O103  1  0.20128200  0.20105200  0.81217300  1
  O  O104  1  0.32215233  0.49143267  0.74729267  1
  O  O105  1  0.86717067  0.54068633  0.02206233  1
  O  O106  1  0.67351567  0.13282933  0.02206233  1
  O  O107  1  0.45931367  0.32648433  0.02206233  1
