# generated using pymatgen
data_Li3Ti6Co3O16
_symmetry_space_group_name_H-M   'P 1'
_cell_length_a   8.45390100
_cell_length_b   8.45530100
_cell_length_c   8.45631165
_cell_angle_alpha   90.00000000
_cell_angle_beta   90.04536201
_cell_angle_gamma   90.00000000
_symmetry_Int_Tables_number   1
_chemical_formula_structural   Li3Ti6Co3O16
_chemical_formula_sum   'Li6 Ti12 Co6 O32'
_cell_volume   604.45931462
_cell_formula_units_Z   2
loop_
 _symmetry_equiv_pos_site_id
 _symmetry_equiv_pos_as_xyz
  1  'x, y, z'
loop_
 _atom_site_type_symbol
 _atom_site_label
 _atom_site_symmetry_multiplicity
 _atom_site_fract_x
 _atom_site_fract_y
 _atom_site_fract_z
 _atom_site_occupancy
  Li  Li0  1  0.00182400  0.00221300  0.24852500  1
  Li  Li1  1  0.87504500  0.12494500  0.62533000  1
  Li  Li2  1  0.62488300  0.87499800  0.12514600  1
  Li  Li3  1  0.37511700  0.37499800  0.87485400  1
  Li  Li4  1  0.12495500  0.62494500  0.37467000  1
  Li  Li5  1  0.99817600  0.50221300  0.75147500  1
  Ti  Ti6  1  0.86995700  0.87836900  0.88031200  1
  Ti  Ti7  1  0.88414300  0.37260700  0.38520600  1
  Ti  Ti8  1  0.87595300  0.63399600  0.13007100  1
  Ti  Ti9  1  0.62139600  0.62363200  0.87949100  1
  Ti  Ti10  1  0.62759600  0.36955600  0.63092300  1
  Ti  Ti11  1  0.63548200  0.11896400  0.37428100  1
  Ti  Ti12  1  0.37240400  0.86955600  0.36907700  1
  Ti  Ti13  1  0.36451800  0.61896400  0.62571900  1
  Ti  Ti14  1  0.37860400  0.12363200  0.12050900  1
  Ti  Ti15  1  0.11585700  0.87260700  0.61479400  1
  Ti  Ti16  1  0.13004300  0.37836900  0.11968800  1
  Ti  Ti17  1  0.12404700  0.13399600  0.86992900  1
  Co  Co18  1  0.74814100  0.74799400  0.50081100  1
  Co  Co19  1  0.75128700  0.25086500  0.00230300  1
  Co  Co20  1  0.50109300  0.49963000  0.25144200  1
  Co  Co21  1  0.49890700  0.99963000  0.74855800  1
  Co  Co22  1  0.24871300  0.75086500  0.99769700  1
  Co  Co23  1  0.25185900  0.24799400  0.49918900  1
  O  O24  1  0.87207800  0.60939000  0.35717200  1
  O  O25  1  0.86048600  0.63956000  0.88998700  1
  O  O26  1  0.85609300  0.14274500  0.37407600  1
  O  O27  1  0.89011000  0.10762400  0.87750900  1
  O  O28  1  0.85802000  0.37657800  0.60511600  1
  O  O29  1  0.89231500  0.87259600  0.63965400  1
  O  O30  1  0.87619900  0.85612300  0.10904300  1
  O  O31  1  0.88865200  0.38750500  0.13767900  1
  O  O32  1  0.61046100  0.89261200  0.37771100  1
  O  O33  1  0.64290100  0.86149900  0.87161500  1
  O  O34  1  0.61380000  0.61309500  0.63722900  1
  O  O35  1  0.63946000  0.62216300  0.10831600  1
  O  O36  1  0.63677400  0.36260000  0.38645600  1
  O  O37  1  0.62121200  0.14145100  0.61019300  1
  O  O38  1  0.62873400  0.38886700  0.85926800  1
  O  O39  1  0.60756400  0.12782300  0.13967400  1
  O  O40  1  0.36322600  0.86260000  0.61354400  1
  O  O41  1  0.37878800  0.64145100  0.38980700  1
  O  O42  1  0.39243600  0.62782300  0.86032600  1
  O  O43  1  0.38953900  0.39261200  0.62228900  1
  O  O44  1  0.37126600  0.88886700  0.14073200  1
  O  O45  1  0.35709900  0.36149900  0.12838500  1
  O  O46  1  0.38620000  0.11309500  0.36277100  1
  O  O47  1  0.36054000  0.12216300  0.89168400  1
  O  O48  1  0.14198000  0.87657800  0.39488400  1
  O  O49  1  0.11134800  0.88750500  0.86232100  1
  O  O50  1  0.14390700  0.64274500  0.62592400  1
  O  O51  1  0.10768500  0.37259600  0.36034600  1
  O  O52  1  0.12380100  0.35612300  0.89095700  1
  O  O53  1  0.10989000  0.60762400  0.12249100  1
  O  O54  1  0.12792200  0.10939000  0.64282800  1
  O  O55  1  0.13951400  0.13956000  0.11001300  1
