# generated using pymatgen
data_Li4Nb2Cr3Cu3O16
_symmetry_space_group_name_H-M   'P 1'
_cell_length_a   10.47352265
_cell_length_b   5.84637056
_cell_length_c   9.77252530
_cell_angle_alpha   90.00000000
_cell_angle_beta   93.90469741
_cell_angle_gamma   90.00000000
_symmetry_Int_Tables_number   1
_chemical_formula_structural   Li4Nb2Cr3Cu3O16
_chemical_formula_sum   'Li8 Nb4 Cr6 Cu6 O32'
_cell_volume   597.00314441
_cell_formula_units_Z   2
loop_
 _symmetry_equiv_pos_site_id
 _symmetry_equiv_pos_as_xyz
  1  'x, y, z'
loop_
 _atom_site_type_symbol
 _atom_site_label
 _atom_site_symmetry_multiplicity
 _atom_site_fract_x
 _atom_site_fract_y
 _atom_site_fract_z
 _atom_site_occupancy
  Li  Li0  1  0.16210800  0.50000000  0.10115700  1
  Li  Li1  1  0.49986550  0.50000000  0.00681900  1
  Li  Li2  1  0.00500550  0.00000000  0.51157400  1
  Li  Li3  1  0.34071900  0.00000000  0.59628600  1
  Li  Li4  1  0.66210800  0.00000000  0.10115700  1
  Li  Li5  1  0.99986550  0.00000000  0.00681900  1
  Li  Li6  1  0.50500550  0.50000000  0.51157400  1
  Li  Li7  1  0.84071900  0.50000000  0.59628600  1
  Nb  Nb8  1  0.18526000  0.50000000  0.50396400  1
  Nb  Nb9  1  0.33477850  0.00000000  0.01080000  1
  Nb  Nb10  1  0.68526000  0.00000000  0.50396400  1
  Nb  Nb11  1  0.83477850  0.50000000  0.01080000  1
  Cr  Cr12  1  0.33054450  0.50000000  0.78197400  1
  Cr  Cr13  1  0.41425350  0.24597150  0.28438400  1
  Cr  Cr14  1  0.41425350  0.75402850  0.28438400  1
  Cr  Cr15  1  0.83054450  0.00000000  0.78197400  1
  Cr  Cr16  1  0.91425350  0.74597150  0.28438400  1
  Cr  Cr17  1  0.91425350  0.25402850  0.28438400  1
  Cu  Cu18  1  0.08823650  0.74815750  0.78703400  1
  Cu  Cu19  1  0.08823650  0.25184250  0.78703400  1
  Cu  Cu20  1  0.16866250  0.00000000  0.28591600  1
  Cu  Cu21  1  0.58823650  0.24815750  0.78703400  1
  Cu  Cu22  1  0.58823650  0.75184250  0.78703400  1
  Cu  Cu23  1  0.66866250  0.50000000  0.28591600  1
  O  O24  1  0.07964850  0.74645650  0.41150700  1
  O  O25  1  0.02896800  0.50000000  0.66789800  1
  O  O26  1  0.16894250  0.50000000  0.88006700  1
  O  O27  1  0.50059000  0.50000000  0.70136200  1
  O  O28  1  0.49684200  0.50000000  0.19325800  1
  O  O29  1  0.07964850  0.25354350  0.41150700  1
  O  O30  1  0.25982100  0.71797500  0.64411300  1
  O  O31  1  0.25982100  0.28202500  0.64411300  1
  O  O32  1  0.15446450  0.00000000  0.90466100  1
  O  O33  1  0.33683650  0.50000000  0.39618800  1
  O  O34  1  0.25631000  0.22186600  0.15867200  1
  O  O35  1  0.25631000  0.77813400  0.15867200  1
  O  O36  1  0.33721000  0.00000000  0.38829800  1
  O  O37  1  0.39567850  0.25387150  0.91481900  1
  O  O38  1  0.47965750  0.00000000  0.16074900  1
  O  O39  1  0.39567850  0.74612850  0.91481900  1
  O  O40  1  0.57964850  0.24645650  0.41150700  1
  O  O41  1  0.52896800  0.00000000  0.66789800  1
  O  O42  1  0.66894250  0.00000000  0.88006700  1
  O  O43  1  0.00059000  0.00000000  0.70136200  1
  O  O44  1  0.99684200  0.00000000  0.19325800  1
  O  O45  1  0.57964850  0.75354350  0.41150700  1
  O  O46  1  0.75982100  0.21797500  0.64411300  1
  O  O47  1  0.75982100  0.78202500  0.64411300  1
  O  O48  1  0.65446450  0.50000000  0.90466100  1
  O  O49  1  0.83683650  0.00000000  0.39618800  1
  O  O50  1  0.75631000  0.72186600  0.15867200  1
  O  O51  1  0.75631000  0.27813400  0.15867200  1
  O  O52  1  0.83721000  0.50000000  0.38829800  1
  O  O53  1  0.89567850  0.75387150  0.91481900  1
  O  O54  1  0.97965750  0.50000000  0.16074900  1
  O  O55  1  0.89567850  0.24612850  0.91481900  1
