# generated using pymatgen
data_Li2Mn2Si2O7
_symmetry_space_group_name_H-M   'P 1'
_cell_length_a   5.08981400
_cell_length_b   9.61915400
_cell_length_c   13.45136700
_cell_angle_alpha   90.00000000
_cell_angle_beta   90.00000000
_cell_angle_gamma   90.00000000
_symmetry_Int_Tables_number   1
_chemical_formula_structural   Li2Mn2Si2O7
_chemical_formula_sum   'Li8 Mn8 Si8 O28'
_cell_volume   658.57495610
_cell_formula_units_Z   4
loop_
 _symmetry_equiv_pos_site_id
 _symmetry_equiv_pos_as_xyz
  1  'x, y, z'
loop_
 _atom_site_type_symbol
 _atom_site_label
 _atom_site_symmetry_multiplicity
 _atom_site_fract_x
 _atom_site_fract_y
 _atom_site_fract_z
 _atom_site_occupancy
  Li  Li0  1  0.98359500  0.00000000  0.00000000  1
  Li  Li1  1  0.98359500  0.00000000  0.50000000  1
  Li  Li2  1  0.50467050  0.48853150  0.25000000  1
  Li  Li3  1  0.00467050  0.01146850  0.75000000  1
  Li  Li4  1  0.48359500  0.50000000  0.00000000  1
  Li  Li5  1  0.48359500  0.50000000  0.50000000  1
  Li  Li6  1  0.00467050  0.98853150  0.25000000  1
  Li  Li7  1  0.50467050  0.51146850  0.75000000  1
  Mn  Mn8  1  0.43692200  0.22000600  0.58794600  1
  Mn  Mn9  1  0.43692200  0.22000600  0.91205400  1
  Mn  Mn10  1  0.93692200  0.27999400  0.41205400  1
  Mn  Mn11  1  0.93692200  0.27999400  0.08794600  1
  Mn  Mn12  1  0.93692200  0.72000600  0.58794600  1
  Mn  Mn13  1  0.93692200  0.72000600  0.91205400  1
  Mn  Mn14  1  0.43692200  0.77999400  0.41205400  1
  Mn  Mn15  1  0.43692200  0.77999400  0.08794600  1
  Si  Si16  1  0.44513700  0.11353000  0.13785100  1
  Si  Si17  1  0.44513700  0.11353000  0.36214900  1
  Si  Si18  1  0.94513700  0.38647000  0.63785100  1
  Si  Si19  1  0.94513700  0.38647000  0.86214900  1
  Si  Si20  1  0.94513700  0.61353000  0.13785100  1
  Si  Si21  1  0.94513700  0.61353000  0.36214900  1
  Si  Si22  1  0.44513700  0.88647000  0.63785100  1
  Si  Si23  1  0.44513700  0.88647000  0.86214900  1
  O  O24  1  0.76156150  0.09145550  0.12276900  1
  O  O25  1  0.76156150  0.09145550  0.37723100  1
  O  O26  1  0.38090050  0.18426350  0.25000000  1
  O  O27  1  0.28074000  0.03394000  0.86693600  1
  O  O28  1  0.28074000  0.03394000  0.63306400  1
  O  O29  1  0.32540200  0.23026300  0.06067100  1
  O  O30  1  0.32540200  0.23026300  0.43932900  1
  O  O31  1  0.26156150  0.40854450  0.87723100  1
  O  O32  1  0.26156150  0.40854450  0.62276900  1
  O  O33  1  0.88090050  0.31573650  0.75000000  1
  O  O34  1  0.78074000  0.46606000  0.36693600  1
  O  O35  1  0.78074000  0.46606000  0.13306400  1
  O  O36  1  0.82540200  0.26973700  0.56067100  1
  O  O37  1  0.82540200  0.26973700  0.93932900  1
  O  O38  1  0.26156150  0.59145550  0.12276900  1
  O  O39  1  0.26156150  0.59145550  0.37723100  1
  O  O40  1  0.88090050  0.68426350  0.25000000  1
  O  O41  1  0.78074000  0.53394000  0.86693600  1
  O  O42  1  0.78074000  0.53394000  0.63306400  1
  O  O43  1  0.82540200  0.73026300  0.06067100  1
  O  O44  1  0.82540200  0.73026300  0.43932900  1
  O  O45  1  0.76156150  0.90854450  0.87723100  1
  O  O46  1  0.76156150  0.90854450  0.62276900  1
  O  O47  1  0.38090050  0.81573650  0.75000000  1
  O  O48  1  0.28074000  0.96606000  0.36693600  1
  O  O49  1  0.28074000  0.96606000  0.13306400  1
  O  O50  1  0.32540200  0.76973700  0.56067100  1
  O  O51  1  0.32540200  0.76973700  0.93932900  1
