# generated using pymatgen
data_Li4Nb2Fe3Co3O16
_symmetry_space_group_name_H-M   'P 1'
_cell_length_a   10.17436000
_cell_length_b   5.88902800
_cell_length_c   9.60763094
_cell_angle_alpha   90.00000000
_cell_angle_beta   91.27907135
_cell_angle_gamma   90.00000000
_symmetry_Int_Tables_number   1
_chemical_formula_structural   Li4Nb2Fe3Co3O16
_chemical_formula_sum   'Li8 Nb4 Fe6 Co6 O32'
_cell_volume   575.51785866
_cell_formula_units_Z   2
loop_
 _symmetry_equiv_pos_site_id
 _symmetry_equiv_pos_as_xyz
  1  'x, y, z'
loop_
 _atom_site_type_symbol
 _atom_site_label
 _atom_site_symmetry_multiplicity
 _atom_site_fract_x
 _atom_site_fract_y
 _atom_site_fract_z
 _atom_site_occupancy
  Li  Li0  1  0.33746100  0.00000000  0.09661000  1
  Li  Li1  1  0.99384800  0.00000000  0.00595300  1
  Li  Li2  1  0.99218500  0.00000000  0.50923100  1
  Li  Li3  1  0.67082000  0.00000000  0.60322000  1
  Li  Li4  1  0.83746100  0.50000000  0.09661000  1
  Li  Li5  1  0.49384800  0.50000000  0.00595300  1
  Li  Li6  1  0.49218500  0.50000000  0.50923100  1
  Li  Li7  1  0.17082000  0.50000000  0.60322000  1
  Nb  Nb8  1  0.33708700  0.00000000  0.50719300  1
  Nb  Nb9  1  0.66855600  0.00000000  0.00174700  1
  Nb  Nb10  1  0.83708700  0.50000000  0.50719300  1
  Nb  Nb11  1  0.16855600  0.50000000  0.00174700  1
  Fe  Fe12  1  0.17084200  0.00000000  0.78024300  1
  Fe  Fe13  1  0.58645000  0.24402300  0.28160900  1
  Fe  Fe14  1  0.58645000  0.75597700  0.28160900  1
  Fe  Fe15  1  0.67084200  0.50000000  0.78024300  1
  Fe  Fe16  1  0.08645000  0.74402300  0.28160900  1
  Fe  Fe17  1  0.08645000  0.25597700  0.28160900  1
  Co  Co18  1  0.41368700  0.24479600  0.78577100  1
  Co  Co19  1  0.41368700  0.75520400  0.78577100  1
  Co  Co20  1  0.82868400  0.00000000  0.28564800  1
  Co  Co21  1  0.91368700  0.74479600  0.78577100  1
  Co  Co22  1  0.91368700  0.25520400  0.78577100  1
  Co  Co23  1  0.32868400  0.50000000  0.28564800  1
  O  O24  1  0.41270100  0.25308600  0.40370600  1
  O  O25  1  0.47996700  0.00000000  0.66931200  1
  O  O26  1  0.33782800  0.00000000  0.88854000  1
  O  O27  1  0.99379500  0.00000000  0.69567200  1
  O  O28  1  0.99396500  0.00000000  0.19388600  1
  O  O29  1  0.41270100  0.74691400  0.40370600  1
  O  O30  1  0.26474450  0.22710650  0.66054800  1
  O  O31  1  0.26474450  0.77289350  0.66054800  1
  O  O32  1  0.83317000  0.00000000  0.89632900  1
  O  O33  1  0.16449900  0.00000000  0.41583700  1
  O  O34  1  0.74670000  0.21819100  0.15987200  1
  O  O35  1  0.74670000  0.78180900  0.15987200  1
  O  O36  1  0.66986200  0.00000000  0.39315400  1
  O  O37  1  0.57978800  0.25022300  0.90678200  1
  O  O38  1  0.51944100  0.00000000  0.15292800  1
  O  O39  1  0.57978800  0.74977700  0.90678200  1
  O  O40  1  0.91270100  0.75308600  0.40370600  1
  O  O41  1  0.97996700  0.50000000  0.66931200  1
  O  O42  1  0.83782800  0.50000000  0.88854000  1
  O  O43  1  0.49379500  0.50000000  0.69567200  1
  O  O44  1  0.49396500  0.50000000  0.19388600  1
  O  O45  1  0.91270100  0.24691400  0.40370600  1
  O  O46  1  0.76474450  0.72710650  0.66054800  1
  O  O47  1  0.76474450  0.27289350  0.66054800  1
  O  O48  1  0.33317000  0.50000000  0.89632900  1
  O  O49  1  0.66449900  0.50000000  0.41583700  1
  O  O50  1  0.24670000  0.71819100  0.15987200  1
  O  O51  1  0.24670000  0.28180900  0.15987200  1
  O  O52  1  0.16986200  0.50000000  0.39315400  1
  O  O53  1  0.07978800  0.75022300  0.90678200  1
  O  O54  1  0.01944100  0.50000000  0.15292800  1
  O  O55  1  0.07978800  0.24977700  0.90678200  1
