# generated using pymatgen
data_Li4Ti3Mn3(SbO8)2
_symmetry_space_group_name_H-M   'P 1'
_cell_length_a   10.64178200
_cell_length_b   6.00581200
_cell_length_c   9.90833016
_cell_angle_alpha   90.00000000
_cell_angle_beta   91.77347874
_cell_angle_gamma   90.00000000
_symmetry_Int_Tables_number   1
_chemical_formula_structural   Li4Ti3Mn3(SbO8)2
_chemical_formula_sum   'Li8 Ti6 Mn6 Sb4 O32'
_cell_volume   632.96322872
_cell_formula_units_Z   2
loop_
 _symmetry_equiv_pos_site_id
 _symmetry_equiv_pos_as_xyz
  1  'x, y, z'
loop_
 _atom_site_type_symbol
 _atom_site_label
 _atom_site_symmetry_multiplicity
 _atom_site_fract_x
 _atom_site_fract_y
 _atom_site_fract_z
 _atom_site_occupancy
  Li  Li0  1  0.65592900  0.00000000  0.90395500  1
  Li  Li1  1  0.99528600  0.00000000  0.98813900  1
  Li  Li2  1  0.50896300  0.50000000  0.49056200  1
  Li  Li3  1  0.83438200  0.50000000  0.39779100  1
  Li  Li4  1  0.15592900  0.50000000  0.90395500  1
  Li  Li5  1  0.49528600  0.50000000  0.98813900  1
  Li  Li6  1  0.00896300  0.00000000  0.49056200  1
  Li  Li7  1  0.33438200  0.00000000  0.39779100  1
  Ti  Ti8  1  0.59059050  0.24359050  0.21603200  1
  Ti  Ti9  1  0.59059050  0.75640950  0.21603200  1
  Ti  Ti10  1  0.67076500  0.50000000  0.71647800  1
  Ti  Ti11  1  0.09059050  0.74359050  0.21603200  1
  Ti  Ti12  1  0.09059050  0.25640950  0.21603200  1
  Ti  Ti13  1  0.17076500  0.00000000  0.71647800  1
  Mn  Mn14  1  0.83205500  0.00000000  0.20650100  1
  Mn  Mn15  1  0.91732450  0.74512150  0.71577000  1
  Mn  Mn16  1  0.91732450  0.25487850  0.71577000  1
  Mn  Mn17  1  0.33205500  0.50000000  0.20650100  1
  Mn  Mn18  1  0.41732450  0.24512150  0.71577000  1
  Mn  Mn19  1  0.41732450  0.75487850  0.71577000  1
  Sb  Sb20  1  0.67738400  0.00000000  0.49606300  1
  Sb  Sb21  1  0.83217300  0.50000000  0.98743300  1
  Sb  Sb22  1  0.17738400  0.50000000  0.49606300  1
  Sb  Sb23  1  0.33217300  0.00000000  0.98743300  1
  O  O24  1  0.59484450  0.25919550  0.60538600  1
  O  O25  1  0.52002300  0.00000000  0.32946800  1
  O  O26  1  0.64958900  0.00000000  0.10559300  1
  O  O27  1  0.51154700  0.50000000  0.29979800  1
  O  O28  1  0.50290200  0.50000000  0.80338200  1
  O  O29  1  0.59484450  0.74080450  0.60538600  1
  O  O30  1  0.73152550  0.23865350  0.33489600  1
  O  O31  1  0.73152550  0.76134650  0.33489600  1
  O  O32  1  0.66584200  0.50000000  0.09692100  1
  O  O33  1  0.84894500  0.00000000  0.59432500  1
  O  O34  1  0.74710250  0.71564350  0.85230000  1
  O  O35  1  0.74710250  0.28435650  0.85230000  1
  O  O36  1  0.82527300  0.50000000  0.61175000  1
  O  O37  1  0.91955000  0.74553900  0.09013300  1
  O  O38  1  0.97360900  0.50000000  0.85018300  1
  O  O39  1  0.91955000  0.25446100  0.09013300  1
  O  O40  1  0.09484450  0.75919550  0.60538600  1
  O  O41  1  0.02002300  0.50000000  0.32946800  1
  O  O42  1  0.14958900  0.50000000  0.10559300  1
  O  O43  1  0.01154700  0.00000000  0.29979800  1
  O  O44  1  0.00290200  0.00000000  0.80338200  1
  O  O45  1  0.09484450  0.24080450  0.60538600  1
  O  O46  1  0.23152550  0.73865350  0.33489600  1
  O  O47  1  0.23152550  0.26134650  0.33489600  1
  O  O48  1  0.16584200  0.00000000  0.09692100  1
  O  O49  1  0.34894500  0.50000000  0.59432500  1
  O  O50  1  0.24710250  0.21564350  0.85230000  1
  O  O51  1  0.24710250  0.78435650  0.85230000  1
  O  O52  1  0.32527300  0.00000000  0.61175000  1
  O  O53  1  0.41955000  0.24553900  0.09013300  1
  O  O54  1  0.47360900  0.00000000  0.85018300  1
  O  O55  1  0.41955000  0.75446100  0.09013300  1
