# generated using pymatgen
data_LiFeSiO4
_symmetry_space_group_name_H-M   'P 1'
_cell_length_a   13.93474834
_cell_length_b   13.93474834
_cell_length_c   9.31976968
_cell_angle_alpha   90.00000000
_cell_angle_beta   90.00000000
_cell_angle_gamma   120.00000000
_symmetry_Int_Tables_number   1
_chemical_formula_structural   LiFeSiO4
_chemical_formula_sum   'Li18 Fe18 Si18 O72'
_cell_volume   1567.23481705
_cell_formula_units_Z   18
loop_
 _symmetry_equiv_pos_site_id
 _symmetry_equiv_pos_as_xyz
  1  'x, y, z'
loop_
 _atom_site_type_symbol
 _atom_site_label
 _atom_site_symmetry_multiplicity
 _atom_site_fract_x
 _atom_site_fract_y
 _atom_site_fract_z
 _atom_site_occupancy
  Li  Li0  1  0.54520733  0.68822767  0.58135067  1
  Li  Li1  1  0.79365800  0.98369100  0.41728800  1
  Li  Li2  1  0.01630900  0.80996700  0.41728800  1
  Li  Li3  1  0.31177233  0.85697967  0.58135067  1
  Li  Li4  1  0.19003300  0.20634200  0.41728800  1
  Li  Li5  1  0.14302033  0.45479267  0.58135067  1
  Li  Li6  1  0.21187400  0.02156100  0.91468400  1
  Li  Li7  1  0.46032467  0.31702433  0.75062133  1
  Li  Li8  1  0.68297567  0.14330033  0.75062133  1
  Li  Li9  1  0.97843900  0.19031300  0.91468400  1
  Li  Li10  1  0.85669967  0.53967533  0.75062133  1
  Li  Li11  1  0.80968700  0.78812600  0.91468400  1
  Li  Li12  1  0.87854067  0.35489433  0.24801733  1
  Li  Li13  1  0.12699133  0.65035767  0.08395467  1
  Li  Li14  1  0.34964233  0.47663367  0.08395467  1
  Li  Li15  1  0.64510567  0.52364633  0.24801733  1
  Li  Li16  1  0.52336633  0.87300867  0.08395467  1
  Li  Li17  1  0.47635367  0.12145933  0.24801733  1
  Fe  Fe18  1  0.80545967  0.79069733  0.24905033  1
  Fe  Fe19  1  0.78501033  0.98086467  0.74930067  1
  Fe  Fe20  1  0.01913533  0.80414567  0.74930067  1
  Fe  Fe21  1  0.98523767  0.19454033  0.24905033  1
  Fe  Fe22  1  0.20930267  0.01476233  0.24905033  1
  Fe  Fe23  1  0.19585433  0.21498967  0.74930067  1
  Fe  Fe24  1  0.47212633  0.12403067  0.58238367  1
  Fe  Fe25  1  0.45167700  0.31419800  0.08263400  1
  Fe  Fe26  1  0.68580200  0.13747900  0.08263400  1
  Fe  Fe27  1  0.65190433  0.52787367  0.58238367  1
  Fe  Fe28  1  0.87596933  0.34809567  0.58238367  1
  Fe  Fe29  1  0.86252100  0.54832300  0.08263400  1
  Fe  Fe30  1  0.13879300  0.45736400  0.91571700  1
  Fe  Fe31  1  0.11834367  0.64753133  0.41596733  1
  Fe  Fe32  1  0.35246867  0.47081233  0.41596733  1
  Fe  Fe33  1  0.31857100  0.86120700  0.91571700  1
  Fe  Fe34  1  0.54263600  0.68142900  0.91571700  1
  Fe  Fe35  1  0.52918767  0.88165633  0.41596733  1
  Si  Si36  1  0.86370433  0.54371467  0.41688067  1
  Si  Si37  1  0.80392600  0.78791800  0.58367000  1
  Si  Si38  1  0.68001033  0.13629567  0.41688067  1
  Si  Si39  1  0.98399200  0.19607400  0.58367000  1
  Si  Si40  1  0.21208200  0.01600800  0.58367000  1
  Si  Si41  1  0.45628533  0.31998967  0.41688067  1
  Si  Si42  1  0.53037100  0.87704800  0.75021400  1
  Si  Si43  1  0.47059267  0.12125133  0.91700333  1
  Si  Si44  1  0.34667700  0.46962900  0.75021400  1
  Si  Si45  1  0.65065867  0.52940733  0.91700333  1
  Si  Si46  1  0.87874867  0.34934133  0.91700333  1
  Si  Si47  1  0.12295200  0.65332300  0.75021400  1
  Si  Si48  1  0.19703767  0.21038133  0.08354733  1
  Si  Si49  1  0.13725933  0.45458467  0.25033667  1
  Si  Si50  1  0.01334367  0.80296233  0.08354733  1
  Si  Si51  1  0.31732533  0.86274067  0.25033667  1
  Si  Si52  1  0.54541533  0.68267467  0.25033667  1
  Si  Si53  1  0.78961867  0.98665633  0.08354733  1
  O  O54  1  0.55105467  0.77019233  0.75691433  1
  O  O55  1  0.79701767  0.53763033  0.26720333  1
  O  O56  1  0.68040067  0.67548633  0.58447233  1
  O  O57  1  0.98674100  0.65686900  0.41727200  1
  O  O58  1  0.87605733  0.78762867  0.72385467  1
  O  O59  1  0.86895700  0.79659300  0.43190100  1
  O  O60  1  0.67012800  0.01325900  0.41727200  1
  O  O61  1  0.78556033  0.89582867  0.59207467  1
  O  O62  1  0.79424333  0.91992567  0.22629467  1
  O  O63  1  0.74061267  0.20298233  0.26720333  1
  O  O64  1  0.08007433  0.87431767  0.22629467  1
  O  O65  1  0.10417133  0.88973167  0.59207467  1
  O  O66  1  0.22980767  0.78086233  0.75691433  1
  O  O67  1  0.91157133  0.12394267  0.72385467  1
  O  O68  1  0.92763600  0.13104300  0.43190100  1
  O  O69  1  0.20340700  0.07236400  0.43190100  1
  O  O70  1  0.21237133  0.08842867  0.72385467  1
  O  O71  1  0.99508567  0.31959933  0.58447233  1
  O  O72  1  0.11026833  0.21443967  0.59207467  1
  O  O73  1  0.12568233  0.20575667  0.22629467  1
  O  O74  1  0.32451367  0.00491433  0.58447233  1
  O  O75  1  0.21913767  0.44894533  0.75691433  1
  O  O76  1  0.34313100  0.32987200  0.41727200  1
  O  O77  1  0.46236967  0.25938733  0.26720333  1
  O  O78  1  0.21772133  0.10352567  0.09024767  1
  O  O79  1  0.46368433  0.87096367  0.60053667  1
  O  O80  1  0.34706733  0.00881967  0.91780567  1
  O  O81  1  0.65340767  0.99020233  0.75060533  1
  O  O82  1  0.54272400  0.12096200  0.05718800  1
  O  O83  1  0.53562367  0.12992633  0.76523433  1
  O  O84  1  0.33679467  0.34659233  0.75060533  1
  O  O85  1  0.45222700  0.22916200  0.92540800  1
  O  O86  1  0.46091000  0.25325900  0.55962800  1
  O  O87  1  0.40727933  0.53631567  0.60053667  1
  O  O88  1  0.74674100  0.20765100  0.55962800  1
  O  O89  1  0.77083800  0.22306500  0.92540800  1
  O  O90  1  0.89647433  0.11419567  0.09024767  1
  O  O91  1  0.57823800  0.45727600  0.05718800  1
  O  O92  1  0.59430267  0.46437633  0.76523433  1
  O  O93  1  0.87007367  0.40569733  0.76523433  1
  O  O94  1  0.87903800  0.42176200  0.05718800  1
  O  O95  1  0.66175233  0.65293267  0.91780567  1
  O  O96  1  0.77693500  0.54777300  0.92540800  1
  O  O97  1  0.79234900  0.53909000  0.55962800  1
  O  O98  1  0.99118033  0.33824767  0.91780567  1
  O  O99  1  0.88580433  0.78227867  0.09024767  1
  O  O100  1  0.00979767  0.66320533  0.75060533  1
  O  O101  1  0.12903633  0.59272067  0.60053667  1
  O  O102  1  0.88438800  0.43685900  0.42358100  1
  O  O103  1  0.13035100  0.20429700  0.93387000  1
  O  O104  1  0.01373400  0.34215300  0.25113900  1
  O  O105  1  0.32007433  0.32353567  0.08393867  1
  O  O106  1  0.20939067  0.45429533  0.39052133  1
  O  O107  1  0.20229033  0.46325967  0.09856767  1
  O  O108  1  0.00346133  0.67992567  0.08393867  1
  O  O109  1  0.11889367  0.56249533  0.25874133  1
  O  O110  1  0.12757667  0.58659233  0.89296133  1
  O  O111  1  0.07394600  0.86964900  0.93387000  1
  O  O112  1  0.41340767  0.54098433  0.89296133  1
  O  O113  1  0.43750467  0.55639833  0.25874133  1
  O  O114  1  0.56314100  0.44752900  0.42358100  1
  O  O115  1  0.24490467  0.79060933  0.39052133  1
  O  O116  1  0.26096933  0.79770967  0.09856767  1
  O  O117  1  0.53674033  0.73903067  0.09856767  1
  O  O118  1  0.54570467  0.75509533  0.39052133  1
  O  O119  1  0.32841900  0.98626600  0.25113900  1
  O  O120  1  0.44360167  0.88110633  0.25874133  1
  O  O121  1  0.45901567  0.87242333  0.89296133  1
  O  O122  1  0.65784700  0.67158100  0.25113900  1
  O  O123  1  0.55247100  0.11561200  0.42358100  1
  O  O124  1  0.67646433  0.99653867  0.08393867  1
  O  O125  1  0.79570300  0.92605400  0.93387000  1
