# generated using pymatgen
data_Mn5CuO12
_symmetry_space_group_name_H-M   'P 1'
_cell_length_a   5.06899170
_cell_length_b   8.80823380
_cell_length_c   9.66626272
_cell_angle_alpha   90.00000000
_cell_angle_beta   90.14121659
_cell_angle_gamma   90.00000000
_symmetry_Int_Tables_number   1
_chemical_formula_structural   Mn5CuO12
_chemical_formula_sum   'Mn10 Cu2 O24'
_cell_volume   431.58633914
_cell_formula_units_Z   2
loop_
 _symmetry_equiv_pos_site_id
 _symmetry_equiv_pos_as_xyz
  1  'x, y, z'
loop_
 _atom_site_type_symbol
 _atom_site_label
 _atom_site_symmetry_multiplicity
 _atom_site_fract_x
 _atom_site_fract_y
 _atom_site_fract_z
 _atom_site_occupancy
  Mn  Mn0  1  0.50000000  0.66660100  0.50000000  1
  Mn  Mn1  1  0.00000000  0.66693150  0.00000000  1
  Mn  Mn2  1  0.50000000  0.83306850  0.00000000  1
  Mn  Mn3  1  0.00000000  0.83339900  0.50000000  1
  Mn  Mn4  1  0.50000000  0.00000000  0.50000000  1
  Mn  Mn5  1  0.00000000  0.16660100  0.50000000  1
  Mn  Mn6  1  0.50000000  0.16693150  0.00000000  1
  Mn  Mn7  1  0.00000000  0.33306850  0.00000000  1
  Mn  Mn8  1  0.50000000  0.33339900  0.50000000  1
  Mn  Mn9  1  0.00000000  0.50000000  0.50000000  1
  Cu  Cu10  1  0.00000000  0.00000000  0.00000000  1
  Cu  Cu11  1  0.50000000  0.50000000  0.00000000  1
  O  O12  1  0.66807450  0.66849250  0.90009500  1
  O  O13  1  0.33192550  0.66849250  0.09990500  1
  O  O14  1  0.66687200  0.83331400  0.59930500  1
  O  O15  1  0.16687200  0.66668600  0.59930500  1
  O  O16  1  0.33312800  0.83331400  0.40069500  1
  O  O17  1  0.83298600  0.00000000  0.40079800  1
  O  O18  1  0.83312800  0.66668600  0.40069500  1
  O  O19  1  0.16807450  0.83150750  0.90009500  1
  O  O20  1  0.66642100  0.00000000  0.90124600  1
  O  O21  1  0.83192550  0.83150750  0.09990500  1
  O  O22  1  0.33357900  0.00000000  0.09875400  1
  O  O23  1  0.16701400  0.00000000  0.59920200  1
  O  O24  1  0.16807450  0.16849250  0.90009500  1
  O  O25  1  0.83192550  0.16849250  0.09990500  1
  O  O26  1  0.16687200  0.33331400  0.59930500  1
  O  O27  1  0.66687200  0.16668600  0.59930500  1
  O  O28  1  0.83312800  0.33331400  0.40069500  1
  O  O29  1  0.33298600  0.50000000  0.40079800  1
  O  O30  1  0.33312800  0.16668600  0.40069500  1
  O  O31  1  0.66807450  0.33150750  0.90009500  1
  O  O32  1  0.16642100  0.50000000  0.90124600  1
  O  O33  1  0.33192550  0.33150750  0.09990500  1
  O  O34  1  0.83357900  0.50000000  0.09875400  1
  O  O35  1  0.66701400  0.50000000  0.59920200  1
