# generated using pymatgen
data_VO2
_symmetry_space_group_name_H-M   'P 1'
_cell_length_a   5.93211107
_cell_length_b   6.38673829
_cell_length_c   7.48067347
_cell_angle_alpha   90.00000000
_cell_angle_beta   90.00000000
_cell_angle_gamma   90.00000000
_symmetry_Int_Tables_number   1
_chemical_formula_structural   VO2
_chemical_formula_sum   'V8 O16'
_cell_volume   283.41908556
_cell_formula_units_Z   8
loop_
 _symmetry_equiv_pos_site_id
 _symmetry_equiv_pos_as_xyz
  1  'x, y, z'
loop_
 _atom_site_type_symbol
 _atom_site_label
 _atom_site_symmetry_multiplicity
 _atom_site_fract_x
 _atom_site_fract_y
 _atom_site_fract_z
 _atom_site_occupancy
  V  V0  1  0.00000000  0.00000000  0.00000000  1
  V  V1  1  0.50000000  0.00000000  0.50000000  1
  V  V2  1  0.00000000  0.25000000  0.59429300  1
  V  V3  1  0.50000000  0.25000000  0.90570700  1
  V  V4  1  0.50000000  0.50000000  0.50000000  1
  V  V5  1  0.00000000  0.50000000  0.00000000  1
  V  V6  1  0.50000000  0.75000000  0.09429300  1
  V  V7  1  0.00000000  0.75000000  0.40570700  1
  O  O8  1  0.26931900  0.25000000  0.48868850  1
  O  O9  1  0.00000000  0.46289700  0.73112500  1
  O  O10  1  0.00000000  0.03710300  0.73112500  1
  O  O11  1  0.26931900  0.75000000  0.51131150  1
  O  O12  1  0.23068100  0.75000000  0.98868850  1
  O  O13  1  0.50000000  0.46289700  0.76887500  1
  O  O14  1  0.50000000  0.03710300  0.76887500  1
  O  O15  1  0.23068100  0.25000000  0.01131150  1
  O  O16  1  0.76931900  0.75000000  0.98868850  1
  O  O17  1  0.50000000  0.96289700  0.23112500  1
  O  O18  1  0.50000000  0.53710300  0.23112500  1
  O  O19  1  0.76931900  0.25000000  0.01131150  1
  O  O20  1  0.73068100  0.25000000  0.48868850  1
  O  O21  1  0.00000000  0.96289700  0.26887500  1
  O  O22  1  0.00000000  0.53710300  0.26887500  1
  O  O23  1  0.73068100  0.75000000  0.51131150  1
