# generated using pymatgen
data_Fe2OF3
_symmetry_space_group_name_H-M   'P 1'
_cell_length_a   6.23580004
_cell_length_b   6.71485008
_cell_length_c   6.92556928
_cell_angle_alpha   90.00000000
_cell_angle_beta   90.00000000
_cell_angle_gamma   90.00000000
_symmetry_Int_Tables_number   1
_chemical_formula_structural   Fe2OF3
_chemical_formula_sum   'Fe8 O4 F12'
_cell_volume   289.99063958
_cell_formula_units_Z   4
loop_
 _symmetry_equiv_pos_site_id
 _symmetry_equiv_pos_as_xyz
  1  'x, y, z'
loop_
 _atom_site_type_symbol
 _atom_site_label
 _atom_site_symmetry_multiplicity
 _atom_site_fract_x
 _atom_site_fract_y
 _atom_site_fract_z
 _atom_site_occupancy
  Fe  Fe0  1  0.25000000  0.75000000  0.75000000  1
  Fe  Fe1  1  0.00000000  0.21253350  0.75000000  1
  Fe  Fe2  1  0.25000000  0.25000000  0.25000000  1
  Fe  Fe3  1  0.00000000  0.78746650  0.25000000  1
  Fe  Fe4  1  0.75000000  0.25000000  0.25000000  1
  Fe  Fe5  1  0.50000000  0.71253350  0.25000000  1
  Fe  Fe6  1  0.75000000  0.75000000  0.75000000  1
  Fe  Fe7  1  0.50000000  0.28746650  0.75000000  1
  O  O8  1  0.00000000  0.91743000  0.75000000  1
  O  O9  1  0.50000000  0.58257000  0.75000000  1
  O  O10  1  0.50000000  0.41743000  0.25000000  1
  O  O11  1  0.00000000  0.08257000  0.25000000  1
  F  F12  1  0.50000000  0.96470900  0.75000000  1
  F  F13  1  0.50000000  0.03529100  0.25000000  1
  F  F14  1  0.25000000  0.75000000  0.45651800  1
  F  F15  1  0.75000000  0.75000000  0.45651800  1
  F  F16  1  0.75000000  0.25000000  0.54348200  1
  F  F17  1  0.25000000  0.25000000  0.54348200  1
  F  F18  1  0.00000000  0.46470900  0.25000000  1
  F  F19  1  0.00000000  0.53529100  0.75000000  1
  F  F20  1  0.75000000  0.25000000  0.95651800  1
  F  F21  1  0.25000000  0.25000000  0.95651800  1
  F  F22  1  0.25000000  0.75000000  0.04348200  1
  F  F23  1  0.75000000  0.75000000  0.04348200  1
