# generated using pymatgen
data_Mn3Nb(PO4)6
_symmetry_space_group_name_H-M   'P 1'
_cell_length_a   8.53275759
_cell_length_b   8.53275759
_cell_length_c   21.72015597
_cell_angle_alpha   90.00000000
_cell_angle_beta   90.00000000
_cell_angle_gamma   120.00000000
_symmetry_Int_Tables_number   1
_chemical_formula_structural   Mn3Nb(PO4)6
_chemical_formula_sum   'Mn9 Nb3 P18 O72'
_cell_volume   1369.53263983
_cell_formula_units_Z   3
loop_
 _symmetry_equiv_pos_site_id
 _symmetry_equiv_pos_as_xyz
  1  'x, y, z'
loop_
 _atom_site_type_symbol
 _atom_site_label
 _atom_site_symmetry_multiplicity
 _atom_site_fract_x
 _atom_site_fract_y
 _atom_site_fract_z
 _atom_site_occupancy
  Mn  Mn0  1  0.00000000  0.00000000  0.14463900  1
  Mn  Mn1  1  0.33333333  0.66666667  0.02326067  1
  Mn  Mn2  1  0.33333333  0.66666667  0.31124467  1
  Mn  Mn3  1  0.66666667  0.33333333  0.47797233  1
  Mn  Mn4  1  0.00000000  0.00000000  0.35659400  1
  Mn  Mn5  1  0.00000000  0.00000000  0.64457800  1
  Mn  Mn6  1  0.33333333  0.66666667  0.81130567  1
  Mn  Mn7  1  0.66666667  0.33333333  0.68992733  1
  Mn  Mn8  1  0.66666667  0.33333333  0.97791133  1
  Nb  Nb9  1  0.66666667  0.33333333  0.19435233  1
  Nb  Nb10  1  0.33333333  0.66666667  0.52768567  1
  Nb  Nb11  1  0.00000000  0.00000000  0.86101900  1
  P  P12  1  0.95541200  0.33191100  0.08147900  1
  P  P13  1  0.37649900  0.04458800  0.08147900  1
  P  P14  1  0.66808900  0.62350100  0.08147900  1
  P  P15  1  0.01233633  0.72832967  0.25169867  1
  P  P16  1  0.27167033  0.28400667  0.25169867  1
  P  P17  1  0.71599333  0.98766367  0.25169867  1
  P  P18  1  0.62207867  0.66524433  0.41481233  1
  P  P19  1  0.04316567  0.37792133  0.41481233  1
  P  P20  1  0.33475567  0.95683433  0.41481233  1
  P  P21  1  0.67900300  0.06166300  0.58503200  1
  P  P22  1  0.93833700  0.61734000  0.58503200  1
  P  P23  1  0.38266000  0.32099700  0.58503200  1
  P  P24  1  0.28874533  0.99857767  0.74814567  1
  P  P25  1  0.70983233  0.71125467  0.74814567  1
  P  P26  1  0.00142233  0.29016767  0.74814567  1
  P  P27  1  0.34566967  0.39499633  0.91836533  1
  P  P28  1  0.60500367  0.95067333  0.91836533  1
  P  P29  1  0.04932667  0.65433033  0.91836533  1
  O  O30  1  0.83258200  0.03034800  0.30961200  1
  O  O31  1  0.96965200  0.80223400  0.30961200  1
  O  O32  1  0.97400900  0.16203300  0.08781300  1
  O  O33  1  0.19776600  0.16741800  0.30961200  1
  O  O34  1  0.14326800  0.50234000  0.07721400  1
  O  O35  1  0.86783033  0.36103667  0.13942367  1
  O  O36  1  0.18802400  0.02599100  0.08781300  1
  O  O37  1  0.35907200  0.85673200  0.07721400  1
  O  O38  1  0.49766000  0.64092800  0.07721400  1
  O  O39  1  0.03983133  0.83676667  0.19217567  1
  O  O40  1  0.84136300  0.53738800  0.24425200  1
  O  O41  1  0.16323333  0.20306467  0.19217567  1
  O  O42  1  0.49320633  0.13216967  0.13942367  1
  O  O43  1  0.83796700  0.81197600  0.08781300  1
  O  O44  1  0.63896333  0.50679367  0.13942367  1
  O  O45  1  0.17869967  0.70605333  0.25651633  1
  O  O46  1  0.29394667  0.47264633  0.25651633  1
  O  O47  1  0.46261200  0.30397500  0.24425200  1
  O  O48  1  0.79693533  0.96016867  0.19217567  1
  O  O49  1  0.52735367  0.82130033  0.25651633  1
  O  O50  1  0.46075367  0.16353533  0.02420633  1
  O  O51  1  0.69602500  0.15863700  0.24425200  1
  O  O52  1  0.70278167  0.53924633  0.02420633  1
  O  O53  1  0.83646467  0.29721833  0.02420633  1
  O  O54  1  0.49924867  0.36368133  0.64294533  1
  O  O55  1  0.63631867  0.13556733  0.64294533  1
  O  O56  1  0.64067567  0.49536633  0.42114633  1
  O  O57  1  0.86443267  0.50075133  0.64294533  1
  O  O58  1  0.80993467  0.83567333  0.41054733  1
  O  O59  1  0.53449700  0.69437000  0.47275700  1
  O  O60  1  0.85469067  0.35932433  0.42114633  1
  O  O61  1  0.02573867  0.19006533  0.41054733  1
  O  O62  1  0.16432667  0.97426133  0.41054733  1
  O  O63  1  0.70649800  0.17010000  0.52550900  1
  O  O64  1  0.50802967  0.87072133  0.57758533  1
  O  O65  1  0.82990000  0.53639800  0.52550900  1
  O  O66  1  0.15987300  0.46550300  0.47275700  1
  O  O67  1  0.50463367  0.14530933  0.42114633  1
  O  O68  1  0.30563000  0.84012700  0.47275700  1
  O  O69  1  0.84536633  0.03938667  0.58984967  1
  O  O70  1  0.96061333  0.80597967  0.58984967  1
  O  O71  1  0.12927867  0.63730833  0.57758533  1
  O  O72  1  0.46360200  0.29350200  0.52550900  1
  O  O73  1  0.19402033  0.15463367  0.58984967  1
  O  O74  1  0.12742033  0.49686867  0.35753967  1
  O  O75  1  0.36269167  0.49197033  0.57758533  1
  O  O76  1  0.36944833  0.87257967  0.35753967  1
  O  O77  1  0.50313133  0.63055167  0.35753967  1
  O  O78  1  0.16591533  0.69701467  0.97627867  1
  O  O79  1  0.30298533  0.46890067  0.97627867  1
  O  O80  1  0.30734233  0.82869967  0.75447967  1
  O  O81  1  0.53109933  0.83408467  0.97627867  1
  O  O82  1  0.47660133  0.16900667  0.74388067  1
  O  O83  1  0.20116367  0.02770333  0.80609033  1
  O  O84  1  0.52135733  0.69265767  0.75447967  1
  O  O85  1  0.69240533  0.52339867  0.74388067  1
  O  O86  1  0.83099333  0.30759467  0.74388067  1
  O  O87  1  0.37316467  0.50343333  0.85884233  1
  O  O88  1  0.17469633  0.20405467  0.91091867  1
  O  O89  1  0.49656667  0.86973133  0.85884233  1
  O  O90  1  0.82653967  0.79883633  0.80609033  1
  O  O91  1  0.17130033  0.47864267  0.75447967  1
  O  O92  1  0.97229667  0.17346033  0.80609033  1
  O  O93  1  0.51203300  0.37272000  0.92318300  1
  O  O94  1  0.62728000  0.13931300  0.92318300  1
  O  O95  1  0.79594533  0.97064167  0.91091867  1
  O  O96  1  0.13026867  0.62683533  0.85884233  1
  O  O97  1  0.86068700  0.48796700  0.92318300  1
  O  O98  1  0.79408700  0.83020200  0.69087300  1
  O  O99  1  0.02935833  0.82530367  0.91091867  1
  O  O100  1  0.03611500  0.20591300  0.69087300  1
  O  O101  1  0.16979800  0.96388500  0.69087300  1
