# generated using pymatgen
data_Fe2OF3
_symmetry_space_group_name_H-M   'P 1'
_cell_length_a   6.72710000
_cell_length_b   6.95915200
_cell_length_c   12.44821500
_cell_angle_alpha   90.00000000
_cell_angle_beta   90.00000000
_cell_angle_gamma   90.00000000
_symmetry_Int_Tables_number   1
_chemical_formula_structural   Fe2OF3
_chemical_formula_sum   'Fe16 O8 F24'
_cell_volume   582.76208255
_cell_formula_units_Z   8
loop_
 _symmetry_equiv_pos_site_id
 _symmetry_equiv_pos_as_xyz
  1  'x, y, z'
loop_
 _atom_site_type_symbol
 _atom_site_label
 _atom_site_symmetry_multiplicity
 _atom_site_fract_x
 _atom_site_fract_y
 _atom_site_fract_z
 _atom_site_occupancy
  Fe  Fe0  1  0.97838500  0.00000000  0.62497400  1
  Fe  Fe1  1  0.97838500  0.00000000  0.87502600  1
  Fe  Fe2  1  0.02161500  0.00000000  0.12497400  1
  Fe  Fe3  1  0.02161500  0.00000000  0.37502600  1
  Fe  Fe4  1  0.47542000  0.00000000  0.25000000  1
  Fe  Fe5  1  0.52458000  0.00000000  0.75000000  1
  Fe  Fe6  1  0.50000000  0.00000000  0.50000000  1
  Fe  Fe7  1  0.50000000  0.00000000  0.00000000  1
  Fe  Fe8  1  0.47838500  0.50000000  0.62497400  1
  Fe  Fe9  1  0.47838500  0.50000000  0.87502600  1
  Fe  Fe10  1  0.52161500  0.50000000  0.12497400  1
  Fe  Fe11  1  0.52161500  0.50000000  0.37502600  1
  Fe  Fe12  1  0.97542000  0.50000000  0.25000000  1
  Fe  Fe13  1  0.02458000  0.50000000  0.75000000  1
  Fe  Fe14  1  0.00000000  0.50000000  0.50000000  1
  Fe  Fe15  1  0.00000000  0.50000000  0.00000000  1
  O  O16  1  0.31994900  0.00000000  0.12171100  1
  O  O17  1  0.31994900  0.00000000  0.37828900  1
  O  O18  1  0.68005100  0.00000000  0.62171100  1
  O  O19  1  0.68005100  0.00000000  0.87828900  1
  O  O20  1  0.81994900  0.50000000  0.12171100  1
  O  O21  1  0.81994900  0.50000000  0.37828900  1
  O  O22  1  0.18005100  0.50000000  0.62171100  1
  O  O23  1  0.18005100  0.50000000  0.87828900  1
  F  F24  1  0.49455900  0.29089300  0.75000000  1
  F  F25  1  0.50000000  0.29202600  0.00000000  1
  F  F26  1  0.50544100  0.29089300  0.25000000  1
  F  F27  1  0.50000000  0.29202600  0.50000000  1
  F  F28  1  0.29485300  0.00000000  0.62749600  1
  F  F29  1  0.29485300  0.00000000  0.87250400  1
  F  F30  1  0.70514700  0.00000000  0.12749600  1
  F  F31  1  0.70514700  0.00000000  0.37250400  1
  F  F32  1  0.50000000  0.70797400  0.00000000  1
  F  F33  1  0.50544100  0.70910700  0.25000000  1
  F  F34  1  0.49455900  0.70910700  0.75000000  1
  F  F35  1  0.50000000  0.70797400  0.50000000  1
  F  F36  1  0.99455900  0.79089300  0.75000000  1
  F  F37  1  0.00000000  0.79202600  0.00000000  1
  F  F38  1  0.00544100  0.79089300  0.25000000  1
  F  F39  1  0.00000000  0.79202600  0.50000000  1
  F  F40  1  0.79485300  0.50000000  0.62749600  1
  F  F41  1  0.79485300  0.50000000  0.87250400  1
  F  F42  1  0.20514700  0.50000000  0.12749600  1
  F  F43  1  0.20514700  0.50000000  0.37250400  1
  F  F44  1  0.00000000  0.20797400  0.00000000  1
  F  F45  1  0.00544100  0.20910700  0.25000000  1
  F  F46  1  0.99455900  0.20910700  0.75000000  1
  F  F47  1  0.00000000  0.20797400  0.50000000  1
