# generated using pymatgen
data_Bi6P2O15
_symmetry_space_group_name_H-M   'P 1'
_cell_length_a   12.21546800
_cell_length_b   19.67073600
_cell_length_c   5.87098400
_cell_angle_alpha   90.00000000
_cell_angle_beta   90.00000000
_cell_angle_gamma   90.00000000
_symmetry_Int_Tables_number   1
_chemical_formula_structural   Bi6P2O15
_chemical_formula_sum   'Bi24 P8 O60'
_cell_volume   1410.72257752
_cell_formula_units_Z   4
loop_
 _symmetry_equiv_pos_site_id
 _symmetry_equiv_pos_as_xyz
  1  'x, y, z'
loop_
 _atom_site_type_symbol
 _atom_site_label
 _atom_site_symmetry_multiplicity
 _atom_site_fract_x
 _atom_site_fract_y
 _atom_site_fract_z
 _atom_site_occupancy
  Bi  Bi0  1  0.11302000  0.06525300  0.26726100  1
  Bi  Bi1  1  0.11302000  0.93474700  0.76726100  1
  Bi  Bi2  1  0.33232650  0.07436750  0.67032400  1
  Bi  Bi3  1  0.33232650  0.92563250  0.17032400  1
  Bi  Bi4  1  0.39992500  0.29305400  0.67321000  1
  Bi  Bi5  1  0.39992500  0.70694600  0.17321000  1
  Bi  Bi6  1  0.60007500  0.29305400  0.17321000  1
  Bi  Bi7  1  0.60007500  0.70694600  0.67321000  1
  Bi  Bi8  1  0.66767350  0.92563250  0.67032400  1
  Bi  Bi9  1  0.66767350  0.07436750  0.17032400  1
  Bi  Bi10  1  0.88698000  0.06525300  0.76726100  1
  Bi  Bi11  1  0.88698000  0.93474700  0.26726100  1
  Bi  Bi12  1  0.61302000  0.56525300  0.26726100  1
  Bi  Bi13  1  0.61302000  0.43474700  0.76726100  1
  Bi  Bi14  1  0.83232650  0.57436750  0.67032400  1
  Bi  Bi15  1  0.83232650  0.42563250  0.17032400  1
  Bi  Bi16  1  0.89992500  0.79305400  0.67321000  1
  Bi  Bi17  1  0.89992500  0.20694600  0.17321000  1
  Bi  Bi18  1  0.10007500  0.79305400  0.17321000  1
  Bi  Bi19  1  0.10007500  0.20694600  0.67321000  1
  Bi  Bi20  1  0.16767350  0.42563250  0.67032400  1
  Bi  Bi21  1  0.16767350  0.57436750  0.17032400  1
  Bi  Bi22  1  0.38698000  0.56525300  0.76726100  1
  Bi  Bi23  1  0.38698000  0.43474700  0.26726100  1
  P  P24  1  0.37924450  0.16108350  0.14953800  1
  P  P25  1  0.37924450  0.83891650  0.64953800  1
  P  P26  1  0.62075550  0.16108350  0.64953800  1
  P  P27  1  0.62075550  0.83891650  0.14953800  1
  P  P28  1  0.87924450  0.66108350  0.14953800  1
  P  P29  1  0.87924450  0.33891650  0.64953800  1
  P  P30  1  0.12075550  0.66108350  0.64953800  1
  P  P31  1  0.12075550  0.33891650  0.14953800  1
  O  O32  1  0.16057700  0.09784300  0.62368000  1
  O  O33  1  0.16057700  0.90215700  0.12368000  1
  O  O34  1  0.26803750  0.99580650  0.90011400  1
  O  O35  1  0.26803750  0.00419350  0.40011400  1
  O  O36  1  0.28507600  0.15255200  0.96761300  1
  O  O37  1  0.28507600  0.84744800  0.46761300  1
  O  O38  1  0.32657100  0.17198800  0.38815000  1
  O  O39  1  0.32657100  0.82801200  0.88815000  1
  O  O40  1  0.44789250  0.90543750  0.64604200  1
  O  O41  1  0.44789250  0.09456250  0.14604200  1
  O  O42  1  0.44618700  0.22427800  0.07317000  1
  O  O43  1  0.44618700  0.77572200  0.57317000  1
  O  O44  1  0.48816700  0.34339200  0.39392300  1
  O  O45  1  0.48816700  0.65660800  0.89392300  1
  O  O46  1  0.00000000  0.00000000  0.95772100  1
  O  O47  1  0.00000000  0.00000000  0.45772100  1
  O  O48  1  0.51183300  0.34339200  0.89392300  1
  O  O49  1  0.51183300  0.65660800  0.39392300  1
  O  O50  1  0.55381300  0.22427800  0.57317000  1
  O  O51  1  0.55381300  0.77572200  0.07317000  1
  O  O52  1  0.55210750  0.09456250  0.64604200  1
  O  O53  1  0.55210750  0.90543750  0.14604200  1
  O  O54  1  0.67342900  0.82801200  0.38815000  1
  O  O55  1  0.67342900  0.17198800  0.88815000  1
  O  O56  1  0.71492400  0.15255200  0.46761300  1
  O  O57  1  0.71492400  0.84744800  0.96761300  1
  O  O58  1  0.73196250  0.00419350  0.90011400  1
  O  O59  1  0.73196250  0.99580650  0.40011400  1
  O  O60  1  0.83942300  0.09784300  0.12368000  1
  O  O61  1  0.83942300  0.90215700  0.62368000  1
  O  O62  1  0.66057700  0.59784300  0.62368000  1
  O  O63  1  0.66057700  0.40215700  0.12368000  1
  O  O64  1  0.76803750  0.49580650  0.90011400  1
  O  O65  1  0.76803750  0.50419350  0.40011400  1
  O  O66  1  0.78507600  0.65255200  0.96761300  1
  O  O67  1  0.78507600  0.34744800  0.46761300  1
  O  O68  1  0.82657100  0.67198800  0.38815000  1
  O  O69  1  0.82657100  0.32801200  0.88815000  1
  O  O70  1  0.94789250  0.40543750  0.64604200  1
  O  O71  1  0.94789250  0.59456250  0.14604200  1
  O  O72  1  0.94618700  0.72427800  0.07317000  1
  O  O73  1  0.94618700  0.27572200  0.57317000  1
  O  O74  1  0.98816700  0.84339200  0.39392300  1
  O  O75  1  0.98816700  0.15660800  0.89392300  1
  O  O76  1  0.50000000  0.50000000  0.95772100  1
  O  O77  1  0.50000000  0.50000000  0.45772100  1
  O  O78  1  0.01183300  0.84339200  0.89392300  1
  O  O79  1  0.01183300  0.15660800  0.39392300  1
  O  O80  1  0.05381300  0.72427800  0.57317000  1
  O  O81  1  0.05381300  0.27572200  0.07317000  1
  O  O82  1  0.05210750  0.59456250  0.64604200  1
  O  O83  1  0.05210750  0.40543750  0.14604200  1
  O  O84  1  0.17342900  0.32801200  0.38815000  1
  O  O85  1  0.17342900  0.67198800  0.88815000  1
  O  O86  1  0.21492400  0.65255200  0.46761300  1
  O  O87  1  0.21492400  0.34744800  0.96761300  1
  O  O88  1  0.23196250  0.50419350  0.90011400  1
  O  O89  1  0.23196250  0.49580650  0.40011400  1
  O  O90  1  0.33942300  0.59784300  0.12368000  1
  O  O91  1  0.33942300  0.40215700  0.62368000  1
