# generated using pymatgen
data_Li2MnCo3O8
_symmetry_space_group_name_H-M   'P 1'
_cell_length_a   5.81811979
_cell_length_b   5.81811979
_cell_length_c   14.20811800
_cell_angle_alpha   90.00000000
_cell_angle_beta   90.00000000
_cell_angle_gamma   120.00000000
_symmetry_Int_Tables_number   1
_chemical_formula_structural   Li2MnCo3O8
_chemical_formula_sum   'Li6 Mn3 Co9 O24'
_cell_volume   416.51678145
_cell_formula_units_Z   3
loop_
 _symmetry_equiv_pos_site_id
 _symmetry_equiv_pos_as_xyz
  1  'x, y, z'
loop_
 _atom_site_type_symbol
 _atom_site_label
 _atom_site_symmetry_multiplicity
 _atom_site_fract_x
 _atom_site_fract_y
 _atom_site_fract_z
 _atom_site_occupancy
  Li  Li0  1  0.33333333  0.66666667  0.54134167  1
  Li  Li1  1  0.33333333  0.66666667  0.79199167  1
  Li  Li2  1  0.00000000  0.00000000  0.87467500  1
  Li  Li3  1  0.00000000  0.00000000  0.12532500  1
  Li  Li4  1  0.66666667  0.33333333  0.20800833  1
  Li  Li5  1  0.66666667  0.33333333  0.45865833  1
  Mn  Mn6  1  0.33333333  0.66666667  0.16666667  1
  Mn  Mn7  1  1.00000000  1.00000000  0.50000000  1
  Mn  Mn8  1  0.66666667  0.33333333  0.83333333  1
  Co  Co9  1  0.50000000  0.50000000  0.00000000  1
  Co  Co10  1  0.00000000  0.50000000  0.00000000  1
  Co  Co11  1  0.16666667  0.33333333  0.33333333  1
  Co  Co12  1  0.16666667  0.83333333  0.33333333  1
  Co  Co13  1  0.66666667  0.83333333  0.33333333  1
  Co  Co14  1  0.83333333  0.66666667  0.66666667  1
  Co  Co15  1  0.83333333  0.16666667  0.66666667  1
  Co  Co16  1  0.33333333  0.16666667  0.66666667  1
  Co  Co17  1  0.50000000  0.00000000  0.00000000  1
  O  O18  1  0.03730667  0.51865333  0.25295833  1
  O  O19  1  0.48134667  0.51865333  0.25295833  1
  O  O20  1  0.33333333  0.66666667  0.92856167  1
  O  O21  1  0.48134667  0.96269333  0.25295833  1
  O  O22  1  0.18532000  0.37064000  0.08037500  1
  O  O23  1  0.33333333  0.66666667  0.40477167  1
  O  O24  1  0.18532000  0.81468000  0.08037500  1
  O  O25  1  0.62936000  0.81468000  0.08037500  1
  O  O26  1  0.70397333  0.85198667  0.58629167  1
  O  O27  1  0.14801333  0.85198667  0.58629167  1
  O  O28  1  0.00000000  0.00000000  0.26189500  1
  O  O29  1  0.14801333  0.29602667  0.58629167  1
  O  O30  1  0.85198667  0.70397333  0.41370833  1
  O  O31  1  0.00000000  0.00000000  0.73810500  1
  O  O32  1  0.85198667  0.14801333  0.41370833  1
  O  O33  1  0.29602667  0.14801333  0.41370833  1
  O  O34  1  0.37064000  0.18532000  0.91962500  1
  O  O35  1  0.81468000  0.18532000  0.91962500  1
  O  O36  1  0.66666667  0.33333333  0.59522833  1
  O  O37  1  0.81468000  0.62936000  0.91962500  1
  O  O38  1  0.51865333  0.03730667  0.74704167  1
  O  O39  1  0.66666667  0.33333333  0.07143833  1
  O  O40  1  0.51865333  0.48134667  0.74704167  1
  O  O41  1  0.96269333  0.48134667  0.74704167  1
