# generated using pymatgen
data_WOF4
_symmetry_space_group_name_H-M   'P 1'
_cell_length_a   7.17332800
_cell_length_b   7.17332800
_cell_length_c   3.93039600
_cell_angle_alpha   90.00000000
_cell_angle_beta   90.00000000
_cell_angle_gamma   90.00000000
_symmetry_Int_Tables_number   1
_chemical_formula_structural   WOF4
_chemical_formula_sum   'W2 O2 F8'
_cell_volume   202.24495079
_cell_formula_units_Z   2
loop_
 _symmetry_equiv_pos_site_id
 _symmetry_equiv_pos_as_xyz
  1  'x, y, z'
loop_
 _atom_site_type_symbol
 _atom_site_label
 _atom_site_symmetry_multiplicity
 _atom_site_fract_x
 _atom_site_fract_y
 _atom_site_fract_z
 _atom_site_occupancy
  W  W0  1  0.00000000  0.00000000  0.98842400  1
  W  W1  1  0.50000000  0.50000000  0.48842400  1
  O  O2  1  0.00000000  0.00000000  0.44261000  1
  O  O3  1  0.50000000  0.50000000  0.94261000  1
  F  F4  1  0.74819000  0.93180600  0.92701500  1
  F  F5  1  0.56819400  0.24819000  0.42701500  1
  F  F6  1  0.43180600  0.75181000  0.42701500  1
  F  F7  1  0.25181000  0.06819400  0.92701500  1
  F  F8  1  0.24819000  0.43180600  0.42701500  1
  F  F9  1  0.06819400  0.74819000  0.92701500  1
  F  F10  1  0.93180600  0.25181000  0.92701500  1
  F  F11  1  0.75181000  0.56819400  0.42701500  1
