# generated using pymatgen
data_Li6MnV3(PO4)6
_symmetry_space_group_name_H-M   'P 1'
_cell_length_a   8.50118061
_cell_length_b   8.50118061
_cell_length_c   22.75114554
_cell_angle_alpha   90.00000000
_cell_angle_beta   90.00000000
_cell_angle_gamma   120.00000000
_symmetry_Int_Tables_number   1
_chemical_formula_structural   Li6MnV3(PO4)6
_chemical_formula_sum   'Li18 Mn3 V9 P18 O72'
_cell_volume   1423.94228294
_cell_formula_units_Z   3
loop_
 _symmetry_equiv_pos_site_id
 _symmetry_equiv_pos_as_xyz
  1  'x, y, z'
loop_
 _atom_site_type_symbol
 _atom_site_label
 _atom_site_symmetry_multiplicity
 _atom_site_fract_x
 _atom_site_fract_y
 _atom_site_fract_z
 _atom_site_occupancy
  Li  Li0  1  0.37816033  0.36306567  0.28347067  1
  Li  Li1  1  0.98490533  0.62183967  0.28347067  1
  Li  Li2  1  0.63693433  0.01509467  0.28347067  1
  Li  Li3  1  0.03343833  0.31519267  0.04883867  1
  Li  Li4  1  0.68480733  0.71824567  0.04883867  1
  Li  Li5  1  0.28175433  0.96656167  0.04883867  1
  Li  Li6  1  0.04482700  0.69639900  0.61680400  1
  Li  Li7  1  0.65157200  0.95517300  0.61680400  1
  Li  Li8  1  0.30360100  0.34842800  0.61680400  1
  Li  Li9  1  0.70010500  0.64852600  0.38217200  1
  Li  Li10  1  0.35147400  0.05157900  0.38217200  1
  Li  Li11  1  0.94842100  0.29989500  0.38217200  1
  Li  Li12  1  0.71149367  0.02973233  0.95013733  1
  Li  Li13  1  0.31823867  0.28850633  0.95013733  1
  Li  Li14  1  0.97026767  0.68176133  0.95013733  1
  Li  Li15  1  0.36677167  0.98185933  0.71550533  1
  Li  Li16  1  0.01814067  0.38491233  0.71550533  1
  Li  Li17  1  0.61508767  0.63322833  0.71550533  1
  Mn  Mn18  1  0.33333333  0.66666667  0.01586667  1
  Mn  Mn19  1  0.00000000  0.00000000  0.34920000  1
  Mn  Mn20  1  0.66666667  0.33333333  0.68253333  1
  V  V21  1  0.33333333  0.66666667  0.31702067  1
  V  V22  1  0.00000000  0.00000000  0.14666700  1
  V  V23  1  0.66666667  0.33333333  0.18591333  1
  V  V24  1  0.00000000  0.00000000  0.65035400  1
  V  V25  1  0.66666667  0.33333333  0.48000033  1
  V  V26  1  0.33333333  0.66666667  0.51924667  1
  V  V27  1  0.66666667  0.33333333  0.98368733  1
  V  V28  1  0.33333333  0.66666667  0.81333367  1
  V  V29  1  0.00000000  0.00000000  0.85258000  1
  P  P30  1  0.29569467  0.00376133  0.24964633  1
  P  P31  1  0.99623867  0.29193333  0.24964633  1
  P  P32  1  0.70806667  0.70430533  0.24964633  1
  P  P33  1  0.95189267  0.62083133  0.08368733  1
  P  P34  1  0.66893867  0.04810733  0.08368733  1
  P  P35  1  0.37916867  0.33106133  0.08368733  1
  P  P36  1  0.96236133  0.33709467  0.58297967  1
  P  P37  1  0.66290533  0.62526667  0.58297967  1
  P  P38  1  0.37473333  0.03763867  0.58297967  1
  P  P39  1  0.61855933  0.95416467  0.41702067  1
  P  P40  1  0.33560533  0.38144067  0.41702067  1
  P  P41  1  0.04583533  0.66439467  0.41702067  1
  P  P42  1  0.62902800  0.67042800  0.91631300  1
  P  P43  1  0.32957200  0.95860000  0.91631300  1
  P  P44  1  0.04140000  0.37097200  0.91631300  1
  P  P45  1  0.28522600  0.28749800  0.75035400  1
  P  P46  1  0.00227200  0.71477400  0.75035400  1
  P  P47  1  0.71250200  0.99772800  0.75035400  1
  O  O48  1  0.25538200  0.09953400  0.30129400  1
  O  O49  1  0.24266600  0.80671500  0.26771800  1
  O  O50  1  0.19328500  0.43595100  0.26771800  1
  O  O51  1  0.90046600  0.15584800  0.30129400  1
  O  O52  1  0.84415200  0.74461800  0.30129400  1
  O  O53  1  0.19333000  0.99822900  0.19399100  1
  O  O54  1  0.88146233  0.38727767  0.24029667  1
  O  O55  1  0.00177100  0.19510100  0.19399100  1
  O  O56  1  0.56404900  0.75733400  0.26771800  1
  O  O57  1  0.61272233  0.49418467  0.24029667  1
  O  O58  1  0.80489900  0.80667000  0.19399100  1
  O  O59  1  0.50581533  0.11853767  0.24029667  1
  O  O60  1  0.16983900  0.21027200  0.09020700  1
  O  O61  1  0.84985933  0.52918267  0.14093167  1
  O  O62  1  0.04043300  0.83016100  0.09020700  1
  O  O63  1  0.09059900  0.56381400  0.06841000  1
  O  O64  1  0.67932333  0.15014067  0.14093167  1
  O  O65  1  0.78972800  0.95956700  0.09020700  1
  O  O66  1  0.47081733  0.32067667  0.14093167  1
  O  O67  1  0.80974633  0.56996267  0.03190867  1
  O  O68  1  0.76021633  0.19025367  0.03190867  1
  O  O69  1  0.47321500  0.90940100  0.06841000  1
  O  O70  1  0.43618600  0.52678500  0.06841000  1
  O  O71  1  0.43003733  0.23978367  0.03190867  1
  O  O72  1  0.92204867  0.43286733  0.63462733  1
  O  O73  1  0.90933267  0.14004833  0.60105133  1
  O  O74  1  0.85995167  0.76928433  0.60105133  1
  O  O75  1  0.56713267  0.48918133  0.63462733  1
  O  O76  1  0.51081867  0.07795133  0.63462733  1
  O  O77  1  0.85999667  0.33156233  0.52732433  1
  O  O78  1  0.54812900  0.72061100  0.57363000  1
  O  O79  1  0.66843767  0.52843433  0.52732433  1
  O  O80  1  0.23071567  0.09066733  0.60105133  1
  O  O81  1  0.27938900  0.82751800  0.57363000  1
  O  O82  1  0.47156567  0.14000333  0.52732433  1
  O  O83  1  0.17248200  0.45187100  0.57363000  1
  O  O84  1  0.83650567  0.54360533  0.42354033  1
  O  O85  1  0.51652600  0.86251600  0.47426500  1
  O  O86  1  0.70709967  0.16349433  0.42354033  1
  O  O87  1  0.75726567  0.89714733  0.40174333  1
  O  O88  1  0.34599000  0.48347400  0.47426500  1
  O  O89  1  0.45639467  0.29290033  0.42354033  1
  O  O90  1  0.13748400  0.65401000  0.47426500  1
  O  O91  1  0.47641300  0.90329600  0.36524200  1
  O  O92  1  0.42688300  0.52358700  0.36524200  1
  O  O93  1  0.13988167  0.24273433  0.40174333  1
  O  O94  1  0.10285267  0.86011833  0.40174333  1
  O  O95  1  0.09670400  0.57311700  0.36524200  1
  O  O96  1  0.58871533  0.76620067  0.96796067  1
  O  O97  1  0.57599933  0.47338167  0.93438467  1
  O  O98  1  0.52661833  0.10261767  0.93438467  1
  O  O99  1  0.23379933  0.82251467  0.96796067  1
  O  O100  1  0.17748533  0.41128467  0.96796067  1
  O  O101  1  0.52666333  0.66489567  0.86065767  1
  O  O102  1  0.21479567  0.05394433  0.90696333  1
  O  O103  1  0.33510433  0.86176767  0.86065767  1
  O  O104  1  0.89738233  0.42400067  0.93438467  1
  O  O105  1  0.94605567  0.16085133  0.90696333  1
  O  O106  1  0.13823233  0.47333667  0.86065767  1
  O  O107  1  0.83914867  0.78520433  0.90696333  1
  O  O108  1  0.50317233  0.87693867  0.75687367  1
  O  O109  1  0.18319267  0.19584933  0.80759833  1
  O  O110  1  0.37376633  0.49682767  0.75687367  1
  O  O111  1  0.42393233  0.23048067  0.73507667  1
  O  O112  1  0.01265667  0.81680733  0.80759833  1
  O  O113  1  0.12306133  0.62623367  0.75687367  1
  O  O114  1  0.80415067  0.98734333  0.80759833  1
  O  O115  1  0.14307967  0.23662933  0.69857533  1
  O  O116  1  0.09354967  0.85692033  0.69857533  1
  O  O117  1  0.80654833  0.57606767  0.73507667  1
  O  O118  1  0.76951933  0.19345167  0.73507667  1
  O  O119  1  0.76337067  0.90645033  0.69857533  1
