# generated using pymatgen
data_LiMn2F5
_symmetry_space_group_name_H-M   'P 1'
_cell_length_a   5.22379300
_cell_length_b   7.49363000
_cell_length_c   9.93141400
_cell_angle_alpha   90.00000000
_cell_angle_beta   90.00000000
_cell_angle_gamma   90.00000000
_symmetry_Int_Tables_number   1
_chemical_formula_structural   LiMn2F5
_chemical_formula_sum   'Li4 Mn8 F20'
_cell_volume   388.76690862
_cell_formula_units_Z   4
loop_
 _symmetry_equiv_pos_site_id
 _symmetry_equiv_pos_as_xyz
  1  'x, y, z'
loop_
 _atom_site_type_symbol
 _atom_site_label
 _atom_site_symmetry_multiplicity
 _atom_site_fract_x
 _atom_site_fract_y
 _atom_site_fract_z
 _atom_site_occupancy
  Li  Li0  1  0.75443100  0.12008600  0.49810700  1
  Li  Li1  1  0.25443100  0.37991400  0.99810700  1
  Li  Li2  1  0.74556900  0.62008600  0.49810700  1
  Li  Li3  1  0.24556900  0.87991400  0.99810700  1
  Mn  Mn4  1  0.26104200  0.97660200  0.63715900  1
  Mn  Mn5  1  0.23413900  0.28167200  0.35657700  1
  Mn  Mn6  1  0.73413900  0.21832800  0.85657700  1
  Mn  Mn7  1  0.76104200  0.52339800  0.13715900  1
  Mn  Mn8  1  0.23895800  0.47660200  0.63715900  1
  Mn  Mn9  1  0.26586100  0.78167200  0.35657700  1
  Mn  Mn10  1  0.76586100  0.71832800  0.85657700  1
  Mn  Mn11  1  0.73895800  0.02339800  0.13715900  1
  F  F12  1  0.42013400  0.03643300  0.43055800  1
  F  F13  1  0.64144000  0.06589200  0.68351300  1
  F  F14  1  0.02583500  0.12471900  0.99029900  1
  F  F15  1  0.88565200  0.15264600  0.30818500  1
  F  F16  1  0.07404100  0.22140400  0.58408200  1
  F  F17  1  0.57404100  0.27859600  0.08408200  1
  F  F18  1  0.38565200  0.34735400  0.80818500  1
  F  F19  1  0.52583500  0.37528100  0.49029900  1
  F  F20  1  0.14144000  0.43410800  0.18351300  1
  F  F21  1  0.92013400  0.46356700  0.93055800  1
  F  F22  1  0.07986600  0.53643300  0.43055800  1
  F  F23  1  0.85856000  0.56589200  0.68351300  1
  F  F24  1  0.47416500  0.62471900  0.99029900  1
  F  F25  1  0.61434800  0.65264600  0.30818500  1
  F  F26  1  0.42595900  0.72140400  0.58408200  1
  F  F27  1  0.92595900  0.77859600  0.08408200  1
  F  F28  1  0.11434800  0.84735400  0.80818500  1
  F  F29  1  0.97416500  0.87528100  0.49029900  1
  F  F30  1  0.35856000  0.93410800  0.18351300  1
  F  F31  1  0.57986600  0.96356700  0.93055800  1
