# generated using pymatgen
data_Na5LiFe2P2(CO7)2
_symmetry_space_group_name_H-M   'P 1'
_cell_length_a   8.98314500
_cell_length_b   6.61630800
_cell_length_c   10.38656772
_cell_angle_alpha   90.00000000
_cell_angle_beta   91.01810410
_cell_angle_gamma   90.00000000
_symmetry_Int_Tables_number   1
_chemical_formula_structural   Na5LiFe2P2(CO7)2
_chemical_formula_sum   'Na10 Li2 Fe4 P4 C4 O28'
_cell_volume   617.23083479
_cell_formula_units_Z   2
loop_
 _symmetry_equiv_pos_site_id
 _symmetry_equiv_pos_as_xyz
  1  'x, y, z'
loop_
 _atom_site_type_symbol
 _atom_site_label
 _atom_site_symmetry_multiplicity
 _atom_site_fract_x
 _atom_site_fract_y
 _atom_site_fract_z
 _atom_site_occupancy
  Na  Na0  1  0.91698600  0.75031200  0.88092100  1
  Na  Na1  1  0.91728800  0.74774800  0.37955600  1
  Na  Na2  1  0.73919500  0.99922100  0.62417800  1
  Na  Na3  1  0.73948900  0.50102700  0.62443100  1
  Na  Na4  1  0.73985900  0.99830100  0.12462200  1
  Na  Na5  1  0.26014100  0.49830100  0.87537800  1
  Na  Na6  1  0.26080500  0.49922100  0.37582200  1
  Na  Na7  1  0.26051100  0.00102700  0.37556900  1
  Na  Na8  1  0.08271200  0.24774800  0.62044400  1
  Na  Na9  1  0.08301400  0.25031200  0.11907900  1
  Li  Li10  1  0.73111400  0.50378800  0.12311100  1
  Li  Li11  1  0.26888600  0.00378800  0.87688900  1
  Fe  Fe12  1  0.64462000  0.25208300  0.89353000  1
  Fe  Fe13  1  0.64456800  0.25024800  0.39141700  1
  Fe  Fe14  1  0.35543200  0.75024800  0.60858300  1
  Fe  Fe15  1  0.35538000  0.75208300  0.10647000  1
  P  P16  1  0.58423200  0.75389800  0.85105500  1
  P  P17  1  0.58797800  0.74734100  0.34895200  1
  P  P18  1  0.41202200  0.24734100  0.65104800  1
  P  P19  1  0.41576800  0.25389800  0.14894500  1
  C  C20  1  0.94347600  0.24541500  0.86679500  1
  C  C21  1  0.93944100  0.25214000  0.36468700  1
  C  C22  1  0.06055900  0.75214000  0.63531300  1
  C  C23  1  0.05652400  0.74541500  0.13320500  1
  O  O24  1  0.91737400  0.75025300  0.64308900  1
  O  O25  1  0.91260300  0.73366200  0.13979600  1
  O  O26  1  0.87868300  0.25126200  0.97852300  1
  O  O27  1  0.87668300  0.24987500  0.47742600  1
  O  O28  1  0.86055600  0.25205700  0.76253500  1
  O  O29  1  0.85515500  0.25583800  0.26097200  1
  O  O30  1  0.68095100  0.94013700  0.89128200  1
  O  O31  1  0.67555500  0.56544500  0.89727000  1
  O  O32  1  0.68160900  0.93727500  0.38821100  1
  O  O33  1  0.68201500  0.56184300  0.39428000  1
  O  O34  1  0.56735000  0.74817900  0.70138100  1
  O  O35  1  0.56637100  0.25010600  0.58815500  1
  O  O36  1  0.57083600  0.73917800  0.19865200  1
  O  O37  1  0.57258700  0.26336800  0.08917600  1
  O  O38  1  0.42741300  0.76336800  0.91082400  1
  O  O39  1  0.42916400  0.23917800  0.80134800  1
  O  O40  1  0.43362900  0.75010600  0.41184500  1
  O  O41  1  0.43265000  0.24817900  0.29861900  1
  O  O42  1  0.31839100  0.43727500  0.61178900  1
  O  O43  1  0.31798500  0.06184300  0.60572000  1
  O  O44  1  0.31904900  0.44013700  0.10871800  1
  O  O45  1  0.32444500  0.06544500  0.10273000  1
  O  O46  1  0.14484500  0.75583800  0.73902800  1
  O  O47  1  0.13944400  0.75205700  0.23746500  1
  O  O48  1  0.12331700  0.74987500  0.52257400  1
  O  O49  1  0.12131700  0.75126200  0.02147700  1
  O  O50  1  0.08739700  0.23366200  0.86020400  1
  O  O51  1  0.08262600  0.25025300  0.35691100  1
