# generated using pymatgen
data_Li10Cr2Fe3Co3O16
_symmetry_space_group_name_H-M   'P 1'
_cell_length_a   10.32419200
_cell_length_b   5.96686800
_cell_length_c   9.83417506
_cell_angle_alpha   90.00000000
_cell_angle_beta   90.17725631
_cell_angle_gamma   90.00000000
_symmetry_Int_Tables_number   1
_chemical_formula_structural   Li10Cr2Fe3Co3O16
_chemical_formula_sum   'Li20 Cr4 Fe6 Co6 O32'
_cell_volume   605.81268082
_cell_formula_units_Z   2
loop_
 _symmetry_equiv_pos_site_id
 _symmetry_equiv_pos_as_xyz
  1  'x, y, z'
loop_
 _atom_site_type_symbol
 _atom_site_label
 _atom_site_symmetry_multiplicity
 _atom_site_fract_x
 _atom_site_fract_y
 _atom_site_fract_z
 _atom_site_occupancy
  Li  Li0  1  0.40995650  0.20775750  0.04906600  1
  Li  Li1  1  0.40995650  0.79224250  0.04906600  1
  Li  Li2  1  0.34526500  0.00000000  0.26802300  1
  Li  Li3  1  0.00775000  0.00000000  0.97506300  1
  Li  Li4  1  0.01171800  0.00000000  0.47993000  1
  Li  Li5  1  0.20114000  0.00000000  0.04993000  1
  Li  Li6  1  0.81717700  0.00000000  0.55205000  1
  Li  Li7  1  0.60748550  0.79897350  0.54695100  1
  Li  Li8  1  0.60748550  0.20102650  0.54695100  1
  Li  Li9  1  0.67898300  0.00000000  0.76823200  1
  Li  Li10  1  0.90995650  0.70775750  0.04906600  1
  Li  Li11  1  0.90995650  0.29224250  0.04906600  1
  Li  Li12  1  0.84526500  0.50000000  0.26802300  1
  Li  Li13  1  0.50775000  0.50000000  0.97506300  1
  Li  Li14  1  0.51171800  0.50000000  0.47993000  1
  Li  Li15  1  0.70114000  0.50000000  0.04993000  1
  Li  Li16  1  0.31717700  0.50000000  0.55205000  1
  Li  Li17  1  0.10748550  0.29897350  0.54695100  1
  Li  Li18  1  0.10748550  0.70102650  0.54695100  1
  Li  Li19  1  0.17898300  0.50000000  0.76823200  1
  Cr  Cr20  1  0.67831000  0.00000000  0.02193100  1
  Cr  Cr21  1  0.34638200  0.00000000  0.52523500  1
  Cr  Cr22  1  0.17831000  0.50000000  0.02193100  1
  Cr  Cr23  1  0.84638200  0.50000000  0.52523500  1
  Fe  Fe24  1  0.17762500  0.00000000  0.77786800  1
  Fe  Fe25  1  0.59662100  0.24616700  0.27984200  1
  Fe  Fe26  1  0.59662100  0.75383300  0.27984200  1
  Fe  Fe27  1  0.67762500  0.50000000  0.77786800  1
  Fe  Fe28  1  0.09662100  0.74616700  0.27984200  1
  Fe  Fe29  1  0.09662100  0.25383300  0.27984200  1
  Co  Co30  1  0.42616200  0.24130300  0.78171000  1
  Co  Co31  1  0.84373400  0.00000000  0.28116100  1
  Co  Co32  1  0.42616200  0.75869700  0.78171000  1
  Co  Co33  1  0.92616200  0.74130300  0.78171000  1
  Co  Co34  1  0.34373400  0.50000000  0.28116100  1
  Co  Co35  1  0.92616200  0.25869700  0.78171000  1
  O  O36  1  0.43343750  0.24562850  0.40625100  1
  O  O37  1  0.49930500  0.00000000  0.65362400  1
  O  O38  1  0.33995900  0.00000000  0.89791100  1
  O  O39  1  0.26242900  0.22846700  0.65280000  1
  O  O40  1  0.00854000  0.00000000  0.67176300  1
  O  O41  1  0.01652500  0.00000000  0.16819600  1
  O  O42  1  0.43343750  0.75437150  0.40625100  1
  O  O43  1  0.26242900  0.77153300  0.65280000  1
  O  O44  1  0.84053400  0.00000000  0.90519600  1
  O  O45  1  0.17852000  0.00000000  0.39900800  1
  O  O46  1  0.75219650  0.23558950  0.15348300  1
  O  O47  1  0.75219650  0.76441050  0.15348300  1
  O  O48  1  0.67473500  0.00000000  0.39821100  1
  O  O49  1  0.59625850  0.25156250  0.90279400  1
  O  O50  1  0.52128200  0.00000000  0.15487600  1
  O  O51  1  0.59625850  0.74843750  0.90279400  1
  O  O52  1  0.93343750  0.74562850  0.40625100  1
  O  O53  1  0.99930500  0.50000000  0.65362400  1
  O  O54  1  0.83995900  0.50000000  0.89791100  1
  O  O55  1  0.76242900  0.72846700  0.65280000  1
  O  O56  1  0.50854000  0.50000000  0.67176300  1
  O  O57  1  0.51652500  0.50000000  0.16819600  1
  O  O58  1  0.93343750  0.25437150  0.40625100  1
  O  O59  1  0.76242900  0.27153300  0.65280000  1
  O  O60  1  0.34053400  0.50000000  0.90519600  1
  O  O61  1  0.67852000  0.50000000  0.39900800  1
  O  O62  1  0.25219650  0.73558950  0.15348300  1
  O  O63  1  0.25219650  0.26441050  0.15348300  1
  O  O64  1  0.17473500  0.50000000  0.39821100  1
  O  O65  1  0.09625850  0.75156250  0.90279400  1
  O  O66  1  0.02128200  0.50000000  0.15487600  1
  O  O67  1  0.09625850  0.24843750  0.90279400  1
