# generated using pymatgen
data_Li3Cr2(NiO4)2
_symmetry_space_group_name_H-M   'P 1'
_cell_length_a   10.03751400
_cell_length_b   5.90733600
_cell_length_c   5.83980502
_cell_angle_alpha   90.00000000
_cell_angle_beta   124.65669880
_cell_angle_gamma   90.00000000
_symmetry_Int_Tables_number   1
_chemical_formula_structural   Li3Cr2(NiO4)2
_chemical_formula_sum   'Li6 Cr4 Ni4 O16'
_cell_volume   284.83357657
_cell_formula_units_Z   2
loop_
 _symmetry_equiv_pos_site_id
 _symmetry_equiv_pos_as_xyz
  1  'x, y, z'
loop_
 _atom_site_type_symbol
 _atom_site_label
 _atom_site_symmetry_multiplicity
 _atom_site_fract_x
 _atom_site_fract_y
 _atom_site_fract_z
 _atom_site_occupancy
  Li  Li0  1  0.75000000  0.75000000  0.50000000  1
  Li  Li1  1  0.00000000  0.50000000  0.00000000  1
  Li  Li2  1  0.25000000  0.75000000  0.50000000  1
  Li  Li3  1  0.25000000  0.25000000  0.50000000  1
  Li  Li4  1  0.50000000  0.00000000  0.00000000  1
  Li  Li5  1  0.75000000  0.25000000  0.50000000  1
  Cr  Cr6  1  0.25000000  0.75000000  0.00000000  1
  Cr  Cr7  1  0.75000000  0.75000000  0.00000000  1
  Cr  Cr8  1  0.75000000  0.25000000  0.00000000  1
  Cr  Cr9  1  0.25000000  0.25000000  0.00000000  1
  Ni  Ni10  1  0.00000000  0.00000000  0.50000000  1
  Ni  Ni11  1  0.00000000  0.00000000  0.00000000  1
  Ni  Ni12  1  0.50000000  0.50000000  0.50000000  1
  Ni  Ni13  1  0.50000000  0.50000000  0.00000000  1
  O  O14  1  0.99095000  0.22117300  0.22657600  1
  O  O15  1  0.73022700  0.50000000  0.21670200  1
  O  O16  1  0.99095000  0.77882700  0.22657600  1
  O  O17  1  0.75137300  0.50000000  0.77036200  1
  O  O18  1  0.24862700  0.50000000  0.22963800  1
  O  O19  1  0.00905000  0.22117300  0.77342400  1
  O  O20  1  0.26977300  0.50000000  0.78329800  1
  O  O21  1  0.00905000  0.77882700  0.77342400  1
  O  O22  1  0.49095000  0.72117300  0.22657600  1
  O  O23  1  0.23022700  0.00000000  0.21670200  1
  O  O24  1  0.49095000  0.27882700  0.22657600  1
  O  O25  1  0.25137300  0.00000000  0.77036200  1
  O  O26  1  0.74862700  0.00000000  0.22963800  1
  O  O27  1  0.50905000  0.72117300  0.77342400  1
  O  O28  1  0.76977300  0.00000000  0.78329800  1
  O  O29  1  0.50905000  0.27882700  0.77342400  1
