# generated using pymatgen
data_Li4Co5NiO12
_symmetry_space_group_name_H-M   'P 1'
_cell_length_a   20.56874058
_cell_length_b   8.45925728
_cell_length_c   4.93469724
_cell_angle_alpha   90.00000000
_cell_angle_beta   103.83545832
_cell_angle_gamma   90.00000000
_symmetry_Int_Tables_number   1
_chemical_formula_structural   Li4Co5NiO12
_chemical_formula_sum   'Li16 Co20 Ni4 O48'
_cell_volume   833.70734314
_cell_formula_units_Z   4
loop_
 _symmetry_equiv_pos_site_id
 _symmetry_equiv_pos_as_xyz
  1  'x, y, z'
loop_
 _atom_site_type_symbol
 _atom_site_label
 _atom_site_symmetry_multiplicity
 _atom_site_fract_x
 _atom_site_fract_y
 _atom_site_fract_z
 _atom_site_occupancy
  Li  Li0  1  0.37412350  0.74814500  0.46426400  1
  Li  Li1  1  0.37434850  0.24840300  0.96057800  1
  Li  Li2  1  0.62587650  0.74814500  0.53573600  1
  Li  Li3  1  0.62565150  0.24840300  0.03942200  1
  Li  Li4  1  0.37434850  0.75159700  0.96057800  1
  Li  Li5  1  0.37412350  0.25185500  0.46426400  1
  Li  Li6  1  0.62565150  0.75159700  0.03942200  1
  Li  Li7  1  0.62587650  0.25185500  0.53573600  1
  Li  Li8  1  0.87412350  0.24814500  0.46426400  1
  Li  Li9  1  0.87434850  0.74840300  0.96057800  1
  Li  Li10  1  0.12587650  0.24814500  0.53573600  1
  Li  Li11  1  0.12565150  0.74840300  0.03942200  1
  Li  Li12  1  0.87434850  0.25159700  0.96057800  1
  Li  Li13  1  0.87412350  0.75185500  0.46426400  1
  Li  Li14  1  0.12565150  0.25159700  0.03942200  1
  Li  Li15  1  0.12587650  0.75185500  0.53573600  1
  Co  Co16  1  0.50000000  0.00000000  0.00000000  1
  Co  Co17  1  0.74992950  0.33578400  0.75009400  1
  Co  Co18  1  0.25007050  0.33578400  0.24990600  1
  Co  Co19  1  0.74992950  0.66421600  0.75009400  1
  Co  Co20  1  0.25007050  0.66421600  0.24990600  1
  Co  Co21  1  0.50000000  0.50000000  0.50000000  1
  Co  Co22  1  0.50000000  0.83636500  0.50000000  1
  Co  Co23  1  0.50000000  0.33294850  0.00000000  1
  Co  Co24  1  0.50000000  0.66705150  0.00000000  1
  Co  Co25  1  0.50000000  0.16363500  0.50000000  1
  Co  Co26  1  0.00000000  0.50000000  0.00000000  1
  Co  Co27  1  0.24992950  0.83578400  0.75009400  1
  Co  Co28  1  0.75007050  0.83578400  0.24990600  1
  Co  Co29  1  0.24992950  0.16421600  0.75009400  1
  Co  Co30  1  0.75007050  0.16421600  0.24990600  1
  Co  Co31  1  0.00000000  0.00000000  0.50000000  1
  Co  Co32  1  0.00000000  0.33636500  0.50000000  1
  Co  Co33  1  0.00000000  0.83294850  0.00000000  1
  Co  Co34  1  0.00000000  0.16705150  0.00000000  1
  Co  Co35  1  0.00000000  0.66363500  0.50000000  1
  Ni  Ni36  1  0.74987850  0.50000000  0.24988400  1
  Ni  Ni37  1  0.25012150  0.50000000  0.75011600  1
  Ni  Ni38  1  0.24987850  0.00000000  0.24988400  1
  Ni  Ni39  1  0.75012150  0.00000000  0.75011600  1
  O  O40  1  0.45230850  0.50000000  0.77966500  1
  O  O41  1  0.45168050  0.00000000  0.28289800  1
  O  O42  1  0.54831950  0.00000000  0.71710200  1
  O  O43  1  0.54769150  0.50000000  0.22033500  1
  O  O44  1  0.70062650  0.50000000  0.87109300  1
  O  O45  1  0.70091250  0.00000000  0.37120400  1
  O  O46  1  0.29908750  0.00000000  0.62879600  1
  O  O47  1  0.29937350  0.50000000  0.12890700  1
  O  O48  1  0.69946650  0.83274200  0.86426300  1
  O  O49  1  0.69932250  0.33230000  0.36399700  1
  O  O50  1  0.30053350  0.83274200  0.13573700  1
  O  O51  1  0.30067750  0.33230000  0.63600300  1
  O  O52  1  0.69932250  0.66770000  0.36399700  1
  O  O53  1  0.69946650  0.16725800  0.86426300  1
  O  O54  1  0.30067750  0.66770000  0.63600300  1
  O  O55  1  0.30053350  0.16725800  0.13573700  1
  O  O56  1  0.55287950  0.68117100  0.72115100  1
  O  O57  1  0.55116400  0.16751650  0.22059300  1
  O  O58  1  0.55116400  0.83248350  0.22059300  1
  O  O59  1  0.55287950  0.31882900  0.72115100  1
  O  O60  1  0.44712050  0.68117100  0.27884900  1
  O  O61  1  0.44883600  0.16751650  0.77940700  1
  O  O62  1  0.44883600  0.83248350  0.77940700  1
  O  O63  1  0.44712050  0.31882900  0.27884900  1
  O  O64  1  0.95230850  0.00000000  0.77966500  1
  O  O65  1  0.95168050  0.50000000  0.28289800  1
  O  O66  1  0.04831950  0.50000000  0.71710200  1
  O  O67  1  0.04769150  0.00000000  0.22033500  1
  O  O68  1  0.20062650  0.00000000  0.87109300  1
  O  O69  1  0.20091250  0.50000000  0.37120400  1
  O  O70  1  0.79908750  0.50000000  0.62879600  1
  O  O71  1  0.79937350  0.00000000  0.12890700  1
  O  O72  1  0.19946650  0.33274200  0.86426300  1
  O  O73  1  0.19932250  0.83230000  0.36399700  1
  O  O74  1  0.80053350  0.33274200  0.13573700  1
  O  O75  1  0.80067750  0.83230000  0.63600300  1
  O  O76  1  0.19932250  0.16770000  0.36399700  1
  O  O77  1  0.19946650  0.66725800  0.86426300  1
  O  O78  1  0.80067750  0.16770000  0.63600300  1
  O  O79  1  0.80053350  0.66725800  0.13573700  1
  O  O80  1  0.05287950  0.18117100  0.72115100  1
  O  O81  1  0.05116400  0.66751650  0.22059300  1
  O  O82  1  0.05116400  0.33248350  0.22059300  1
  O  O83  1  0.05287950  0.81882900  0.72115100  1
  O  O84  1  0.94712050  0.18117100  0.27884900  1
  O  O85  1  0.94883600  0.66751650  0.77940700  1
  O  O86  1  0.94883600  0.33248350  0.77940700  1
  O  O87  1  0.94712050  0.81882900  0.27884900  1
