# generated using pymatgen
data_LiCrO2
_symmetry_space_group_name_H-M   'P 1'
_cell_length_a   8.37591611
_cell_length_b   8.37591611
_cell_length_c   8.37591611
_cell_angle_alpha   90.00000000
_cell_angle_beta   90.00000000
_cell_angle_gamma   90.00000000
_symmetry_Int_Tables_number   1
_chemical_formula_structural   LiCrO2
_chemical_formula_sum   'Li16 Cr16 O32'
_cell_volume   587.62052558
_cell_formula_units_Z   16
loop_
 _symmetry_equiv_pos_site_id
 _symmetry_equiv_pos_as_xyz
  1  'x, y, z'
loop_
 _atom_site_type_symbol
 _atom_site_label
 _atom_site_symmetry_multiplicity
 _atom_site_fract_x
 _atom_site_fract_y
 _atom_site_fract_z
 _atom_site_occupancy
  Li  Li0  1  0.37500000  0.12500000  0.37500000  1
  Li  Li1  1  0.87500000  0.87500000  0.12500000  1
  Li  Li2  1  0.62500000  0.87500000  0.37500000  1
  Li  Li3  1  0.62500000  0.62500000  0.12500000  1
  Li  Li4  1  0.37500000  0.62500000  0.87500000  1
  Li  Li5  1  0.87500000  0.37500000  0.62500000  1
  Li  Li6  1  0.62500000  0.37500000  0.87500000  1
  Li  Li7  1  0.62500000  0.12500000  0.62500000  1
  Li  Li8  1  0.87500000  0.12500000  0.87500000  1
  Li  Li9  1  0.37500000  0.87500000  0.62500000  1
  Li  Li10  1  0.12500000  0.87500000  0.87500000  1
  Li  Li11  1  0.12500000  0.62500000  0.62500000  1
  Li  Li12  1  0.87500000  0.62500000  0.37500000  1
  Li  Li13  1  0.37500000  0.37500000  0.12500000  1
  Li  Li14  1  0.12500000  0.37500000  0.37500000  1
  Li  Li15  1  0.12500000  0.12500000  0.12500000  1
  Cr  Cr16  1  0.37500000  0.87500000  0.12500000  1
  Cr  Cr17  1  0.37500000  0.62500000  0.37500000  1
  Cr  Cr18  1  0.12500000  0.62500000  0.12500000  1
  Cr  Cr19  1  0.62500000  0.87500000  0.87500000  1
  Cr  Cr20  1  0.37500000  0.37500000  0.62500000  1
  Cr  Cr21  1  0.37500000  0.12500000  0.87500000  1
  Cr  Cr22  1  0.12500000  0.12500000  0.62500000  1
  Cr  Cr23  1  0.62500000  0.37500000  0.37500000  1
  Cr  Cr24  1  0.87500000  0.87500000  0.62500000  1
  Cr  Cr25  1  0.87500000  0.62500000  0.87500000  1
  Cr  Cr26  1  0.62500000  0.62500000  0.62500000  1
  Cr  Cr27  1  0.12500000  0.87500000  0.37500000  1
  Cr  Cr28  1  0.87500000  0.37500000  0.12500000  1
  Cr  Cr29  1  0.87500000  0.12500000  0.37500000  1
  Cr  Cr30  1  0.62500000  0.12500000  0.12500000  1
  Cr  Cr31  1  0.12500000  0.37500000  0.87500000  1
  O  O32  1  0.36756667  0.86756667  0.36756667  1
  O  O33  1  0.63243333  0.63243333  0.86756667  1
  O  O34  1  0.36756667  0.63243333  0.13243333  1
  O  O35  1  0.61756667  0.88243333  0.11756667  1
  O  O36  1  0.13243333  0.86756667  0.13243333  1
  O  O37  1  0.38243333  0.11756667  0.11756667  1
  O  O38  1  0.11756667  0.11756667  0.38243333  1
  O  O39  1  0.38243333  0.88243333  0.88243333  1
  O  O40  1  0.36756667  0.36756667  0.86756667  1
  O  O41  1  0.63243333  0.13243333  0.36756667  1
  O  O42  1  0.36756667  0.13243333  0.63243333  1
  O  O43  1  0.61756667  0.38243333  0.61756667  1
  O  O44  1  0.13243333  0.36756667  0.63243333  1
  O  O45  1  0.38243333  0.61756667  0.61756667  1
  O  O46  1  0.11756667  0.61756667  0.88243333  1
  O  O47  1  0.38243333  0.38243333  0.38243333  1
  O  O48  1  0.86756667  0.86756667  0.86756667  1
  O  O49  1  0.13243333  0.63243333  0.36756667  1
  O  O50  1  0.86756667  0.63243333  0.63243333  1
  O  O51  1  0.11756667  0.88243333  0.61756667  1
  O  O52  1  0.63243333  0.86756667  0.63243333  1
  O  O53  1  0.88243333  0.11756667  0.61756667  1
  O  O54  1  0.61756667  0.11756667  0.88243333  1
  O  O55  1  0.88243333  0.88243333  0.38243333  1
  O  O56  1  0.86756667  0.36756667  0.36756667  1
  O  O57  1  0.13243333  0.13243333  0.86756667  1
  O  O58  1  0.86756667  0.13243333  0.13243333  1
  O  O59  1  0.11756667  0.38243333  0.11756667  1
  O  O60  1  0.63243333  0.36756667  0.13243333  1
  O  O61  1  0.88243333  0.61756667  0.11756667  1
  O  O62  1  0.61756667  0.61756667  0.38243333  1
  O  O63  1  0.88243333  0.38243333  0.88243333  1
