# generated using pymatgen
data_Ti2V(PO4)3
_symmetry_space_group_name_H-M   'P 1'
_cell_length_a   8.70194989
_cell_length_b   8.70194989
_cell_length_c   20.88184153
_cell_angle_alpha   90.00000000
_cell_angle_beta   90.00000000
_cell_angle_gamma   120.00000000
_symmetry_Int_Tables_number   1
_chemical_formula_structural   Ti2V(PO4)3
_chemical_formula_sum   'Ti12 V6 P18 O72'
_cell_volume   1369.40712743
_cell_formula_units_Z   6
loop_
 _symmetry_equiv_pos_site_id
 _symmetry_equiv_pos_as_xyz
  1  'x, y, z'
loop_
 _atom_site_type_symbol
 _atom_site_label
 _atom_site_symmetry_multiplicity
 _atom_site_fract_x
 _atom_site_fract_y
 _atom_site_fract_z
 _atom_site_occupancy
  Ti  Ti0  1  0.33333333  0.66666667  0.02304167  1
  Ti  Ti1  1  0.33333333  0.66666667  0.52304167  1
  Ti  Ti2  1  0.33333333  0.66666667  0.81029167  1
  Ti  Ti3  1  0.33333333  0.66666667  0.31029167  1
  Ti  Ti4  1  0.00000000  0.00000000  0.35637500  1
  Ti  Ti5  1  0.00000000  0.00000000  0.85637500  1
  Ti  Ti6  1  1.00000000  0.00000000  0.14362500  1
  Ti  Ti7  1  0.00000000  0.00000000  0.64362500  1
  Ti  Ti8  1  0.66666667  0.33333333  0.68970833  1
  Ti  Ti9  1  0.66666667  0.33333333  0.18970833  1
  Ti  Ti10  1  0.66666667  0.33333333  0.47695833  1
  Ti  Ti11  1  0.66666667  0.33333333  0.97695833  1
  V  V12  1  0.00000000  0.00000000  0.00000000  1
  V  V13  1  0.33333333  0.66666667  0.16666667  1
  V  V14  1  0.66666667  0.33333333  0.33333333  1
  V  V15  1  0.00000000  0.00000000  0.50000000  1
  V  V16  1  0.33333333  0.66666667  0.66666667  1
  V  V17  1  0.66666667  0.33333333  0.83333333  1
  P  P18  1  0.66666667  0.62597733  0.08333333  1
  P  P19  1  0.95931067  0.33333333  0.08333333  1
  P  P20  1  0.37402267  0.04068933  0.08333333  1
  P  P21  1  0.29264400  0.29264400  0.25000000  1
  P  P22  1  0.70735600  0.00000000  0.25000000  1
  P  P23  1  0.00000000  0.70735600  0.25000000  1
  P  P24  1  0.33333333  0.95931067  0.41666667  1
  P  P25  1  0.62597733  0.66666667  0.41666667  1
  P  P26  1  0.04068933  0.37402267  0.41666667  1
  P  P27  1  0.95931067  0.62597733  0.58333333  1
  P  P28  1  0.37402267  0.33333333  0.58333333  1
  P  P29  1  0.66666667  0.04068933  0.58333333  1
  P  P30  1  0.00000000  0.29264400  0.75000000  1
  P  P31  1  0.29264400  0.00000000  0.75000000  1
  P  P32  1  0.70735600  0.70735600  0.75000000  1
  P  P33  1  0.62597733  0.95931067  0.91666667  1
  P  P34  1  0.04068933  0.66666667  0.91666667  1
  P  P35  1  0.33333333  0.37402267  0.91666667  1
  O  O36  1  0.52913267  0.67364833  0.35628033  1
  O  O37  1  0.14451567  0.47086733  0.35628033  1
  O  O38  1  0.32635167  0.85548433  0.35628033  1
  O  O39  1  0.83337700  0.81388600  0.07649300  1
  O  O40  1  0.34031500  0.86246600  0.47705300  1
  O  O41  1  0.49995633  0.64717567  0.09017367  1
  O  O42  1  0.98050900  0.16662300  0.07649300  1
  O  O43  1  0.14721933  0.50004367  0.09017367  1
  O  O44  1  0.52913267  0.85548433  0.85628033  1
  O  O45  1  0.35282433  0.85278067  0.09017367  1
  O  O46  1  0.48055267  0.31384233  0.25684033  1
  O  O47  1  0.14451567  0.67364833  0.85628033  1
  O  O48  1  0.52215100  0.65968500  0.47705300  1
  O  O49  1  0.18611400  0.01949100  0.07649300  1
  O  O50  1  0.31384233  0.48055267  0.24315967  1
  O  O51  1  0.13753400  0.47784900  0.47705300  1
  O  O52  1  0.51944733  0.83328967  0.24315967  1
  O  O53  1  0.68615767  0.16671033  0.25684033  1
  O  O54  1  0.16671033  0.68615767  0.24315967  1
  O  O55  1  0.32635167  0.47086733  0.85628033  1
  O  O56  1  0.83328967  0.51944733  0.25684033  1
  O  O57  1  0.34031500  0.47784900  0.97705300  1
  O  O58  1  0.52215100  0.86246600  0.97705300  1
  O  O59  1  0.13753400  0.65968500  0.97705300  1
  O  O60  1  0.19579933  0.00698167  0.68961367  1
  O  O61  1  0.81118233  0.80420067  0.68961367  1
  O  O62  1  0.99301833  0.18881767  0.68961367  1
  O  O63  1  0.50004367  0.14721933  0.40982633  1
  O  O64  1  0.00698167  0.19579933  0.81038633  1
  O  O65  1  0.16662300  0.98050900  0.42350700  1
  O  O66  1  0.64717567  0.49995633  0.40982633  1
  O  O67  1  0.81388600  0.83337700  0.42350700  1
  O  O68  1  0.19579933  0.18881767  0.18961367  1
  O  O69  1  0.01949100  0.18611400  0.42350700  1
  O  O70  1  0.14721933  0.64717567  0.59017367  1
  O  O71  1  0.81118233  0.00698167  0.18961367  1
  O  O72  1  0.18881767  0.99301833  0.81038633  1
  O  O73  1  0.85278067  0.35282433  0.40982633  1
  O  O74  1  0.98050900  0.81388600  0.57649300  1
  O  O75  1  0.80420067  0.81118233  0.81038633  1
  O  O76  1  0.18611400  0.16662300  0.57649300  1
  O  O77  1  0.35282433  0.50004367  0.59017367  1
  O  O78  1  0.83337700  0.01949100  0.57649300  1
  O  O79  1  0.99301833  0.80420067  0.18961367  1
  O  O80  1  0.49995633  0.85278067  0.59017367  1
  O  O81  1  0.00698167  0.81118233  0.31038633  1
  O  O82  1  0.18881767  0.19579933  0.31038633  1
  O  O83  1  0.80420067  0.99301833  0.31038633  1
  O  O84  1  0.86246600  0.34031500  0.02294700  1
  O  O85  1  0.47784900  0.13753400  0.02294700  1
  O  O86  1  0.65968500  0.52215100  0.02294700  1
  O  O87  1  0.16671033  0.48055267  0.74315967  1
  O  O88  1  0.67364833  0.52913267  0.14371967  1
  O  O89  1  0.83328967  0.31384233  0.75684033  1
  O  O90  1  0.31384233  0.83328967  0.74315967  1
  O  O91  1  0.48055267  0.16671033  0.75684033  1
  O  O92  1  0.86246600  0.52215100  0.52294700  1
  O  O93  1  0.68615767  0.51944733  0.75684033  1
  O  O94  1  0.81388600  0.98050900  0.92350700  1
  O  O95  1  0.47784900  0.34031500  0.52294700  1
  O  O96  1  0.85548433  0.32635167  0.14371967  1
  O  O97  1  0.51944733  0.68615767  0.74315967  1
  O  O98  1  0.64717567  0.14721933  0.90982633  1
  O  O99  1  0.47086733  0.14451567  0.14371967  1
  O  O100  1  0.85278067  0.49995633  0.90982633  1
  O  O101  1  0.01949100  0.83337700  0.92350700  1
  O  O102  1  0.50004367  0.35282433  0.90982633  1
  O  O103  1  0.65968500  0.13753400  0.52294700  1
  O  O104  1  0.16662300  0.18611400  0.92350700  1
  O  O105  1  0.67364833  0.14451567  0.64371967  1
  O  O106  1  0.85548433  0.52913267  0.64371967  1
  O  O107  1  0.47086733  0.32635167  0.64371967  1
