# generated using pymatgen
data_Li3CoO2F
_symmetry_space_group_name_H-M   'P 1'
_cell_length_a   3.64820100
_cell_length_b   8.54167800
_cell_length_c   9.73432500
_cell_angle_alpha   90.00000000
_cell_angle_beta   90.00000000
_cell_angle_gamma   90.00000000
_symmetry_Int_Tables_number   1
_chemical_formula_structural   Li3CoO2F
_chemical_formula_sum   'Li12 Co4 O8 F4'
_cell_volume   303.33868216
_cell_formula_units_Z   4
loop_
 _symmetry_equiv_pos_site_id
 _symmetry_equiv_pos_as_xyz
  1  'x, y, z'
loop_
 _atom_site_type_symbol
 _atom_site_label
 _atom_site_symmetry_multiplicity
 _atom_site_fract_x
 _atom_site_fract_y
 _atom_site_fract_z
 _atom_site_occupancy
  Li  Li0  1  0.00000000  0.60268650  0.84443900  1
  Li  Li1  1  0.50000000  0.89731350  0.34443900  1
  Li  Li2  1  0.50000000  0.10268650  0.65556100  1
  Li  Li3  1  0.00000000  0.39731350  0.15556100  1
  Li  Li4  1  0.50000000  0.66189750  0.67333300  1
  Li  Li5  1  0.00000000  0.83810250  0.17333300  1
  Li  Li6  1  0.00000000  0.16189750  0.82666700  1
  Li  Li7  1  0.50000000  0.33810250  0.32666700  1
  Li  Li8  1  0.50000000  0.64356650  0.07641800  1
  Li  Li9  1  0.00000000  0.85643350  0.57641800  1
  Li  Li10  1  0.00000000  0.14356650  0.42358200  1
  Li  Li11  1  0.50000000  0.35643350  0.92358200  1
  Co  Co12  1  0.50000000  0.88196450  0.90961600  1
  Co  Co13  1  0.00000000  0.38196450  0.59038400  1
  Co  Co14  1  0.00000000  0.61803550  0.40961600  1
  Co  Co15  1  0.50000000  0.11803550  0.09038400  1
  O  O16  1  0.00000000  0.60123050  0.61740300  1
  O  O17  1  0.50000000  0.89876950  0.11740300  1
  O  O18  1  0.50000000  0.10123050  0.88259700  1
  O  O19  1  0.00000000  0.39876950  0.38259700  1
  O  O20  1  0.50000000  0.67205550  0.87574100  1
  O  O21  1  0.00000000  0.82794450  0.37574100  1
  O  O22  1  0.00000000  0.17205550  0.62425900  1
  O  O23  1  0.50000000  0.32794450  0.12425900  1
  F  F24  1  0.00000000  0.61740750  0.13095900  1
  F  F25  1  0.50000000  0.88259250  0.63095900  1
  F  F26  1  0.50000000  0.11740750  0.36904100  1
  F  F27  1  0.00000000  0.38259250  0.86904100  1
