# generated using pymatgen
data_Li3MnFe3O8
_symmetry_space_group_name_H-M   'P 1'
_cell_length_a   5.94654400
_cell_length_b   5.94654400
_cell_length_c   14.72369185
_cell_angle_alpha   90.00000000
_cell_angle_beta   90.00000000
_cell_angle_gamma   120.00000000
_symmetry_Int_Tables_number   1
_chemical_formula_structural   Li3MnFe3O8
_chemical_formula_sum   'Li9 Mn3 Fe9 O24'
_cell_volume   450.89625183
_cell_formula_units_Z   3
loop_
 _symmetry_equiv_pos_site_id
 _symmetry_equiv_pos_as_xyz
  1  'x, y, z'
loop_
 _atom_site_type_symbol
 _atom_site_label
 _atom_site_symmetry_multiplicity
 _atom_site_fract_x
 _atom_site_fract_y
 _atom_site_fract_z
 _atom_site_occupancy
  Li  Li0  1  0.83333333  0.66666667  0.16666667  1
  Li  Li1  1  0.33333333  0.16666667  0.16666667  1
  Li  Li2  1  0.83333333  0.16666667  0.16666667  1
  Li  Li3  1  0.50000000  0.00000000  0.50000000  1
  Li  Li4  1  0.00000000  0.50000000  0.50000000  1
  Li  Li5  1  0.50000000  0.50000000  0.50000000  1
  Li  Li6  1  0.16666667  0.33333333  0.83333333  1
  Li  Li7  1  0.66666667  0.83333333  0.83333333  1
  Li  Li8  1  0.16666667  0.83333333  0.83333333  1
  Mn  Mn9  1  0.00000000  0.00000000  0.00000000  1
  Mn  Mn10  1  0.66666667  0.33333333  0.33333333  1
  Mn  Mn11  1  0.33333333  0.66666667  0.66666667  1
  Fe  Fe12  1  0.50000000  0.00000000  0.00000000  1
  Fe  Fe13  1  0.00000000  0.50000000  0.00000000  1
  Fe  Fe14  1  0.50000000  0.50000000  0.00000000  1
  Fe  Fe15  1  0.16666667  0.33333333  0.33333333  1
  Fe  Fe16  1  0.66666667  0.83333333  0.33333333  1
  Fe  Fe17  1  0.16666667  0.83333333  0.33333333  1
  Fe  Fe18  1  0.83333333  0.66666667  0.66666667  1
  Fe  Fe19  1  0.33333333  0.16666667  0.66666667  1
  Fe  Fe20  1  0.83333333  0.16666667  0.66666667  1
  O  O21  1  0.00000000  0.00000000  0.25808800  1
  O  O22  1  0.50906800  0.01813600  0.26096000  1
  O  O23  1  0.98186400  0.49093200  0.26096000  1
  O  O24  1  0.66666667  0.33333333  0.07524533  1
  O  O25  1  0.50906800  0.49093200  0.26096000  1
  O  O26  1  0.15759867  0.31519733  0.07237333  1
  O  O27  1  0.68480267  0.84240133  0.07237333  1
  O  O28  1  0.15759867  0.84240133  0.07237333  1
  O  O29  1  0.66666667  0.33333333  0.59142133  1
  O  O30  1  0.17573467  0.35146933  0.59429333  1
  O  O31  1  0.64853067  0.82426533  0.59429333  1
  O  O32  1  0.33333333  0.66666667  0.40857867  1
  O  O33  1  0.17573467  0.82426533  0.59429333  1
  O  O34  1  0.82426533  0.64853067  0.40570667  1
  O  O35  1  0.35146933  0.17573467  0.40570667  1
  O  O36  1  0.82426533  0.17573467  0.40570667  1
  O  O37  1  0.33333333  0.66666667  0.92475467  1
  O  O38  1  0.84240133  0.68480267  0.92762667  1
  O  O39  1  0.31519733  0.15759867  0.92762667  1
  O  O40  1  0.00000000  0.00000000  0.74191200  1
  O  O41  1  0.84240133  0.15759867  0.92762667  1
  O  O42  1  0.49093200  0.98186400  0.73904000  1
  O  O43  1  0.01813600  0.50906800  0.73904000  1
  O  O44  1  0.49093200  0.50906800  0.73904000  1
