# generated using pymatgen
data_Co(CuO2)4
_symmetry_space_group_name_H-M   'P 1'
_cell_length_a   10.44662000
_cell_length_b   5.74475000
_cell_length_c   5.48533906
_cell_angle_alpha   90.00000000
_cell_angle_beta   113.59497119
_cell_angle_gamma   90.00000000
_symmetry_Int_Tables_number   1
_chemical_formula_structural   Co(CuO2)4
_chemical_formula_sum   'Co2 Cu8 O16'
_cell_volume   301.67163491
_cell_formula_units_Z   2
loop_
 _symmetry_equiv_pos_site_id
 _symmetry_equiv_pos_as_xyz
  1  'x, y, z'
loop_
 _atom_site_type_symbol
 _atom_site_label
 _atom_site_symmetry_multiplicity
 _atom_site_fract_x
 _atom_site_fract_y
 _atom_site_fract_z
 _atom_site_occupancy
  Co  Co0  1  0.00000000  0.50000000  0.00000000  1
  Co  Co1  1  0.50000000  0.00000000  0.00000000  1
  Cu  Cu2  1  0.00000000  0.50000000  0.50000000  1
  Cu  Cu3  1  0.00000000  0.00000000  0.00000000  1
  Cu  Cu4  1  0.25000000  0.75000000  0.00000000  1
  Cu  Cu5  1  0.25000000  0.25000000  0.00000000  1
  Cu  Cu6  1  0.50000000  0.00000000  0.50000000  1
  Cu  Cu7  1  0.50000000  0.50000000  0.00000000  1
  Cu  Cu8  1  0.75000000  0.25000000  0.00000000  1
  Cu  Cu9  1  0.75000000  0.75000000  0.00000000  1
  O  O10  1  0.30062400  0.00000000  0.82804100  1
  O  O11  1  0.01687250  0.28110950  0.76843500  1
  O  O12  1  0.01687250  0.71889050  0.76843500  1
  O  O13  1  0.30248000  0.50000000  0.83926200  1
  O  O14  1  0.19752000  0.00000000  0.16073800  1
  O  O15  1  0.48312750  0.78110950  0.23156500  1
  O  O16  1  0.48312750  0.21889050  0.23156500  1
  O  O17  1  0.19937600  0.50000000  0.17195900  1
  O  O18  1  0.80062400  0.50000000  0.82804100  1
  O  O19  1  0.51687250  0.78110950  0.76843500  1
  O  O20  1  0.51687250  0.21889050  0.76843500  1
  O  O21  1  0.80248000  0.00000000  0.83926200  1
  O  O22  1  0.69752000  0.50000000  0.16073800  1
  O  O23  1  0.98312750  0.28110950  0.23156500  1
  O  O24  1  0.98312750  0.71889050  0.23156500  1
  O  O25  1  0.69937600  0.00000000  0.17195900  1
