# generated using pymatgen
data_Li4V3Cr5O16
_symmetry_space_group_name_H-M   'P 1'
_cell_length_a   10.13768000
_cell_length_b   5.91503000
_cell_length_c   9.53334495
_cell_angle_alpha   90.00000000
_cell_angle_beta   90.80885197
_cell_angle_gamma   90.00000000
_symmetry_Int_Tables_number   1
_chemical_formula_structural   Li4V3Cr5O16
_chemical_formula_sum   'Li8 V6 Cr10 O32'
_cell_volume   571.60702849
_cell_formula_units_Z   2
loop_
 _symmetry_equiv_pos_site_id
 _symmetry_equiv_pos_as_xyz
  1  'x, y, z'
loop_
 _atom_site_type_symbol
 _atom_site_label
 _atom_site_symmetry_multiplicity
 _atom_site_fract_x
 _atom_site_fract_y
 _atom_site_fract_z
 _atom_site_occupancy
  Li  Li0  1  0.33191000  0.00000000  0.89159100  1
  Li  Li1  1  0.99754600  0.00000000  0.99697700  1
  Li  Li2  1  0.00187300  0.00000000  0.49570600  1
  Li  Li3  1  0.66329400  0.00000000  0.39129400  1
  Li  Li4  1  0.83191000  0.50000000  0.89159100  1
  Li  Li5  1  0.49754600  0.50000000  0.99697700  1
  Li  Li6  1  0.50187300  0.50000000  0.49570600  1
  Li  Li7  1  0.16329400  0.50000000  0.39129400  1
  V  V8  1  0.58448650  0.75249550  0.71275000  1
  V  V9  1  0.16956000  0.00000000  0.21117700  1
  V  V10  1  0.58448650  0.24750450  0.71275000  1
  V  V11  1  0.08448650  0.25249550  0.71275000  1
  V  V12  1  0.66956000  0.50000000  0.21117700  1
  V  V13  1  0.08448650  0.74750450  0.71275000  1
  Cr  Cr14  1  0.41412250  0.75330550  0.21398400  1
  Cr  Cr15  1  0.33501500  0.00000000  0.48375800  1
  Cr  Cr16  1  0.41412250  0.24669450  0.21398400  1
  Cr  Cr17  1  0.83016300  0.00000000  0.71418800  1
  Cr  Cr18  1  0.66909400  0.00000000  0.98457700  1
  Cr  Cr19  1  0.91412250  0.25330550  0.21398400  1
  Cr  Cr20  1  0.83501500  0.50000000  0.48375800  1
  Cr  Cr21  1  0.91412250  0.74669450  0.21398400  1
  Cr  Cr22  1  0.33016300  0.50000000  0.71418800  1
  Cr  Cr23  1  0.16909400  0.50000000  0.98457700  1
  O  O24  1  0.42530500  0.74955800  0.60369200  1
  O  O25  1  0.47900300  0.00000000  0.34065500  1
  O  O26  1  0.32230400  0.00000000  0.10311500  1
  O  O27  1  0.00645500  0.00000000  0.30992700  1
  O  O28  1  0.00322900  0.00000000  0.81255300  1
  O  O29  1  0.42530500  0.25044200  0.60369200  1
  O  O30  1  0.25321950  0.78665750  0.33853100  1
  O  O31  1  0.25321950  0.21334250  0.33853100  1
  O  O32  1  0.83801400  0.00000000  0.09795900  1
  O  O33  1  0.16704600  0.00000000  0.60784000  1
  O  O34  1  0.73511750  0.77622950  0.83781200  1
  O  O35  1  0.73511750  0.22377050  0.83781200  1
  O  O36  1  0.66277300  0.00000000  0.60203000  1
  O  O37  1  0.58912150  0.73870250  0.10658500  1
  O  O38  1  0.51821200  0.00000000  0.83850300  1
  O  O39  1  0.58912150  0.26129750  0.10658500  1
  O  O40  1  0.92530500  0.24955800  0.60369200  1
  O  O41  1  0.97900300  0.50000000  0.34065500  1
  O  O42  1  0.82230400  0.50000000  0.10311500  1
  O  O43  1  0.50645500  0.50000000  0.30992700  1
  O  O44  1  0.50322900  0.50000000  0.81255300  1
  O  O45  1  0.92530500  0.75044200  0.60369200  1
  O  O46  1  0.75321950  0.28665750  0.33853100  1
  O  O47  1  0.75321950  0.71334250  0.33853100  1
  O  O48  1  0.33801400  0.50000000  0.09795900  1
  O  O49  1  0.66704600  0.50000000  0.60784000  1
  O  O50  1  0.23511750  0.27622950  0.83781200  1
  O  O51  1  0.23511750  0.72377050  0.83781200  1
  O  O52  1  0.16277300  0.50000000  0.60203000  1
  O  O53  1  0.08912150  0.23870250  0.10658500  1
  O  O54  1  0.01821200  0.50000000  0.83850300  1
  O  O55  1  0.08912150  0.76129750  0.10658500  1
