# generated using pymatgen
data_Li4Ni3Sn(PO4)4
_symmetry_space_group_name_H-M   'P 1'
_cell_length_a   4.79991092
_cell_length_b   6.04425717
_cell_length_c   10.64987847
_cell_angle_alpha   90.00000000
_cell_angle_beta   90.87412951
_cell_angle_gamma   90.00000000
_symmetry_Int_Tables_number   1
_chemical_formula_structural   Li4Ni3Sn(PO4)4
_chemical_formula_sum   'Li4 Ni3 Sn1 P4 O16'
_cell_volume   308.93720938
_cell_formula_units_Z   1
loop_
 _symmetry_equiv_pos_site_id
 _symmetry_equiv_pos_as_xyz
  1  'x, y, z'
loop_
 _atom_site_type_symbol
 _atom_site_label
 _atom_site_symmetry_multiplicity
 _atom_site_fract_x
 _atom_site_fract_y
 _atom_site_fract_z
 _atom_site_occupancy
  Li  Li0  1  0.98812300  0.25156750  0.01336000  1
  Li  Li1  1  0.98812300  0.74843250  0.01336000  1
  Li  Li2  1  0.49870450  0.74358800  0.48157850  1
  Li  Li3  1  0.49870450  0.25641200  0.48157850  1
  Ni  Ni4  1  0.47339350  0.50000000  0.21926500  1
  Ni  Ni5  1  0.98397800  0.00000000  0.26957150  1
  Ni  Ni6  1  0.51582700  0.00000000  0.78602200  1
  Sn  Sn7  1  0.00610450  0.50000000  0.71946450  1
  P  P8  1  0.91318350  0.50000000  0.38693950  1
  P  P9  1  0.56321450  0.50000000  0.92909600  1
  P  P10  1  0.41013350  0.00000000  0.09542750  1
  P  P11  1  0.12305800  0.00000000  0.58741500  1
  O  O12  1  0.78618700  0.50000000  0.52015950  1
  O  O13  1  0.80979200  0.00000000  0.61134100  1
  O  O14  1  0.73095650  0.00000000  0.10199800  1
  O  O15  1  0.70417800  0.50000000  0.06175650  1
  O  O16  1  0.28527950  0.00000000  0.95944250  1
  O  O17  1  0.24464550  0.50000000  0.93371050  1
  O  O18  1  0.23454550  0.50000000  0.38743900  1
  O  O19  1  0.20487200  0.00000000  0.44618250  1
  O  O20  1  0.77863800  0.29325700  0.31991950  1
  O  O21  1  0.77863800  0.70674300  0.31991950  1
  O  O22  1  0.68343450  0.29041900  0.86022650  1
  O  O23  1  0.68343450  0.70958100  0.86022650  1
  O  O24  1  0.27427700  0.79707050  0.16582300  1
  O  O25  1  0.27427700  0.20292950  0.16582300  1
  O  O26  1  0.28277200  0.79986800  0.65118350  1
  O  O27  1  0.28277200  0.20013200  0.65118350  1
