# generated using pymatgen
data_Li4FeSi2O7
_symmetry_space_group_name_H-M   'P 1'
_cell_length_a   13.38261595
_cell_length_b   5.47747968
_cell_length_c   8.13650322
_cell_angle_alpha   90.00000000
_cell_angle_beta   94.70530011
_cell_angle_gamma   90.00000000
_symmetry_Int_Tables_number   1
_chemical_formula_structural   Li4FeSi2O7
_chemical_formula_sum   'Li16 Fe4 Si8 O28'
_cell_volume   594.42006480
_cell_formula_units_Z   4
loop_
 _symmetry_equiv_pos_site_id
 _symmetry_equiv_pos_as_xyz
  1  'x, y, z'
loop_
 _atom_site_type_symbol
 _atom_site_label
 _atom_site_symmetry_multiplicity
 _atom_site_fract_x
 _atom_site_fract_y
 _atom_site_fract_z
 _atom_site_occupancy
  Li  Li0  1  0.57680900  0.83982900  0.87560250  1
  Li  Li1  1  0.57680900  0.16017100  0.37560250  1
  Li  Li2  1  0.70710325  0.82305475  0.59323350  1
  Li  Li3  1  0.70710325  0.17694525  0.09323350  1
  Li  Li4  1  0.77685575  0.64573425  0.94669400  1
  Li  Li5  1  0.77685575  0.35426575  0.44669400  1
  Li  Li6  1  0.50278500  0.31229100  0.02175250  1
  Li  Li7  1  0.50278500  0.68770900  0.52175250  1
  Li  Li8  1  0.07680900  0.33982900  0.87560250  1
  Li  Li9  1  0.07680900  0.66017100  0.37560250  1
  Li  Li10  1  0.20710325  0.32305475  0.59323350  1
  Li  Li11  1  0.20710325  0.67694525  0.09323350  1
  Li  Li12  1  0.27685575  0.14573425  0.94669400  1
  Li  Li13  1  0.27685575  0.85426575  0.44669400  1
  Li  Li14  1  0.00278500  0.81229100  0.02175250  1
  Li  Li15  1  0.00278500  0.18770900  0.52175250  1
  Fe  Fe16  1  0.85008525  0.16435275  0.79790300  1
  Fe  Fe17  1  0.85008525  0.83564725  0.29790300  1
  Fe  Fe18  1  0.35008525  0.66435275  0.79790300  1
  Fe  Fe19  1  0.35008525  0.33564725  0.29790300  1
  Si  Si20  1  0.63614725  0.32859175  0.73814400  1
  Si  Si21  1  0.63614725  0.67140825  0.23814400  1
  Si  Si22  1  0.92583775  0.66955325  0.67110100  1
  Si  Si23  1  0.92583775  0.33044675  0.17110100  1
  Si  Si24  1  0.13614725  0.82859175  0.73814400  1
  Si  Si25  1  0.13614725  0.17140825  0.23814400  1
  Si  Si26  1  0.42583775  0.16955325  0.67110100  1
  Si  Si27  1  0.42583775  0.83044675  0.17110100  1
  O  O28  1  0.52804275  0.31444925  0.60543350  1
  O  O29  1  0.52804275  0.68555075  0.10543350  1
  O  O30  1  0.61046525  0.18263375  0.90322650  1
  O  O31  1  0.61046525  0.81736625  0.40322650  1
  O  O32  1  0.66359375  0.61418325  0.77130650  1
  O  O33  1  0.66359375  0.38581675  0.27130650  1
  O  O34  1  0.72354575  0.18660225  0.64059600  1
  O  O35  1  0.72354575  0.81339775  0.14059600  1
  O  O36  1  0.83640675  0.68967425  0.52173050  1
  O  O37  1  0.83640675  0.31032575  0.02173050  1
  O  O38  1  0.89021200  0.80963700  0.83606800  1
  O  O39  1  0.89021200  0.19036300  0.33606800  1
  O  O40  1  0.95513950  0.38238950  0.70696300  1
  O  O41  1  0.95513950  0.61761050  0.20696300  1
  O  O42  1  0.02804275  0.81444925  0.60543350  1
  O  O43  1  0.02804275  0.18555075  0.10543350  1
  O  O44  1  0.11046525  0.68263375  0.90322650  1
  O  O45  1  0.11046525  0.31736625  0.40322650  1
  O  O46  1  0.16359375  0.11418325  0.77130650  1
  O  O47  1  0.16359375  0.88581675  0.27130650  1
  O  O48  1  0.22354575  0.68660225  0.64059600  1
  O  O49  1  0.22354575  0.31339775  0.14059600  1
  O  O50  1  0.33640675  0.18967425  0.52173050  1
  O  O51  1  0.33640675  0.81032575  0.02173050  1
  O  O52  1  0.39021200  0.30963700  0.83606800  1
  O  O53  1  0.39021200  0.69036300  0.33606800  1
  O  O54  1  0.45513950  0.88238950  0.70696300  1
  O  O55  1  0.45513950  0.11761050  0.20696300  1
