# generated using pymatgen
data_Li2VCrO4
_symmetry_space_group_name_H-M   'P 1'
_cell_length_a   5.92519200
_cell_length_b   5.93788000
_cell_length_c   8.52001200
_cell_angle_alpha   90.00000000
_cell_angle_beta   90.00000000
_cell_angle_gamma   90.00000000
_symmetry_Int_Tables_number   1
_chemical_formula_structural   Li2VCrO4
_chemical_formula_sum   'Li8 V4 Cr4 O16'
_cell_volume   299.76025590
_cell_formula_units_Z   4
loop_
 _symmetry_equiv_pos_site_id
 _symmetry_equiv_pos_as_xyz
  1  'x, y, z'
loop_
 _atom_site_type_symbol
 _atom_site_label
 _atom_site_symmetry_multiplicity
 _atom_site_fract_x
 _atom_site_fract_y
 _atom_site_fract_z
 _atom_site_occupancy
  Li  Li0  1  0.00000000  0.50000000  0.00000000  1
  Li  Li1  1  0.25000000  0.25000000  0.75000000  1
  Li  Li2  1  0.00000000  0.00000000  0.00000000  1
  Li  Li3  1  0.75000000  0.25000000  0.75000000  1
  Li  Li4  1  0.50000000  0.00000000  0.50000000  1
  Li  Li5  1  0.75000000  0.75000000  0.25000000  1
  Li  Li6  1  0.50000000  0.50000000  0.50000000  1
  Li  Li7  1  0.25000000  0.75000000  0.25000000  1
  V  V8  1  0.25000000  0.75000000  0.75000000  1
  V  V9  1  0.75000000  0.75000000  0.75000000  1
  V  V10  1  0.75000000  0.25000000  0.25000000  1
  V  V11  1  0.25000000  0.25000000  0.25000000  1
  Cr  Cr12  1  0.50000000  0.50000000  0.00000000  1
  Cr  Cr13  1  0.50000000  0.00000000  0.00000000  1
  Cr  Cr14  1  0.00000000  0.00000000  0.50000000  1
  Cr  Cr15  1  0.00000000  0.50000000  0.50000000  1
  O  O16  1  0.23364650  0.75000000  0.50364750  1
  O  O17  1  0.00000000  0.51252900  0.73947100  1
  O  O18  1  0.00000000  0.98747100  0.73947100  1
  O  O19  1  0.73364650  0.75000000  0.99635250  1
  O  O20  1  0.76635350  0.75000000  0.50364750  1
  O  O21  1  0.50000000  0.51252900  0.76052900  1
  O  O22  1  0.50000000  0.98747100  0.76052900  1
  O  O23  1  0.26635350  0.75000000  0.99635250  1
  O  O24  1  0.73364650  0.25000000  0.00364750  1
  O  O25  1  0.50000000  0.01252900  0.23947100  1
  O  O26  1  0.50000000  0.48747100  0.23947100  1
  O  O27  1  0.23364650  0.25000000  0.49635250  1
  O  O28  1  0.26635350  0.25000000  0.00364750  1
  O  O29  1  0.00000000  0.01252900  0.26052900  1
  O  O30  1  0.00000000  0.48747100  0.26052900  1
  O  O31  1  0.76635350  0.25000000  0.49635250  1
