# generated using pymatgen
data_Li2V3(OF)4
_symmetry_space_group_name_H-M   'P 1'
_cell_length_a   5.00985321
_cell_length_b   3.05655052
_cell_length_c   9.78710364
_cell_angle_alpha   90.00000000
_cell_angle_beta   91.94320762
_cell_angle_gamma   90.00000000
_symmetry_Int_Tables_number   1
_chemical_formula_structural   Li2V3(OF)4
_chemical_formula_sum   'Li2 V3 O4 F4'
_cell_volume   149.78245489
_cell_formula_units_Z   1
loop_
 _symmetry_equiv_pos_site_id
 _symmetry_equiv_pos_as_xyz
  1  'x, y, z'
loop_
 _atom_site_type_symbol
 _atom_site_label
 _atom_site_symmetry_multiplicity
 _atom_site_fract_x
 _atom_site_fract_y
 _atom_site_fract_z
 _atom_site_occupancy
  Li  Li0  1  0.93565750  0.00000000  0.45917000  1
  Li  Li1  1  0.03221150  0.50000000  0.85854550  1
  V  V2  1  0.96977700  0.00000000  0.14265650  1
  V  V3  1  0.53134350  0.00000000  0.63090450  1
  V  V4  1  0.47065500  0.50000000  0.35432000  1
  O  O5  1  0.70881800  0.50000000  0.52393850  1
  O  O6  1  0.69065850  0.00000000  0.28720200  1
  O  O7  1  0.30720850  0.00000000  0.45926500  1
  O  O8  1  0.18570250  0.50000000  0.23175900  1
  F  F9  1  0.83025250  0.00000000  0.76109650  1
  F  F10  1  0.77119500  0.50000000  0.05127600  1
  F  F11  1  0.33602900  0.50000000  0.72142500  1
  F  F12  1  0.16757250  0.00000000  0.97656950  1
