# generated using pymatgen
data_Li4Ti2V3Co3O16
_symmetry_space_group_name_H-M   'P 1'
_cell_length_a   10.10213353
_cell_length_b   5.82939078
_cell_length_c   9.48247126
_cell_angle_alpha   90.00000000
_cell_angle_beta   90.20357912
_cell_angle_gamma   90.00000000
_symmetry_Int_Tables_number   1
_chemical_formula_structural   Li4Ti2V3Co3O16
_chemical_formula_sum   'Li8 Ti4 V6 Co6 O32'
_cell_volume   558.41241850
_cell_formula_units_Z   2
loop_
 _symmetry_equiv_pos_site_id
 _symmetry_equiv_pos_as_xyz
  1  'x, y, z'
loop_
 _atom_site_type_symbol
 _atom_site_label
 _atom_site_symmetry_multiplicity
 _atom_site_fract_x
 _atom_site_fract_y
 _atom_site_fract_z
 _atom_site_occupancy
  Li  Li0  1  0.83537350  0.50000000  0.90415300  1
  Li  Li1  1  0.99453650  0.00000000  0.99533000  1
  Li  Li2  1  0.99714100  0.00000000  0.49313300  1
  Li  Li3  1  0.66342100  0.00000000  0.38913600  1
  Li  Li4  1  0.33537350  0.00000000  0.90415300  1
  Li  Li5  1  0.49453650  0.50000000  0.99533000  1
  Li  Li6  1  0.49714100  0.50000000  0.49313300  1
  Li  Li7  1  0.16342100  0.50000000  0.38913600  1
  Ti  Ti8  1  0.84584600  0.50000000  0.49431900  1
  Ti  Ti9  1  0.66404300  0.00000000  0.00404900  1
  Ti  Ti10  1  0.34584600  0.00000000  0.49431900  1
  Ti  Ti11  1  0.16404300  0.50000000  0.00404900  1
  V  V12  1  0.67094200  0.50000000  0.22403500  1
  V  V13  1  0.59263700  0.24402000  0.72076900  1
  V  V14  1  0.59263700  0.75598000  0.72076900  1
  V  V15  1  0.17094200  0.00000000  0.22403500  1
  V  V16  1  0.09263700  0.74402000  0.72076900  1
  V  V17  1  0.09263700  0.25598000  0.72076900  1
  Co  Co18  1  0.91173050  0.74425450  0.21282100  1
  Co  Co19  1  0.91173050  0.25574550  0.21282100  1
  Co  Co20  1  0.82890700  0.00000000  0.70933200  1
  Co  Co21  1  0.41173050  0.24425450  0.21282100  1
  Co  Co22  1  0.41173050  0.75574550  0.21282100  1
  Co  Co23  1  0.32890700  0.50000000  0.70933200  1
  O  O24  1  0.92389750  0.74315150  0.59144300  1
  O  O25  1  0.97635100  0.50000000  0.33102400  1
  O  O26  1  0.83126000  0.50000000  0.10942900  1
  O  O27  1  0.99570800  0.00000000  0.30309400  1
  O  O28  1  0.50534950  0.50000000  0.80492900  1
  O  O29  1  0.92389750  0.25684850  0.59144300  1
  O  O30  1  0.75911500  0.72299300  0.33569500  1
  O  O31  1  0.75911500  0.27700700  0.33569500  1
  O  O32  1  0.82973750  0.00000000  0.09832800  1
  O  O33  1  0.67037400  0.50000000  0.59597900  1
  O  O34  1  0.73178650  0.22803650  0.84844100  1
  O  O35  1  0.73178650  0.77196350  0.84844100  1
  O  O36  1  0.65650050  0.00000000  0.59758300  1
  O  O37  1  0.57971350  0.25025850  0.10033400  1
  O  O38  1  0.51666350  0.00000000  0.83817100  1
  O  O39  1  0.57971350  0.74974150  0.10033400  1
  O  O40  1  0.42389750  0.24315150  0.59144300  1
  O  O41  1  0.47635100  0.00000000  0.33102400  1
  O  O42  1  0.33126000  0.00000000  0.10942900  1
  O  O43  1  0.49570800  0.50000000  0.30309400  1
  O  O44  1  0.00534950  0.00000000  0.80492900  1
  O  O45  1  0.42389750  0.75684850  0.59144300  1
  O  O46  1  0.25911500  0.22299300  0.33569500  1
  O  O47  1  0.25911500  0.77700700  0.33569500  1
  O  O48  1  0.32973750  0.50000000  0.09832800  1
  O  O49  1  0.17037400  0.00000000  0.59597900  1
  O  O50  1  0.23178650  0.72803650  0.84844100  1
  O  O51  1  0.23178650  0.27196350  0.84844100  1
  O  O52  1  0.15650050  0.50000000  0.59758300  1
  O  O53  1  0.07971350  0.75025850  0.10033400  1
  O  O54  1  0.01666350  0.50000000  0.83817100  1
  O  O55  1  0.07971350  0.24974150  0.10033400  1
