# generated using pymatgen
data_Li5V12O32
_symmetry_space_group_name_H-M   'P 1'
_cell_length_a   13.55200800
_cell_length_b   7.28022600
_cell_length_c   12.16220709
_cell_angle_alpha   90.00000000
_cell_angle_beta   107.89028304
_cell_angle_gamma   90.00000000
_symmetry_Int_Tables_number   1
_chemical_formula_structural   Li5V12O32
_chemical_formula_sum   'Li10 V24 O64'
_cell_volume   1141.92233255
_cell_formula_units_Z   2
loop_
 _symmetry_equiv_pos_site_id
 _symmetry_equiv_pos_as_xyz
  1  'x, y, z'
loop_
 _atom_site_type_symbol
 _atom_site_label
 _atom_site_symmetry_multiplicity
 _atom_site_fract_x
 _atom_site_fract_y
 _atom_site_fract_z
 _atom_site_occupancy
  Li  Li0  1  0.62455500  0.50000000  0.31600400  1
  Li  Li1  1  0.62537700  0.00000000  0.31563000  1
  Li  Li2  1  0.62455450  0.24787650  0.68384300  1
  Li  Li3  1  0.62455450  0.75212350  0.68384300  1
  Li  Li4  1  0.58720800  0.50000000  0.94835300  1
  Li  Li5  1  0.12455500  0.00000000  0.31600400  1
  Li  Li6  1  0.12537700  0.50000000  0.31563000  1
  Li  Li7  1  0.12455450  0.74787650  0.68384300  1
  Li  Li8  1  0.12455450  0.25212350  0.68384300  1
  Li  Li9  1  0.08720800  0.00000000  0.94835300  1
  V  V10  1  0.83734700  0.00000000  0.19336700  1
  V  V11  1  0.83977600  0.50000000  0.19635400  1
  V  V12  1  0.79637600  0.24979000  0.53675700  1
  V  V13  1  0.79637600  0.75021000  0.53675700  1
  V  V14  1  0.77672100  0.50000000  0.92060400  1
  V  V15  1  0.77232100  0.00000000  0.92038600  1
  V  V16  1  0.97770950  0.25056450  0.08051300  1
  V  V17  1  0.97770950  0.74943550  0.08051300  1
  V  V18  1  0.95354900  0.00000000  0.46250600  1
  V  V19  1  0.95337700  0.50000000  0.46330700  1
  V  V20  1  0.90918600  0.25019800  0.80320700  1
  V  V21  1  0.90918600  0.74980200  0.80320700  1
  V  V22  1  0.33734700  0.50000000  0.19336700  1
  V  V23  1  0.33977600  0.00000000  0.19635400  1
  V  V24  1  0.29637600  0.74979000  0.53675700  1
  V  V25  1  0.29637600  0.25021000  0.53675700  1
  V  V26  1  0.27672100  0.00000000  0.92060400  1
  V  V27  1  0.27232100  0.50000000  0.92038600  1
  V  V28  1  0.47770950  0.75056450  0.08051300  1
  V  V29  1  0.47770950  0.24943550  0.08051300  1
  V  V30  1  0.45354900  0.50000000  0.46250600  1
  V  V31  1  0.45337700  0.00000000  0.46330700  1
  V  V32  1  0.40918600  0.75019800  0.80320700  1
  V  V33  1  0.40918600  0.24980200  0.80320700  1
  O  O34  1  0.86925150  0.74950950  0.17378100  1
  O  O35  1  0.86925150  0.25049050  0.17378100  1
  O  O36  1  0.73369800  0.50000000  0.04532600  1
  O  O37  1  0.73407500  0.00000000  0.04740200  1
  O  O38  1  0.84068400  0.00000000  0.53963300  1
  O  O39  1  0.84095200  0.50000000  0.53977700  1
  O  O40  1  0.76430700  0.00000000  0.27904200  1
  O  O41  1  0.76358200  0.50000000  0.27783900  1
  O  O42  1  0.77499700  0.25077800  0.67276800  1
  O  O43  1  0.77499700  0.74922200  0.67276800  1
  O  O44  1  0.68193250  0.75005150  0.43762100  1
  O  O45  1  0.68193250  0.24994850  0.43762100  1
  O  O46  1  0.81559250  0.24960350  0.92830100  1
  O  O47  1  0.81559250  0.75039650  0.92830100  1
  O  O48  1  0.58518700  0.25101300  0.18992900  1
  O  O49  1  0.58518700  0.74898700  0.18992900  1
  O  O50  1  0.66275200  0.50000000  0.81750600  1
  O  O51  1  0.66496500  0.00000000  0.81070000  1
  O  O52  1  0.93519700  0.50000000  0.06945500  1
  O  O53  1  0.93610000  0.00000000  0.07208800  1
  O  O54  1  0.56788600  0.50000000  0.56211800  1
  O  O55  1  0.56801400  0.00000000  0.56204300  1
  O  O56  1  0.97422500  0.00000000  0.32670200  1
  O  O57  1  0.97378400  0.50000000  0.32647200  1
  O  O58  1  0.98588600  0.24916300  0.72147000  1
  O  O59  1  0.98588600  0.75083700  0.72147000  1
  O  O60  1  0.90901500  0.25024700  0.46019600  1
  O  O61  1  0.90901500  0.74975300  0.46019600  1
  O  O62  1  0.51771050  0.26027750  0.95385800  1
  O  O63  1  0.51771050  0.73972250  0.95385800  1
  O  O64  1  0.88145100  0.00000000  0.82527100  1
  O  O65  1  0.88177700  0.50000000  0.82745400  1
  O  O66  1  0.36925150  0.24950950  0.17378100  1
  O  O67  1  0.36925150  0.75049050  0.17378100  1
  O  O68  1  0.23369800  0.00000000  0.04532600  1
  O  O69  1  0.23407500  0.50000000  0.04740200  1
  O  O70  1  0.34068400  0.50000000  0.53963300  1
  O  O71  1  0.34095200  0.00000000  0.53977700  1
  O  O72  1  0.26430700  0.50000000  0.27904200  1
  O  O73  1  0.26358200  0.00000000  0.27783900  1
  O  O74  1  0.27499700  0.75077800  0.67276800  1
  O  O75  1  0.27499700  0.24922200  0.67276800  1
  O  O76  1  0.18193250  0.25005150  0.43762100  1
  O  O77  1  0.18193250  0.74994850  0.43762100  1
  O  O78  1  0.31559250  0.74960350  0.92830100  1
  O  O79  1  0.31559250  0.25039650  0.92830100  1
  O  O80  1  0.08518700  0.75101300  0.18992900  1
  O  O81  1  0.08518700  0.24898700  0.18992900  1
  O  O82  1  0.16275200  0.00000000  0.81750600  1
  O  O83  1  0.16496500  0.50000000  0.81070000  1
  O  O84  1  0.43519700  0.00000000  0.06945500  1
  O  O85  1  0.43610000  0.50000000  0.07208800  1
  O  O86  1  0.06788600  0.00000000  0.56211800  1
  O  O87  1  0.06801400  0.50000000  0.56204300  1
  O  O88  1  0.47422500  0.50000000  0.32670200  1
  O  O89  1  0.47378400  0.00000000  0.32647200  1
  O  O90  1  0.48588600  0.74916300  0.72147000  1
  O  O91  1  0.48588600  0.25083700  0.72147000  1
  O  O92  1  0.40901500  0.75024700  0.46019600  1
  O  O93  1  0.40901500  0.24975300  0.46019600  1
  O  O94  1  0.01771050  0.76027750  0.95385800  1
  O  O95  1  0.01771050  0.23972250  0.95385800  1
  O  O96  1  0.38145100  0.50000000  0.82527100  1
  O  O97  1  0.38177700  0.00000000  0.82745400  1
