# generated using pymatgen
data_Li2Cr3BiO8
_symmetry_space_group_name_H-M   'P 1'
_cell_length_a   6.04211353
_cell_length_b   6.04211353
_cell_length_c   15.50137872
_cell_angle_alpha   90.00000000
_cell_angle_beta   90.00000000
_cell_angle_gamma   120.00000000
_symmetry_Int_Tables_number   1
_chemical_formula_structural   Li2Cr3BiO8
_chemical_formula_sum   'Li6 Cr9 Bi3 O24'
_cell_volume   490.09324987
_cell_formula_units_Z   3
loop_
 _symmetry_equiv_pos_site_id
 _symmetry_equiv_pos_as_xyz
  1  'x, y, z'
loop_
 _atom_site_type_symbol
 _atom_site_label
 _atom_site_symmetry_multiplicity
 _atom_site_fract_x
 _atom_site_fract_y
 _atom_site_fract_z
 _atom_site_occupancy
  Li  Li0  1  0.33333333  0.66666667  0.53951433  1
  Li  Li1  1  0.66666667  0.33333333  0.46048567  1
  Li  Li2  1  0.00000000  0.00000000  0.87284767  1
  Li  Li3  1  0.33333333  0.66666667  0.79381900  1
  Li  Li4  1  0.66666667  0.33333333  0.20618100  1
  Li  Li5  1  0.00000000  0.00000000  0.12715233  1
  Cr  Cr6  1  0.16666667  0.83333333  0.33333333  1
  Cr  Cr7  1  0.83333333  0.66666667  0.66666667  1
  Cr  Cr8  1  0.33333333  0.16666667  0.66666667  1
  Cr  Cr9  1  0.83333333  0.16666667  0.66666667  1
  Cr  Cr10  1  0.50000000  0.00000000  0.00000000  1
  Cr  Cr11  1  0.00000000  0.50000000  0.00000000  1
  Cr  Cr12  1  0.50000000  0.50000000  0.00000000  1
  Cr  Cr13  1  0.16666667  0.33333333  0.33333333  1
  Cr  Cr14  1  0.66666667  0.83333333  0.33333333  1
  Bi  Bi15  1  0.00000000  0.00000000  0.50000000  1
  Bi  Bi16  1  0.66666667  0.33333333  0.83333333  1
  Bi  Bi17  1  0.33333333  0.66666667  0.16666667  1
  O  O18  1  0.66666667  0.33333333  0.59996467  1
  O  O19  1  0.33333333  0.66666667  0.40003533  1
  O  O20  1  0.15512925  0.31025850  0.59199700  1
  O  O21  1  0.15512925  0.84487075  0.59199700  1
  O  O22  1  0.68974150  0.84487075  0.59199700  1
  O  O23  1  0.31025850  0.15512925  0.40800300  1
  O  O24  1  0.84487075  0.15512925  0.40800300  1
  O  O25  1  0.84487075  0.68974150  0.40800300  1
  O  O26  1  0.33333333  0.66666667  0.93329800  1
  O  O27  1  0.00000000  0.00000000  0.73336867  1
  O  O28  1  0.82179592  0.64359183  0.92533033  1
  O  O29  1  0.82179592  0.17820408  0.92533033  1
  O  O30  1  0.35640817  0.17820408  0.92533033  1
  O  O31  1  0.97692517  0.48846258  0.74133633  1
  O  O32  1  0.51153742  0.48846258  0.74133633  1
  O  O33  1  0.51153742  0.02307483  0.74133633  1
  O  O34  1  0.00000000  0.00000000  0.26663133  1
  O  O35  1  0.66666667  0.33333333  0.06670200  1
  O  O36  1  0.48846258  0.97692517  0.25866367  1
  O  O37  1  0.48846258  0.51153742  0.25866367  1
  O  O38  1  0.02307483  0.51153742  0.25866367  1
  O  O39  1  0.64359183  0.82179592  0.07466967  1
  O  O40  1  0.17820408  0.82179592  0.07466967  1
  O  O41  1  0.17820408  0.35640817  0.07466967  1
