# generated using pymatgen
data_Co9Cu3O16
_symmetry_space_group_name_H-M   'P 1'
_cell_length_a   5.85860596
_cell_length_b   5.85860596
_cell_length_c   28.82353034
_cell_angle_alpha   90.00000000
_cell_angle_beta   90.00000000
_cell_angle_gamma   120.00000000
_symmetry_Int_Tables_number   1
_chemical_formula_structural   Co9Cu3O16
_chemical_formula_sum   'Co27 Cu9 O48'
_cell_volume   856.77420350
_cell_formula_units_Z   3
loop_
 _symmetry_equiv_pos_site_id
 _symmetry_equiv_pos_as_xyz
  1  'x, y, z'
loop_
 _atom_site_type_symbol
 _atom_site_label
 _atom_site_symmetry_multiplicity
 _atom_site_fract_x
 _atom_site_fract_y
 _atom_site_fract_z
 _atom_site_occupancy
  Co  Co0  1  0.99979433  0.49989717  0.43814367  1
  Co  Co1  1  0.66666667  0.33333333  0.33414333  1
  Co  Co2  1  0.50010283  0.00020567  0.43814367  1
  Co  Co3  1  0.50010283  0.49989717  0.43814367  1
  Co  Co4  1  0.33333333  0.66666667  0.54062800  1
  Co  Co5  1  0.66666667  0.33333333  0.52033267  1
  Co  Co6  1  0.33509633  0.16754817  0.60366267  1
  Co  Co7  1  0.83245183  0.16754817  0.60366267  1
  Co  Co8  1  0.83245183  0.66490367  0.60366267  1
  Co  Co9  1  0.66646100  0.83323050  0.77147700  1
  Co  Co10  1  0.33333333  0.66666667  0.66747667  1
  Co  Co11  1  0.16676950  0.33353900  0.77147700  1
  Co  Co12  1  0.16676950  0.83323050  0.77147700  1
  Co  Co13  1  0.00000000  0.00000000  0.87396133  1
  Co  Co14  1  0.33333333  0.66666667  0.85366600  1
  Co  Co15  1  0.00176300  0.50088150  0.93699600  1
  Co  Co16  1  0.49911850  0.50088150  0.93699600  1
  Co  Co17  1  0.49911850  0.99823700  0.93699600  1
  Co  Co18  1  0.33312767  0.16656383  0.10481033  1
  Co  Co19  1  0.00000000  0.00000000  0.00081000  1
  Co  Co20  1  0.83343617  0.66687233  0.10481033  1
  Co  Co21  1  0.83343617  0.16656383  0.10481033  1
  Co  Co22  1  0.66666667  0.33333333  0.20729467  1
  Co  Co23  1  0.00000000  0.00000000  0.18699933  1
  Co  Co24  1  0.66842967  0.83421483  0.27032933  1
  Co  Co25  1  0.16578517  0.83421483  0.27032933  1
  Co  Co26  1  0.16578517  0.33157033  0.27032933  1
  Cu  Cu27  1  0.00000000  0.00000000  0.37628500  1
  Cu  Cu28  1  0.33333333  0.66666667  0.35409533  1
  Cu  Cu29  1  0.00000000  0.00000000  0.49938600  1
  Cu  Cu30  1  0.66666667  0.33333333  0.70961833  1
  Cu  Cu31  1  0.00000000  0.00000000  0.68742867  1
  Cu  Cu32  1  0.66666667  0.33333333  0.83271933  1
  Cu  Cu33  1  0.33333333  0.66666667  0.04295167  1
  Cu  Cu34  1  0.66666667  0.33333333  0.02076200  1
  Cu  Cu35  1  0.33333333  0.66666667  0.16605267  1
  O  O36  1  0.17950233  0.35900467  0.40015167  1
  O  O37  1  0.17950233  0.82049767  0.40015167  1
  O  O38  1  0.64099533  0.82049767  0.40015167  1
  O  O39  1  0.33333333  0.66666667  0.47202400  1
  O  O40  1  0.36747000  0.18373500  0.47795000  1
  O  O41  1  0.66666667  0.33333333  0.40355633  1
  O  O42  1  0.81626500  0.63253000  0.47795000  1
  O  O43  1  0.81626500  0.18373500  0.47795000  1
  O  O44  1  0.51623000  0.03246000  0.56101000  1
  O  O45  1  0.51623000  0.48377000  0.56101000  1
  O  O46  1  0.96754000  0.48377000  0.56101000  1
  O  O47  1  0.66666667  0.33333333  0.64172333  1
  O  O48  1  0.68677233  0.84338617  0.64400467  1
  O  O49  1  0.00000000  0.00000000  0.56639200  1
  O  O50  1  0.15661383  0.84338617  0.64400467  1
  O  O51  1  0.15661383  0.31322767  0.64400467  1
  O  O52  1  0.84616900  0.69233800  0.73348500  1
  O  O53  1  0.84616900  0.15383100  0.73348500  1
  O  O54  1  0.30766200  0.15383100  0.73348500  1
  O  O55  1  0.00000000  0.00000000  0.80535733  1
  O  O56  1  0.03413667  0.51706833  0.81128333  1
  O  O57  1  0.33333333  0.66666667  0.73688967  1
  O  O58  1  0.48293167  0.96586333  0.81128333  1
  O  O59  1  0.48293167  0.51706833  0.81128333  1
  O  O60  1  0.18289667  0.36579333  0.89434333  1
  O  O61  1  0.18289667  0.81710333  0.89434333  1
  O  O62  1  0.63420667  0.81710333  0.89434333  1
  O  O63  1  0.33333333  0.66666667  0.97505667  1
  O  O64  1  0.35343900  0.17671950  0.97733800  1
  O  O65  1  0.66666667  0.33333333  0.89972533  1
  O  O66  1  0.82328050  0.17671950  0.97733800  1
  O  O67  1  0.82328050  0.64656100  0.97733800  1
  O  O68  1  0.51283567  0.02567133  0.06681833  1
  O  O69  1  0.51283567  0.48716433  0.06681833  1
  O  O70  1  0.97432867  0.48716433  0.06681833  1
  O  O71  1  0.66666667  0.33333333  0.13869067  1
  O  O72  1  0.70080333  0.85040167  0.14461667  1
  O  O73  1  0.00000000  0.00000000  0.07022300  1
  O  O74  1  0.14959833  0.29919667  0.14461667  1
  O  O75  1  0.14959833  0.85040167  0.14461667  1
  O  O76  1  0.84956333  0.69912667  0.22767667  1
  O  O77  1  0.84956333  0.15043667  0.22767667  1
  O  O78  1  0.30087333  0.15043667  0.22767667  1
  O  O79  1  0.00000000  0.00000000  0.30839000  1
  O  O80  1  0.02010567  0.51005283  0.31067133  1
  O  O81  1  0.33333333  0.66666667  0.23305867  1
  O  O82  1  0.48994717  0.51005283  0.31067133  1
  O  O83  1  0.48994717  0.97989433  0.31067133  1
