# generated using pymatgen
data_Li4Fe3CoO8
_symmetry_space_group_name_H-M   'P 1'
_cell_length_a   5.88609846
_cell_length_b   5.88609846
_cell_length_c   14.63319750
_cell_angle_alpha   90.00000000
_cell_angle_beta   90.00000000
_cell_angle_gamma   120.00000000
_symmetry_Int_Tables_number   1
_chemical_formula_structural   Li4Fe3CoO8
_chemical_formula_sum   'Li12 Fe9 Co3 O24'
_cell_volume   439.06104883
_cell_formula_units_Z   3
loop_
 _symmetry_equiv_pos_site_id
 _symmetry_equiv_pos_as_xyz
  1  'x, y, z'
loop_
 _atom_site_type_symbol
 _atom_site_label
 _atom_site_symmetry_multiplicity
 _atom_site_fract_x
 _atom_site_fract_y
 _atom_site_fract_z
 _atom_site_occupancy
  Li  Li0  1  0.33333333  0.66666667  0.16666667  1
  Li  Li1  1  0.83333333  0.66666667  0.16666667  1
  Li  Li2  1  0.83333333  0.16666667  0.16666667  1
  Li  Li3  1  0.33333333  0.16666667  0.16666667  1
  Li  Li4  1  1.00000000  1.00000000  0.50000000  1
  Li  Li5  1  0.50000000  0.00000000  0.50000000  1
  Li  Li6  1  0.50000000  0.50000000  0.50000000  1
  Li  Li7  1  0.00000000  0.50000000  0.50000000  1
  Li  Li8  1  0.66666667  0.33333333  0.83333333  1
  Li  Li9  1  0.16666667  0.33333333  0.83333333  1
  Li  Li10  1  0.16666667  0.83333333  0.83333333  1
  Li  Li11  1  0.66666667  0.83333333  0.83333333  1
  Fe  Fe12  1  0.50000000  0.00000000  0.00000000  1
  Fe  Fe13  1  0.16666667  0.83333333  0.33333333  1
  Fe  Fe14  1  0.00000000  0.50000000  0.00000000  1
  Fe  Fe15  1  0.16666667  0.33333333  0.33333333  1
  Fe  Fe16  1  0.83333333  0.16666667  0.66666667  1
  Fe  Fe17  1  0.66666667  0.83333333  0.33333333  1
  Fe  Fe18  1  0.83333333  0.66666667  0.66666667  1
  Fe  Fe19  1  0.50000000  0.50000000  0.00000000  1
  Fe  Fe20  1  0.33333333  0.16666667  0.66666667  1
  Co  Co21  1  0.00000000  0.00000000  0.00000000  1
  Co  Co22  1  0.66666667  0.33333333  0.33333333  1
  Co  Co23  1  0.33333333  0.66666667  0.66666667  1
  O  O24  1  0.00000000  0.00000000  0.25650300  1
  O  O25  1  0.50474117  0.00948233  0.25811433  1
  O  O26  1  0.50474117  0.49525883  0.25811433  1
  O  O27  1  0.66666667  0.33333333  0.07683033  1
  O  O28  1  0.99051767  0.49525883  0.25811433  1
  O  O29  1  0.16192550  0.32385100  0.07521900  1
  O  O30  1  0.16192550  0.83807450  0.07521900  1
  O  O31  1  0.67614900  0.83807450  0.07521900  1
  O  O32  1  0.66666667  0.33333333  0.58983633  1
  O  O33  1  0.17140783  0.34281567  0.59144767  1
  O  O34  1  0.17140783  0.82859217  0.59144767  1
  O  O35  1  0.33333333  0.66666667  0.41016367  1
  O  O36  1  0.65718433  0.82859217  0.59144767  1
  O  O37  1  0.82859217  0.65718433  0.40855233  1
  O  O38  1  0.82859217  0.17140783  0.40855233  1
  O  O39  1  0.34281567  0.17140783  0.40855233  1
  O  O40  1  0.33333333  0.66666667  0.92316967  1
  O  O41  1  0.83807450  0.67614900  0.92478100  1
  O  O42  1  0.83807450  0.16192550  0.92478100  1
  O  O43  1  0.00000000  0.00000000  0.74349700  1
  O  O44  1  0.32385100  0.16192550  0.92478100  1
  O  O45  1  0.49525883  0.99051767  0.74188567  1
  O  O46  1  0.49525883  0.50474117  0.74188567  1
  O  O47  1  0.00948233  0.50474117  0.74188567  1
