# generated using pymatgen
data_Li3VCr(P2O7)2
_symmetry_space_group_name_H-M   'P 1'
_cell_length_a   5.00172122
_cell_length_b   7.06029803
_cell_length_c   8.33329574
_cell_angle_alpha   90.49325194
_cell_angle_beta   90.41559265
_cell_angle_gamma   108.75607941
_symmetry_Int_Tables_number   1
_chemical_formula_structural   Li3VCr(P2O7)2
_chemical_formula_sum   'Li3 V1 Cr1 P4 O14'
_cell_volume   278.62570518
_cell_formula_units_Z   1
loop_
 _symmetry_equiv_pos_site_id
 _symmetry_equiv_pos_as_xyz
  1  'x, y, z'
loop_
 _atom_site_type_symbol
 _atom_site_label
 _atom_site_symmetry_multiplicity
 _atom_site_fract_x
 _atom_site_fract_y
 _atom_site_fract_z
 _atom_site_occupancy
  Li  Li0  1  0.82439500  0.34185700  0.14119900  1
  Li  Li1  1  0.27373700  0.09208800  0.33915700  1
  Li  Li2  1  0.17505300  0.66436900  0.64700000  1
  V  V3  1  0.79293700  0.27609200  0.50760000  1
  Cr  Cr4  1  0.21299300  0.72474400  0.99555600  1
  P  P5  1  0.60406900  0.48018800  0.82117100  1
  P  P6  1  0.78751800  0.90905700  0.20481600  1
  P  P7  1  0.21835000  0.08342200  0.71948100  1
  P  P8  1  0.39239100  0.52415500  0.31542400  1
  O  O9  1  0.96027500  0.14497300  0.69223300  1
  O  O10  1  0.86961000  0.10930100  0.29744700  1
  O  O11  1  0.81089600  0.52730000  0.96604900  1
  O  O12  1  0.75669400  0.50834900  0.66145100  1
  O  O13  1  0.55258700  0.37061800  0.30931200  1
  O  O14  1  0.37723300  0.07359500  0.56268300  1
  O  O15  1  0.43332600  0.24497500  0.84299600  1
  O  O16  1  0.62197100  0.74481600  0.33483800  1
  O  O17  1  0.59596000  0.90557200  0.06201900  1
  O  O18  1  0.38821200  0.59375600  0.82744800  1
  O  O19  1  0.23166400  0.51746900  0.15577900  1
  O  O20  1  0.20072200  0.50146100  0.45916800  1
  O  O21  1  0.15694700  0.88418700  0.80877100  1
  O  O22  1  0.06807600  0.87275100  0.16729500  1
