# generated using pymatgen
data_Li2Cr3FeO8
_symmetry_space_group_name_H-M   'P 1'
_cell_length_a   5.90949224
_cell_length_b   5.90949224
_cell_length_c   14.40372591
_cell_angle_alpha   90.00000000
_cell_angle_beta   90.00000000
_cell_angle_gamma   120.00000000
_symmetry_Int_Tables_number   1
_chemical_formula_structural   Li2Cr3FeO8
_chemical_formula_sum   'Li6 Cr9 Fe3 O24'
_cell_volume   435.61799662
_cell_formula_units_Z   3
loop_
 _symmetry_equiv_pos_site_id
 _symmetry_equiv_pos_as_xyz
  1  'x, y, z'
loop_
 _atom_site_type_symbol
 _atom_site_label
 _atom_site_symmetry_multiplicity
 _atom_site_fract_x
 _atom_site_fract_y
 _atom_site_fract_z
 _atom_site_occupancy
  Li  Li0  1  0.33333333  0.66666667  0.54222467  1
  Li  Li1  1  0.33333333  0.66666667  0.16642967  1
  Li  Li2  1  0.00000000  0.00000000  0.87555800  1
  Li  Li3  1  0.00000000  0.00000000  0.49976300  1
  Li  Li4  1  0.66666667  0.33333333  0.20889133  1
  Li  Li5  1  0.66666667  0.33333333  0.83309633  1
  Cr  Cr6  1  0.65755400  0.82877700  0.33122900  1
  Cr  Cr7  1  0.17122300  0.82877700  0.33122900  1
  Cr  Cr8  1  0.17122300  0.34244600  0.33122900  1
  Cr  Cr9  1  0.32422067  0.16211033  0.66456233  1
  Cr  Cr10  1  0.83788967  0.16211033  0.66456233  1
  Cr  Cr11  1  0.83788967  0.67577933  0.66456233  1
  Cr  Cr12  1  0.99088733  0.49544367  0.99789567  1
  Cr  Cr13  1  0.50455633  0.49544367  0.99789567  1
  Cr  Cr14  1  0.50455633  0.00911267  0.99789567  1
  Fe  Fe15  1  0.33333333  0.66666667  0.78607367  1
  Fe  Fe16  1  0.00000000  0.00000000  0.11940700  1
  Fe  Fe17  1  0.66666667  0.33333333  0.45274033  1
  O  O18  1  0.33333333  0.66666667  0.40600167  1
  O  O19  1  0.48840000  0.97680000  0.26303300  1
  O  O20  1  0.48840000  0.51160000  0.26303300  1
  O  O21  1  0.02320000  0.51160000  0.26303300  1
  O  O22  1  0.64812067  0.82406033  0.07575833  1
  O  O23  1  0.17593967  0.82406033  0.07575833  1
  O  O24  1  0.17593967  0.35187933  0.07575833  1
  O  O25  1  0.33333333  0.66666667  0.92254067  1
  O  O26  1  0.00000000  0.00000000  0.73933500  1
  O  O27  1  0.15506667  0.31013333  0.59636633  1
  O  O28  1  0.15506667  0.84493333  0.59636633  1
  O  O29  1  0.68986667  0.84493333  0.59636633  1
  O  O30  1  0.31478733  0.15739367  0.40909167  1
  O  O31  1  0.84260633  0.15739367  0.40909167  1
  O  O32  1  0.84260633  0.68521267  0.40909167  1
  O  O33  1  0.00000000  0.00000000  0.25587400  1
  O  O34  1  0.66666667  0.33333333  0.07266833  1
  O  O35  1  0.82173333  0.64346667  0.92969967  1
  O  O36  1  0.82173333  0.17826667  0.92969967  1
  O  O37  1  0.35653333  0.17826667  0.92969967  1
  O  O38  1  0.98145400  0.49072700  0.74242500  1
  O  O39  1  0.50927300  0.49072700  0.74242500  1
  O  O40  1  0.50927300  0.01854600  0.74242500  1
  O  O41  1  0.66666667  0.33333333  0.58920733  1
