# generated using pymatgen
data_VCoO4
_symmetry_space_group_name_H-M   'P 1'
_cell_length_a   5.68849000
_cell_length_b   5.83387200
_cell_length_c   7.81510800
_cell_angle_alpha   90.00000000
_cell_angle_beta   90.00000000
_cell_angle_gamma   90.00000000
_symmetry_Int_Tables_number   1
_chemical_formula_structural   VCoO4
_chemical_formula_sum   'V4 Co4 O16'
_cell_volume   259.35156868
_cell_formula_units_Z   4
loop_
 _symmetry_equiv_pos_site_id
 _symmetry_equiv_pos_as_xyz
  1  'x, y, z'
loop_
 _atom_site_type_symbol
 _atom_site_label
 _atom_site_symmetry_multiplicity
 _atom_site_fract_x
 _atom_site_fract_y
 _atom_site_fract_z
 _atom_site_occupancy
  V  V0  1  0.50000000  0.75000000  0.37578200  1
  V  V1  1  0.00000000  0.75000000  0.12421800  1
  V  V2  1  0.00000000  0.25000000  0.87578200  1
  V  V3  1  0.50000000  0.25000000  0.62421800  1
  Co  Co4  1  0.00000000  0.00000000  0.50000000  1
  Co  Co5  1  0.50000000  0.00000000  0.00000000  1
  Co  Co6  1  0.50000000  0.50000000  0.00000000  1
  Co  Co7  1  0.00000000  0.50000000  0.50000000  1
  O  O8  1  0.00000000  0.02075700  0.74381500  1
  O  O9  1  0.22488800  0.25000000  0.49914700  1
  O  O10  1  0.72488800  0.25000000  0.00085300  1
  O  O11  1  0.50000000  0.97924300  0.24381500  1
  O  O12  1  0.00000000  0.52075700  0.25618500  1
  O  O13  1  0.77511200  0.25000000  0.49914700  1
  O  O14  1  0.27511200  0.25000000  0.00085300  1
  O  O15  1  0.50000000  0.47924300  0.75618500  1
  O  O16  1  0.50000000  0.52075700  0.24381500  1
  O  O17  1  0.72488800  0.75000000  0.99914700  1
  O  O18  1  0.22488800  0.75000000  0.50085300  1
  O  O19  1  0.00000000  0.47924300  0.74381500  1
  O  O20  1  0.50000000  0.02075700  0.75618500  1
  O  O21  1  0.27511200  0.75000000  0.99914700  1
  O  O22  1  0.77511200  0.75000000  0.50085300  1
  O  O23  1  0.00000000  0.97924300  0.25618500  1
