# generated using pymatgen
data_Li7Ti12Fe5O32
_symmetry_space_group_name_H-M   'P 1'
_cell_length_a   12.06578811
_cell_length_b   12.06578811
_cell_length_c   14.74039767
_cell_angle_alpha   90.00000000
_cell_angle_beta   90.00000000
_cell_angle_gamma   120.00000000
_symmetry_Int_Tables_number   1
_chemical_formula_structural   Li7Ti12Fe5O32
_chemical_formula_sum   'Li21 Ti36 Fe15 O96'
_cell_volume   1858.45145291
_cell_formula_units_Z   3
loop_
 _symmetry_equiv_pos_site_id
 _symmetry_equiv_pos_as_xyz
  1  'x, y, z'
loop_
 _atom_site_type_symbol
 _atom_site_label
 _atom_site_symmetry_multiplicity
 _atom_site_fract_x
 _atom_site_fract_y
 _atom_site_fract_z
 _atom_site_occupancy
  Li  Li0  1  0.33169300  0.16752900  0.66591200  1
  Li  Li1  1  0.33340467  0.91654933  0.54186833  1
  Li  Li2  1  0.08345067  0.41685533  0.54186833  1
  Li  Li3  1  0.83583600  0.66830700  0.66591200  1
  Li  Li4  1  0.83247100  0.16416400  0.66591200  1
  Li  Li5  1  0.00000000  0.00000000  0.37600400  1
  Li  Li6  1  0.58314467  0.66659533  0.54186833  1
  Li  Li7  1  0.99835967  0.50086233  0.99924533  1
  Li  Li8  1  0.00007133  0.24988267  0.87520167  1
  Li  Li9  1  0.75011733  0.75018867  0.87520167  1
  Li  Li10  1  0.50250267  0.00164033  0.99924533  1
  Li  Li11  1  0.49913767  0.49749733  0.99924533  1
  Li  Li12  1  0.66666667  0.33333333  0.70933733  1
  Li  Li13  1  0.24981133  0.99992867  0.87520167  1
  Li  Li14  1  0.66502633  0.83419567  0.33257867  1
  Li  Li15  1  0.66673800  0.58321600  0.20853500  1
  Li  Li16  1  0.41678400  0.08352200  0.20853500  1
  Li  Li17  1  0.16916933  0.33497367  0.33257867  1
  Li  Li18  1  0.16580433  0.83083067  0.33257867  1
  Li  Li19  1  0.33333333  0.66666667  0.04267067  1
  Li  Li20  1  0.91647800  0.33326200  0.20853500  1
  Ti  Ti21  1  0.17170800  0.84101600  0.70553500  1
  Ti  Ti22  1  0.32865633  0.41644667  0.53948467  1
  Ti  Ti23  1  0.15898400  0.33069200  0.70553500  1
  Ti  Ti24  1  0.08779033  0.67134367  0.53948467  1
  Ti  Ti25  1  0.08866867  0.91752733  0.53890133  1
  Ti  Ti26  1  0.08247267  0.17114133  0.53890133  1
  Ti  Ti27  1  0.16772933  0.07924867  0.21548467  1
  Ti  Ti28  1  0.66930800  0.82829200  0.70553500  1
  Ti  Ti29  1  0.82885867  0.91133133  0.53890133  1
  Ti  Ti30  1  0.92075133  0.08848067  0.21548467  1
  Ti  Ti31  1  0.91151933  0.83227067  0.21548467  1
  Ti  Ti32  1  0.58355333  0.91220967  0.53948467  1
  Ti  Ti33  1  0.83837467  0.17434933  0.03886833  1
  Ti  Ti34  1  0.99532300  0.74978000  0.87281800  1
  Ti  Ti35  1  0.82565067  0.66402533  0.03886833  1
  Ti  Ti36  1  0.75445700  0.00467700  0.87281800  1
  Ti  Ti37  1  0.75533533  0.25086067  0.87223467  1
  Ti  Ti38  1  0.74913933  0.50447467  0.87223467  1
  Ti  Ti39  1  0.83439600  0.41258200  0.54881800  1
  Ti  Ti40  1  0.33597467  0.16162533  0.03886833  1
  Ti  Ti41  1  0.49552533  0.24466467  0.87223467  1
  Ti  Ti42  1  0.58741800  0.42181400  0.54881800  1
  Ti  Ti43  1  0.57818600  0.16560400  0.54881800  1
  Ti  Ti44  1  0.25022000  0.24554300  0.87281800  1
  Ti  Ti45  1  0.50504133  0.50768267  0.37220167  1
  Ti  Ti46  1  0.66198967  0.08311333  0.20615133  1
  Ti  Ti47  1  0.49231733  0.99735867  0.37220167  1
  Ti  Ti48  1  0.42112367  0.33801033  0.20615133  1
  Ti  Ti49  1  0.42200200  0.58419400  0.20556800  1
  Ti  Ti50  1  0.41580600  0.83780800  0.20556800  1
  Ti  Ti51  1  0.50106267  0.74591533  0.88215133  1
  Ti  Ti52  1  0.00264133  0.49495867  0.37220167  1
  Ti  Ti53  1  0.16219200  0.57799800  0.20556800  1
  Ti  Ti54  1  0.25408467  0.75514733  0.88215133  1
  Ti  Ti55  1  0.24485267  0.49893733  0.88215133  1
  Ti  Ti56  1  0.91688667  0.57887633  0.20615133  1
  Fe  Fe57  1  0.33374800  0.16673600  0.41753900  1
  Fe  Fe58  1  0.00000000  0.00000000  0.74921200  1
  Fe  Fe59  1  0.83298800  0.66625200  0.41753900  1
  Fe  Fe60  1  0.83326400  0.16701200  0.41753900  1
  Fe  Fe61  1  0.00000000  0.00000000  0.99991400  1
  Fe  Fe62  1  0.00041467  0.50006933  0.75087233  1
  Fe  Fe63  1  0.66666667  0.33333333  0.08254533  1
  Fe  Fe64  1  0.49965467  0.99958533  0.75087233  1
  Fe  Fe65  1  0.49993067  0.50034533  0.75087233  1
  Fe  Fe66  1  0.66666667  0.33333333  0.33324733  1
  Fe  Fe67  1  0.66708133  0.83340267  0.08420567  1
  Fe  Fe68  1  0.33333333  0.66666667  0.41587867  1
  Fe  Fe69  1  0.16632133  0.33291867  0.08420567  1
  Fe  Fe70  1  0.16659733  0.83367867  0.08420567  1
  Fe  Fe71  1  0.33333333  0.66666667  0.66658067  1
  O  O72  1  0.10143233  0.18355667  0.79208467  1
  O  O73  1  0.42519300  0.35094600  0.46251800  1
  O  O74  1  0.43391767  0.08180433  0.45799233  1
  O  O75  1  0.08212433  0.89856767  0.79208467  1
  O  O76  1  0.25069700  0.48174800  0.62570500  1
  O  O77  1  0.23252867  0.98140133  0.62713433  1
  O  O78  1  0.23990633  0.25871867  0.62038067  1
  O  O79  1  0.23105100  0.74930300  0.62570500  1
  O  O80  1  0.01859867  0.25112733  0.62713433  1
  O  O81  1  0.01881233  0.76009367  0.62038067  1
  O  O82  1  0.17054867  0.32324933  0.46996433  1
  O  O83  1  0.15270067  0.82945133  0.46996433  1
  O  O84  1  0.15519833  0.07485067  0.47090667  1
  O  O85  1  0.81644333  0.91787567  0.79208467  1
  O  O86  1  0.00000000  0.00000000  0.61178700  1
  O  O87  1  0.32542367  0.17244333  0.28073133  1
  O  O88  1  0.92514933  0.08034767  0.47090667  1
  O  O89  1  0.92575300  0.57480700  0.46251800  1
  O  O90  1  0.91965233  0.84480167  0.47090667  1
  O  O91  1  0.91819567  0.35211333  0.45799233  1
  O  O92  1  0.74887267  0.76747133  0.62713433  1
  O  O93  1  0.07917433  0.92361367  0.27877467  1
  O  O94  1  0.74128133  0.98118767  0.62038067  1
  O  O95  1  0.07638633  0.15556067  0.27877467  1
  O  O96  1  0.67675067  0.84729933  0.46996433  1
  O  O97  1  0.00000000  0.00000000  0.13835200  1
  O  O98  1  0.51825200  0.76894900  0.62570500  1
  O  O99  1  0.84443933  0.92082567  0.27877467  1
  O  O100  1  0.84701967  0.67457633  0.28073133  1
  O  O101  1  0.82755667  0.15298033  0.28073133  1
  O  O102  1  0.64905400  0.07424700  0.46251800  1
  O  O103  1  0.64788667  0.56608233  0.45799233  1
  O  O104  1  0.76809900  0.51689000  0.12541800  1
  O  O105  1  0.09185967  0.68427933  0.79585133  1
  O  O106  1  0.10058433  0.41513767  0.79132567  1
  O  O107  1  0.74879100  0.23190100  0.12541800  1
  O  O108  1  0.91736367  0.81508133  0.95903833  1
  O  O109  1  0.89919533  0.31473467  0.96046767  1
  O  O110  1  0.90657300  0.59205200  0.95371400  1
  O  O111  1  0.89771767  0.08263633  0.95903833  1
  O  O112  1  0.68526533  0.58446067  0.96046767  1
  O  O113  1  0.68547900  0.09342700  0.95371400  1
  O  O114  1  0.83721533  0.65658267  0.80329767  1
  O  O115  1  0.81936733  0.16278467  0.80329767  1
  O  O116  1  0.82186500  0.40818400  0.80424000  1
  O  O117  1  0.48311000  0.25120900  0.12541800  1
  O  O118  1  0.66666667  0.33333333  0.94512033  1
  O  O119  1  0.99209033  0.50577667  0.61406467  1
  O  O120  1  0.59181600  0.41368100  0.80424000  1
  O  O121  1  0.59241967  0.90814033  0.79585133  1
  O  O122  1  0.58631900  0.17813500  0.80424000  1
  O  O123  1  0.58486233  0.68544667  0.79132567  1
  O  O124  1  0.41553933  0.10080467  0.96046767  1
  O  O125  1  0.74584100  0.25694700  0.61210800  1
  O  O126  1  0.40794800  0.31452100  0.95371400  1
  O  O127  1  0.74305300  0.48889400  0.61210800  1
  O  O128  1  0.34341733  0.18063267  0.80329767  1
  O  O129  1  0.66666667  0.33333333  0.47168533  1
  O  O130  1  0.18491867  0.10228233  0.95903833  1
  O  O131  1  0.51110600  0.25415900  0.61210800  1
  O  O132  1  0.51368633  0.00790967  0.61406467  1
  O  O133  1  0.49422333  0.48631367  0.61406467  1
  O  O134  1  0.31572067  0.40758033  0.79585133  1
  O  O135  1  0.31455333  0.89941567  0.79132567  1
  O  O136  1  0.43476567  0.85022333  0.45875133  1
  O  O137  1  0.75852633  0.01761267  0.12918467  1
  O  O138  1  0.76725100  0.74847100  0.12465900  1
  O  O139  1  0.41545767  0.56523433  0.45875133  1
  O  O140  1  0.58403033  0.14841467  0.29237167  1
  O  O141  1  0.56586200  0.64806800  0.29380100  1
  O  O142  1  0.57323967  0.92538533  0.28704733  1
  O  O143  1  0.56438433  0.41596967  0.29237167  1
  O  O144  1  0.35193200  0.91779400  0.29380100  1
  O  O145  1  0.35214567  0.42676033  0.28704733  1
  O  O146  1  0.50388200  0.98991600  0.13663100  1
  O  O147  1  0.48603400  0.49611800  0.13663100  1
  O  O148  1  0.48853167  0.74151733  0.13757333  1
  O  O149  1  0.14977667  0.58454233  0.45875133  1
  O  O150  1  0.33333333  0.66666667  0.27845367  1
  O  O151  1  0.65875700  0.83911000  0.94739800  1
  O  O152  1  0.25848267  0.74701433  0.13757333  1
  O  O153  1  0.25908633  0.24147367  0.12918467  1
  O  O154  1  0.25298567  0.51146833  0.13757333  1
  O  O155  1  0.25152900  0.01878000  0.12465900  1
  O  O156  1  0.08220600  0.43413800  0.29380100  1
  O  O157  1  0.41250767  0.59028033  0.94544133  1
  O  O158  1  0.07461467  0.64785433  0.28704733  1
  O  O159  1  0.40971967  0.82222733  0.94544133  1
  O  O160  1  0.01008400  0.51396600  0.13663100  1
  O  O161  1  0.33333333  0.66666667  0.80501867  1
  O  O162  1  0.85158533  0.43561567  0.29237167  1
  O  O163  1  0.17777267  0.58749233  0.94544133  1
  O  O164  1  0.18035300  0.34124300  0.94739800  1
  O  O165  1  0.16089000  0.81964700  0.94739800  1
  O  O166  1  0.98238733  0.74091367  0.12918467  1
  O  O167  1  0.98122000  0.23274900  0.12465900  1
