# generated using pymatgen
data_Mn6PbO12
_symmetry_space_group_name_H-M   'P 1'
_cell_length_a   13.83176200
_cell_length_b   9.01371200
_cell_length_c   9.74888510
_cell_angle_alpha   90.00000000
_cell_angle_beta   133.64372139
_cell_angle_gamma   90.00000000
_symmetry_Int_Tables_number   1
_chemical_formula_structural   Mn6PbO12
_chemical_formula_sum   'Mn24 Pb4 O48'
_cell_volume   879.55287306
_cell_formula_units_Z   4
loop_
 _symmetry_equiv_pos_site_id
 _symmetry_equiv_pos_as_xyz
  1  'x, y, z'
loop_
 _atom_site_type_symbol
 _atom_site_label
 _atom_site_symmetry_multiplicity
 _atom_site_fract_x
 _atom_site_fract_y
 _atom_site_fract_z
 _atom_site_occupancy
  Mn  Mn0  1  0.66378600  0.66618000  0.81523500  1
  Mn  Mn1  1  0.14727450  0.66595050  0.47980900  1
  Mn  Mn2  1  0.14536900  0.00000000  0.47320900  1
  Mn  Mn3  1  0.35272550  0.83404950  0.52019100  1
  Mn  Mn4  1  0.83621400  0.83382000  0.18476500  1
  Mn  Mn5  1  0.33621400  0.66618000  0.18476500  1
  Mn  Mn6  1  0.66680200  0.00000000  0.81844900  1
  Mn  Mn7  1  0.16378600  0.83382000  0.81523500  1
  Mn  Mn8  1  0.14727450  0.33404950  0.47980900  1
  Mn  Mn9  1  0.35272550  0.16595050  0.52019100  1
  Mn  Mn10  1  0.35463100  0.50000000  0.52679100  1
  Mn  Mn11  1  0.83319800  0.50000000  0.18155100  1
  Mn  Mn12  1  0.16378600  0.16618000  0.81523500  1
  Mn  Mn13  1  0.64727450  0.16595050  0.47980900  1
  Mn  Mn14  1  0.64536900  0.50000000  0.47320900  1
  Mn  Mn15  1  0.85272550  0.33404950  0.52019100  1
  Mn  Mn16  1  0.33621400  0.33382000  0.18476500  1
  Mn  Mn17  1  0.83621400  0.16618000  0.18476500  1
  Mn  Mn18  1  0.16680200  0.50000000  0.81844900  1
  Mn  Mn19  1  0.66378600  0.33382000  0.81523500  1
  Mn  Mn20  1  0.64727450  0.83404950  0.47980900  1
  Mn  Mn21  1  0.85272550  0.66595050  0.52019100  1
  Mn  Mn22  1  0.85463100  0.00000000  0.52679100  1
  Mn  Mn23  1  0.33319800  0.00000000  0.18155100  1
  Pb  Pb24  1  0.00000000  0.72907700  0.00000000  1
  Pb  Pb25  1  0.00000000  0.27092300  0.00000000  1
  Pb  Pb26  1  0.50000000  0.22907700  0.00000000  1
  Pb  Pb27  1  0.50000000  0.77092300  0.00000000  1
  O  O28  1  0.29474700  0.00000000  0.94390300  1
  O  O29  1  0.15520600  0.82898900  0.34734900  1
  O  O30  1  0.65520600  0.67101100  0.34734900  1
  O  O31  1  0.65365300  0.66675200  0.60977800  1
  O  O32  1  0.15365300  0.83324800  0.60977800  1
  O  O33  1  0.45592000  0.50000000  0.27806800  1
  O  O34  1  0.95602350  0.33320850  0.27576900  1
  O  O35  1  0.95602350  0.66679150  0.27576900  1
  O  O36  1  0.34634700  0.66675200  0.39022200  1
  O  O37  1  0.34479400  0.67101100  0.65265100  1
  O  O38  1  0.29834600  0.67073000  0.94502800  1
  O  O39  1  0.79834600  0.82927000  0.94502800  1
  O  O40  1  0.20525300  0.50000000  0.05609700  1
  O  O41  1  0.20165400  0.82927000  0.05497200  1
  O  O42  1  0.16014700  0.50000000  0.35762800  1
  O  O43  1  0.15193900  0.50000000  0.60956200  1
  O  O44  1  0.54397650  0.16679150  0.72423100  1
  O  O45  1  0.54397650  0.83320850  0.72423100  1
  O  O46  1  0.04408000  0.00000000  0.72193200  1
  O  O47  1  0.34806100  0.00000000  0.39043800  1
  O  O48  1  0.84634700  0.83324800  0.39022200  1
  O  O49  1  0.33985300  0.00000000  0.64237200  1
  O  O50  1  0.84479400  0.82898900  0.65265100  1
  O  O51  1  0.70165400  0.67073000  0.05497200  1
  O  O52  1  0.79474700  0.50000000  0.94390300  1
  O  O53  1  0.65520600  0.32898900  0.34734900  1
  O  O54  1  0.15520600  0.17101100  0.34734900  1
  O  O55  1  0.15365300  0.16675200  0.60977800  1
  O  O56  1  0.65365300  0.33324800  0.60977800  1
  O  O57  1  0.95592000  0.00000000  0.27806800  1
  O  O58  1  0.45602350  0.83320850  0.27576900  1
  O  O59  1  0.45602350  0.16679150  0.27576900  1
  O  O60  1  0.84634700  0.16675200  0.39022200  1
  O  O61  1  0.84479400  0.17101100  0.65265100  1
  O  O62  1  0.79834600  0.17073000  0.94502800  1
  O  O63  1  0.29834600  0.32927000  0.94502800  1
  O  O64  1  0.70525300  0.00000000  0.05609700  1
  O  O65  1  0.70165400  0.32927000  0.05497200  1
  O  O66  1  0.66014700  0.00000000  0.35762800  1
  O  O67  1  0.65193900  0.00000000  0.60956200  1
  O  O68  1  0.04397650  0.66679150  0.72423100  1
  O  O69  1  0.04397650  0.33320850  0.72423100  1
  O  O70  1  0.54408000  0.50000000  0.72193200  1
  O  O71  1  0.84806100  0.50000000  0.39043800  1
  O  O72  1  0.34634700  0.33324800  0.39022200  1
  O  O73  1  0.83985300  0.50000000  0.64237200  1
  O  O74  1  0.34479400  0.32898900  0.65265100  1
  O  O75  1  0.20165400  0.17073000  0.05497200  1
