# generated using pymatgen
data_Na5Mn11O24
_symmetry_space_group_name_H-M   'P 1'
_cell_length_a   10.70416200
_cell_length_b   6.00285800
_cell_length_c   14.84363468
_cell_angle_alpha   90.00000000
_cell_angle_beta   93.22122437
_cell_angle_gamma   90.00000000
_symmetry_Int_Tables_number   1
_chemical_formula_structural   Na5Mn11O24
_chemical_formula_sum   'Na10 Mn22 O48'
_cell_volume   952.27916033
_cell_formula_units_Z   2
loop_
 _symmetry_equiv_pos_site_id
 _symmetry_equiv_pos_as_xyz
  1  'x, y, z'
loop_
 _atom_site_type_symbol
 _atom_site_label
 _atom_site_symmetry_multiplicity
 _atom_site_fract_x
 _atom_site_fract_y
 _atom_site_fract_z
 _atom_site_occupancy
  Na  Na0  1  0.84955300  0.50000000  0.30162700  1
  Na  Na1  1  0.50361900  0.50000000  0.37620000  1
  Na  Na2  1  0.99654600  0.00000000  0.62349900  1
  Na  Na3  1  0.64908900  0.00000000  0.69605500  1
  Na  Na4  1  0.67358700  0.00000000  0.95675600  1
  Na  Na5  1  0.34955300  0.00000000  0.30162700  1
  Na  Na6  1  0.00361900  0.00000000  0.37620000  1
  Na  Na7  1  0.49654600  0.50000000  0.62349900  1
  Na  Na8  1  0.14908900  0.50000000  0.69605500  1
  Na  Na9  1  0.17358700  0.50000000  0.95675600  1
  Mn  Mn10  1  0.83662000  0.00000000  0.16135300  1
  Mn  Mn11  1  0.99995200  0.00000000  0.00177800  1
  Mn  Mn12  1  0.58832100  0.75042300  0.16383500  1
  Mn  Mn13  1  0.58832100  0.24957700  0.16383500  1
  Mn  Mn14  1  0.68197300  0.00000000  0.33204500  1
  Mn  Mn15  1  0.81751100  0.50000000  0.66692000  1
  Mn  Mn16  1  0.75021050  0.25004150  0.49946700  1
  Mn  Mn17  1  0.75021050  0.74995850  0.49946700  1
  Mn  Mn18  1  0.91048750  0.74760050  0.83648300  1
  Mn  Mn19  1  0.91048750  0.25239950  0.83648300  1
  Mn  Mn20  1  0.66369900  0.50000000  0.83932700  1
  Mn  Mn21  1  0.33662000  0.50000000  0.16135300  1
  Mn  Mn22  1  0.49995200  0.50000000  0.00177800  1
  Mn  Mn23  1  0.08832100  0.25042300  0.16383500  1
  Mn  Mn24  1  0.08832100  0.74957700  0.16383500  1
  Mn  Mn25  1  0.18197300  0.50000000  0.33204500  1
  Mn  Mn26  1  0.31751100  0.00000000  0.66692000  1
  Mn  Mn27  1  0.25021050  0.75004150  0.49946700  1
  Mn  Mn28  1  0.25021050  0.24995850  0.49946700  1
  Mn  Mn29  1  0.41048750  0.24760050  0.83648300  1
  Mn  Mn30  1  0.41048750  0.75239950  0.83648300  1
  Mn  Mn31  1  0.16369900  0.00000000  0.83932700  1
  O  O32  1  0.93158600  0.78693000  0.08513700  1
  O  O33  1  0.93158600  0.21307000  0.08513700  1
  O  O34  1  0.64156300  0.50000000  0.08838000  1
  O  O35  1  0.50711800  0.50000000  0.22733600  1
  O  O36  1  0.81937200  0.00000000  0.42769400  1
  O  O37  1  0.82270900  0.50000000  0.44478900  1
  O  O38  1  0.66400000  0.00000000  0.09907800  1
  O  O39  1  0.53727600  0.00000000  0.23966000  1
  O  O40  1  0.74863650  0.21346750  0.23603800  1
  O  O41  1  0.87234050  0.72678250  0.59944700  1
  O  O42  1  0.87234050  0.27321750  0.59944700  1
  O  O43  1  0.74863650  0.78653250  0.23603800  1
  O  O44  1  0.75012000  0.71485300  0.76553000  1
  O  O45  1  0.75012000  0.28514700  0.76553000  1
  O  O46  1  0.62765200  0.22693800  0.40072400  1
  O  O47  1  0.62765200  0.77306200  0.40072400  1
  O  O48  1  0.96230600  0.50000000  0.76125100  1
  O  O49  1  0.83542000  0.50000000  0.90444300  1
  O  O50  1  0.67794400  0.00000000  0.55428300  1
  O  O51  1  0.99248900  0.00000000  0.77250000  1
  O  O52  1  0.68097600  0.50000000  0.57183700  1
  O  O53  1  0.86009000  0.00000000  0.91093900  1
  O  O54  1  0.56728250  0.71134550  0.91363200  1
  O  O55  1  0.56728250  0.28865450  0.91363200  1
  O  O56  1  0.43158600  0.28693000  0.08513700  1
  O  O57  1  0.43158600  0.71307000  0.08513700  1
  O  O58  1  0.14156300  0.00000000  0.08838000  1
  O  O59  1  0.00711800  0.00000000  0.22733600  1
  O  O60  1  0.31937200  0.50000000  0.42769400  1
  O  O61  1  0.32270900  0.00000000  0.44478900  1
  O  O62  1  0.16400000  0.50000000  0.09907800  1
  O  O63  1  0.03727600  0.50000000  0.23966000  1
  O  O64  1  0.24863650  0.71346750  0.23603800  1
  O  O65  1  0.37234050  0.22678250  0.59944700  1
  O  O66  1  0.37234050  0.77321750  0.59944700  1
  O  O67  1  0.24863650  0.28653250  0.23603800  1
  O  O68  1  0.25012000  0.21485300  0.76553000  1
  O  O69  1  0.25012000  0.78514700  0.76553000  1
  O  O70  1  0.12765200  0.72693800  0.40072400  1
  O  O71  1  0.12765200  0.27306200  0.40072400  1
  O  O72  1  0.46230600  0.00000000  0.76125100  1
  O  O73  1  0.33542000  0.00000000  0.90444300  1
  O  O74  1  0.17794400  0.50000000  0.55428300  1
  O  O75  1  0.49248900  0.50000000  0.77250000  1
  O  O76  1  0.18097600  0.00000000  0.57183700  1
  O  O77  1  0.36009000  0.50000000  0.91093900  1
  O  O78  1  0.06728250  0.21134550  0.91363200  1
  O  O79  1  0.06728250  0.78865450  0.91363200  1
