# generated using pymatgen
data_Li2TiFe2O5
_symmetry_space_group_name_H-M   'P 1'
_cell_length_a   5.13756558
_cell_length_b   15.11183995
_cell_length_c   5.12821101
_cell_angle_alpha   90.00000000
_cell_angle_beta   108.06438106
_cell_angle_gamma   90.00000000
_symmetry_Int_Tables_number   1
_chemical_formula_structural   Li2TiFe2O5
_chemical_formula_sum   'Li8 Ti4 Fe8 O20'
_cell_volume   378.51933811
_cell_formula_units_Z   4
loop_
 _symmetry_equiv_pos_site_id
 _symmetry_equiv_pos_as_xyz
  1  'x, y, z'
loop_
 _atom_site_type_symbol
 _atom_site_label
 _atom_site_symmetry_multiplicity
 _atom_site_fract_x
 _atom_site_fract_y
 _atom_site_fract_z
 _atom_site_occupancy
  Li  Li0  1  0.50000000  0.24930150  0.25000000  1
  Li  Li1  1  0.00000000  0.25069850  0.75000000  1
  Li  Li2  1  0.50000000  0.05262750  0.25000000  1
  Li  Li3  1  0.00000000  0.44737250  0.75000000  1
  Li  Li4  1  0.00000000  0.74930150  0.25000000  1
  Li  Li5  1  0.50000000  0.75069850  0.75000000  1
  Li  Li6  1  0.00000000  0.55262750  0.25000000  1
  Li  Li7  1  0.50000000  0.94737250  0.75000000  1
  Ti  Ti8  1  0.50000000  0.14675900  0.75000000  1
  Ti  Ti9  1  0.00000000  0.35324100  0.25000000  1
  Ti  Ti10  1  0.00000000  0.64675900  0.75000000  1
  Ti  Ti11  1  0.50000000  0.85324100  0.25000000  1
  Fe  Fe12  1  0.50000000  0.34665700  0.75000000  1
  Fe  Fe13  1  0.50000000  0.54656850  0.75000000  1
  Fe  Fe14  1  0.00000000  0.15334300  0.25000000  1
  Fe  Fe15  1  0.50000000  0.45343150  0.25000000  1
  Fe  Fe16  1  0.00000000  0.84665700  0.75000000  1
  Fe  Fe17  1  0.00000000  0.04656850  0.75000000  1
  Fe  Fe18  1  0.50000000  0.65334300  0.25000000  1
  Fe  Fe19  1  0.00000000  0.95343150  0.25000000  1
  O  O20  1  0.25000000  0.25000000  0.50000000  1
  O  O21  1  0.75000000  0.25000000  0.00000000  1
  O  O22  1  0.75354600  0.35271800  0.47811000  1
  O  O23  1  0.25354600  0.14728200  0.97811000  1
  O  O24  1  0.74645400  0.14728200  0.52189000  1
  O  O25  1  0.24645400  0.35271800  0.02189000  1
  O  O26  1  0.76739900  0.44208100  0.01407000  1
  O  O27  1  0.26739900  0.05791900  0.51407000  1
  O  O28  1  0.23260100  0.44208100  0.48593000  1
  O  O29  1  0.73260100  0.05791900  0.98593000  1
  O  O30  1  0.75000000  0.75000000  0.50000000  1
  O  O31  1  0.25000000  0.75000000  0.00000000  1
  O  O32  1  0.25354600  0.85271800  0.47811000  1
  O  O33  1  0.75354600  0.64728200  0.97811000  1
  O  O34  1  0.24645400  0.64728200  0.52189000  1
  O  O35  1  0.74645400  0.85271800  0.02189000  1
  O  O36  1  0.26739900  0.94208100  0.01407000  1
  O  O37  1  0.76739900  0.55791900  0.51407000  1
  O  O38  1  0.73260100  0.94208100  0.48593000  1
  O  O39  1  0.23260100  0.55791900  0.98593000  1
