# generated using pymatgen
data_LiVF3
_symmetry_space_group_name_H-M   'P 1'
_cell_length_a   12.21816200
_cell_length_b   7.69934600
_cell_length_c   5.86504533
_cell_angle_alpha   90.00000000
_cell_angle_beta   113.67336346
_cell_angle_gamma   90.00000000
_symmetry_Int_Tables_number   1
_chemical_formula_structural   LiVF3
_chemical_formula_sum   'Li8 V8 F24'
_cell_volume   505.30679024
_cell_formula_units_Z   8
loop_
 _symmetry_equiv_pos_site_id
 _symmetry_equiv_pos_as_xyz
  1  'x, y, z'
loop_
 _atom_site_type_symbol
 _atom_site_label
 _atom_site_symmetry_multiplicity
 _atom_site_fract_x
 _atom_site_fract_y
 _atom_site_fract_z
 _atom_site_occupancy
  Li  Li0  1  0.50000000  0.56851400  0.75000000  1
  Li  Li1  1  0.50000000  0.81484000  0.25000000  1
  Li  Li2  1  0.50000000  0.18516000  0.75000000  1
  Li  Li3  1  0.50000000  0.43148600  0.25000000  1
  Li  Li4  1  0.00000000  0.06851400  0.75000000  1
  Li  Li5  1  0.00000000  0.31484000  0.25000000  1
  Li  Li6  1  0.00000000  0.68516000  0.75000000  1
  Li  Li7  1  0.00000000  0.93148600  0.25000000  1
  V  V8  1  0.74982750  0.91293850  0.80746000  1
  V  V9  1  0.74982750  0.08706150  0.30746000  1
  V  V10  1  0.25017250  0.91293850  0.69254000  1
  V  V11  1  0.25017250  0.08706150  0.19254000  1
  V  V12  1  0.24982750  0.41293850  0.80746000  1
  V  V13  1  0.24982750  0.58706150  0.30746000  1
  V  V14  1  0.75017250  0.41293850  0.69254000  1
  V  V15  1  0.75017250  0.58706150  0.19254000  1
  F  F16  1  0.18173750  0.15459350  0.79295400  1
  F  F17  1  0.57061350  0.64575150  0.11585600  1
  F  F18  1  0.63361350  0.04625850  0.93259200  1
  F  F19  1  0.63361350  0.95374150  0.43259200  1
  F  F20  1  0.42938650  0.64575150  0.38414400  1
  F  F21  1  0.81826250  0.15459350  0.70704600  1
  F  F22  1  0.18173750  0.84540650  0.29295400  1
  F  F23  1  0.57061350  0.35424850  0.61585600  1
  F  F24  1  0.36638650  0.04625850  0.56740800  1
  F  F25  1  0.36638650  0.95374150  0.06740800  1
  F  F26  1  0.42938650  0.35424850  0.88414400  1
  F  F27  1  0.81826250  0.84540650  0.20704600  1
  F  F28  1  0.68173750  0.65459350  0.79295400  1
  F  F29  1  0.07061350  0.14575150  0.11585600  1
  F  F30  1  0.13361350  0.54625850  0.93259200  1
  F  F31  1  0.13361350  0.45374150  0.43259200  1
  F  F32  1  0.92938650  0.14575150  0.38414400  1
  F  F33  1  0.31826250  0.65459350  0.70704600  1
  F  F34  1  0.68173750  0.34540650  0.29295400  1
  F  F35  1  0.07061350  0.85424850  0.61585600  1
  F  F36  1  0.86638650  0.54625850  0.56740800  1
  F  F37  1  0.86638650  0.45374150  0.06740800  1
  F  F38  1  0.92938650  0.85424850  0.88414400  1
  F  F39  1  0.31826250  0.34540650  0.20704600  1
