# generated using pymatgen
data_Fe2OF3
_symmetry_space_group_name_H-M   'P 1'
_cell_length_a   6.79799800
_cell_length_b   7.01149600
_cell_length_c   6.16995100
_cell_angle_alpha   90.00000000
_cell_angle_beta   90.00000000
_cell_angle_gamma   90.00000000
_symmetry_Int_Tables_number   1
_chemical_formula_structural   Fe2OF3
_chemical_formula_sum   'Fe8 O4 F12'
_cell_volume   294.08538225
_cell_formula_units_Z   4
loop_
 _symmetry_equiv_pos_site_id
 _symmetry_equiv_pos_as_xyz
  1  'x, y, z'
loop_
 _atom_site_type_symbol
 _atom_site_label
 _atom_site_symmetry_multiplicity
 _atom_site_fract_x
 _atom_site_fract_y
 _atom_site_fract_z
 _atom_site_occupancy
  Fe  Fe0  1  0.96944900  0.00000000  0.75000000  1
  Fe  Fe1  1  0.03055100  0.00000000  0.25000000  1
  Fe  Fe2  1  0.50000000  0.00000000  0.00000000  1
  Fe  Fe3  1  0.50000000  0.00000000  0.50000000  1
  Fe  Fe4  1  0.46944900  0.50000000  0.75000000  1
  Fe  Fe5  1  0.53055100  0.50000000  0.25000000  1
  Fe  Fe6  1  0.00000000  0.50000000  0.00000000  1
  Fe  Fe7  1  0.00000000  0.50000000  0.50000000  1
  O  O8  1  0.33186300  0.00000000  0.25000000  1
  O  O9  1  0.66813700  0.00000000  0.75000000  1
  O  O10  1  0.83186300  0.50000000  0.25000000  1
  O  O11  1  0.16813700  0.50000000  0.75000000  1
  F  F12  1  0.50000000  0.29514500  0.00000000  1
  F  F13  1  0.50000000  0.29514500  0.50000000  1
  F  F14  1  0.29013400  0.00000000  0.75000000  1
  F  F15  1  0.70986600  0.00000000  0.25000000  1
  F  F16  1  0.50000000  0.70485500  0.50000000  1
  F  F17  1  0.50000000  0.70485500  0.00000000  1
  F  F18  1  0.00000000  0.79514500  0.00000000  1
  F  F19  1  0.00000000  0.79514500  0.50000000  1
  F  F20  1  0.79013400  0.50000000  0.75000000  1
  F  F21  1  0.20986600  0.50000000  0.25000000  1
  F  F22  1  0.00000000  0.20485500  0.50000000  1
  F  F23  1  0.00000000  0.20485500  0.00000000  1
