# generated using pymatgen
data_Li5V3Cu(PO4)4
_symmetry_space_group_name_H-M   'P 1'
_cell_length_a   9.76055400
_cell_length_b   12.21160200
_cell_length_c   10.61839428
_cell_angle_alpha   90.00000000
_cell_angle_beta   90.25147666
_cell_angle_gamma   90.00000000
_symmetry_Int_Tables_number   1
_chemical_formula_structural   Li5V3Cu(PO4)4
_chemical_formula_sum   'Li20 V12 Cu4 P16 O64'
_cell_volume   1265.61546800
_cell_formula_units_Z   4
loop_
 _symmetry_equiv_pos_site_id
 _symmetry_equiv_pos_as_xyz
  1  'x, y, z'
loop_
 _atom_site_type_symbol
 _atom_site_label
 _atom_site_symmetry_multiplicity
 _atom_site_fract_x
 _atom_site_fract_y
 _atom_site_fract_z
 _atom_site_occupancy
  Li  Li0  1  0.82967800  0.13047100  0.86159700  1
  Li  Li1  1  0.60540950  0.13413050  0.50701400  1
  Li  Li2  1  0.60540950  0.86586950  0.50701400  1
  Li  Li3  1  0.36936200  0.87559900  0.99545800  1
  Li  Li4  1  0.36936200  0.12440100  0.99545800  1
  Li  Li5  1  0.82967800  0.86952900  0.86159700  1
  Li  Li6  1  0.83432500  0.00000000  0.07578400  1
  Li  Li7  1  0.14925150  0.12604150  0.46136600  1
  Li  Li8  1  0.14925150  0.87395850  0.46136600  1
  Li  Li9  1  0.11863700  0.00000000  0.67430200  1
  Li  Li10  1  0.32967800  0.63047100  0.86159700  1
  Li  Li11  1  0.10540950  0.63413050  0.50701400  1
  Li  Li12  1  0.10540950  0.36586950  0.50701400  1
  Li  Li13  1  0.86936200  0.37559900  0.99545800  1
  Li  Li14  1  0.86936200  0.62440100  0.99545800  1
  Li  Li15  1  0.32967800  0.36952900  0.86159700  1
  Li  Li16  1  0.33432500  0.50000000  0.07578400  1
  Li  Li17  1  0.64925150  0.62604150  0.46136600  1
  Li  Li18  1  0.64925150  0.37395850  0.46136600  1
  Li  Li19  1  0.61863700  0.50000000  0.67430200  1
  V  V20  1  0.63211900  0.00000000  0.22785900  1
  V  V21  1  0.39164900  0.74677800  0.26711300  1
  V  V22  1  0.39164900  0.25322200  0.26711300  1
  V  V23  1  0.14891400  0.00000000  0.21202700  1
  V  V24  1  0.60571250  0.25117550  0.77697500  1
  V  V25  1  0.60571250  0.74882450  0.77697500  1
  V  V26  1  0.13211900  0.50000000  0.22785900  1
  V  V27  1  0.89164900  0.24677800  0.26711300  1
  V  V28  1  0.89164900  0.75322200  0.26711300  1
  V  V29  1  0.64891400  0.50000000  0.21202700  1
  V  V30  1  0.10571250  0.75117550  0.77697500  1
  V  V31  1  0.10571250  0.24882450  0.77697500  1
  Cu  Cu32  1  0.80075200  0.00000000  0.64578000  1
  Cu  Cu33  1  0.38092700  0.00000000  0.71729200  1
  Cu  Cu34  1  0.30075200  0.50000000  0.64578000  1
  Cu  Cu35  1  0.88092700  0.50000000  0.71729200  1
  P  P36  1  0.67559700  0.24133600  0.08864900  1
  P  P37  1  0.57226400  0.00000000  0.91681100  1
  P  P38  1  0.42573000  0.00000000  0.40371900  1
  P  P39  1  0.93588600  0.00000000  0.39504800  1
  P  P40  1  0.32408650  0.24454650  0.59230900  1
  P  P41  1  0.32408650  0.75545350  0.59230900  1
  P  P42  1  0.67559700  0.75866400  0.08864900  1
  P  P43  1  0.08094200  0.00000000  0.91474100  1
  P  P44  1  0.17559700  0.74133600  0.08864900  1
  P  P45  1  0.07226400  0.50000000  0.91681100  1
  P  P46  1  0.92573000  0.50000000  0.40371900  1
  P  P47  1  0.43588600  0.50000000  0.39504800  1
  P  P48  1  0.82408650  0.74454650  0.59230900  1
  P  P49  1  0.82408650  0.25545350  0.59230900  1
  P  P50  1  0.17559700  0.25866400  0.08864900  1
  P  P51  1  0.58094200  0.50000000  0.91474100  1
  O  O52  1  0.73167700  0.00000000  0.91596700  1
  O  O53  1  0.76323000  0.15481500  0.67099900  1
  O  O54  1  0.74696650  0.13995550  0.15650200  1
  O  O55  1  0.72763900  0.24612000  0.94988700  1
  O  O56  1  0.51314900  0.00000000  0.05275700  1
  O  O57  1  0.51307300  0.10328500  0.84861200  1
  O  O58  1  0.52048950  0.40051950  0.83854400  1
  O  O59  1  0.51307300  0.89671500  0.84861200  1
  O  O60  1  0.52030150  0.23928150  0.10025800  1
  O  O61  1  0.49103850  0.89722850  0.33716400  1
  O  O62  1  0.49103850  0.10277150  0.33716400  1
  O  O63  1  0.50296300  0.39852400  0.32610200  1
  O  O64  1  0.48041500  0.24033100  0.60394900  1
  O  O65  1  0.48041500  0.75966900  0.60394900  1
  O  O66  1  0.48113700  0.00000000  0.53973000  1
  O  O67  1  0.99736800  0.00000000  0.53021600  1
  O  O68  1  0.27442300  0.74322100  0.45349400  1
  O  O69  1  0.27442300  0.25677900  0.45349400  1
  O  O70  1  0.77925800  0.00000000  0.39048400  1
  O  O71  1  0.26771000  0.00000000  0.39219100  1
  O  O72  1  0.23835500  0.00000000  0.91438000  1
  O  O73  1  0.24494400  0.14442200  0.64990000  1
  O  O74  1  0.76323000  0.84518500  0.67099900  1
  O  O75  1  0.24494400  0.85557800  0.64990000  1
  O  O76  1  0.24363250  0.15684650  0.15740500  1
  O  O77  1  0.74696650  0.86004450  0.15650200  1
  O  O78  1  0.24363250  0.84315350  0.15740500  1
  O  O79  1  0.72763900  0.75388000  0.94988700  1
  O  O80  1  0.02226100  0.00000000  0.04968100  1
  O  O81  1  0.52048950  0.59948050  0.83854400  1
  O  O82  1  0.52030150  0.76071850  0.10025800  1
  O  O83  1  0.50296300  0.60147600  0.32610200  1
  O  O84  1  0.23167700  0.50000000  0.91596700  1
  O  O85  1  0.26323000  0.65481500  0.67099900  1
  O  O86  1  0.24696650  0.63995550  0.15650200  1
  O  O87  1  0.22763900  0.74612000  0.94988700  1
  O  O88  1  0.01314900  0.50000000  0.05275700  1
  O  O89  1  0.01307300  0.60328500  0.84861200  1
  O  O90  1  0.02048950  0.90051950  0.83854400  1
  O  O91  1  0.01307300  0.39671500  0.84861200  1
  O  O92  1  0.02030150  0.73928150  0.10025800  1
  O  O93  1  0.99103850  0.39722850  0.33716400  1
  O  O94  1  0.99103850  0.60277150  0.33716400  1
  O  O95  1  0.00296300  0.89852400  0.32610200  1
  O  O96  1  0.98041500  0.74033100  0.60394900  1
  O  O97  1  0.98041500  0.25966900  0.60394900  1
  O  O98  1  0.98113700  0.50000000  0.53973000  1
  O  O99  1  0.49736800  0.50000000  0.53021600  1
  O  O100  1  0.77442300  0.24322100  0.45349400  1
  O  O101  1  0.77442300  0.75677900  0.45349400  1
  O  O102  1  0.27925800  0.50000000  0.39048400  1
  O  O103  1  0.76771000  0.50000000  0.39219100  1
  O  O104  1  0.73835500  0.50000000  0.91438000  1
  O  O105  1  0.74494400  0.64442200  0.64990000  1
  O  O106  1  0.26323000  0.34518500  0.67099900  1
  O  O107  1  0.74494400  0.35557800  0.64990000  1
  O  O108  1  0.74363250  0.65684650  0.15740500  1
  O  O109  1  0.24696650  0.36004450  0.15650200  1
  O  O110  1  0.74363250  0.34315350  0.15740500  1
  O  O111  1  0.22763900  0.25388000  0.94988700  1
  O  O112  1  0.52226100  0.50000000  0.04968100  1
  O  O113  1  0.02048950  0.09948050  0.83854400  1
  O  O114  1  0.02030150  0.26071850  0.10025800  1
  O  O115  1  0.00296300  0.10147600  0.32610200  1
