# generated using pymatgen
data_LiNiF3
_symmetry_space_group_name_H-M   'P 1'
_cell_length_a   5.14273786
_cell_length_b   5.14273786
_cell_length_c   14.01306951
_cell_angle_alpha   90.00000000
_cell_angle_beta   90.00000000
_cell_angle_gamma   120.00000000
_symmetry_Int_Tables_number   1
_chemical_formula_structural   LiNiF3
_chemical_formula_sum   'Li6 Ni6 F18'
_cell_volume   320.96130935
_cell_formula_units_Z   6
loop_
 _symmetry_equiv_pos_site_id
 _symmetry_equiv_pos_as_xyz
  1  'x, y, z'
loop_
 _atom_site_type_symbol
 _atom_site_label
 _atom_site_symmetry_multiplicity
 _atom_site_fract_x
 _atom_site_fract_y
 _atom_site_fract_z
 _atom_site_occupancy
  Li  Li0  1  0.66666667  0.33333333  0.03591733  1
  Li  Li1  1  0.00000000  0.00000000  0.29741600  1
  Li  Li2  1  0.33333333  0.66666667  0.36925067  1
  Li  Li3  1  0.66666667  0.33333333  0.63074933  1
  Li  Li4  1  0.00000000  0.00000000  0.70258400  1
  Li  Li5  1  0.33333333  0.66666667  0.96408267  1
  Ni  Ni6  1  0.00000000  0.00000000  0.00000000  1
  Ni  Ni7  1  0.33333333  0.66666667  0.16666667  1
  Ni  Ni8  1  0.66666667  0.33333333  0.33333333  1
  Ni  Ni9  1  1.00000000  0.00000000  0.50000000  1
  Ni  Ni10  1  0.33333333  0.66666667  0.66666667  1
  Ni  Ni11  1  0.66666667  0.33333333  0.83333333  1
  F  F12  1  0.65174467  0.68274733  0.07729333  1
  F  F13  1  0.03100267  0.34825533  0.07729333  1
  F  F14  1  0.31725267  0.96899733  0.07729333  1
  F  F15  1  0.34941400  0.36433600  0.25604000  1
  F  F16  1  0.63566400  0.98507800  0.25604000  1
  F  F17  1  0.01492200  0.65058600  0.25604000  1
  F  F18  1  0.31841133  0.01608067  0.41062667  1
  F  F19  1  0.69766933  0.68158867  0.41062667  1
  F  F20  1  0.98391933  0.30233067  0.41062667  1
  F  F21  1  0.01608067  0.69766933  0.58937333  1
  F  F22  1  0.30233067  0.31841133  0.58937333  1
  F  F23  1  0.68158867  0.98391933  0.58937333  1
  F  F24  1  0.98507800  0.34941400  0.74396000  1
  F  F25  1  0.36433600  0.01492200  0.74396000  1
  F  F26  1  0.65058600  0.63566400  0.74396000  1
  F  F27  1  0.68274733  0.03100267  0.92270667  1
  F  F28  1  0.96899733  0.65174467  0.92270667  1
  F  F29  1  0.34825533  0.31725267  0.92270667  1
