# generated using pymatgen
data_Li5Mn7O12
_symmetry_space_group_name_H-M   'P 1'
_cell_length_a   5.22485400
_cell_length_b   9.09827600
_cell_length_c   9.97329832
_cell_angle_alpha   90.00000000
_cell_angle_beta   100.18062735
_cell_angle_gamma   90.00000000
_symmetry_Int_Tables_number   1
_chemical_formula_structural   Li5Mn7O12
_chemical_formula_sum   'Li10 Mn14 O24'
_cell_volume   466.63777703
_cell_formula_units_Z   2
loop_
 _symmetry_equiv_pos_site_id
 _symmetry_equiv_pos_as_xyz
  1  'x, y, z'
loop_
 _atom_site_type_symbol
 _atom_site_label
 _atom_site_symmetry_multiplicity
 _atom_site_fract_x
 _atom_site_fract_y
 _atom_site_fract_z
 _atom_site_occupancy
  Li  Li0  1  0.75299300  0.91110700  0.24699100  1
  Li  Li1  1  0.25581350  0.58787950  0.75482000  1
  Li  Li2  1  0.24700700  0.91110700  0.75300900  1
  Li  Li3  1  0.74418650  0.58787950  0.24518000  1
  Li  Li4  1  0.00000000  0.91545600  0.00000000  1
  Li  Li5  1  0.25299300  0.41110700  0.24699100  1
  Li  Li6  1  0.75581350  0.08787950  0.75482000  1
  Li  Li7  1  0.74700700  0.41110700  0.75300900  1
  Li  Li8  1  0.24418650  0.08787950  0.24518000  1
  Li  Li9  1  0.50000000  0.41545600  0.00000000  1
  Mn  Mn10  1  0.50000000  0.57870200  0.50000000  1
  Mn  Mn11  1  0.75527450  0.75353950  0.75582800  1
  Mn  Mn12  1  0.50000000  0.74928800  0.00000000  1
  Mn  Mn13  1  0.24472550  0.75353950  0.24417200  1
  Mn  Mn14  1  0.50000000  0.92141300  0.50000000  1
  Mn  Mn15  1  0.00000000  0.57758700  0.00000000  1
  Mn  Mn16  1  0.00000000  0.74994000  0.50000000  1
  Mn  Mn17  1  0.00000000  0.07870200  0.50000000  1
  Mn  Mn18  1  0.25527450  0.25353950  0.75582800  1
  Mn  Mn19  1  0.00000000  0.24928800  0.00000000  1
  Mn  Mn20  1  0.74472550  0.25353950  0.24417200  1
  Mn  Mn21  1  0.00000000  0.42141300  0.50000000  1
  Mn  Mn22  1  0.50000000  0.07758700  0.00000000  1
  Mn  Mn23  1  0.50000000  0.24994000  0.50000000  1
  O  O24  1  0.62129300  0.60351200  0.88066600  1
  O  O25  1  0.37870700  0.60351200  0.11933400  1
  O  O26  1  0.64065450  0.75099350  0.38245500  1
  O  O27  1  0.35934550  0.75099350  0.61754500  1
  O  O28  1  0.61190050  0.90584950  0.88463900  1
  O  O29  1  0.38809950  0.90584950  0.11536100  1
  O  O30  1  0.13664050  0.58782550  0.37493700  1
  O  O31  1  0.86335950  0.58782550  0.62506300  1
  O  O32  1  0.12997100  0.74237900  0.88142600  1
  O  O33  1  0.87002900  0.74237900  0.11857400  1
  O  O34  1  0.12910350  0.91072150  0.36937300  1
  O  O35  1  0.87089650  0.91072150  0.63062700  1
  O  O36  1  0.12129300  0.10351200  0.88066600  1
  O  O37  1  0.87870700  0.10351200  0.11933400  1
  O  O38  1  0.14065450  0.25099350  0.38245500  1
  O  O39  1  0.85934550  0.25099350  0.61754500  1
  O  O40  1  0.11190050  0.40584950  0.88463900  1
  O  O41  1  0.88809950  0.40584950  0.11536100  1
  O  O42  1  0.63664050  0.08782550  0.37493700  1
  O  O43  1  0.36335950  0.08782550  0.62506300  1
  O  O44  1  0.62997100  0.24237900  0.88142600  1
  O  O45  1  0.37002900  0.24237900  0.11857400  1
  O  O46  1  0.62910350  0.41072150  0.36937300  1
  O  O47  1  0.37089650  0.41072150  0.63062700  1
