# generated using pymatgen
data_V5O12
_symmetry_space_group_name_H-M   'P 1'
_cell_length_a   10.14981754
_cell_length_b   8.93734667
_cell_length_c   6.01335488
_cell_angle_alpha   90.00000000
_cell_angle_beta   110.71367043
_cell_angle_gamma   90.00000000
_symmetry_Int_Tables_number   1
_chemical_formula_structural   V5O12
_chemical_formula_sum   'V10 O24'
_cell_volume   510.22567975
_cell_formula_units_Z   2
loop_
 _symmetry_equiv_pos_site_id
 _symmetry_equiv_pos_as_xyz
  1  'x, y, z'
loop_
 _atom_site_type_symbol
 _atom_site_label
 _atom_site_symmetry_multiplicity
 _atom_site_fract_x
 _atom_site_fract_y
 _atom_site_fract_z
 _atom_site_occupancy
  V  V0  1  0.00000000  0.08046000  0.50000000  1
  V  V1  1  0.21234650  0.58871800  0.00787000  1
  V  V2  1  0.78765350  0.58871800  0.99213000  1
  V  V3  1  0.19959050  0.41241750  0.48407800  1
  V  V4  1  0.80040950  0.41241750  0.51592200  1
  V  V5  1  0.50000000  0.58046000  0.50000000  1
  V  V6  1  0.71234650  0.08871800  0.00787000  1
  V  V7  1  0.28765350  0.08871800  0.99213000  1
  V  V8  1  0.69959050  0.91241750  0.48407800  1
  V  V9  1  0.30040950  0.91241750  0.51592200  1
  O  O10  1  0.39533650  0.58265300  0.17557400  1
  O  O11  1  0.60466350  0.58265300  0.82442600  1
  O  O12  1  0.16847800  0.76364250  0.97680100  1
  O  O13  1  0.83152200  0.76364250  0.02319900  1
  O  O14  1  0.37641125  0.41538375  0.54933350  1
  O  O15  1  0.62358875  0.41538375  0.45066650  1
  O  O16  1  0.12963925  0.50494775  0.20154950  1
  O  O17  1  0.87036075  0.50494775  0.79845050  1
  O  O18  1  0.15825600  0.50913100  0.71035400  1
  O  O19  1  0.84174400  0.50913100  0.28964600  1
  O  O20  1  0.13356600  0.23383150  0.45646000  1
  O  O21  1  0.86643400  0.23383150  0.54354000  1
  O  O22  1  0.89533650  0.08265300  0.17557400  1
  O  O23  1  0.10466350  0.08265300  0.82442600  1
  O  O24  1  0.66847800  0.26364250  0.97680100  1
  O  O25  1  0.33152200  0.26364250  0.02319900  1
  O  O26  1  0.87641125  0.91538375  0.54933350  1
  O  O27  1  0.12358875  0.91538375  0.45066650  1
  O  O28  1  0.62963925  0.00494775  0.20154950  1
  O  O29  1  0.37036075  0.00494775  0.79845050  1
  O  O30  1  0.65825600  0.00913100  0.71035400  1
  O  O31  1  0.34174400  0.00913100  0.28964600  1
  O  O32  1  0.63356600  0.73383150  0.45646000  1
  O  O33  1  0.36643400  0.73383150  0.54354000  1
