# generated using pymatgen
data_Na6Fe2B4AsO16
_symmetry_space_group_name_H-M   'P 1'
_cell_length_a   14.23287200
_cell_length_b   14.23287200
_cell_length_c   14.23287200
_cell_angle_alpha   90.00000000
_cell_angle_beta   90.00000000
_cell_angle_gamma   90.00000000
_symmetry_Int_Tables_number   1
_chemical_formula_structural   Na6Fe2B4AsO16
_chemical_formula_sum   'Na48 Fe16 B32 As8 O128'
_cell_volume   2883.21899797
_cell_formula_units_Z   8
loop_
 _symmetry_equiv_pos_site_id
 _symmetry_equiv_pos_as_xyz
  1  'x, y, z'
loop_
 _atom_site_type_symbol
 _atom_site_label
 _atom_site_symmetry_multiplicity
 _atom_site_fract_x
 _atom_site_fract_y
 _atom_site_fract_z
 _atom_site_occupancy
  Na  Na0  1  0.25000000  0.96509500  0.75000000  1
  Na  Na1  1  0.78490500  0.00000000  0.00000000  1
  Na  Na2  1  0.25000000  0.75000000  0.96509500  1
  Na  Na3  1  0.25000000  0.75000000  0.53490500  1
  Na  Na4  1  0.00000000  0.21509500  0.00000000  1
  Na  Na5  1  0.21509500  0.00000000  0.00000000  1
  Na  Na6  1  0.03490500  0.75000000  0.75000000  1
  Na  Na7  1  0.75000000  0.03490500  0.75000000  1
  Na  Na8  1  0.00000000  0.00000000  0.78490500  1
  Na  Na9  1  0.00000000  0.00000000  0.21509500  1
  Na  Na10  1  0.46509500  0.75000000  0.75000000  1
  Na  Na11  1  0.00000000  0.78490500  0.00000000  1
  Na  Na12  1  0.25000000  0.46509500  0.25000000  1
  Na  Na13  1  0.78490500  0.50000000  0.50000000  1
  Na  Na14  1  0.25000000  0.25000000  0.46509500  1
  Na  Na15  1  0.25000000  0.25000000  0.03490500  1
  Na  Na16  1  0.00000000  0.71509500  0.50000000  1
  Na  Na17  1  0.21509500  0.50000000  0.50000000  1
  Na  Na18  1  0.03490500  0.25000000  0.25000000  1
  Na  Na19  1  0.75000000  0.53490500  0.25000000  1
  Na  Na20  1  0.00000000  0.50000000  0.28490500  1
  Na  Na21  1  0.00000000  0.50000000  0.71509500  1
  Na  Na22  1  0.46509500  0.25000000  0.25000000  1
  Na  Na23  1  0.00000000  0.28490500  0.50000000  1
  Na  Na24  1  0.75000000  0.96509500  0.25000000  1
  Na  Na25  1  0.28490500  0.00000000  0.50000000  1
  Na  Na26  1  0.75000000  0.75000000  0.46509500  1
  Na  Na27  1  0.75000000  0.75000000  0.03490500  1
  Na  Na28  1  0.50000000  0.21509500  0.50000000  1
  Na  Na29  1  0.71509500  0.00000000  0.50000000  1
  Na  Na30  1  0.53490500  0.75000000  0.25000000  1
  Na  Na31  1  0.25000000  0.03490500  0.25000000  1
  Na  Na32  1  0.50000000  0.00000000  0.28490500  1
  Na  Na33  1  0.50000000  0.00000000  0.71509500  1
  Na  Na34  1  0.96509500  0.75000000  0.25000000  1
  Na  Na35  1  0.50000000  0.78490500  0.50000000  1
  Na  Na36  1  0.75000000  0.46509500  0.75000000  1
  Na  Na37  1  0.28490500  0.50000000  0.00000000  1
  Na  Na38  1  0.75000000  0.25000000  0.96509500  1
  Na  Na39  1  0.75000000  0.25000000  0.53490500  1
  Na  Na40  1  0.50000000  0.71509500  0.00000000  1
  Na  Na41  1  0.71509500  0.50000000  0.00000000  1
  Na  Na42  1  0.53490500  0.25000000  0.75000000  1
  Na  Na43  1  0.25000000  0.53490500  0.75000000  1
  Na  Na44  1  0.50000000  0.50000000  0.78490500  1
  Na  Na45  1  0.50000000  0.50000000  0.21509500  1
  Na  Na46  1  0.96509500  0.25000000  0.75000000  1
  Na  Na47  1  0.50000000  0.28490500  0.00000000  1
  Fe  Fe48  1  0.87500000  0.87500000  0.62500000  1
  Fe  Fe49  1  0.87500000  0.12500000  0.37500000  1
  Fe  Fe50  1  0.12500000  0.12500000  0.62500000  1
  Fe  Fe51  1  0.12500000  0.87500000  0.37500000  1
  Fe  Fe52  1  0.87500000  0.37500000  0.12500000  1
  Fe  Fe53  1  0.87500000  0.62500000  0.87500000  1
  Fe  Fe54  1  0.12500000  0.62500000  0.12500000  1
  Fe  Fe55  1  0.12500000  0.37500000  0.87500000  1
  Fe  Fe56  1  0.37500000  0.87500000  0.12500000  1
  Fe  Fe57  1  0.37500000  0.12500000  0.87500000  1
  Fe  Fe58  1  0.62500000  0.12500000  0.12500000  1
  Fe  Fe59  1  0.62500000  0.87500000  0.87500000  1
  Fe  Fe60  1  0.37500000  0.37500000  0.62500000  1
  Fe  Fe61  1  0.37500000  0.62500000  0.37500000  1
  Fe  Fe62  1  0.62500000  0.62500000  0.62500000  1
  Fe  Fe63  1  0.62500000  0.37500000  0.37500000  1
  B  B64  1  0.16319933  0.16319933  0.83680067  1
  B  B65  1  0.83680067  0.16319933  0.16319933  1
  B  B66  1  0.16319933  0.83680067  0.16319933  1
  B  B67  1  0.83680067  0.83680067  0.83680067  1
  B  B68  1  0.41319933  0.91319933  0.91319933  1
  B  B69  1  0.91319933  0.08680067  0.58680067  1
  B  B70  1  0.08680067  0.91319933  0.58680067  1
  B  B71  1  0.58680067  0.08680067  0.91319933  1
  B  B72  1  0.16319933  0.66319933  0.33680067  1
  B  B73  1  0.83680067  0.66319933  0.66319933  1
  B  B74  1  0.16319933  0.33680067  0.66319933  1
  B  B75  1  0.83680067  0.33680067  0.33680067  1
  B  B76  1  0.41319933  0.41319933  0.41319933  1
  B  B77  1  0.91319933  0.58680067  0.08680067  1
  B  B78  1  0.08680067  0.41319933  0.08680067  1
  B  B79  1  0.58680067  0.58680067  0.41319933  1
  B  B80  1  0.66319933  0.16319933  0.33680067  1
  B  B81  1  0.33680067  0.16319933  0.66319933  1
  B  B82  1  0.66319933  0.83680067  0.66319933  1
  B  B83  1  0.33680067  0.83680067  0.33680067  1
  B  B84  1  0.91319933  0.91319933  0.41319933  1
  B  B85  1  0.41319933  0.08680067  0.08680067  1
  B  B86  1  0.58680067  0.91319933  0.08680067  1
  B  B87  1  0.08680067  0.08680067  0.41319933  1
  B  B88  1  0.66319933  0.66319933  0.83680067  1
  B  B89  1  0.33680067  0.66319933  0.16319933  1
  B  B90  1  0.66319933  0.33680067  0.16319933  1
  B  B91  1  0.33680067  0.33680067  0.83680067  1
  B  B92  1  0.91319933  0.41319933  0.91319933  1
  B  B93  1  0.41319933  0.58680067  0.58680067  1
  B  B94  1  0.58680067  0.41319933  0.58680067  1
  B  B95  1  0.08680067  0.58680067  0.91319933  1
  As  As96  1  0.25000000  0.75000000  0.75000000  1
  As  As97  1  0.00000000  0.00000000  0.00000000  1
  As  As98  1  0.25000000  0.25000000  0.25000000  1
  As  As99  1  0.00000000  0.50000000  0.50000000  1
  As  As100  1  0.75000000  0.75000000  0.25000000  1
  As  As101  1  0.50000000  0.00000000  0.50000000  1
  As  As102  1  0.75000000  0.25000000  0.75000000  1
  As  As103  1  0.50000000  0.50000000  0.00000000  1
  O  O104  1  0.14802250  0.89692650  0.51335900  1
  O  O105  1  0.64802250  0.10307350  0.98664100  1
  O  O106  1  0.23664100  0.10197750  0.85307350  1
  O  O107  1  0.26335900  0.10197750  0.64692650  1
  O  O108  1  0.64692650  0.23664100  0.39802250  1
  O  O109  1  0.67987400  0.17987400  0.67987400  1
  O  O110  1  0.14692650  0.76335900  0.10197750  1
  O  O111  1  0.17987400  0.82012600  0.82012600  1
  O  O112  1  0.82012600  0.17987400  0.82012600  1
  O  O113  1  0.39802250  0.14692650  0.73664100  1
  O  O114  1  0.85307350  0.23664100  0.10197750  1
  O  O115  1  0.32012600  0.82012600  0.67987400  1
  O  O116  1  0.35307350  0.76335900  0.39802250  1
  O  O117  1  0.73664100  0.89802250  0.64692650  1
  O  O118  1  0.76335900  0.89802250  0.85307350  1
  O  O119  1  0.35197750  0.89692650  0.98664100  1
  O  O120  1  0.89802250  0.85307350  0.76335900  1
  O  O121  1  0.48664100  0.85197750  0.89692650  1
  O  O122  1  0.01335900  0.85197750  0.60307350  1
  O  O123  1  0.39692650  0.98664100  0.85197750  1
  O  O124  1  0.92987400  0.92987400  0.07012600  1
  O  O125  1  0.89692650  0.01335900  0.64802250  1
  O  O126  1  0.85197750  0.10307350  0.51335900  1
  O  O127  1  0.07012600  0.92987400  0.92987400  1
  O  O128  1  0.92987400  0.07012600  0.92987400  1
  O  O129  1  0.10307350  0.98664100  0.64802250  1
  O  O130  1  0.07012600  0.07012600  0.07012600  1
  O  O131  1  0.60307350  0.01335900  0.85197750  1
  O  O132  1  0.98664100  0.14802250  0.60307350  1
  O  O133  1  0.51335900  0.14802250  0.89692650  1
  O  O134  1  0.10197750  0.14692650  0.76335900  1
  O  O135  1  0.60197750  0.85307350  0.73664100  1
  O  O136  1  0.14802250  0.39692650  0.01335900  1
  O  O137  1  0.64802250  0.60307350  0.48664100  1
  O  O138  1  0.23664100  0.60197750  0.35307350  1
  O  O139  1  0.26335900  0.60197750  0.14692650  1
  O  O140  1  0.64692650  0.73664100  0.89802250  1
  O  O141  1  0.67987400  0.67987400  0.17987400  1
  O  O142  1  0.14692650  0.26335900  0.60197750  1
  O  O143  1  0.17987400  0.32012600  0.32012600  1
  O  O144  1  0.82012600  0.67987400  0.32012600  1
  O  O145  1  0.39802250  0.64692650  0.23664100  1
  O  O146  1  0.85307350  0.73664100  0.60197750  1
  O  O147  1  0.32012600  0.32012600  0.17987400  1
  O  O148  1  0.35307350  0.26335900  0.89802250  1
  O  O149  1  0.73664100  0.39802250  0.14692650  1
  O  O150  1  0.76335900  0.39802250  0.35307350  1
  O  O151  1  0.35197750  0.39692650  0.48664100  1
  O  O152  1  0.89802250  0.35307350  0.26335900  1
  O  O153  1  0.48664100  0.35197750  0.39692650  1
  O  O154  1  0.01335900  0.35197750  0.10307350  1
  O  O155  1  0.39692650  0.48664100  0.35197750  1
  O  O156  1  0.92987400  0.42987400  0.57012600  1
  O  O157  1  0.89692650  0.51335900  0.14802250  1
  O  O158  1  0.85197750  0.60307350  0.01335900  1
  O  O159  1  0.07012600  0.42987400  0.42987400  1
  O  O160  1  0.92987400  0.57012600  0.42987400  1
  O  O161  1  0.10307350  0.48664100  0.14802250  1
  O  O162  1  0.07012600  0.57012600  0.57012600  1
  O  O163  1  0.60307350  0.51335900  0.35197750  1
  O  O164  1  0.98664100  0.64802250  0.10307350  1
  O  O165  1  0.51335900  0.64802250  0.39692650  1
  O  O166  1  0.10197750  0.64692650  0.26335900  1
  O  O167  1  0.60197750  0.35307350  0.23664100  1
  O  O168  1  0.64802250  0.89692650  0.01335900  1
  O  O169  1  0.14802250  0.10307350  0.48664100  1
  O  O170  1  0.73664100  0.10197750  0.35307350  1
  O  O171  1  0.76335900  0.10197750  0.14692650  1
  O  O172  1  0.14692650  0.23664100  0.89802250  1
  O  O173  1  0.17987400  0.17987400  0.17987400  1
  O  O174  1  0.64692650  0.76335900  0.60197750  1
  O  O175  1  0.67987400  0.82012600  0.32012600  1
  O  O176  1  0.32012600  0.17987400  0.32012600  1
  O  O177  1  0.89802250  0.14692650  0.23664100  1
  O  O178  1  0.35307350  0.23664100  0.60197750  1
  O  O179  1  0.82012600  0.82012600  0.17987400  1
  O  O180  1  0.85307350  0.76335900  0.89802250  1
  O  O181  1  0.23664100  0.89802250  0.14692650  1
  O  O182  1  0.26335900  0.89802250  0.35307350  1
  O  O183  1  0.85197750  0.89692650  0.48664100  1
  O  O184  1  0.39802250  0.85307350  0.26335900  1
  O  O185  1  0.98664100  0.85197750  0.39692650  1
  O  O186  1  0.51335900  0.85197750  0.10307350  1
  O  O187  1  0.89692650  0.98664100  0.35197750  1
  O  O188  1  0.42987400  0.92987400  0.57012600  1
  O  O189  1  0.39692650  0.01335900  0.14802250  1
  O  O190  1  0.35197750  0.10307350  0.01335900  1
  O  O191  1  0.57012600  0.92987400  0.42987400  1
  O  O192  1  0.42987400  0.07012600  0.42987400  1
  O  O193  1  0.60307350  0.98664100  0.14802250  1
  O  O194  1  0.57012600  0.07012600  0.57012600  1
  O  O195  1  0.10307350  0.01335900  0.35197750  1
  O  O196  1  0.48664100  0.14802250  0.10307350  1
  O  O197  1  0.01335900  0.14802250  0.39692650  1
  O  O198  1  0.60197750  0.14692650  0.26335900  1
  O  O199  1  0.10197750  0.85307350  0.23664100  1
  O  O200  1  0.64802250  0.39692650  0.51335900  1
  O  O201  1  0.14802250  0.60307350  0.98664100  1
  O  O202  1  0.73664100  0.60197750  0.85307350  1
  O  O203  1  0.76335900  0.60197750  0.64692650  1
  O  O204  1  0.14692650  0.73664100  0.39802250  1
  O  O205  1  0.17987400  0.67987400  0.67987400  1
  O  O206  1  0.64692650  0.26335900  0.10197750  1
  O  O207  1  0.67987400  0.32012600  0.82012600  1
  O  O208  1  0.32012600  0.67987400  0.82012600  1
  O  O209  1  0.89802250  0.64692650  0.73664100  1
  O  O210  1  0.35307350  0.73664100  0.10197750  1
  O  O211  1  0.82012600  0.32012600  0.67987400  1
  O  O212  1  0.85307350  0.26335900  0.39802250  1
  O  O213  1  0.23664100  0.39802250  0.64692650  1
  O  O214  1  0.26335900  0.39802250  0.85307350  1
  O  O215  1  0.85197750  0.39692650  0.98664100  1
  O  O216  1  0.39802250  0.35307350  0.76335900  1
  O  O217  1  0.98664100  0.35197750  0.89692650  1
  O  O218  1  0.51335900  0.35197750  0.60307350  1
  O  O219  1  0.89692650  0.48664100  0.85197750  1
  O  O220  1  0.42987400  0.42987400  0.07012600  1
  O  O221  1  0.39692650  0.51335900  0.64802250  1
  O  O222  1  0.35197750  0.60307350  0.51335900  1
  O  O223  1  0.57012600  0.42987400  0.92987400  1
  O  O224  1  0.42987400  0.57012600  0.92987400  1
  O  O225  1  0.60307350  0.48664100  0.64802250  1
  O  O226  1  0.57012600  0.57012600  0.07012600  1
  O  O227  1  0.10307350  0.51335900  0.85197750  1
  O  O228  1  0.48664100  0.64802250  0.60307350  1
  O  O229  1  0.01335900  0.64802250  0.89692650  1
  O  O230  1  0.60197750  0.64692650  0.76335900  1
  O  O231  1  0.10197750  0.35307350  0.73664100  1
