# generated using pymatgen
data_NaNiPO4
_symmetry_space_group_name_H-M   'P 1'
_cell_length_a   4.97724300
_cell_length_b   6.18648600
_cell_length_c   10.24772400
_cell_angle_alpha   90.00000000
_cell_angle_beta   90.00000000
_cell_angle_gamma   90.00000000
_symmetry_Int_Tables_number   1
_chemical_formula_structural   NaNiPO4
_chemical_formula_sum   'Na4 Ni4 P4 O16'
_cell_volume   315.54427063
_cell_formula_units_Z   4
loop_
 _symmetry_equiv_pos_site_id
 _symmetry_equiv_pos_as_xyz
  1  'x, y, z'
loop_
 _atom_site_type_symbol
 _atom_site_label
 _atom_site_symmetry_multiplicity
 _atom_site_fract_x
 _atom_site_fract_y
 _atom_site_fract_z
 _atom_site_occupancy
  Na  Na0  1  0.00000000  0.00000000  0.00000000  1
  Na  Na1  1  0.00000000  0.50000000  0.00000000  1
  Na  Na2  1  0.50000000  0.00000000  0.50000000  1
  Na  Na3  1  0.50000000  0.50000000  0.50000000  1
  Ni  Ni4  1  0.99054350  0.25000000  0.28051650  1
  Ni  Ni5  1  0.50945650  0.25000000  0.78051650  1
  Ni  Ni6  1  0.49054350  0.75000000  0.21948350  1
  Ni  Ni7  1  0.00945650  0.75000000  0.71948350  1
  P  P8  1  0.43761250  0.25000000  0.10749650  1
  P  P9  1  0.93761250  0.75000000  0.39250350  1
  P  P10  1  0.06238750  0.25000000  0.60749650  1
  P  P11  1  0.56238750  0.75000000  0.89250350  1
  O  O12  1  0.65713850  0.75000000  0.03715950  1
  O  O13  1  0.15713850  0.25000000  0.46284050  1
  O  O14  1  0.84286150  0.75000000  0.53715950  1
  O  O15  1  0.34286150  0.25000000  0.96284050  1
  O  O16  1  0.74618550  0.25000000  0.11585150  1
  O  O17  1  0.24618550  0.75000000  0.38414850  1
  O  O18  1  0.75381450  0.25000000  0.61585150  1
  O  O19  1  0.25381450  0.75000000  0.88414850  1
  O  O20  1  0.30086050  0.05214700  0.17793850  1
  O  O21  1  0.30086050  0.44785300  0.17793850  1
  O  O22  1  0.80086050  0.55214700  0.32206150  1
  O  O23  1  0.80086050  0.94785300  0.32206150  1
  O  O24  1  0.19913950  0.05214700  0.67793850  1
  O  O25  1  0.19913950  0.44785300  0.67793850  1
  O  O26  1  0.69913950  0.55214700  0.82206150  1
  O  O27  1  0.69913950  0.94785300  0.82206150  1
