# generated using pymatgen
data_LiCoSbO4
_symmetry_space_group_name_H-M   'P 1'
_cell_length_a   6.04214300
_cell_length_b   6.20417190
_cell_length_c   8.85068442
_cell_angle_alpha   90.00000000
_cell_angle_beta   90.00000000
_cell_angle_gamma   90.00000000
_symmetry_Int_Tables_number   1
_chemical_formula_structural   LiCoSbO4
_chemical_formula_sum   'Li4 Co4 Sb4 O16'
_cell_volume   331.78112684
_cell_formula_units_Z   4
loop_
 _symmetry_equiv_pos_site_id
 _symmetry_equiv_pos_as_xyz
  1  'x, y, z'
loop_
 _atom_site_type_symbol
 _atom_site_label
 _atom_site_symmetry_multiplicity
 _atom_site_fract_x
 _atom_site_fract_y
 _atom_site_fract_z
 _atom_site_occupancy
  Li  Li0  1  0.00000000  0.25000000  0.85443825  1
  Li  Li1  1  0.50000000  0.25000000  0.64556175  1
  Li  Li2  1  0.50000000  0.75000000  0.35443825  1
  Li  Li3  1  0.00000000  0.75000000  0.14556175  1
  Co  Co4  1  0.25000000  0.25000000  0.25000000  1
  Co  Co5  1  0.75000000  0.25000000  0.25000000  1
  Co  Co6  1  0.75000000  0.75000000  0.75000000  1
  Co  Co7  1  0.25000000  0.75000000  0.75000000  1
  Sb  Sb8  1  0.50000000  0.00000000  0.00000000  1
  Sb  Sb9  1  0.50000000  0.50000000  0.00000000  1
  Sb  Sb10  1  0.00000000  0.50000000  0.50000000  1
  Sb  Sb11  1  0.00000000  0.00000000  0.50000000  1
  O  O12  1  0.27348650  0.25000000  0.00022375  1
  O  O13  1  0.72651350  0.25000000  0.00022375  1
  O  O14  1  0.77348650  0.25000000  0.49977625  1
  O  O15  1  0.22651350  0.25000000  0.49977625  1
  O  O16  1  0.50000000  0.01970050  0.22295925  1
  O  O17  1  0.50000000  0.48029950  0.22295925  1
  O  O18  1  0.00000000  0.48029950  0.27704075  1
  O  O19  1  0.00000000  0.01970050  0.27704075  1
  O  O20  1  0.77348650  0.75000000  0.50022375  1
  O  O21  1  0.22651350  0.75000000  0.50022375  1
  O  O22  1  0.27348650  0.75000000  0.99977625  1
  O  O23  1  0.72651350  0.75000000  0.99977625  1
  O  O24  1  0.00000000  0.51970050  0.72295925  1
  O  O25  1  0.00000000  0.98029950  0.72295925  1
  O  O26  1  0.50000000  0.98029950  0.77704075  1
  O  O27  1  0.50000000  0.51970050  0.77704075  1
