# generated using pymatgen
data_Li(CoO2)4
_symmetry_space_group_name_H-M   'P 1'
_cell_length_a   5.63854052
_cell_length_b   5.63854052
_cell_length_c   15.07548982
_cell_angle_alpha   90.00000000
_cell_angle_beta   90.00000000
_cell_angle_gamma   120.00000000
_symmetry_Int_Tables_number   1
_chemical_formula_structural   Li(CoO2)4
_chemical_formula_sum   'Li3 Co12 O24'
_cell_volume   415.08350467
_cell_formula_units_Z   3
loop_
 _symmetry_equiv_pos_site_id
 _symmetry_equiv_pos_as_xyz
  1  'x, y, z'
loop_
 _atom_site_type_symbol
 _atom_site_label
 _atom_site_symmetry_multiplicity
 _atom_site_fract_x
 _atom_site_fract_y
 _atom_site_fract_z
 _atom_site_occupancy
  Li  Li0  1  0.00000000  0.00000000  0.50000000  1
  Li  Li1  1  0.66666667  0.33333333  0.83333333  1
  Li  Li2  1  0.33333333  0.66666667  0.16666667  1
  Co  Co3  1  0.33333333  0.66666667  0.66666667  1
  Co  Co4  1  0.83333333  0.66666667  0.66666667  1
  Co  Co5  1  0.33333333  0.16666667  0.66666667  1
  Co  Co6  1  0.83333333  0.16666667  0.66666667  1
  Co  Co7  1  1.00000000  1.00000000  0.00000000  1
  Co  Co8  1  0.50000000  0.00000000  0.00000000  1
  Co  Co9  1  0.00000000  0.50000000  0.00000000  1
  Co  Co10  1  0.50000000  0.50000000  0.00000000  1
  Co  Co11  1  0.66666667  0.33333333  0.33333333  1
  Co  Co12  1  0.16666667  0.33333333  0.33333333  1
  Co  Co13  1  0.66666667  0.83333333  0.33333333  1
  Co  Co14  1  0.16666667  0.83333333  0.33333333  1
  O  O15  1  0.66666667  0.33333333  0.60383200  1
  O  O16  1  0.00000000  0.00000000  0.72950133  1
  O  O17  1  0.50049350  0.00098700  0.73170500  1
  O  O18  1  0.16617317  0.83382683  0.60162833  1
  O  O19  1  0.99901300  0.49950650  0.73170500  1
  O  O20  1  0.66765367  0.83382683  0.60162833  1
  O  O21  1  0.50049350  0.49950650  0.73170500  1
  O  O22  1  0.16617317  0.33234633  0.60162833  1
  O  O23  1  0.33333333  0.66666667  0.93716533  1
  O  O24  1  0.66666667  0.33333333  0.06283467  1
  O  O25  1  0.16716017  0.33432033  0.06503833  1
  O  O26  1  0.83283983  0.16716017  0.93496167  1
  O  O27  1  0.66567967  0.83283983  0.06503833  1
  O  O28  1  0.33432033  0.16716017  0.93496167  1
  O  O29  1  0.16716017  0.83283983  0.06503833  1
  O  O30  1  0.83283983  0.66567967  0.93496167  1
  O  O31  1  0.00000000  0.00000000  0.27049867  1
  O  O32  1  0.33333333  0.66666667  0.39616800  1
  O  O33  1  0.83382683  0.66765367  0.39837167  1
  O  O34  1  0.49950650  0.50049350  0.26829500  1
  O  O35  1  0.33234633  0.16617317  0.39837167  1
  O  O36  1  0.00098700  0.50049350  0.26829500  1
  O  O37  1  0.83382683  0.16617317  0.39837167  1
  O  O38  1  0.49950650  0.99901300  0.26829500  1
