# generated using pymatgen
data_Li8FeO6
_symmetry_space_group_name_H-M   'P 1'
_cell_length_a   5.54404800
_cell_length_b   9.74817600
_cell_length_c   10.91673800
_cell_angle_alpha   90.00000000
_cell_angle_beta   90.00000000
_cell_angle_gamma   90.00000000
_symmetry_Int_Tables_number   1
_chemical_formula_structural   Li8FeO6
_chemical_formula_sum   'Li32 Fe4 O24'
_cell_volume   589.98807108
_cell_formula_units_Z   4
loop_
 _symmetry_equiv_pos_site_id
 _symmetry_equiv_pos_as_xyz
  1  'x, y, z'
loop_
 _atom_site_type_symbol
 _atom_site_label
 _atom_site_symmetry_multiplicity
 _atom_site_fract_x
 _atom_site_fract_y
 _atom_site_fract_z
 _atom_site_occupancy
  Li  Li0  1  0.64907650  0.34470550  0.23109200  1
  Li  Li1  1  0.69464950  0.30502650  0.87283900  1
  Li  Li2  1  0.80535050  0.19497350  0.37283900  1
  Li  Li3  1  0.85092350  0.15529450  0.73109200  1
  Li  Li4  1  0.49693950  0.16664050  0.59153300  1
  Li  Li5  1  0.50306050  0.16664050  0.09153300  1
  Li  Li6  1  0.68948800  0.00000000  0.23268600  1
  Li  Li7  1  0.61344100  0.00000000  0.87295000  1
  Li  Li8  1  0.38655900  0.00000000  0.37295000  1
  Li  Li9  1  0.35092350  0.34470550  0.73109200  1
  Li  Li10  1  0.31051200  0.00000000  0.73268600  1
  Li  Li11  1  0.30535050  0.30502650  0.37283900  1
  Li  Li12  1  0.00306050  0.33335950  0.09153300  1
  Li  Li13  1  0.99693950  0.33335950  0.59153300  1
  Li  Li14  1  0.19464950  0.19497350  0.87283900  1
  Li  Li15  1  0.14907650  0.15529450  0.23109200  1
  Li  Li16  1  0.14907650  0.84470550  0.23109200  1
  Li  Li17  1  0.19464950  0.80502650  0.87283900  1
  Li  Li18  1  0.30535050  0.69497350  0.37283900  1
  Li  Li19  1  0.35092350  0.65529450  0.73109200  1
  Li  Li20  1  0.99693950  0.66664050  0.59153300  1
  Li  Li21  1  0.00306050  0.66664050  0.09153300  1
  Li  Li22  1  0.18948800  0.50000000  0.23268600  1
  Li  Li23  1  0.11344100  0.50000000  0.87295000  1
  Li  Li24  1  0.88655900  0.50000000  0.37295000  1
  Li  Li25  1  0.85092350  0.84470550  0.73109200  1
  Li  Li26  1  0.81051200  0.50000000  0.73268600  1
  Li  Li27  1  0.80535050  0.80502650  0.37283900  1
  Li  Li28  1  0.50306050  0.83335950  0.09153300  1
  Li  Li29  1  0.49693950  0.83335950  0.59153300  1
  Li  Li30  1  0.69464950  0.69497350  0.87283900  1
  Li  Li31  1  0.64907650  0.65529450  0.23109200  1
  Fe  Fe32  1  0.00310900  0.00000000  0.00637100  1
  Fe  Fe33  1  0.99689100  0.00000000  0.50637100  1
  Fe  Fe34  1  0.50310900  0.50000000  0.00637100  1
  Fe  Fe35  1  0.49689100  0.50000000  0.50637100  1
  O  O36  1  0.65095850  0.33889550  0.05029200  1
  O  O37  1  0.84904150  0.16110450  0.55029200  1
  O  O38  1  0.50092050  0.16594250  0.78402100  1
  O  O39  1  0.00374500  0.00000000  0.83050600  1
  O  O40  1  0.99625500  0.00000000  0.33050600  1
  O  O41  1  0.49907950  0.16594250  0.28402100  1
  O  O42  1  0.68604400  0.00000000  0.05307900  1
  O  O43  1  0.34904150  0.33889550  0.55029200  1
  O  O44  1  0.31395600  0.00000000  0.55307900  1
  O  O45  1  0.99907950  0.33405750  0.28402100  1
  O  O46  1  0.00092050  0.33405750  0.78402100  1
  O  O47  1  0.15095850  0.16110450  0.05029200  1
  O  O48  1  0.15095850  0.83889550  0.05029200  1
  O  O49  1  0.34904150  0.66110450  0.55029200  1
  O  O50  1  0.00092050  0.66594250  0.78402100  1
  O  O51  1  0.50374500  0.50000000  0.83050600  1
  O  O52  1  0.49625500  0.50000000  0.33050600  1
  O  O53  1  0.99907950  0.66594250  0.28402100  1
  O  O54  1  0.18604400  0.50000000  0.05307900  1
  O  O55  1  0.84904150  0.83889550  0.55029200  1
  O  O56  1  0.81395600  0.50000000  0.55307900  1
  O  O57  1  0.49907950  0.83405750  0.28402100  1
  O  O58  1  0.50092050  0.83405750  0.78402100  1
  O  O59  1  0.65095850  0.66110450  0.05029200  1
