# generated using pymatgen
data_Mn3V2Co3O16
_symmetry_space_group_name_H-M   'P 1'
_cell_length_a   9.85449000
_cell_length_b   5.71169000
_cell_length_c   8.83426058
_cell_angle_alpha   90.00000000
_cell_angle_beta   90.86493104
_cell_angle_gamma   90.00000000
_symmetry_Int_Tables_number   1
_chemical_formula_structural   Mn3V2Co3O16
_chemical_formula_sum   'Mn6 V4 Co6 O32'
_cell_volume   497.18669722
_cell_formula_units_Z   2
loop_
 _symmetry_equiv_pos_site_id
 _symmetry_equiv_pos_as_xyz
  1  'x, y, z'
loop_
 _atom_site_type_symbol
 _atom_site_label
 _atom_site_symmetry_multiplicity
 _atom_site_fract_x
 _atom_site_fract_y
 _atom_site_fract_z
 _atom_site_occupancy
  Mn  Mn0  1  0.17114500  0.00000000  0.78693900  1
  Mn  Mn1  1  0.58715750  0.24436450  0.28561100  1
  Mn  Mn2  1  0.58715750  0.75563550  0.28561100  1
  Mn  Mn3  1  0.67114500  0.50000000  0.78693900  1
  Mn  Mn4  1  0.08715750  0.74436450  0.28561100  1
  Mn  Mn5  1  0.08715750  0.25563550  0.28561100  1
  V  V6  1  0.34094300  0.00000000  0.50143100  1
  V  V7  1  0.67436900  0.00000000  0.99914700  1
  V  V8  1  0.84094300  0.50000000  0.50143100  1
  V  V9  1  0.17436900  0.50000000  0.99914700  1
  Co  Co10  1  0.41713750  0.24242050  0.78816200  1
  Co  Co11  1  0.41713750  0.75757950  0.78816200  1
  Co  Co12  1  0.83252800  0.00000000  0.28832400  1
  Co  Co13  1  0.91713750  0.74242050  0.78816200  1
  Co  Co14  1  0.91713750  0.25757950  0.78816200  1
  Co  Co15  1  0.33252800  0.50000000  0.28832400  1
  O  O16  1  0.41623450  0.24076150  0.40507300  1
  O  O17  1  0.47928900  0.00000000  0.66421300  1
  O  O18  1  0.34039800  0.00000000  0.89447300  1
  O  O19  1  0.99653800  0.00000000  0.68891400  1
  O  O20  1  0.00064800  0.00000000  0.18349700  1
  O  O21  1  0.41623450  0.75923850  0.40507300  1
  O  O22  1  0.26228850  0.21613050  0.66188400  1
  O  O23  1  0.26228850  0.78386950  0.66188400  1
  O  O24  1  0.83136200  0.00000000  0.90250400  1
  O  O25  1  0.17377200  0.00000000  0.40640500  1
  O  O26  1  0.74249300  0.21416000  0.16173900  1
  O  O27  1  0.74249300  0.78584000  0.16173900  1
  O  O28  1  0.66928000  0.00000000  0.39797800  1
  O  O29  1  0.58889250  0.23882250  0.90407900  1
  O  O30  1  0.52022800  0.00000000  0.16059400  1
  O  O31  1  0.58889250  0.76117750  0.90407900  1
  O  O32  1  0.91623450  0.74076150  0.40507300  1
  O  O33  1  0.97928900  0.50000000  0.66421300  1
  O  O34  1  0.84039800  0.50000000  0.89447300  1
  O  O35  1  0.49653800  0.50000000  0.68891400  1
  O  O36  1  0.50064800  0.50000000  0.18349700  1
  O  O37  1  0.91623450  0.25923850  0.40507300  1
  O  O38  1  0.76228850  0.71613050  0.66188400  1
  O  O39  1  0.76228850  0.28386950  0.66188400  1
  O  O40  1  0.33136200  0.50000000  0.90250400  1
  O  O41  1  0.67377200  0.50000000  0.40640500  1
  O  O42  1  0.24249300  0.71416000  0.16173900  1
  O  O43  1  0.24249300  0.28584000  0.16173900  1
  O  O44  1  0.16928000  0.50000000  0.39797800  1
  O  O45  1  0.08889250  0.73882250  0.90407900  1
  O  O46  1  0.02022800  0.50000000  0.16059400  1
  O  O47  1  0.08889250  0.26117750  0.90407900  1
