# generated using pymatgen
data_Co2O3F
_symmetry_space_group_name_H-M   'P 1'
_cell_length_a   8.40402200
_cell_length_b   6.34131600
_cell_length_c   6.71370685
_cell_angle_alpha   90.00000000
_cell_angle_beta   110.20699409
_cell_angle_gamma   90.00000000
_symmetry_Int_Tables_number   1
_chemical_formula_structural   Co2O3F
_chemical_formula_sum   'Co12 O18 F6'
_cell_volume   335.76891639
_cell_formula_units_Z   6
loop_
 _symmetry_equiv_pos_site_id
 _symmetry_equiv_pos_as_xyz
  1  'x, y, z'
loop_
 _atom_site_type_symbol
 _atom_site_label
 _atom_site_symmetry_multiplicity
 _atom_site_fract_x
 _atom_site_fract_y
 _atom_site_fract_z
 _atom_site_occupancy
  Co  Co0  1  0.83290150  0.50016350  0.83463000  1
  Co  Co1  1  0.83451600  0.52359400  0.33407100  1
  Co  Co2  1  0.16548400  0.52359400  0.66592900  1
  Co  Co3  1  0.16709850  0.50016350  0.16537000  1
  Co  Co4  1  0.00000000  0.98628600  0.50000000  1
  Co  Co5  1  0.00000000  0.97321700  0.00000000  1
  Co  Co6  1  0.33290150  0.00016350  0.83463000  1
  Co  Co7  1  0.33451600  0.02359400  0.33407100  1
  Co  Co8  1  0.66548400  0.02359400  0.66592900  1
  Co  Co9  1  0.66709850  0.00016350  0.16537000  1
  Co  Co10  1  0.50000000  0.48628600  0.50000000  1
  Co  Co11  1  0.50000000  0.47321700  0.00000000  1
  O  O12  1  0.93468300  0.51270700  0.63088000  1
  O  O13  1  0.60237050  0.49397750  0.29525500  1
  O  O14  1  0.26606100  0.49312000  0.96232800  1
  O  O15  1  0.06531700  0.51270700  0.36912000  1
  O  O16  1  0.73393900  0.49312000  0.03767200  1
  O  O17  1  0.39762950  0.49397750  0.70474500  1
  O  O18  1  0.83402000  0.80848800  0.33271800  1
  O  O19  1  0.16598000  0.80848800  0.66728200  1
  O  O20  1  0.00000000  0.68298000  0.00000000  1
  O  O21  1  0.43468300  0.01270700  0.63088000  1
  O  O22  1  0.10237050  0.99397750  0.29525500  1
  O  O23  1  0.76606100  0.99312000  0.96232800  1
  O  O24  1  0.56531700  0.01270700  0.36912000  1
  O  O25  1  0.23393900  0.99312000  0.03767200  1
  O  O26  1  0.89762950  0.99397750  0.70474500  1
  O  O27  1  0.33402000  0.30848800  0.33271800  1
  O  O28  1  0.66598000  0.30848800  0.66728200  1
  O  O29  1  0.50000000  0.18298000  0.00000000  1
  F  F30  1  0.84496300  0.20956700  0.34434800  1
  F  F31  1  0.15503700  0.20956700  0.65565200  1
  F  F32  1  0.00000000  0.27428400  0.00000000  1
  F  F33  1  0.34496300  0.70956700  0.34434800  1
  F  F34  1  0.65503700  0.70956700  0.65565200  1
  F  F35  1  0.50000000  0.77428400  0.00000000  1
