# generated using pymatgen
data_LiV2OF5
_symmetry_space_group_name_H-M   'P 1'
_cell_length_a   5.21338665
_cell_length_b   5.21338665
_cell_length_c   13.96445701
_cell_angle_alpha   90.00000000
_cell_angle_beta   90.00000000
_cell_angle_gamma   120.00000000
_symmetry_Int_Tables_number   1
_chemical_formula_structural   LiV2OF5
_chemical_formula_sum   'Li3 V6 O3 F15'
_cell_volume   328.69610368
_cell_formula_units_Z   3
loop_
 _symmetry_equiv_pos_site_id
 _symmetry_equiv_pos_as_xyz
  1  'x, y, z'
loop_
 _atom_site_type_symbol
 _atom_site_label
 _atom_site_symmetry_multiplicity
 _atom_site_fract_x
 _atom_site_fract_y
 _atom_site_fract_z
 _atom_site_occupancy
  Li  Li0  1  0.34713933  0.34382467  0.87397800  1
  Li  Li1  1  0.99668533  0.65286067  0.20731133  1
  Li  Li2  1  0.65617533  0.00331467  0.54064467  1
  V  V3  1  0.30984833  0.33249267  0.17463200  1
  V  V4  1  0.97393733  0.66530267  0.99670900  1
  V  V5  1  0.33469733  0.30863467  0.66337567  1
  V  V6  1  0.69136533  0.02606267  0.33004233  1
  V  V7  1  0.02264433  0.69015167  0.50796533  1
  V  V8  1  0.66750733  0.97735567  0.84129867  1
  O  O9  1  0.00096333  0.29092967  0.25245900  1
  O  O10  1  0.28996633  0.99903667  0.58579233  1
  O  O11  1  0.70907033  0.71003367  0.91912567  1
  F  F12  1  0.24875233  0.61806967  0.09150000  1
  F  F13  1  0.38193033  0.63068267  0.75816667  1
  F  F14  1  0.02458433  0.36048667  0.58423000  1
  F  F15  1  0.63951333  0.66409767  0.25089667  1
  F  F16  1  0.66101333  0.64065367  0.58802600  1
  F  F17  1  0.65902633  0.39533467  0.09291900  1
  F  F18  1  0.01206933  0.06331167  0.75755200  1
  F  F19  1  0.73630833  0.34097367  0.42625233  1
  F  F20  1  0.05124233  0.98793067  0.09088533  1
  F  F21  1  0.60466533  0.26369167  0.75958567  1
  F  F22  1  0.97964033  0.33898667  0.92135933  1
  F  F23  1  0.35934633  0.02035967  0.25469267  1
  F  F24  1  0.33590233  0.97541567  0.91756333  1
  F  F25  1  0.36931733  0.75124767  0.42483333  1
  F  F26  1  0.93668833  0.94875767  0.42421867  1
