# generated using pymatgen
data_Na4Mn2P(CO4)4
_symmetry_space_group_name_H-M   'P 1'
_cell_length_a   13.67100200
_cell_length_b   14.20252800
_cell_length_c   14.31324200
_cell_angle_alpha   90.00000000
_cell_angle_beta   90.00000000
_cell_angle_gamma   90.00000000
_symmetry_Int_Tables_number   1
_chemical_formula_structural   Na4Mn2P(CO4)4
_chemical_formula_sum   'Na32 Mn16 P8 C32 O128'
_cell_volume   2779.09898196
_cell_formula_units_Z   8
loop_
 _symmetry_equiv_pos_site_id
 _symmetry_equiv_pos_as_xyz
  1  'x, y, z'
loop_
 _atom_site_type_symbol
 _atom_site_label
 _atom_site_symmetry_multiplicity
 _atom_site_fract_x
 _atom_site_fract_y
 _atom_site_fract_z
 _atom_site_occupancy
  Na  Na0  1  0.96052500  0.25000000  0.25000000  1
  Na  Na1  1  0.75000000  0.25000000  0.45616800  1
  Na  Na2  1  0.50000000  0.00000000  0.20616800  1
  Na  Na3  1  0.71052500  0.00000000  0.00000000  1
  Na  Na4  1  0.53947500  0.25000000  0.25000000  1
  Na  Na5  1  0.75000000  0.25000000  0.04383200  1
  Na  Na6  1  0.00000000  0.00000000  0.29383200  1
  Na  Na7  1  0.28947500  0.00000000  0.00000000  1
  Na  Na8  1  0.96052500  0.75000000  0.75000000  1
  Na  Na9  1  0.75000000  0.75000000  0.95616800  1
  Na  Na10  1  0.50000000  0.50000000  0.70616800  1
  Na  Na11  1  0.71052500  0.50000000  0.50000000  1
  Na  Na12  1  0.53947500  0.75000000  0.75000000  1
  Na  Na13  1  0.75000000  0.75000000  0.54383200  1
  Na  Na14  1  0.00000000  0.50000000  0.79383200  1
  Na  Na15  1  0.28947500  0.50000000  0.50000000  1
  Na  Na16  1  0.46052500  0.25000000  0.75000000  1
  Na  Na17  1  0.25000000  0.25000000  0.95616800  1
  Na  Na18  1  0.00000000  0.00000000  0.70616800  1
  Na  Na19  1  0.21052500  0.00000000  0.50000000  1
  Na  Na20  1  0.03947500  0.25000000  0.75000000  1
  Na  Na21  1  0.25000000  0.25000000  0.54383200  1
  Na  Na22  1  0.50000000  0.00000000  0.79383200  1
  Na  Na23  1  0.78947500  0.00000000  0.50000000  1
  Na  Na24  1  0.46052500  0.75000000  0.25000000  1
  Na  Na25  1  0.25000000  0.75000000  0.45616800  1
  Na  Na26  1  0.00000000  0.50000000  0.20616800  1
  Na  Na27  1  0.21052500  0.50000000  0.00000000  1
  Na  Na28  1  0.03947500  0.75000000  0.25000000  1
  Na  Na29  1  0.25000000  0.75000000  0.04383200  1
  Na  Na30  1  0.50000000  0.50000000  0.29383200  1
  Na  Na31  1  0.78947500  0.50000000  0.00000000  1
  Mn  Mn32  1  0.62500000  0.62500000  0.12500000  1
  Mn  Mn33  1  0.87500000  0.62500000  0.37500000  1
  Mn  Mn34  1  0.62500000  0.87500000  0.37500000  1
  Mn  Mn35  1  0.87500000  0.87500000  0.12500000  1
  Mn  Mn36  1  0.62500000  0.12500000  0.62500000  1
  Mn  Mn37  1  0.87500000  0.12500000  0.87500000  1
  Mn  Mn38  1  0.62500000  0.37500000  0.87500000  1
  Mn  Mn39  1  0.87500000  0.37500000  0.62500000  1
  Mn  Mn40  1  0.12500000  0.62500000  0.62500000  1
  Mn  Mn41  1  0.37500000  0.62500000  0.87500000  1
  Mn  Mn42  1  0.12500000  0.87500000  0.87500000  1
  Mn  Mn43  1  0.37500000  0.87500000  0.62500000  1
  Mn  Mn44  1  0.12500000  0.12500000  0.12500000  1
  Mn  Mn45  1  0.37500000  0.12500000  0.37500000  1
  Mn  Mn46  1  0.12500000  0.37500000  0.37500000  1
  Mn  Mn47  1  0.37500000  0.37500000  0.12500000  1
  P  P48  1  0.50000000  0.00000000  0.00000000  1
  P  P49  1  0.75000000  0.25000000  0.25000000  1
  P  P50  1  0.50000000  0.50000000  0.50000000  1
  P  P51  1  0.75000000  0.75000000  0.75000000  1
  P  P52  1  0.00000000  0.00000000  0.50000000  1
  P  P53  1  0.25000000  0.25000000  0.75000000  1
  P  P54  1  0.00000000  0.50000000  0.00000000  1
  P  P55  1  0.25000000  0.75000000  0.25000000  1
  C  C56  1  0.90958650  0.41589200  0.40667050  1
  C  C57  1  0.65958650  0.83410800  0.15667050  1
  C  C58  1  0.90958650  0.08410800  0.09332950  1
  C  C59  1  0.59041350  0.08410800  0.40667050  1
  C  C60  1  0.15958650  0.16589200  0.34332950  1
  C  C61  1  0.34041350  0.16589200  0.15667050  1
  C  C62  1  0.59041350  0.41589200  0.09332950  1
  C  C63  1  0.84041350  0.83410800  0.34332950  1
  C  C64  1  0.90958650  0.91589200  0.90667050  1
  C  C65  1  0.65958650  0.33410800  0.65667050  1
  C  C66  1  0.90958650  0.58410800  0.59332950  1
  C  C67  1  0.59041350  0.58410800  0.90667050  1
  C  C68  1  0.15958650  0.66589200  0.84332950  1
  C  C69  1  0.34041350  0.66589200  0.65667050  1
  C  C70  1  0.59041350  0.91589200  0.59332950  1
  C  C71  1  0.84041350  0.33410800  0.84332950  1
  C  C72  1  0.40958650  0.41589200  0.90667050  1
  C  C73  1  0.15958650  0.83410800  0.65667050  1
  C  C74  1  0.40958650  0.08410800  0.59332950  1
  C  C75  1  0.09041350  0.08410800  0.90667050  1
  C  C76  1  0.65958650  0.16589200  0.84332950  1
  C  C77  1  0.84041350  0.16589200  0.65667050  1
  C  C78  1  0.09041350  0.41589200  0.59332950  1
  C  C79  1  0.34041350  0.83410800  0.84332950  1
  C  C80  1  0.40958650  0.91589200  0.40667050  1
  C  C81  1  0.15958650  0.33410800  0.15667050  1
  C  C82  1  0.40958650  0.58410800  0.09332950  1
  C  C83  1  0.09041350  0.58410800  0.40667050  1
  C  C84  1  0.65958650  0.66589200  0.34332950  1
  C  C85  1  0.84041350  0.66589200  0.15667050  1
  C  C86  1  0.09041350  0.91589200  0.09332950  1
  C  C87  1  0.34041350  0.33410800  0.34332950  1
  O  O88  1  0.98038750  0.35608400  0.39039450  1
  O  O89  1  0.43447500  0.93799050  0.06291650  1
  O  O90  1  0.40126150  0.98883350  0.35246000  1
  O  O91  1  0.65126150  0.76116650  0.10246000  1
  O  O92  1  0.90126150  0.01116650  0.14754000  1
  O  O93  1  0.59871900  0.85074100  0.22250000  1
  O  O94  1  0.93447500  0.06200950  0.43708350  1
  O  O95  1  0.06552500  0.93799050  0.43708350  1
  O  O96  1  0.40128100  0.14925900  0.22250000  1
  O  O97  1  0.59873850  0.01116650  0.35246000  1
  O  O98  1  0.73038750  0.89391600  0.14039450  1
  O  O99  1  0.56552500  0.06200950  0.06291650  1
  O  O100  1  0.48038750  0.64391600  0.10960550  1
  O  O101  1  0.01961250  0.64391600  0.39039450  1
  O  O102  1  0.34871900  0.89925900  0.47250000  1
  O  O103  1  0.09871900  0.14925900  0.27750000  1
  O  O104  1  0.65128100  0.10074100  0.47250000  1
  O  O105  1  0.90128100  0.85074100  0.27750000  1
  O  O106  1  0.23038750  0.10608400  0.35960550  1
  O  O107  1  0.26961250  0.10608400  0.14039450  1
  O  O108  1  0.68447500  0.18799050  0.18708350  1
  O  O109  1  0.51961250  0.35608400  0.10960550  1
  O  O110  1  0.15126150  0.23883350  0.39754000  1
  O  O111  1  0.84871900  0.10074100  0.02750000  1
  O  O112  1  0.68447500  0.31200950  0.31291650  1
  O  O113  1  0.81552500  0.18799050  0.31291650  1
  O  O114  1  0.15128100  0.89925900  0.02750000  1
  O  O115  1  0.34873850  0.23883350  0.10246000  1
  O  O116  1  0.09873850  0.98883350  0.14754000  1
  O  O117  1  0.84873850  0.76116650  0.39754000  1
  O  O118  1  0.81552500  0.31200950  0.18708350  1
  O  O119  1  0.76961250  0.89391600  0.35960550  1
  O  O120  1  0.98038750  0.85608400  0.89039450  1
  O  O121  1  0.43447500  0.43799050  0.56291650  1
  O  O122  1  0.40126150  0.48883350  0.85246000  1
  O  O123  1  0.65126150  0.26116650  0.60246000  1
  O  O124  1  0.90126150  0.51116650  0.64754000  1
  O  O125  1  0.59871900  0.35074100  0.72250000  1
  O  O126  1  0.93447500  0.56200950  0.93708350  1
  O  O127  1  0.06552500  0.43799050  0.93708350  1
  O  O128  1  0.40128100  0.64925900  0.72250000  1
  O  O129  1  0.59873850  0.51116650  0.85246000  1
  O  O130  1  0.73038750  0.39391600  0.64039450  1
  O  O131  1  0.56552500  0.56200950  0.56291650  1
  O  O132  1  0.48038750  0.14391600  0.60960550  1
  O  O133  1  0.01961250  0.14391600  0.89039450  1
  O  O134  1  0.34871900  0.39925900  0.97250000  1
  O  O135  1  0.09871900  0.64925900  0.77750000  1
  O  O136  1  0.65128100  0.60074100  0.97250000  1
  O  O137  1  0.90128100  0.35074100  0.77750000  1
  O  O138  1  0.23038750  0.60608400  0.85960550  1
  O  O139  1  0.26961250  0.60608400  0.64039450  1
  O  O140  1  0.68447500  0.68799050  0.68708350  1
  O  O141  1  0.51961250  0.85608400  0.60960550  1
  O  O142  1  0.15126150  0.73883350  0.89754000  1
  O  O143  1  0.84871900  0.60074100  0.52750000  1
  O  O144  1  0.68447500  0.81200950  0.81291650  1
  O  O145  1  0.81552500  0.68799050  0.81291650  1
  O  O146  1  0.15128100  0.39925900  0.52750000  1
  O  O147  1  0.34873850  0.73883350  0.60246000  1
  O  O148  1  0.09873850  0.48883350  0.64754000  1
  O  O149  1  0.84873850  0.26116650  0.89754000  1
  O  O150  1  0.81552500  0.81200950  0.68708350  1
  O  O151  1  0.76961250  0.39391600  0.85960550  1
  O  O152  1  0.48038750  0.35608400  0.89039450  1
  O  O153  1  0.93447500  0.93799050  0.56291650  1
  O  O154  1  0.90126150  0.98883350  0.85246000  1
  O  O155  1  0.15126150  0.76116650  0.60246000  1
  O  O156  1  0.40126150  0.01116650  0.64754000  1
  O  O157  1  0.09871900  0.85074100  0.72250000  1
  O  O158  1  0.43447500  0.06200950  0.93708350  1
  O  O159  1  0.56552500  0.93799050  0.93708350  1
  O  O160  1  0.90128100  0.14925900  0.72250000  1
  O  O161  1  0.09873850  0.01116650  0.85246000  1
  O  O162  1  0.23038750  0.89391600  0.64039450  1
  O  O163  1  0.06552500  0.06200950  0.56291650  1
  O  O164  1  0.98038750  0.64391600  0.60960550  1
  O  O165  1  0.51961250  0.64391600  0.89039450  1
  O  O166  1  0.84871900  0.89925900  0.97250000  1
  O  O167  1  0.59871900  0.14925900  0.77750000  1
  O  O168  1  0.15128100  0.10074100  0.97250000  1
  O  O169  1  0.40128100  0.85074100  0.77750000  1
  O  O170  1  0.73038750  0.10608400  0.85960550  1
  O  O171  1  0.76961250  0.10608400  0.64039450  1
  O  O172  1  0.18447500  0.18799050  0.68708350  1
  O  O173  1  0.01961250  0.35608400  0.60960550  1
  O  O174  1  0.65126150  0.23883350  0.89754000  1
  O  O175  1  0.34871900  0.10074100  0.52750000  1
  O  O176  1  0.18447500  0.31200950  0.81291650  1
  O  O177  1  0.31552500  0.18799050  0.81291650  1
  O  O178  1  0.65128100  0.89925900  0.52750000  1
  O  O179  1  0.84873850  0.23883350  0.60246000  1
  O  O180  1  0.59873850  0.98883350  0.64754000  1
  O  O181  1  0.34873850  0.76116650  0.89754000  1
  O  O182  1  0.31552500  0.31200950  0.68708350  1
  O  O183  1  0.26961250  0.89391600  0.85960550  1
  O  O184  1  0.48038750  0.85608400  0.39039450  1
  O  O185  1  0.93447500  0.43799050  0.06291650  1
  O  O186  1  0.90126150  0.48883350  0.35246000  1
  O  O187  1  0.15126150  0.26116650  0.10246000  1
  O  O188  1  0.40126150  0.51116650  0.14754000  1
  O  O189  1  0.09871900  0.35074100  0.22250000  1
  O  O190  1  0.43447500  0.56200950  0.43708350  1
  O  O191  1  0.56552500  0.43799050  0.43708350  1
  O  O192  1  0.90128100  0.64925900  0.22250000  1
  O  O193  1  0.09873850  0.51116650  0.35246000  1
  O  O194  1  0.23038750  0.39391600  0.14039450  1
  O  O195  1  0.06552500  0.56200950  0.06291650  1
  O  O196  1  0.98038750  0.14391600  0.10960550  1
  O  O197  1  0.51961250  0.14391600  0.39039450  1
  O  O198  1  0.84871900  0.39925900  0.47250000  1
  O  O199  1  0.59871900  0.64925900  0.27750000  1
  O  O200  1  0.15128100  0.60074100  0.47250000  1
  O  O201  1  0.40128100  0.35074100  0.27750000  1
  O  O202  1  0.73038750  0.60608400  0.35960550  1
  O  O203  1  0.76961250  0.60608400  0.14039450  1
  O  O204  1  0.18447500  0.68799050  0.18708350  1
  O  O205  1  0.01961250  0.85608400  0.10960550  1
  O  O206  1  0.65126150  0.73883350  0.39754000  1
  O  O207  1  0.34871900  0.60074100  0.02750000  1
  O  O208  1  0.18447500  0.81200950  0.31291650  1
  O  O209  1  0.31552500  0.68799050  0.31291650  1
  O  O210  1  0.65128100  0.39925900  0.02750000  1
  O  O211  1  0.84873850  0.73883350  0.10246000  1
  O  O212  1  0.59873850  0.48883350  0.14754000  1
  O  O213  1  0.34873850  0.26116650  0.39754000  1
  O  O214  1  0.31552500  0.81200950  0.18708350  1
  O  O215  1  0.26961250  0.39391600  0.35960550  1
