# generated using pymatgen
data_Ba2Sm2Fe4O11
_symmetry_space_group_name_H-M   'P 1'
_cell_length_a   8.05249000
_cell_length_b   15.76706400
_cell_length_c   3.94164100
_cell_angle_alpha   90.00000000
_cell_angle_beta   90.00000000
_cell_angle_gamma   90.00000000
_symmetry_Int_Tables_number   1
_chemical_formula_structural   Ba2Sm2Fe4O11
_chemical_formula_sum   'Ba4 Sm4 Fe8 O22'
_cell_volume   500.44700138
_cell_formula_units_Z   2
loop_
 _symmetry_equiv_pos_site_id
 _symmetry_equiv_pos_as_xyz
  1  'x, y, z'
loop_
 _atom_site_type_symbol
 _atom_site_label
 _atom_site_symmetry_multiplicity
 _atom_site_fract_x
 _atom_site_fract_y
 _atom_site_fract_z
 _atom_site_occupancy
  Ba  Ba0  1  0.25000000  0.25000000  0.50000000  1
  Ba  Ba1  1  0.75000000  0.25000000  0.50000000  1
  Ba  Ba2  1  0.75000000  0.75000000  0.50000000  1
  Ba  Ba3  1  0.25000000  0.75000000  0.50000000  1
  Sm  Sm4  1  0.22855900  0.00000000  0.50000000  1
  Sm  Sm5  1  0.77144100  0.00000000  0.50000000  1
  Sm  Sm6  1  0.72855900  0.50000000  0.50000000  1
  Sm  Sm7  1  0.27144100  0.50000000  0.50000000  1
  Fe  Fe8  1  0.00000000  0.37610000  0.00000000  1
  Fe  Fe9  1  0.00000000  0.12292400  0.00000000  1
  Fe  Fe10  1  0.50000000  0.37707600  0.00000000  1
  Fe  Fe11  1  0.50000000  0.12390000  0.00000000  1
  Fe  Fe12  1  0.50000000  0.87610000  0.00000000  1
  Fe  Fe13  1  0.50000000  0.62292400  0.00000000  1
  Fe  Fe14  1  0.00000000  0.87707600  0.00000000  1
  Fe  Fe15  1  0.00000000  0.62390000  0.00000000  1
  O  O16  1  0.24123200  0.39706300  0.00000000  1
  O  O17  1  0.25876800  0.10293700  0.00000000  1
  O  O18  1  0.50000000  0.24750000  0.00000000  1
  O  O19  1  0.00000000  0.40969600  0.50000000  1
  O  O20  1  0.50000000  0.38397100  0.50000000  1
  O  O21  1  0.75876800  0.39706300  0.00000000  1
  O  O22  1  0.74123200  0.10293700  0.00000000  1
  O  O23  1  0.00000000  0.25250000  0.00000000  1
  O  O24  1  0.00000000  0.11602900  0.50000000  1
  O  O25  1  0.00000000  0.00000000  0.00000000  1
  O  O26  1  0.50000000  0.09030400  0.50000000  1
  O  O27  1  0.74123200  0.89706300  0.00000000  1
  O  O28  1  0.75876800  0.60293700  0.00000000  1
  O  O29  1  0.00000000  0.74750000  0.00000000  1
  O  O30  1  0.50000000  0.90969600  0.50000000  1
  O  O31  1  0.00000000  0.88397100  0.50000000  1
  O  O32  1  0.25876800  0.89706300  0.00000000  1
  O  O33  1  0.24123200  0.60293700  0.00000000  1
  O  O34  1  0.50000000  0.75250000  0.00000000  1
  O  O35  1  0.50000000  0.61602900  0.50000000  1
  O  O36  1  0.50000000  0.50000000  0.00000000  1
  O  O37  1  0.00000000  0.59030400  0.50000000  1
