# generated using pymatgen
data_Li2Co(NiO3)2
_symmetry_space_group_name_H-M   'P 1'
_cell_length_a   4.96018000
_cell_length_b   8.33585000
_cell_length_c   9.87211700
_cell_angle_alpha   90.00000000
_cell_angle_beta   90.00000000
_cell_angle_gamma   90.00000000
_symmetry_Int_Tables_number   1
_chemical_formula_structural   Li2Co(NiO3)2
_chemical_formula_sum   'Li8 Co4 Ni8 O24'
_cell_volume   408.18554566
_cell_formula_units_Z   4
loop_
 _symmetry_equiv_pos_site_id
 _symmetry_equiv_pos_as_xyz
  1  'x, y, z'
loop_
 _atom_site_type_symbol
 _atom_site_label
 _atom_site_symmetry_multiplicity
 _atom_site_fract_x
 _atom_site_fract_y
 _atom_site_fract_z
 _atom_site_occupancy
  Li  Li0  1  0.39560400  0.75069300  0.75064800  1
  Li  Li1  1  0.60439600  0.75069300  0.24935200  1
  Li  Li2  1  0.39560400  0.25069300  0.74935200  1
  Li  Li3  1  0.60439600  0.25069300  0.25064800  1
  Li  Li4  1  0.89560400  0.25069300  0.75064800  1
  Li  Li5  1  0.10439600  0.25069300  0.24935200  1
  Li  Li6  1  0.89560400  0.75069300  0.74935200  1
  Li  Li7  1  0.10439600  0.75069300  0.25064800  1
  Co  Co8  1  0.50000000  0.49721600  0.00000000  1
  Co  Co9  1  0.50000000  0.99721600  0.50000000  1
  Co  Co10  1  0.00000000  0.99721600  0.00000000  1
  Co  Co11  1  0.00000000  0.49721600  0.50000000  1
  Ni  Ni12  1  0.50000000  0.83535600  0.00000000  1
  Ni  Ni13  1  0.50000000  0.33535600  0.50000000  1
  Ni  Ni14  1  0.50000000  0.66400300  0.50000000  1
  Ni  Ni15  1  0.50000000  0.16400300  0.00000000  1
  Ni  Ni16  1  0.00000000  0.33535600  0.00000000  1
  Ni  Ni17  1  0.00000000  0.83535600  0.50000000  1
  Ni  Ni18  1  0.00000000  0.16400300  0.50000000  1
  Ni  Ni19  1  0.00000000  0.66400300  0.00000000  1
  O  O20  1  0.17074050  0.99966050  0.59672900  1
  O  O21  1  0.32925950  0.99966050  0.09672900  1
  O  O22  1  0.67074050  0.99966050  0.90327100  1
  O  O23  1  0.64383550  0.32701950  0.89283100  1
  O  O24  1  0.82925950  0.99966050  0.40327100  1
  O  O25  1  0.35616450  0.82701950  0.39283100  1
  O  O26  1  0.64383550  0.82701950  0.60716900  1
  O  O27  1  0.35616450  0.32701950  0.10716900  1
  O  O28  1  0.82926400  0.16772800  0.10026700  1
  O  O29  1  0.17073600  0.16772800  0.89973300  1
  O  O30  1  0.32926400  0.16772800  0.39973300  1
  O  O31  1  0.67073600  0.16772800  0.60026700  1
  O  O32  1  0.67074050  0.49966050  0.59672900  1
  O  O33  1  0.82925950  0.49966050  0.09672900  1
  O  O34  1  0.17074050  0.49966050  0.90327100  1
  O  O35  1  0.14383550  0.82701950  0.89283100  1
  O  O36  1  0.32925950  0.49966050  0.40327100  1
  O  O37  1  0.85616450  0.32701950  0.39283100  1
  O  O38  1  0.14383550  0.32701950  0.60716900  1
  O  O39  1  0.85616450  0.82701950  0.10716900  1
  O  O40  1  0.32926400  0.66772800  0.10026700  1
  O  O41  1  0.67073600  0.66772800  0.89973300  1
  O  O42  1  0.82926400  0.66772800  0.39973300  1
  O  O43  1  0.17073600  0.66772800  0.60026700  1
