# generated using pymatgen
data_Li2Cr3SnO8
_symmetry_space_group_name_H-M   'P 1'
_cell_length_a   6.03265140
_cell_length_b   6.03265140
_cell_length_c   14.46651796
_cell_angle_alpha   90.00000000
_cell_angle_beta   90.00000000
_cell_angle_gamma   120.00000000
_symmetry_Int_Tables_number   1
_chemical_formula_structural   Li2Cr3SnO8
_chemical_formula_sum   'Li6 Cr9 Sn3 O24'
_cell_volume   455.94357800
_cell_formula_units_Z   3
loop_
 _symmetry_equiv_pos_site_id
 _symmetry_equiv_pos_as_xyz
  1  'x, y, z'
loop_
 _atom_site_type_symbol
 _atom_site_label
 _atom_site_symmetry_multiplicity
 _atom_site_fract_x
 _atom_site_fract_y
 _atom_site_fract_z
 _atom_site_occupancy
  Li  Li0  1  0.33333333  0.66666667  0.54398467  1
  Li  Li1  1  0.33333333  0.66666667  0.16946467  1
  Li  Li2  1  0.00000000  0.00000000  0.87731800  1
  Li  Li3  1  0.00000000  0.00000000  0.50279800  1
  Li  Li4  1  0.66666667  0.33333333  0.21065133  1
  Li  Li5  1  0.66666667  0.33333333  0.83613133  1
  Cr  Cr6  1  0.65352400  0.82676200  0.32970000  1
  Cr  Cr7  1  0.17323800  0.82676200  0.32970000  1
  Cr  Cr8  1  0.17323800  0.34647600  0.32970000  1
  Cr  Cr9  1  0.32019067  0.16009533  0.66303333  1
  Cr  Cr10  1  0.83990467  0.16009533  0.66303333  1
  Cr  Cr11  1  0.83990467  0.67980933  0.66303333  1
  Cr  Cr12  1  0.98685733  0.49342867  0.99636667  1
  Cr  Cr13  1  0.50657133  0.49342867  0.99636667  1
  Cr  Cr14  1  0.50657133  0.01314267  0.99636667  1
  Sn  Sn15  1  0.33333333  0.66666667  0.78070567  1
  Sn  Sn16  1  0.00000000  0.00000000  0.11403900  1
  Sn  Sn17  1  0.66666667  0.33333333  0.44737233  1
  O  O18  1  0.33333333  0.66666667  0.40467667  1
  O  O19  1  0.49012667  0.98025333  0.26386433  1
  O  O20  1  0.49012667  0.50987333  0.26386433  1
  O  O21  1  0.01974667  0.50987333  0.26386433  1
  O  O22  1  0.63427733  0.81713867  0.07726067  1
  O  O23  1  0.18286133  0.81713867  0.07726067  1
  O  O24  1  0.18286133  0.36572267  0.07726067  1
  O  O25  1  0.33333333  0.66666667  0.92202267  1
  O  O26  1  0.00000000  0.00000000  0.73801000  1
  O  O27  1  0.15679333  0.31358667  0.59719767  1
  O  O28  1  0.15679333  0.84320667  0.59719767  1
  O  O29  1  0.68641333  0.84320667  0.59719767  1
  O  O30  1  0.30094400  0.15047200  0.41059400  1
  O  O31  1  0.84952800  0.15047200  0.41059400  1
  O  O32  1  0.84952800  0.69905600  0.41059400  1
  O  O33  1  0.00000000  0.00000000  0.25535600  1
  O  O34  1  0.66666667  0.33333333  0.07134333  1
  O  O35  1  0.82346000  0.64692000  0.93053100  1
  O  O36  1  0.82346000  0.17654000  0.93053100  1
  O  O37  1  0.35308000  0.17654000  0.93053100  1
  O  O38  1  0.96761067  0.48380533  0.74392733  1
  O  O39  1  0.51619467  0.48380533  0.74392733  1
  O  O40  1  0.51619467  0.03238933  0.74392733  1
  O  O41  1  0.66666667  0.33333333  0.58868933  1
