# generated using pymatgen
data_LiNb8O10
_symmetry_space_group_name_H-M   'P 1'
_cell_length_a   6.15757800
_cell_length_b   6.15757800
_cell_length_c   25.76075000
_cell_angle_alpha   90.00000000
_cell_angle_beta   90.00000000
_cell_angle_gamma   90.00000000
_symmetry_Int_Tables_number   1
_chemical_formula_structural   LiNb8O10
_chemical_formula_sum   'Li4 Nb32 O40'
_cell_volume   976.73859027
_cell_formula_units_Z   4
loop_
 _symmetry_equiv_pos_site_id
 _symmetry_equiv_pos_as_xyz
  1  'x, y, z'
loop_
 _atom_site_type_symbol
 _atom_site_label
 _atom_site_symmetry_multiplicity
 _atom_site_fract_x
 _atom_site_fract_y
 _atom_site_fract_z
 _atom_site_occupancy
  Li  Li0  1  0.50000000  0.50000000  0.00000000  1
  Li  Li1  1  0.50000000  0.00000000  0.25000000  1
  Li  Li2  1  0.00000000  0.00000000  0.50000000  1
  Li  Li3  1  0.00000000  0.50000000  0.75000000  1
  Nb  Nb4  1  0.74590000  0.50000000  0.29965800  1
  Nb  Nb5  1  0.75592450  0.50000000  0.12608050  1
  Nb  Nb6  1  0.00000000  0.25410000  0.04965800  1
  Nb  Nb7  1  0.50000000  0.74407550  0.37608050  1
  Nb  Nb8  1  0.00000000  0.25592450  0.37391950  1
  Nb  Nb9  1  0.00000000  0.74590000  0.04965800  1
  Nb  Nb10  1  0.50000000  0.25592450  0.37608050  1
  Nb  Nb11  1  0.00000000  0.24590000  0.20034200  1
  Nb  Nb12  1  0.24407550  0.00000000  0.12391950  1
  Nb  Nb13  1  0.24407550  0.50000000  0.12608050  1
  Nb  Nb14  1  0.75410000  0.50000000  0.45034200  1
  Nb  Nb15  1  0.75592450  0.00000000  0.12391950  1
  Nb  Nb16  1  0.25410000  0.50000000  0.29965800  1
  Nb  Nb17  1  0.00000000  0.75410000  0.20034200  1
  Nb  Nb18  1  0.00000000  0.74407550  0.37391950  1
  Nb  Nb19  1  0.24590000  0.50000000  0.45034200  1
  Nb  Nb20  1  0.24590000  0.00000000  0.79965800  1
  Nb  Nb21  1  0.25592450  0.00000000  0.62608050  1
  Nb  Nb22  1  0.50000000  0.75410000  0.54965800  1
  Nb  Nb23  1  0.00000000  0.24407550  0.87608050  1
  Nb  Nb24  1  0.50000000  0.75592450  0.87391950  1
  Nb  Nb25  1  0.50000000  0.24590000  0.54965800  1
  Nb  Nb26  1  0.00000000  0.75592450  0.87608050  1
  Nb  Nb27  1  0.50000000  0.74590000  0.70034200  1
  Nb  Nb28  1  0.74407550  0.50000000  0.62391950  1
  Nb  Nb29  1  0.74407550  0.00000000  0.62608050  1
  Nb  Nb30  1  0.25410000  0.00000000  0.95034200  1
  Nb  Nb31  1  0.25592450  0.50000000  0.62391950  1
  Nb  Nb32  1  0.75410000  0.00000000  0.79965800  1
  Nb  Nb33  1  0.50000000  0.25410000  0.70034200  1
  Nb  Nb34  1  0.50000000  0.24407550  0.87391950  1
  Nb  Nb35  1  0.74590000  0.00000000  0.95034200  1
  O  O36  1  0.77274200  0.50000000  0.21195600  1
  O  O37  1  0.50000000  0.72725800  0.46195600  1
  O  O38  1  0.00000000  0.27274200  0.28804400  1
  O  O39  1  0.00000000  0.26803200  0.45752500  1
  O  O40  1  0.50000000  0.27274200  0.46195600  1
  O  O41  1  0.76803200  0.50000000  0.04247500  1
  O  O42  1  0.22725800  0.00000000  0.03804400  1
  O  O43  1  0.23196800  0.00000000  0.20752500  1
  O  O44  1  0.22725800  0.50000000  0.21195600  1
  O  O45  1  0.25000000  0.00000000  0.37500000  1
  O  O46  1  0.75000000  0.00000000  0.37500000  1
  O  O47  1  0.76803200  0.00000000  0.20752500  1
  O  O48  1  0.23196800  0.50000000  0.04247500  1
  O  O49  1  0.00000000  0.72725800  0.28804400  1
  O  O50  1  0.00000000  0.73196800  0.45752500  1
  O  O51  1  0.50000000  0.73196800  0.29247500  1
  O  O52  1  0.50000000  0.26803200  0.29247500  1
  O  O53  1  0.50000000  0.25000000  0.12500000  1
  O  O54  1  0.50000000  0.75000000  0.12500000  1
  O  O55  1  0.77274200  0.00000000  0.03804400  1
  O  O56  1  0.27274200  0.00000000  0.71195600  1
  O  O57  1  0.00000000  0.22725800  0.96195600  1
  O  O58  1  0.50000000  0.77274200  0.78804400  1
  O  O59  1  0.50000000  0.76803200  0.95752500  1
  O  O60  1  0.00000000  0.77274200  0.96195600  1
  O  O61  1  0.26803200  0.00000000  0.54247500  1
  O  O62  1  0.72725800  0.50000000  0.53804400  1
  O  O63  1  0.73196800  0.50000000  0.70752500  1
  O  O64  1  0.72725800  0.00000000  0.71195600  1
  O  O65  1  0.75000000  0.50000000  0.87500000  1
  O  O66  1  0.25000000  0.50000000  0.87500000  1
  O  O67  1  0.26803200  0.50000000  0.70752500  1
  O  O68  1  0.73196800  0.00000000  0.54247500  1
  O  O69  1  0.50000000  0.22725800  0.78804400  1
  O  O70  1  0.50000000  0.23196800  0.95752500  1
  O  O71  1  0.00000000  0.23196800  0.79247500  1
  O  O72  1  0.00000000  0.76803200  0.79247500  1
  O  O73  1  0.00000000  0.75000000  0.62500000  1
  O  O74  1  0.00000000  0.25000000  0.62500000  1
  O  O75  1  0.27274200  0.50000000  0.53804400  1
