# generated using pymatgen
data_Co2NiO6
_symmetry_space_group_name_H-M   'P 1'
_cell_length_a   4.88442411
_cell_length_b   8.48040449
_cell_length_c   9.58248500
_cell_angle_alpha   90.00000000
_cell_angle_beta   90.00000000
_cell_angle_gamma   90.00000000
_symmetry_Int_Tables_number   1
_chemical_formula_structural   Co2NiO6
_chemical_formula_sum   'Co8 Ni4 O24'
_cell_volume   396.92466007
_cell_formula_units_Z   4
loop_
 _symmetry_equiv_pos_site_id
 _symmetry_equiv_pos_as_xyz
  1  'x, y, z'
loop_
 _atom_site_type_symbol
 _atom_site_label
 _atom_site_symmetry_multiplicity
 _atom_site_fract_x
 _atom_site_fract_y
 _atom_site_fract_z
 _atom_site_occupancy
  Co  Co0  1  0.00000000  0.66664950  0.50000000  1
  Co  Co1  1  0.00000000  0.83335050  0.00000000  1
  Co  Co2  1  0.50000000  0.66664950  0.00000000  1
  Co  Co3  1  0.50000000  0.83335050  0.50000000  1
  Co  Co4  1  0.50000000  0.16664950  0.50000000  1
  Co  Co5  1  0.50000000  0.33335050  0.00000000  1
  Co  Co6  1  0.00000000  0.16664950  0.00000000  1
  Co  Co7  1  0.00000000  0.33335050  0.50000000  1
  Ni  Ni8  1  0.50000000  0.50000000  0.50000000  1
  Ni  Ni9  1  0.50000000  0.00000000  0.00000000  1
  Ni  Ni10  1  0.00000000  0.00000000  0.50000000  1
  Ni  Ni11  1  0.00000000  0.50000000  0.00000000  1
  O  O12  1  0.16754800  0.00000000  0.09800300  1
  O  O13  1  0.83245200  0.50000000  0.59800300  1
  O  O14  1  0.16754800  0.50000000  0.40199700  1
  O  O15  1  0.83245200  0.00000000  0.90199700  1
  O  O16  1  0.66606500  0.66605600  0.40201900  1
  O  O17  1  0.83393500  0.66605600  0.90201900  1
  O  O18  1  0.16606500  0.66605600  0.09798100  1
  O  O19  1  0.33393500  0.66605600  0.59798100  1
  O  O20  1  0.83393500  0.83394400  0.59798100  1
  O  O21  1  0.16606500  0.83394400  0.40201900  1
  O  O22  1  0.33393500  0.83394400  0.90201900  1
  O  O23  1  0.66606500  0.83394400  0.09798100  1
  O  O24  1  0.66754800  0.50000000  0.09800300  1
  O  O25  1  0.33245200  0.00000000  0.59800300  1
  O  O26  1  0.66754800  0.00000000  0.40199700  1
  O  O27  1  0.33245200  0.50000000  0.90199700  1
  O  O28  1  0.16606500  0.16605600  0.40201900  1
  O  O29  1  0.33393500  0.16605600  0.90201900  1
  O  O30  1  0.66606500  0.16605600  0.09798100  1
  O  O31  1  0.83393500  0.16605600  0.59798100  1
  O  O32  1  0.33393500  0.33394400  0.59798100  1
  O  O33  1  0.66606500  0.33394400  0.40201900  1
  O  O34  1  0.83393500  0.33394400  0.90201900  1
  O  O35  1  0.16606500  0.33394400  0.09798100  1
