# generated using pymatgen
data_FeCo3O8
_symmetry_space_group_name_H-M   'P 1'
_cell_length_a   5.68433391
_cell_length_b   5.68433391
_cell_length_c   14.07397487
_cell_angle_alpha   90.00000000
_cell_angle_beta   90.00000000
_cell_angle_gamma   120.00000000
_symmetry_Int_Tables_number   1
_chemical_formula_structural   FeCo3O8
_chemical_formula_sum   'Fe3 Co9 O24'
_cell_volume   393.82797870
_cell_formula_units_Z   3
loop_
 _symmetry_equiv_pos_site_id
 _symmetry_equiv_pos_as_xyz
  1  'x, y, z'
loop_
 _atom_site_type_symbol
 _atom_site_label
 _atom_site_symmetry_multiplicity
 _atom_site_fract_x
 _atom_site_fract_y
 _atom_site_fract_z
 _atom_site_occupancy
  Fe  Fe0  1  0.66666667  0.33333333  0.21149033  1
  Fe  Fe1  1  0.33333333  0.66666667  0.54482367  1
  Fe  Fe2  1  0.00000000  0.00000000  0.87815700  1
  Co  Co3  1  0.00893800  0.50446900  0.00037900  1
  Co  Co4  1  0.49553100  0.99106200  0.00037900  1
  Co  Co5  1  0.49553100  0.50446900  0.00037900  1
  Co  Co6  1  0.67560467  0.83780233  0.33371233  1
  Co  Co7  1  0.16219767  0.32439533  0.33371233  1
  Co  Co8  1  0.16219767  0.83780233  0.33371233  1
  Co  Co9  1  0.34227133  0.17113567  0.66704567  1
  Co  Co10  1  0.82886433  0.65772867  0.66704567  1
  Co  Co11  1  0.82886433  0.17113567  0.66704567  1
  O  O12  1  0.00000000  0.00000000  0.26340000  1
  O  O13  1  0.18211567  0.81788433  0.06689133  1
  O  O14  1  0.18211567  0.36423133  0.06689133  1
  O  O15  1  0.63576867  0.81788433  0.06689133  1
  O  O16  1  0.02227600  0.51113800  0.26377600  1
  O  O17  1  0.48886200  0.97772400  0.26377600  1
  O  O18  1  0.48886200  0.51113800  0.26377600  1
  O  O19  1  0.66666667  0.33333333  0.07363733  1
  O  O20  1  0.66666667  0.33333333  0.59673333  1
  O  O21  1  0.84878233  0.15121767  0.40022467  1
  O  O22  1  0.84878233  0.69756467  0.40022467  1
  O  O23  1  0.30243533  0.15121767  0.40022467  1
  O  O24  1  0.68894267  0.84447133  0.59710933  1
  O  O25  1  0.15552867  0.31105733  0.59710933  1
  O  O26  1  0.15552867  0.84447133  0.59710933  1
  O  O27  1  0.33333333  0.66666667  0.40697067  1
  O  O28  1  0.33333333  0.66666667  0.93006667  1
  O  O29  1  0.51544900  0.48455100  0.73355800  1
  O  O30  1  0.51544900  0.03089800  0.73355800  1
  O  O31  1  0.96910200  0.48455100  0.73355800  1
  O  O32  1  0.35560933  0.17780467  0.93044267  1
  O  O33  1  0.82219533  0.64439067  0.93044267  1
  O  O34  1  0.82219533  0.17780467  0.93044267  1
  O  O35  1  0.00000000  0.00000000  0.74030400  1
