# generated using pymatgen
data_Li3V2(O2F)2
_symmetry_space_group_name_H-M   'P 1'
_cell_length_a   10.34329200
_cell_length_b   5.99784400
_cell_length_c   14.94073027
_cell_angle_alpha   90.00000000
_cell_angle_beta   90.10743399
_cell_angle_gamma   90.00000000
_symmetry_Int_Tables_number   1
_chemical_formula_structural   Li3V2(O2F)2
_chemical_formula_sum   'Li24 V16 O32 F16'
_cell_volume   926.88320519
_cell_formula_units_Z   8
loop_
 _symmetry_equiv_pos_site_id
 _symmetry_equiv_pos_as_xyz
  1  'x, y, z'
loop_
 _atom_site_type_symbol
 _atom_site_label
 _atom_site_symmetry_multiplicity
 _atom_site_fract_x
 _atom_site_fract_y
 _atom_site_fract_z
 _atom_site_occupancy
  Li  Li0  1  0.57627550  0.28720250  0.16641200  1
  Li  Li1  1  0.59164200  0.26073200  0.66711200  1
  Li  Li2  1  0.50077500  0.00000000  0.02689400  1
  Li  Li3  1  0.57627550  0.71279750  0.16641200  1
  Li  Li4  1  0.59164200  0.73926800  0.66711200  1
  Li  Li5  1  0.66885500  0.00000000  0.29241700  1
  Li  Li6  1  0.83632000  0.00000000  0.66306500  1
  Li  Li7  1  0.26448050  0.26110950  0.04588600  1
  Li  Li8  1  0.32674900  0.00000000  0.17523400  1
  Li  Li9  1  0.26448050  0.73889050  0.04588600  1
  Li  Li10  1  0.40481850  0.26586850  0.29658200  1
  Li  Li11  1  0.40481850  0.73413150  0.29658200  1
  Li  Li12  1  0.07627550  0.78720250  0.16641200  1
  Li  Li13  1  0.09164200  0.76073200  0.66711200  1
  Li  Li14  1  0.00077500  0.50000000  0.02689400  1
  Li  Li15  1  0.07627550  0.21279750  0.16641200  1
  Li  Li16  1  0.09164200  0.23926800  0.66711200  1
  Li  Li17  1  0.16885500  0.50000000  0.29241700  1
  Li  Li18  1  0.33632000  0.50000000  0.66306500  1
  Li  Li19  1  0.76448050  0.76110950  0.04588600  1
  Li  Li20  1  0.82674900  0.50000000  0.17523400  1
  Li  Li21  1  0.76448050  0.23889050  0.04588600  1
  Li  Li22  1  0.90481850  0.76586850  0.29658200  1
  Li  Li23  1  0.90481850  0.23413150  0.29658200  1
  V  V24  1  0.49655400  0.00000000  0.50819100  1
  V  V25  1  0.00305400  0.00000000  0.49302900  1
  V  V26  1  0.66741800  0.00000000  0.83549100  1
  V  V27  1  0.75103250  0.75306650  0.49945100  1
  V  V28  1  0.16939000  0.00000000  0.83605100  1
  V  V29  1  0.75103250  0.24693350  0.49945100  1
  V  V30  1  0.41690700  0.24884300  0.82730900  1
  V  V31  1  0.41690700  0.75115700  0.82730900  1
  V  V32  1  0.99655400  0.50000000  0.50819100  1
  V  V33  1  0.50305400  0.50000000  0.49302900  1
  V  V34  1  0.16741800  0.50000000  0.83549100  1
  V  V35  1  0.25103250  0.25306650  0.49945100  1
  V  V36  1  0.66939000  0.50000000  0.83605100  1
  V  V37  1  0.25103250  0.74693350  0.49945100  1
  V  V38  1  0.91690700  0.74884300  0.82730900  1
  V  V39  1  0.91690700  0.25115700  0.82730900  1
  O  O40  1  0.58272150  0.25013650  0.89663000  1
  O  O41  1  0.58086100  0.24803400  0.43747100  1
  O  O42  1  0.51044000  0.00000000  0.75909500  1
  O  O43  1  0.58086100  0.75196600  0.43747100  1
  O  O44  1  0.58272150  0.74986350  0.89663000  1
  O  O45  1  0.00778100  0.00000000  0.75528000  1
  O  O46  1  0.67210300  0.00000000  0.57716700  1
  O  O47  1  0.82608800  0.00000000  0.89602500  1
  O  O48  1  0.83660800  0.00000000  0.42583300  1
  O  O49  1  0.74435500  0.75412000  0.75973500  1
  O  O50  1  0.16003500  0.00000000  0.57174900  1
  O  O51  1  0.33014100  0.00000000  0.43824000  1
  O  O52  1  0.32439600  0.00000000  0.89847700  1
  O  O53  1  0.74435500  0.24588000  0.75973500  1
  O  O54  1  0.41704250  0.26849450  0.57225000  1
  O  O55  1  0.41704250  0.73150550  0.57225000  1
  O  O56  1  0.08272150  0.75013650  0.89663000  1
  O  O57  1  0.08086100  0.74803400  0.43747100  1
  O  O58  1  0.01044000  0.50000000  0.75909500  1
  O  O59  1  0.08086100  0.25196600  0.43747100  1
  O  O60  1  0.08272150  0.24986350  0.89663000  1
  O  O61  1  0.50778100  0.50000000  0.75528000  1
  O  O62  1  0.17210300  0.50000000  0.57716700  1
  O  O63  1  0.32608800  0.50000000  0.89602500  1
  O  O64  1  0.33660800  0.50000000  0.42583300  1
  O  O65  1  0.24435500  0.25412000  0.75973500  1
  O  O66  1  0.66003500  0.50000000  0.57174900  1
  O  O67  1  0.83014100  0.50000000  0.43824000  1
  O  O68  1  0.82439600  0.50000000  0.89847700  1
  O  O69  1  0.24435500  0.74588000  0.75973500  1
  O  O70  1  0.91704250  0.76849450  0.57225000  1
  O  O71  1  0.91704250  0.23150550  0.57225000  1
  F  F72  1  0.49222500  0.00000000  0.25681900  1
  F  F73  1  0.99918300  0.00000000  0.25129800  1
  F  F74  1  0.66377800  0.00000000  0.07186500  1
  F  F75  1  0.74254650  0.74768250  0.24569900  1
  F  F76  1  0.18009900  0.00000000  0.08999200  1
  F  F77  1  0.74254650  0.25231750  0.24569900  1
  F  F78  1  0.42465600  0.22436800  0.09102200  1
  F  F79  1  0.42465600  0.77563200  0.09102200  1
  F  F80  1  0.99222500  0.50000000  0.25681900  1
  F  F81  1  0.49918300  0.50000000  0.25129800  1
  F  F82  1  0.16377800  0.50000000  0.07186500  1
  F  F83  1  0.24254650  0.24768250  0.24569900  1
  F  F84  1  0.68009900  0.50000000  0.08999200  1
  F  F85  1  0.24254650  0.75231750  0.24569900  1
  F  F86  1  0.92465600  0.72436800  0.09102200  1
  F  F87  1  0.92465600  0.27563200  0.09102200  1
