# generated using pymatgen
data_LiMn2O2F3
_symmetry_space_group_name_H-M   'P 1'
_cell_length_a   11.18956000
_cell_length_b   4.98898400
_cell_length_c   6.87441999
_cell_angle_alpha   90.00000000
_cell_angle_beta   109.65108361
_cell_angle_gamma   90.00000000
_symmetry_Int_Tables_number   1
_chemical_formula_structural   LiMn2O2F3
_chemical_formula_sum   'Li4 Mn8 O8 F12'
_cell_volume   361.41027780
_cell_formula_units_Z   4
loop_
 _symmetry_equiv_pos_site_id
 _symmetry_equiv_pos_as_xyz
  1  'x, y, z'
loop_
 _atom_site_type_symbol
 _atom_site_label
 _atom_site_symmetry_multiplicity
 _atom_site_fract_x
 _atom_site_fract_y
 _atom_site_fract_z
 _atom_site_occupancy
  Li  Li0  1  0.49698750  0.01066050  0.75094300  1
  Li  Li1  1  0.00301250  0.51066050  0.24905700  1
  Li  Li2  1  0.99698750  0.51066050  0.75094300  1
  Li  Li3  1  0.50301250  0.01066050  0.24905700  1
  Mn  Mn4  1  0.18516650  0.02852950  0.61212300  1
  Mn  Mn5  1  0.18681050  0.97475850  0.11309900  1
  Mn  Mn6  1  0.31483350  0.52852950  0.38787700  1
  Mn  Mn7  1  0.31318950  0.47475850  0.88690100  1
  Mn  Mn8  1  0.68516650  0.52852950  0.61212300  1
  Mn  Mn9  1  0.68681050  0.47475850  0.11309900  1
  Mn  Mn10  1  0.81483350  0.02852950  0.38787700  1
  Mn  Mn11  1  0.81318950  0.97475850  0.88690100  1
  O  O12  1  0.19580100  0.82016900  0.37712300  1
  O  O13  1  0.19807100  0.18088700  0.87876900  1
  O  O14  1  0.30419900  0.32016900  0.62287700  1
  O  O15  1  0.30192900  0.68088700  0.12123100  1
  O  O16  1  0.69580100  0.32016900  0.37712300  1
  O  O17  1  0.69807100  0.68088700  0.87876900  1
  O  O18  1  0.80419900  0.82016900  0.62287700  1
  O  O19  1  0.80192900  0.18088700  0.12123100  1
  F  F20  1  0.00000000  0.78311500  0.00000000  1
  F  F21  1  0.11966950  0.29356750  0.19466700  1
  F  F22  1  0.12005100  0.70735700  0.69383700  1
  F  F23  1  0.38033050  0.79356750  0.80533300  1
  F  F24  1  0.37994900  0.20735700  0.30616300  1
  F  F25  1  0.00000000  0.21272900  0.50000000  1
  F  F26  1  0.50000000  0.28311500  0.00000000  1
  F  F27  1  0.61966950  0.79356750  0.19466700  1
  F  F28  1  0.62005100  0.20735700  0.69383700  1
  F  F29  1  0.88033050  0.29356750  0.80533300  1
  F  F30  1  0.87994900  0.70735700  0.30616300  1
  F  F31  1  0.50000000  0.71272900  0.50000000  1
