# generated using pymatgen
data_FeSeO4
_symmetry_space_group_name_H-M   'P 1'
_cell_length_a   5.60165116
_cell_length_b   8.43505974
_cell_length_c   6.73819000
_cell_angle_alpha   90.00000000
_cell_angle_beta   90.00000000
_cell_angle_gamma   90.00000000
_symmetry_Int_Tables_number   1
_chemical_formula_structural   FeSeO4
_chemical_formula_sum   'Fe4 Se4 O16'
_cell_volume   318.38124433
_cell_formula_units_Z   4
loop_
 _symmetry_equiv_pos_site_id
 _symmetry_equiv_pos_as_xyz
  1  'x, y, z'
loop_
 _atom_site_type_symbol
 _atom_site_label
 _atom_site_symmetry_multiplicity
 _atom_site_fract_x
 _atom_site_fract_y
 _atom_site_fract_z
 _atom_site_occupancy
  Fe  Fe0  1  0.00000000  0.00000000  0.50000000  1
  Fe  Fe1  1  0.00000000  0.00000000  0.00000000  1
  Fe  Fe2  1  0.50000000  0.50000000  0.50000000  1
  Fe  Fe3  1  0.50000000  0.50000000  0.00000000  1
  Se  Se4  1  0.50000000  0.84866650  0.75000000  1
  Se  Se5  1  0.50000000  0.15133350  0.25000000  1
  Se  Se6  1  0.00000000  0.34866650  0.75000000  1
  Se  Se7  1  0.00000000  0.65133350  0.25000000  1
  O  O8  1  0.25308725  0.96617975  0.75000000  1
  O  O9  1  0.25308725  0.03382025  0.25000000  1
  O  O10  1  0.74691275  0.96617975  0.75000000  1
  O  O11  1  0.74691275  0.03382025  0.25000000  1
  O  O12  1  0.50000000  0.74305900  0.54225900  1
  O  O13  1  0.50000000  0.74305900  0.95774100  1
  O  O14  1  0.50000000  0.25694100  0.04225900  1
  O  O15  1  0.50000000  0.25694100  0.45774100  1
  O  O16  1  0.75308725  0.46617975  0.75000000  1
  O  O17  1  0.75308725  0.53382025  0.25000000  1
  O  O18  1  0.24691275  0.46617975  0.75000000  1
  O  O19  1  0.24691275  0.53382025  0.25000000  1
  O  O20  1  0.00000000  0.24305900  0.54225900  1
  O  O21  1  0.00000000  0.24305900  0.95774100  1
  O  O22  1  0.00000000  0.75694100  0.04225900  1
  O  O23  1  0.00000000  0.75694100  0.45774100  1
