# generated using pymatgen
data_Li2FeAsCO7
_symmetry_space_group_name_H-M   'P 1'
_cell_length_a   5.18065181
_cell_length_b   6.61033560
_cell_length_c   8.66636843
_cell_angle_alpha   90.00000000
_cell_angle_beta   93.47071632
_cell_angle_gamma   90.00000000
_symmetry_Int_Tables_number   1
_chemical_formula_structural   Li2FeAsCO7
_chemical_formula_sum   'Li4 Fe2 As2 C2 O14'
_cell_volume   296.24278122
_cell_formula_units_Z   2
loop_
 _symmetry_equiv_pos_site_id
 _symmetry_equiv_pos_as_xyz
  1  'x, y, z'
loop_
 _atom_site_type_symbol
 _atom_site_label
 _atom_site_symmetry_multiplicity
 _atom_site_fract_x
 _atom_site_fract_y
 _atom_site_fract_z
 _atom_site_occupancy
  Li  Li0  1  0.29370200  0.48661200  0.20578225  1
  Li  Li1  1  0.29370200  0.01338800  0.20578225  1
  Li  Li2  1  0.70629800  0.51338800  0.79421775  1
  Li  Li3  1  0.70629800  0.98661200  0.79421775  1
  Fe  Fe4  1  0.71252500  0.25000000  0.34247875  1
  Fe  Fe5  1  0.28747500  0.75000000  0.65752125  1
  As  As6  1  0.77711150  0.75000000  0.42202275  1
  As  As7  1  0.22288850  0.25000000  0.57797725  1
  C  C8  1  0.76178800  0.25000000  0.05381175  1
  C  C9  1  0.23821200  0.75000000  0.94618825  1
  O  O10  1  0.20969800  0.75000000  0.09040325  1
  O  O11  1  0.79030200  0.25000000  0.90959675  1
  O  O12  1  0.53310300  0.25000000  0.11258325  1
  O  O13  1  0.46689700  0.75000000  0.88741675  1
  O  O14  1  0.95820400  0.25000000  0.15816275  1
  O  O15  1  0.04179600  0.75000000  0.84183725  1
  O  O16  1  0.33379150  0.25000000  0.39400375  1
  O  O17  1  0.66620850  0.75000000  0.60599625  1
  O  O18  1  0.11022550  0.75000000  0.44965675  1
  O  O19  1  0.88977450  0.25000000  0.55034325  1
  O  O20  1  0.67113350  0.95359000  0.31555375  1
  O  O21  1  0.67113350  0.54641000  0.31555375  1
  O  O22  1  0.32886650  0.45359000  0.68444625  1
  O  O23  1  0.32886650  0.04641000  0.68444625  1
