# generated using pymatgen
data_V3(O2F)2
_symmetry_space_group_name_H-M   'P 1'
_cell_length_a   9.12743600
_cell_length_b   6.41773200
_cell_length_c   7.45347017
_cell_angle_alpha   90.00000000
_cell_angle_beta   113.40951588
_cell_angle_gamma   90.00000000
_symmetry_Int_Tables_number   1
_chemical_formula_structural   V3(O2F)2
_chemical_formula_sum   'V12 O16 F8'
_cell_volume   400.66762636
_cell_formula_units_Z   4
loop_
 _symmetry_equiv_pos_site_id
 _symmetry_equiv_pos_as_xyz
  1  'x, y, z'
loop_
 _atom_site_type_symbol
 _atom_site_label
 _atom_site_symmetry_multiplicity
 _atom_site_fract_x
 _atom_site_fract_y
 _atom_site_fract_z
 _atom_site_occupancy
  V  V0  1  0.16735600  0.50000000  0.17059400  1
  V  V1  1  0.00000000  0.00000000  0.00000000  1
  V  V2  1  0.18205200  0.50000000  0.66099400  1
  V  V3  1  0.00000000  0.00000000  0.50000000  1
  V  V4  1  0.83264400  0.50000000  0.82940600  1
  V  V5  1  0.81794800  0.50000000  0.33900600  1
  V  V6  1  0.66735600  0.00000000  0.17059400  1
  V  V7  1  0.50000000  0.50000000  0.00000000  1
  V  V8  1  0.68205200  0.00000000  0.66099400  1
  V  V9  1  0.50000000  0.50000000  0.50000000  1
  V  V10  1  0.33264400  0.00000000  0.82940600  1
  V  V11  1  0.31794800  0.00000000  0.33900600  1
  O  O12  1  0.00000000  0.70469800  0.00000000  1
  O  O13  1  0.16724950  0.19596750  0.66480700  1
  O  O14  1  0.59438400  0.50000000  0.29508600  1
  O  O15  1  0.40561600  0.50000000  0.70491400  1
  O  O16  1  0.83275050  0.80403250  0.33519300  1
  O  O17  1  0.00000000  0.29530200  0.00000000  1
  O  O18  1  0.16724950  0.80403250  0.66480700  1
  O  O19  1  0.83275050  0.19596750  0.33519300  1
  O  O20  1  0.50000000  0.20469800  0.00000000  1
  O  O21  1  0.66724950  0.69596750  0.66480700  1
  O  O22  1  0.09438400  0.00000000  0.29508600  1
  O  O23  1  0.90561600  0.00000000  0.70491400  1
  O  O24  1  0.33275050  0.30403250  0.33519300  1
  O  O25  1  0.50000000  0.79530200  0.00000000  1
  O  O26  1  0.66724950  0.30403250  0.66480700  1
  O  O27  1  0.33275050  0.69596750  0.33519300  1
  F  F28  1  0.26948200  0.50000000  0.96526600  1
  F  F29  1  0.94136200  0.50000000  0.63562800  1
  F  F30  1  0.73051800  0.50000000  0.03473400  1
  F  F31  1  0.05863800  0.50000000  0.36437200  1
  F  F32  1  0.76948200  0.00000000  0.96526600  1
  F  F33  1  0.44136200  0.00000000  0.63562800  1
  F  F34  1  0.23051800  0.00000000  0.03473400  1
  F  F35  1  0.55863800  0.00000000  0.36437200  1
