# generated using pymatgen
data_Li2V(CO3)3
_symmetry_space_group_name_H-M   'P 1'
_cell_length_a   7.93426200
_cell_length_b   9.63504800
_cell_length_c   9.79498000
_cell_angle_alpha   90.00000000
_cell_angle_beta   90.00000000
_cell_angle_gamma   90.00000000
_symmetry_Int_Tables_number   1
_chemical_formula_structural   Li2V(CO3)3
_chemical_formula_sum   'Li8 V4 C12 O36'
_cell_volume   748.79678919
_cell_formula_units_Z   4
loop_
 _symmetry_equiv_pos_site_id
 _symmetry_equiv_pos_as_xyz
  1  'x, y, z'
loop_
 _atom_site_type_symbol
 _atom_site_label
 _atom_site_symmetry_multiplicity
 _atom_site_fract_x
 _atom_site_fract_y
 _atom_site_fract_z
 _atom_site_occupancy
  Li  Li0  1  0.34729300  0.97889100  0.25000000  1
  Li  Li1  1  0.46206050  0.71459650  0.25000000  1
  Li  Li2  1  0.46206050  0.28540350  0.75000000  1
  Li  Li3  1  0.34729300  0.02110900  0.75000000  1
  Li  Li4  1  0.84729300  0.47889100  0.25000000  1
  Li  Li5  1  0.96206050  0.21459650  0.25000000  1
  Li  Li6  1  0.96206050  0.78540350  0.75000000  1
  Li  Li7  1  0.84729300  0.52110900  0.75000000  1
  V  V8  1  0.37843950  0.29383150  0.25000000  1
  V  V9  1  0.37843950  0.70616850  0.75000000  1
  V  V10  1  0.87843950  0.79383150  0.25000000  1
  V  V11  1  0.87843950  0.20616850  0.75000000  1
  C  C12  1  0.36979900  0.20275900  0.01839300  1
  C  C13  1  0.72612350  0.01656750  0.25000000  1
  C  C14  1  0.36979900  0.20275900  0.48160700  1
  C  C15  1  0.36979900  0.79724100  0.51839300  1
  C  C16  1  0.72612350  0.98343250  0.75000000  1
  C  C17  1  0.36979900  0.79724100  0.98160700  1
  C  C18  1  0.86979900  0.70275900  0.01839300  1
  C  C19  1  0.22612350  0.51656750  0.25000000  1
  C  C20  1  0.86979900  0.70275900  0.48160700  1
  C  C21  1  0.86979900  0.29724100  0.51839300  1
  C  C22  1  0.22612350  0.48343250  0.75000000  1
  C  C23  1  0.86979900  0.29724100  0.98160700  1
  O  O24  1  0.45376650  0.31396150  0.06244100  1
  O  O25  1  0.36427850  0.83242450  0.10318100  1
  O  O26  1  0.29436350  0.14093050  0.12153800  1
  O  O27  1  0.63117800  0.11867900  0.25000000  1
  O  O28  1  0.66569500  0.88454800  0.25000000  1
  O  O29  1  0.89086500  0.01584500  0.25000000  1
  O  O30  1  0.29436350  0.14093050  0.37846200  1
  O  O31  1  0.36427850  0.83242450  0.39681900  1
  O  O32  1  0.45376650  0.31396150  0.43755900  1
  O  O33  1  0.45376650  0.68603850  0.56244100  1
  O  O34  1  0.36427850  0.16757550  0.60318100  1
  O  O35  1  0.29436350  0.85906950  0.62153800  1
  O  O36  1  0.66569500  0.11545200  0.75000000  1
  O  O37  1  0.63117800  0.88132100  0.75000000  1
  O  O38  1  0.89086500  0.98415500  0.75000000  1
  O  O39  1  0.29436350  0.85906950  0.87846200  1
  O  O40  1  0.36427850  0.16757550  0.89681900  1
  O  O41  1  0.45376650  0.68603850  0.93755900  1
  O  O42  1  0.95376650  0.81396150  0.06244100  1
  O  O43  1  0.86427850  0.33242450  0.10318100  1
  O  O44  1  0.79436350  0.64093050  0.12153800  1
  O  O45  1  0.13117800  0.61867900  0.25000000  1
  O  O46  1  0.16569500  0.38454800  0.25000000  1
  O  O47  1  0.39086500  0.51584500  0.25000000  1
  O  O48  1  0.79436350  0.64093050  0.37846200  1
  O  O49  1  0.86427850  0.33242450  0.39681900  1
  O  O50  1  0.95376650  0.81396150  0.43755900  1
  O  O51  1  0.95376650  0.18603850  0.56244100  1
  O  O52  1  0.86427850  0.66757550  0.60318100  1
  O  O53  1  0.79436350  0.35906950  0.62153800  1
  O  O54  1  0.16569500  0.61545200  0.75000000  1
  O  O55  1  0.13117800  0.38132100  0.75000000  1
  O  O56  1  0.39086500  0.48415500  0.75000000  1
  O  O57  1  0.79436350  0.35906950  0.87846200  1
  O  O58  1  0.86427850  0.66757550  0.89681900  1
  O  O59  1  0.95376650  0.18603850  0.93755900  1
