# generated using pymatgen
data_Bi12AsO20
_symmetry_space_group_name_H-M   'P 1'
_cell_length_a   10.38046000
_cell_length_b   10.38046000
_cell_length_c   10.38046000
_cell_angle_alpha   90.00000000
_cell_angle_beta   90.00000000
_cell_angle_gamma   90.00000000
_symmetry_Int_Tables_number   1
_chemical_formula_structural   Bi12AsO20
_chemical_formula_sum   'Bi24 As2 O40'
_cell_volume   1118.53556586
_cell_formula_units_Z   2
loop_
 _symmetry_equiv_pos_site_id
 _symmetry_equiv_pos_as_xyz
  1  'x, y, z'
loop_
 _atom_site_type_symbol
 _atom_site_label
 _atom_site_symmetry_multiplicity
 _atom_site_fract_x
 _atom_site_fract_y
 _atom_site_fract_z
 _atom_site_occupancy
  Bi  Bi0  1  0.82407100  0.47825400  0.32364900  1
  Bi  Bi1  1  0.97825400  0.17635100  0.67592900  1
  Bi  Bi2  1  0.02174600  0.17635100  0.32407100  1
  Bi  Bi3  1  0.17635100  0.67592900  0.97825400  1
  Bi  Bi4  1  0.17635100  0.32407100  0.02174600  1
  Bi  Bi5  1  0.17592900  0.52174600  0.32364900  1
  Bi  Bi6  1  0.32407100  0.02174600  0.17635100  1
  Bi  Bi7  1  0.32364900  0.82407100  0.47825400  1
  Bi  Bi8  1  0.32364900  0.17592900  0.52174600  1
  Bi  Bi9  1  0.47825400  0.32364900  0.82407100  1
  Bi  Bi10  1  0.52174600  0.32364900  0.17592900  1
  Bi  Bi11  1  0.67592900  0.97825400  0.17635100  1
  Bi  Bi12  1  0.32407100  0.97825400  0.82364900  1
  Bi  Bi13  1  0.47825400  0.67635100  0.17592900  1
  Bi  Bi14  1  0.52174600  0.67635100  0.82407100  1
  Bi  Bi15  1  0.67635100  0.17592900  0.47825400  1
  Bi  Bi16  1  0.67635100  0.82407100  0.52174600  1
  Bi  Bi17  1  0.67592900  0.02174600  0.82364900  1
  Bi  Bi18  1  0.82407100  0.52174600  0.67635100  1
  Bi  Bi19  1  0.82364900  0.32407100  0.97825400  1
  Bi  Bi20  1  0.82364900  0.67592900  0.02174600  1
  Bi  Bi21  1  0.97825400  0.82364900  0.32407100  1
  Bi  Bi22  1  0.02174600  0.82364900  0.67592900  1
  Bi  Bi23  1  0.17592900  0.47825400  0.67635100  1
  As  As24  1  0.00000000  0.00000000  0.00000000  1
  As  As25  1  0.50000000  0.50000000  0.50000000  1
  O  O26  1  0.69718000  0.30282000  0.30282000  1
  O  O27  1  0.86788850  0.24834650  0.50802050  1
  O  O28  1  0.90336150  0.09663850  0.09663850  1
  O  O29  1  0.99197950  0.36788850  0.25165350  1
  O  O30  1  0.00802050  0.63211150  0.25165350  1
  O  O31  1  0.09663850  0.90336150  0.09663850  1
  O  O32  1  0.09663850  0.09663850  0.90336150  1
  O  O33  1  0.13211150  0.24834650  0.49197950  1
  O  O34  1  0.19718000  0.19718000  0.19718000  1
  O  O35  1  0.24834650  0.49197950  0.13211150  1
  O  O36  1  0.24834650  0.50802050  0.86788850  1
  O  O37  1  0.25165350  0.99197950  0.36788850  1
  O  O38  1  0.25165350  0.00802050  0.63211150  1
  O  O39  1  0.30282000  0.30282000  0.69718000  1
  O  O40  1  0.30282000  0.69718000  0.30282000  1
  O  O41  1  0.36788850  0.25165350  0.99197950  1
  O  O42  1  0.40336150  0.40336150  0.40336150  1
  O  O43  1  0.49197950  0.13211150  0.24834650  1
  O  O44  1  0.50802050  0.86788850  0.24834650  1
  O  O45  1  0.63211150  0.25165350  0.00802050  1
  O  O46  1  0.19718000  0.80282000  0.80282000  1
  O  O47  1  0.36788850  0.74834650  0.00802050  1
  O  O48  1  0.40336150  0.59663850  0.59663850  1
  O  O49  1  0.49197950  0.86788850  0.75165350  1
  O  O50  1  0.50802050  0.13211150  0.75165350  1
  O  O51  1  0.59663850  0.40336150  0.59663850  1
  O  O52  1  0.59663850  0.59663850  0.40336150  1
  O  O53  1  0.63211150  0.74834650  0.99197950  1
  O  O54  1  0.69718000  0.69718000  0.69718000  1
  O  O55  1  0.74834650  0.99197950  0.63211150  1
  O  O56  1  0.74834650  0.00802050  0.36788850  1
  O  O57  1  0.75165350  0.49197950  0.86788850  1
  O  O58  1  0.75165350  0.50802050  0.13211150  1
  O  O59  1  0.80282000  0.80282000  0.19718000  1
  O  O60  1  0.80282000  0.19718000  0.80282000  1
  O  O61  1  0.86788850  0.75165350  0.49197950  1
  O  O62  1  0.90336150  0.90336150  0.90336150  1
  O  O63  1  0.99197950  0.63211150  0.74834650  1
  O  O64  1  0.00802050  0.36788850  0.74834650  1
  O  O65  1  0.13211150  0.75165350  0.50802050  1
