# generated using pymatgen
data_Li2FeNi3O8
_symmetry_space_group_name_H-M   'P 1'
_cell_length_a   10.07731631
_cell_length_b   5.72209974
_cell_length_c   5.95864423
_cell_angle_alpha   90.00000000
_cell_angle_beta   125.30703461
_cell_angle_gamma   90.00000000
_symmetry_Int_Tables_number   1
_chemical_formula_structural   Li2FeNi3O8
_chemical_formula_sum   'Li4 Fe2 Ni6 O16'
_cell_volume   280.39701940
_cell_formula_units_Z   2
loop_
 _symmetry_equiv_pos_site_id
 _symmetry_equiv_pos_as_xyz
  1  'x, y, z'
loop_
 _atom_site_type_symbol
 _atom_site_label
 _atom_site_symmetry_multiplicity
 _atom_site_fract_x
 _atom_site_fract_y
 _atom_site_fract_z
 _atom_site_occupancy
  Li  Li0  1  0.00000000  0.00000000  0.50000000  1
  Li  Li1  1  0.00000000  0.50000000  0.50000000  1
  Li  Li2  1  0.50000000  0.50000000  0.50000000  1
  Li  Li3  1  0.50000000  0.00000000  0.50000000  1
  Fe  Fe4  1  0.50000000  0.00000000  0.00000000  1
  Fe  Fe5  1  0.00000000  0.50000000  0.00000000  1
  Ni  Ni6  1  0.50000000  0.50000000  0.00000000  1
  Ni  Ni7  1  0.25000000  0.25000000  0.00000000  1
  Ni  Ni8  1  0.25000000  0.75000000  0.00000000  1
  Ni  Ni9  1  0.00000000  0.00000000  0.00000000  1
  Ni  Ni10  1  0.75000000  0.75000000  0.00000000  1
  Ni  Ni11  1  0.75000000  0.25000000  0.00000000  1
  O  O12  1  0.24764075  0.50000000  0.79081150  1
  O  O13  1  0.25235925  0.00000000  0.20918850  1
  O  O14  1  0.25290700  0.00000000  0.79457500  1
  O  O15  1  0.24709300  0.50000000  0.20542500  1
  O  O16  1  0.52174150  0.25734600  0.79141900  1
  O  O17  1  0.52174150  0.74265400  0.79141900  1
  O  O18  1  0.97825850  0.75734600  0.20858100  1
  O  O19  1  0.97825850  0.24265400  0.20858100  1
  O  O20  1  0.74764075  0.00000000  0.79081150  1
  O  O21  1  0.75235925  0.50000000  0.20918850  1
  O  O22  1  0.75290700  0.50000000  0.79457500  1
  O  O23  1  0.74709300  0.00000000  0.20542500  1
  O  O24  1  0.02174150  0.75734600  0.79141900  1
  O  O25  1  0.02174150  0.24265400  0.79141900  1
  O  O26  1  0.47825850  0.25734600  0.20858100  1
  O  O27  1  0.47825850  0.74265400  0.20858100  1
