# generated using pymatgen
data_Li3Ni3O3F5
_symmetry_space_group_name_H-M   'P 1'
_cell_length_a   10.47422020
_cell_length_b   5.70660917
_cell_length_c   5.88633060
_cell_angle_alpha   90.00000000
_cell_angle_beta   124.00264118
_cell_angle_gamma   90.00000000
_symmetry_Int_Tables_number   1
_chemical_formula_structural   Li3Ni3O3F5
_chemical_formula_sum   'Li6 Ni6 O6 F10'
_cell_volume   291.67901798
_cell_formula_units_Z   2
loop_
 _symmetry_equiv_pos_site_id
 _symmetry_equiv_pos_as_xyz
  1  'x, y, z'
loop_
 _atom_site_type_symbol
 _atom_site_label
 _atom_site_symmetry_multiplicity
 _atom_site_fract_x
 _atom_site_fract_y
 _atom_site_fract_z
 _atom_site_occupancy
  Li  Li0  1  0.11654000  0.50000000  0.86642000  1
  Li  Li1  1  0.26025150  0.00000000  0.76555000  1
  Li  Li2  1  0.49357050  0.50000000  0.97579700  1
  Li  Li3  1  0.61654000  0.00000000  0.86642000  1
  Li  Li4  1  0.76025150  0.50000000  0.76555000  1
  Li  Li5  1  0.99357050  0.00000000  0.97579700  1
  Ni  Ni6  1  0.12550650  0.50000000  0.37771800  1
  Ni  Ni7  1  0.37499350  0.24659850  0.38152600  1
  Ni  Ni8  1  0.37499350  0.75340150  0.38152600  1
  Ni  Ni9  1  0.62550650  0.00000000  0.37771800  1
  Ni  Ni10  1  0.87499350  0.74659850  0.38152600  1
  Ni  Ni11  1  0.87499350  0.25340150  0.38152600  1
  O  O12  1  0.35527900  0.50000000  0.57120900  1
  O  O13  1  0.39418200  0.00000000  0.18940800  1
  O  O14  1  0.38248200  0.00000000  0.59871200  1
  O  O15  1  0.85527900  0.00000000  0.57120900  1
  O  O16  1  0.89418200  0.50000000  0.18940800  1
  O  O17  1  0.88248200  0.50000000  0.59871200  1
  F  F18  1  0.12116600  0.25477300  0.62646500  1
  F  F19  1  0.12116600  0.74522700  0.62646500  1
  F  F20  1  0.13002250  0.74074750  0.12300700  1
  F  F21  1  0.13002250  0.25925250  0.12300700  1
  F  F22  1  0.36993300  0.50000000  0.14308100  1
  F  F23  1  0.62116600  0.75477300  0.62646500  1
  F  F24  1  0.62116600  0.24522700  0.62646500  1
  F  F25  1  0.63002250  0.24074750  0.12300700  1
  F  F26  1  0.63002250  0.75925250  0.12300700  1
  F  F27  1  0.86993300  0.00000000  0.14308100  1
