# generated using pymatgen
data_Li4Ti3Mn3(TeO8)2
_symmetry_space_group_name_H-M   'P 1'
_cell_length_a   10.56219022
_cell_length_b   6.01818176
_cell_length_c   10.31577541
_cell_angle_alpha   90.00000000
_cell_angle_beta   90.09205089
_cell_angle_gamma   90.00000000
_symmetry_Int_Tables_number   1
_chemical_formula_structural   Li4Ti3Mn3(TeO8)2
_chemical_formula_sum   'Li8 Ti6 Mn6 Te4 O32'
_cell_volume   655.72327940
_cell_formula_units_Z   2
loop_
 _symmetry_equiv_pos_site_id
 _symmetry_equiv_pos_as_xyz
  1  'x, y, z'
loop_
 _atom_site_type_symbol
 _atom_site_label
 _atom_site_symmetry_multiplicity
 _atom_site_fract_x
 _atom_site_fract_y
 _atom_site_fract_z
 _atom_site_occupancy
  Li  Li0  1  0.67055450  0.00000000  0.09828000  1
  Li  Li1  1  0.50812400  0.50000000  0.00984900  1
  Li  Li2  1  0.50020700  0.50000000  0.50819650  1
  Li  Li3  1  0.83086200  0.50000000  0.59983500  1
  Li  Li4  1  0.17055450  0.50000000  0.09828000  1
  Li  Li5  1  0.00812400  0.00000000  0.00984900  1
  Li  Li6  1  0.00020700  0.00000000  0.50819650  1
  Li  Li7  1  0.33086200  0.00000000  0.59983500  1
  Ti  Ti8  1  0.67635500  0.50000000  0.27838750  1
  Ti  Ti9  1  0.58792600  0.24889600  0.77805150  1
  Ti  Ti10  1  0.58792600  0.75110400  0.77805150  1
  Ti  Ti11  1  0.17635500  0.00000000  0.27838750  1
  Ti  Ti12  1  0.08792600  0.74889600  0.77805150  1
  Ti  Ti13  1  0.08792600  0.25110400  0.77805150  1
  Mn  Mn14  1  0.83142100  0.00000000  0.78755850  1
  Mn  Mn15  1  0.91718000  0.75016250  0.28850050  1
  Mn  Mn16  1  0.91718000  0.24983750  0.28850050  1
  Mn  Mn17  1  0.33142100  0.50000000  0.78755850  1
  Mn  Mn18  1  0.41718000  0.25016250  0.28850050  1
  Mn  Mn19  1  0.41718000  0.74983750  0.28850050  1
  Te  Te20  1  0.66595000  0.00000000  0.50631050  1
  Te  Te21  1  0.85938250  0.50000000  0.00612700  1
  Te  Te22  1  0.16595000  0.50000000  0.50631050  1
  Te  Te23  1  0.35938250  0.00000000  0.00612700  1
  O  O24  1  0.50427100  0.00000000  0.68201650  1
  O  O25  1  0.65625350  0.00000000  0.88513600  1
  O  O26  1  0.50112500  0.50000000  0.68860950  1
  O  O27  1  0.99741550  0.00000000  0.19598200  1
  O  O28  1  0.64961950  0.50000000  0.88045500  1
  O  O29  1  0.83109900  0.00000000  0.42143950  1
  O  O30  1  0.83699800  0.50000000  0.38466100  1
  O  O31  1  0.98824450  0.50000000  0.14227100  1
  O  O32  1  0.57602350  0.26914900  0.39239750  1
  O  O33  1  0.57602350  0.73085100  0.39239750  1
  O  O34  1  0.72568900  0.23657400  0.65633250  1
  O  O35  1  0.72568900  0.76342600  0.65633250  1
  O  O36  1  0.75500000  0.73142600  0.18390200  1
  O  O37  1  0.75500000  0.26857400  0.18390200  1
  O  O38  1  0.93201350  0.75176900  0.90925350  1
  O  O39  1  0.93201350  0.24823100  0.90925350  1
  O  O40  1  0.00427100  0.50000000  0.68201650  1
  O  O41  1  0.15625350  0.50000000  0.88513600  1
  O  O42  1  0.00112500  0.00000000  0.68860950  1
  O  O43  1  0.49741550  0.50000000  0.19598200  1
  O  O44  1  0.14961950  0.00000000  0.88045500  1
  O  O45  1  0.33109900  0.50000000  0.42143950  1
  O  O46  1  0.33699800  0.00000000  0.38466100  1
  O  O47  1  0.48824450  0.00000000  0.14227100  1
  O  O48  1  0.07602350  0.76914900  0.39239750  1
  O  O49  1  0.07602350  0.23085100  0.39239750  1
  O  O50  1  0.22568900  0.73657400  0.65633250  1
  O  O51  1  0.22568900  0.26342600  0.65633250  1
  O  O52  1  0.25500000  0.23142600  0.18390200  1
  O  O53  1  0.25500000  0.76857400  0.18390200  1
  O  O54  1  0.43201350  0.25176900  0.90925350  1
  O  O55  1  0.43201350  0.74823100  0.90925350  1
