# generated using pymatgen
data_Mn3Cu2Sn(PO4)6
_symmetry_space_group_name_H-M   'P 1'
_cell_length_a   8.55343570
_cell_length_b   8.55343570
_cell_length_c   21.13135656
_cell_angle_alpha   90.00000000
_cell_angle_beta   90.00000000
_cell_angle_gamma   120.00000000
_symmetry_Int_Tables_number   1
_chemical_formula_structural   Mn3Cu2Sn(PO4)6
_chemical_formula_sum   'Mn9 Cu6 Sn3 P18 O72'
_cell_volume   1338.87243489
_cell_formula_units_Z   3
loop_
 _symmetry_equiv_pos_site_id
 _symmetry_equiv_pos_as_xyz
  1  'x, y, z'
loop_
 _atom_site_type_symbol
 _atom_site_label
 _atom_site_symmetry_multiplicity
 _atom_site_fract_x
 _atom_site_fract_y
 _atom_site_fract_z
 _atom_site_occupancy
  Mn  Mn0  1  0.00000000  0.00000000  0.14326600  1
  Mn  Mn1  1  0.33333333  0.66666667  0.02390467  1
  Mn  Mn2  1  0.33333333  0.66666667  0.30927367  1
  Mn  Mn3  1  0.66666667  0.33333333  0.47659933  1
  Mn  Mn4  1  0.00000000  0.00000000  0.35723800  1
  Mn  Mn5  1  0.00000000  0.00000000  0.64260700  1
  Mn  Mn6  1  0.33333333  0.66666667  0.80993267  1
  Mn  Mn7  1  0.66666667  0.33333333  0.69057133  1
  Mn  Mn8  1  0.66666667  0.33333333  0.97594033  1
  Cu  Cu9  1  0.00000000  0.00000000  0.00244400  1
  Cu  Cu10  1  0.33333333  0.66666667  0.16616167  1
  Cu  Cu11  1  0.66666667  0.33333333  0.33577733  1
  Cu  Cu12  1  0.00000000  0.00000000  0.49949500  1
  Cu  Cu13  1  0.33333333  0.66666667  0.66911067  1
  Cu  Cu14  1  0.66666667  0.33333333  0.83282833  1
  Sn  Sn15  1  0.66666667  0.33333333  0.19061733  1
  Sn  Sn16  1  0.33333333  0.66666667  0.52395067  1
  Sn  Sn17  1  0.00000000  0.00000000  0.85728400  1
  P  P18  1  0.37141167  0.03767033  0.08112933  1
  P  P19  1  0.66625867  0.62858833  0.08112933  1
  P  P20  1  0.96232967  0.33374133  0.08112933  1
  P  P21  1  0.28477100  0.28870700  0.25103500  1
  P  P22  1  0.71129300  0.99606400  0.25103500  1
  P  P23  1  0.00393600  0.71522900  0.25103500  1
  P  P24  1  0.03807833  0.37100367  0.41446267  1
  P  P25  1  0.33292533  0.96192167  0.41446267  1
  P  P26  1  0.62899633  0.66707467  0.41446267  1
  P  P27  1  0.95143767  0.62204033  0.58436833  1
  P  P28  1  0.37795967  0.32939733  0.58436833  1
  P  P29  1  0.67060267  0.04856233  0.58436833  1
  P  P30  1  0.70474500  0.70433700  0.74779600  1
  P  P31  1  0.99959200  0.29525500  0.74779600  1
  P  P32  1  0.29566300  0.00040800  0.74779600  1
  P  P33  1  0.61810433  0.95537367  0.91770167  1
  P  P34  1  0.04462633  0.66273067  0.91770167  1
  P  P35  1  0.33726933  0.38189567  0.91770167  1
  O  O36  1  0.99780000  0.80989800  0.31190400  1
  O  O37  1  0.19010200  0.18790200  0.31190400  1
  O  O38  1  0.83798867  0.81937933  0.07804833  1
  O  O39  1  0.81209800  0.00220000  0.31190400  1
  O  O40  1  0.65664433  0.53269467  0.14377367  1
  O  O41  1  0.49312567  0.64806733  0.08536433  1
  O  O42  1  0.98139067  0.16201133  0.07804833  1
  O  O43  1  0.15494167  0.50687433  0.08536433  1
  O  O44  1  0.19122600  0.19744200  0.18937600  1
  O  O45  1  0.35193267  0.84505833  0.08536433  1
  O  O46  1  0.47762667  0.30949133  0.25713533  1
  O  O47  1  0.80255800  0.99378400  0.18937600  1
  O  O48  1  0.87605033  0.34335567  0.14377367  1
  O  O49  1  0.18062067  0.01860933  0.07804833  1
  O  O50  1  0.30602200  0.48087900  0.24613400  1
  O  O51  1  0.46730533  0.12394967  0.14377367  1
  O  O52  1  0.51912100  0.82514300  0.24613400  1
  O  O53  1  0.69050867  0.16813533  0.25713533  1
  O  O54  1  0.17485700  0.69397800  0.24613400  1
  O  O55  1  0.00621600  0.80877400  0.18937600  1
  O  O56  1  0.85756733  0.32546667  0.02198767  1
  O  O57  1  0.83186467  0.52237333  0.25713533  1
  O  O58  1  0.46789933  0.14243267  0.02198767  1
  O  O59  1  0.67453333  0.53210067  0.02198767  1
  O  O60  1  0.66446667  0.14323133  0.64523733  1
  O  O61  1  0.85676867  0.52123533  0.64523733  1
  O  O62  1  0.50465533  0.15271267  0.41138167  1
  O  O63  1  0.47876467  0.33553333  0.64523733  1
  O  O64  1  0.32331100  0.86602800  0.47710700  1
  O  O65  1  0.15979233  0.98140067  0.41869767  1
  O  O66  1  0.64805733  0.49534467  0.41138167  1
  O  O67  1  0.82160833  0.84020767  0.41869767  1
  O  O68  1  0.85789267  0.53077533  0.52270933  1
  O  O69  1  0.01859933  0.17839167  0.41869767  1
  O  O70  1  0.14429333  0.64282467  0.59046867  1
  O  O71  1  0.46922467  0.32711733  0.52270933  1
  O  O72  1  0.54271700  0.67668900  0.47710700  1
  O  O73  1  0.84728733  0.35194267  0.41138167  1
  O  O74  1  0.97268867  0.81421233  0.57946733  1
  O  O75  1  0.13397200  0.45728300  0.47710700  1
  O  O76  1  0.18578767  0.15847633  0.57946733  1
  O  O77  1  0.35717533  0.50146867  0.59046867  1
  O  O78  1  0.84152367  0.02731133  0.57946733  1
  O  O79  1  0.67288267  0.14210733  0.52270933  1
  O  O80  1  0.52423400  0.65880000  0.35532100  1
  O  O81  1  0.49853133  0.85570667  0.59046867  1
  O  O82  1  0.13456600  0.47576600  0.35532100  1
  O  O83  1  0.34120000  0.86543400  0.35532100  1
  O  O84  1  0.33113333  0.47656467  0.97857067  1
  O  O85  1  0.52343533  0.85456867  0.97857067  1
  O  O86  1  0.17132200  0.48604600  0.74471500  1
  O  O87  1  0.14543133  0.66886667  0.97857067  1
  O  O88  1  0.98997767  0.19936133  0.81044033  1
  O  O89  1  0.82645900  0.31473400  0.75203100  1
  O  O90  1  0.31472400  0.82867800  0.74471500  1
  O  O91  1  0.48827500  0.17354100  0.75203100  1
  O  O92  1  0.52455933  0.86410867  0.85604267  1
  O  O93  1  0.68526600  0.51172500  0.75203100  1
  O  O94  1  0.81096000  0.97615800  0.92380200  1
  O  O95  1  0.13589133  0.66045067  0.85604267  1
  O  O96  1  0.20938367  0.01002233  0.81044033  1
  O  O97  1  0.51395400  0.68527600  0.74471500  1
  O  O98  1  0.63935533  0.14754567  0.91280067  1
  O  O99  1  0.80063867  0.79061633  0.81044033  1
  O  O100  1  0.85245433  0.49180967  0.91280067  1
  O  O101  1  0.02384200  0.83480200  0.92380200  1
  O  O102  1  0.50819033  0.36064467  0.91280067  1
  O  O103  1  0.33954933  0.47544067  0.85604267  1
  O  O104  1  0.19090067  0.99213333  0.68865433  1
  O  O105  1  0.16519800  0.18904000  0.92380200  1
  O  O106  1  0.80123267  0.80909933  0.68865433  1
  O  O107  1  0.00786667  0.19876733  0.68865433  1
