# generated using pymatgen
data_NaFeAsCO7
_symmetry_space_group_name_H-M   'P 1'
_cell_length_a   5.39750223
_cell_length_b   6.68170500
_cell_length_c   9.35208866
_cell_angle_alpha   90.00000000
_cell_angle_beta   92.65990327
_cell_angle_gamma   90.00000000
_symmetry_Int_Tables_number   1
_chemical_formula_structural   NaFeAsCO7
_chemical_formula_sum   'Na2 Fe2 As2 C2 O14'
_cell_volume   336.91518115
_cell_formula_units_Z   2
loop_
 _symmetry_equiv_pos_site_id
 _symmetry_equiv_pos_as_xyz
  1  'x, y, z'
loop_
 _atom_site_type_symbol
 _atom_site_label
 _atom_site_symmetry_multiplicity
 _atom_site_fract_x
 _atom_site_fract_y
 _atom_site_fract_z
 _atom_site_occupancy
  Na  Na0  1  0.76727200  0.51743700  0.23055000  1
  Na  Na1  1  0.23272800  0.01743700  0.76945000  1
  Fe  Fe2  1  0.20735200  0.23716000  0.35206000  1
  Fe  Fe3  1  0.79264800  0.73716000  0.64794000  1
  As  As4  1  0.27776500  0.74643300  0.42844100  1
  As  As5  1  0.72223500  0.24643300  0.57155900  1
  C  C6  1  0.27554000  0.25424400  0.08243400  1
  C  C7  1  0.72446000  0.75424400  0.91756600  1
  O  O8  1  0.69252900  0.74847200  0.04961000  1
  O  O9  1  0.05750300  0.25133500  0.13421300  1
  O  O10  1  0.45899700  0.26139000  0.17738400  1
  O  O11  1  0.21236600  0.94882700  0.32255000  1
  O  O12  1  0.19878400  0.54218400  0.32590400  1
  O  O13  1  0.86657000  0.25970900  0.41161000  1
  O  O14  1  0.59456500  0.73496100  0.47021300  1
  O  O15  1  0.40543500  0.23496100  0.52978700  1
  O  O16  1  0.13343000  0.75970900  0.58839000  1
  O  O17  1  0.80121600  0.04218400  0.67409600  1
  O  O18  1  0.78763400  0.44882700  0.67745000  1
  O  O19  1  0.54100300  0.76139000  0.82261600  1
  O  O20  1  0.94249700  0.75133500  0.86578700  1
  O  O21  1  0.30747100  0.24847200  0.95039000  1
