# generated using pymatgen
data_Ti3FeSn2(PO4)6
_symmetry_space_group_name_H-M   'P 1'
_cell_length_a   8.65616580
_cell_length_b   8.65616580
_cell_length_c   23.02274445
_cell_angle_alpha   90.00000000
_cell_angle_beta   90.00000000
_cell_angle_gamma   120.00000000
_symmetry_Int_Tables_number   1
_chemical_formula_structural   Ti3FeSn2(PO4)6
_chemical_formula_sum   'Ti9 Fe3 Sn6 P18 O72'
_cell_volume   1493.95961521
_cell_formula_units_Z   3
loop_
 _symmetry_equiv_pos_site_id
 _symmetry_equiv_pos_as_xyz
  1  'x, y, z'
loop_
 _atom_site_type_symbol
 _atom_site_label
 _atom_site_symmetry_multiplicity
 _atom_site_fract_x
 _atom_site_fract_y
 _atom_site_fract_z
 _atom_site_occupancy
  Ti  Ti0  1  0.66666667  0.33333333  0.18884333  1
  Ti  Ti1  1  0.33333333  0.66666667  0.31397367  1
  Ti  Ti2  1  0.33333333  0.66666667  0.01001667  1
  Ti  Ti3  1  0.33333333  0.66666667  0.52217667  1
  Ti  Ti4  1  0.00000000  0.00000000  0.64730700  1
  Ti  Ti5  1  0.00000000  0.00000000  0.34335000  1
  Ti  Ti6  1  0.00000000  0.00000000  0.85551000  1
  Ti  Ti7  1  0.66666667  0.33333333  0.98064033  1
  Ti  Ti8  1  0.66666667  0.33333333  0.67668333  1
  Fe  Fe9  1  0.00000000  0.00000000  0.15317400  1
  Fe  Fe10  1  0.66666667  0.33333333  0.48650733  1
  Fe  Fe11  1  0.33333333  0.66666667  0.81984067  1
  Sn  Sn12  1  0.00000000  0.00000000  0.01747000  1
  Sn  Sn13  1  0.33333333  0.66666667  0.15222067  1
  Sn  Sn14  1  0.66666667  0.33333333  0.35080333  1
  Sn  Sn15  1  0.00000000  0.00000000  0.48555400  1
  Sn  Sn16  1  0.33333333  0.66666667  0.68413667  1
  Sn  Sn17  1  0.66666667  0.33333333  0.81888733  1
  P  P18  1  0.95334300  0.61204100  0.08356700  1
  P  P19  1  0.65869800  0.04665700  0.08356700  1
  P  P20  1  0.38795900  0.34130200  0.08356700  1
  P  P21  1  0.29202033  0.99756767  0.24812667  1
  P  P22  1  0.00243233  0.29445267  0.24812667  1
  P  P23  1  0.70554733  0.70797967  0.24812667  1
  P  P24  1  0.62000967  0.94537433  0.41690033  1
  P  P25  1  0.32536467  0.37999033  0.41690033  1
  P  P26  1  0.05462567  0.67463533  0.41690033  1
  P  P27  1  0.95868700  0.33090100  0.58146000  1
  P  P28  1  0.66909900  0.62778600  0.58146000  1
  P  P29  1  0.37221400  0.04131300  0.58146000  1
  P  P30  1  0.28667633  0.27870767  0.75023367  1
  P  P31  1  0.99203133  0.71332367  0.75023367  1
  P  P32  1  0.72129233  0.00796867  0.75023367  1
  P  P33  1  0.62535367  0.66423433  0.91479333  1
  P  P34  1  0.33576567  0.96111933  0.91479333  1
  P  P35  1  0.03888067  0.37464633  0.91479333  1
  O  O36  1  0.48298633  0.33328867  0.02866767  1
  O  O37  1  0.85030233  0.51701367  0.02866767  1
  O  O38  1  0.47311733  0.17297667  0.24118867  1
  O  O39  1  0.66671133  0.14969767  0.02866767  1
  O  O40  1  0.17907367  0.94566133  0.19370833  1
  O  O41  1  0.33213933  0.84878267  0.26485167  1
  O  O42  1  0.82702333  0.30014067  0.24118867  1
  O  O43  1  0.15121733  0.48335667  0.26485167  1
  O  O44  1  0.86698033  0.50605067  0.13952567  1
  O  O45  1  0.51664333  0.66786067  0.26485167  1
  O  O46  1  0.97138467  0.79937733  0.08589333  1
  O  O47  1  0.63907033  0.13301967  0.13952567  1
  O  O48  1  0.05433867  0.23341233  0.19370833  1
  O  O49  1  0.69985933  0.52688267  0.24118867  1
  O  O50  1  0.14444100  0.63303300  0.07796600  1
  O  O51  1  0.76658767  0.82092633  0.19370833  1
  O  O52  1  0.48859200  0.85555900  0.07796600  1
  O  O53  1  0.82799267  0.02861533  0.08589333  1
  O  O54  1  0.36696700  0.51140800  0.07796600  1
  O  O55  1  0.49394933  0.36092967  0.13952567  1
  O  O56  1  0.97105033  0.16944167  0.30238367  1
  O  O57  1  0.20062267  0.17200733  0.08589333  1
  O  O58  1  0.83055833  0.80160867  0.30238367  1
  O  O59  1  0.19839133  0.02894967  0.30238367  1
  O  O60  1  0.14965300  0.66662200  0.36200100  1
  O  O61  1  0.51696900  0.85034700  0.36200100  1
  O  O62  1  0.13978400  0.50631000  0.57452200  1
  O  O63  1  0.33337800  0.48303100  0.36200100  1
  O  O64  1  0.84574033  0.27899467  0.52704167  1
  O  O65  1  0.99880600  0.18211600  0.59818500  1
  O  O66  1  0.49369000  0.63347400  0.57452200  1
  O  O67  1  0.81788400  0.81669000  0.59818500  1
  O  O68  1  0.53364700  0.83938400  0.47285900  1
  O  O69  1  0.18331000  0.00119400  0.59818500  1
  O  O70  1  0.63805133  0.13271067  0.41922667  1
  O  O71  1  0.30573700  0.46635300  0.47285900  1
  O  O72  1  0.72100533  0.56674567  0.52704167  1
  O  O73  1  0.36652600  0.86021600  0.57452200  1
  O  O74  1  0.81110767  0.96636633  0.41129933  1
  O  O75  1  0.43325433  0.15425967  0.52704167  1
  O  O76  1  0.15525867  0.18889233  0.41129933  1
  O  O77  1  0.49465933  0.36194867  0.41922667  1
  O  O78  1  0.03363367  0.84474133  0.41129933  1
  O  O79  1  0.16061600  0.69426300  0.47285900  1
  O  O80  1  0.63771700  0.50277500  0.63571700  1
  O  O81  1  0.86728933  0.50534067  0.41922667  1
  O  O82  1  0.49722500  0.13494200  0.63571700  1
  O  O83  1  0.86505800  0.36228300  0.63571700  1
  O  O84  1  0.81631967  0.99995533  0.69533433  1
  O  O85  1  0.18363567  0.18368033  0.69533433  1
  O  O86  1  0.80645067  0.83964333  0.90785533  1
  O  O87  1  0.00004467  0.81636433  0.69533433  1
  O  O88  1  0.51240700  0.61232800  0.86037500  1
  O  O89  1  0.66547267  0.51544933  0.93151833  1
  O  O90  1  0.16035667  0.96680733  0.90785533  1
  O  O91  1  0.48455067  0.15002333  0.93151833  1
  O  O92  1  0.20031367  0.17271733  0.80619233  1
  O  O93  1  0.84997667  0.33452733  0.93151833  1
  O  O94  1  0.30471800  0.46604400  0.75256000  1
  O  O95  1  0.97240367  0.79968633  0.80619233  1
  O  O96  1  0.38767200  0.90007900  0.86037500  1
  O  O97  1  0.03319267  0.19354933  0.90785533  1
  O  O98  1  0.47777433  0.29969967  0.74463267  1
  O  O99  1  0.09992100  0.48759300  0.86037500  1
  O  O100  1  0.82192533  0.52222567  0.74463267  1
  O  O101  1  0.16132600  0.69528200  0.75256000  1
  O  O102  1  0.70030033  0.17807467  0.74463267  1
  O  O103  1  0.82728267  0.02759633  0.80619233  1
  O  O104  1  0.30438367  0.83610833  0.96905033  1
  O  O105  1  0.53395600  0.83867400  0.75256000  1
  O  O106  1  0.16389167  0.46827533  0.96905033  1
  O  O107  1  0.53172467  0.69561633  0.96905033  1
