# generated using pymatgen
data_LiP2WO8
_symmetry_space_group_name_H-M   'P 1'
_cell_length_a   8.12164800
_cell_length_b   5.36839200
_cell_length_c   7.03914434
_cell_angle_alpha   90.00000000
_cell_angle_beta   94.85734823
_cell_angle_gamma   90.00000000
_symmetry_Int_Tables_number   1
_chemical_formula_structural   LiP2WO8
_chemical_formula_sum   'Li2 P4 W2 O16'
_cell_volume   305.80580409
_cell_formula_units_Z   2
loop_
 _symmetry_equiv_pos_site_id
 _symmetry_equiv_pos_as_xyz
  1  'x, y, z'
loop_
 _atom_site_type_symbol
 _atom_site_label
 _atom_site_symmetry_multiplicity
 _atom_site_fract_x
 _atom_site_fract_y
 _atom_site_fract_z
 _atom_site_occupancy
  Li  Li0  1  0.00000000  0.00000000  0.00000000  1
  Li  Li1  1  0.50000000  0.50000000  0.00000000  1
  P  P2  1  0.33858600  0.00000000  0.27087900  1
  P  P3  1  0.66141400  0.00000000  0.72912100  1
  P  P4  1  0.83858600  0.50000000  0.27087900  1
  P  P5  1  0.16141400  0.50000000  0.72912100  1
  W  W6  1  0.00000000  0.00000000  0.50000000  1
  W  W7  1  0.50000000  0.50000000  0.50000000  1
  O  O8  1  0.23517000  0.00000000  0.45183000  1
  O  O9  1  0.23655200  0.00000000  0.08666800  1
  O  O10  1  0.45435150  0.76374450  0.29777200  1
  O  O11  1  0.45435150  0.23625550  0.29777200  1
  O  O12  1  0.54564850  0.76374450  0.70222800  1
  O  O13  1  0.54564850  0.23625550  0.70222800  1
  O  O14  1  0.76344800  0.00000000  0.91333200  1
  O  O15  1  0.76483000  0.00000000  0.54817000  1
  O  O16  1  0.73517000  0.50000000  0.45183000  1
  O  O17  1  0.73655200  0.50000000  0.08666800  1
  O  O18  1  0.95435150  0.26374450  0.29777200  1
  O  O19  1  0.95435150  0.73625550  0.29777200  1
  O  O20  1  0.04564850  0.26374450  0.70222800  1
  O  O21  1  0.04564850  0.73625550  0.70222800  1
  O  O22  1  0.26344800  0.50000000  0.91333200  1
  O  O23  1  0.26483000  0.50000000  0.54817000  1
