# generated using pymatgen
data_NbNi3(PO4)4
_symmetry_space_group_name_H-M   'P 1'
_cell_length_a   4.91155800
_cell_length_b   5.89609100
_cell_length_c   10.00583728
_cell_angle_alpha   90.00000000
_cell_angle_beta   90.74827417
_cell_angle_gamma   90.00000000
_symmetry_Int_Tables_number   1
_chemical_formula_structural   NbNi3(PO4)4
_chemical_formula_sum   'Nb1 Ni3 P4 O16'
_cell_volume   289.73426082
_cell_formula_units_Z   1
loop_
 _symmetry_equiv_pos_site_id
 _symmetry_equiv_pos_as_xyz
  1  'x, y, z'
loop_
 _atom_site_type_symbol
 _atom_site_label
 _atom_site_symmetry_multiplicity
 _atom_site_fract_x
 _atom_site_fract_y
 _atom_site_fract_z
 _atom_site_occupancy
  Nb  Nb0  1  0.97315100  0.50000000  0.27628400  1
  Ni  Ni1  1  0.03107700  0.00000000  0.73057800  1
  Ni  Ni2  1  0.45803000  0.00000000  0.22224100  1
  Ni  Ni3  1  0.54274700  0.50000000  0.76939700  1
  P  P4  1  0.08389600  0.50000000  0.60735500  1
  P  P5  1  0.39569300  0.50000000  0.08755300  1
  P  P6  1  0.59374300  0.00000000  0.90217900  1
  P  P7  1  0.93040600  0.00000000  0.40936500  1
  O  O8  1  0.14813300  0.50000000  0.44720300  1
  O  O9  1  0.23479400  0.70612100  0.66920600  1
  O  O10  1  0.23479400  0.29387900  0.66920600  1
  O  O11  1  0.23290700  0.00000000  0.38480800  1
  O  O12  1  0.28236200  0.00000000  0.88773100  1
  O  O13  1  0.25004900  0.69876600  0.16861100  1
  O  O14  1  0.25004900  0.30123400  0.16861100  1
  O  O15  1  0.33708800  0.50000000  0.94234000  1
  O  O16  1  0.65667100  0.00000000  0.05335200  1
  O  O17  1  0.73642700  0.20465800  0.83128300  1
  O  O18  1  0.73642700  0.79534200  0.83128300  1
  O  O19  1  0.70085700  0.50000000  0.12748400  1
  O  O20  1  0.77812600  0.50000000  0.60980800  1
  O  O21  1  0.78804700  0.20643200  0.32649500  1
  O  O22  1  0.78804700  0.79356800  0.32649500  1
  O  O23  1  0.83647800  0.00000000  0.55112900  1
