# generated using pymatgen
data_Li4Cr3GaO8
_symmetry_space_group_name_H-M   'P 1'
_cell_length_a   5.11267938
_cell_length_b   5.16807149
_cell_length_c   5.91884500
_cell_angle_alpha   106.63472166
_cell_angle_beta   90.00247130
_cell_angle_gamma   99.44783642
_symmetry_Int_Tables_number   1
_chemical_formula_structural   Li4Cr3GaO8
_chemical_formula_sum   'Li4 Cr3 Ga1 O8'
_cell_volume   147.63097021
_cell_formula_units_Z   1
loop_
 _symmetry_equiv_pos_site_id
 _symmetry_equiv_pos_as_xyz
  1  'x, y, z'
loop_
 _atom_site_type_symbol
 _atom_site_label
 _atom_site_symmetry_multiplicity
 _atom_site_fract_x
 _atom_site_fract_y
 _atom_site_fract_z
 _atom_site_occupancy
  Li  Li0  1  0.75013150  0.49994150  0.62502500  1
  Li  Li1  1  0.24986850  0.50005850  0.37497500  1
  Li  Li2  1  0.74996000  0.50015750  0.12502500  1
  Li  Li3  1  0.25004000  0.49984250  0.87497500  1
  Cr  Cr4  1  0.00000000  0.00000000  0.50000000  1
  Cr  Cr5  1  0.49990650  0.99991900  0.24929700  1
  Cr  Cr6  1  0.50009350  0.00008100  0.75070300  1
  Ga  Ga7  1  0.00000000  0.00000000  0.00000000  1
  O  O8  1  0.62776650  0.77374700  0.44349300  1
  O  O9  1  0.37223350  0.22625300  0.55650700  1
  O  O10  1  0.12812600  0.77398650  0.19232900  1
  O  O11  1  0.87187400  0.22601350  0.80767100  1
  O  O12  1  0.87170750  0.22626950  0.30543800  1
  O  O13  1  0.12829250  0.77373050  0.69456200  1
  O  O14  1  0.63078850  0.77356350  0.94340000  1
  O  O15  1  0.36921150  0.22643650  0.05660000  1
