# generated using pymatgen
data_LiV2(SO4)3
_symmetry_space_group_name_H-M   'P 1'
_cell_length_a   8.71696410
_cell_length_b   8.71696410
_cell_length_c   21.60364728
_cell_angle_alpha   90.00000000
_cell_angle_beta   90.00000000
_cell_angle_gamma   120.00000000
_symmetry_Int_Tables_number   1
_chemical_formula_structural   LiV2(SO4)3
_chemical_formula_sum   'Li6 V12 S18 O72'
_cell_volume   1421.63538543
_cell_formula_units_Z   6
loop_
 _symmetry_equiv_pos_site_id
 _symmetry_equiv_pos_as_xyz
  1  'x, y, z'
loop_
 _atom_site_type_symbol
 _atom_site_label
 _atom_site_symmetry_multiplicity
 _atom_site_fract_x
 _atom_site_fract_y
 _atom_site_fract_z
 _atom_site_occupancy
  Li  Li0  1  0.33333333  0.66666667  0.16666667  1
  Li  Li1  1  0.00000000  0.00000000  0.00000000  1
  Li  Li2  1  1.00000000  0.00000000  0.50000000  1
  Li  Li3  1  0.66666667  0.33333333  0.33333333  1
  Li  Li4  1  0.66666667  0.33333333  0.83333333  1
  Li  Li5  1  0.33333333  0.66666667  0.66666667  1
  V  V6  1  0.00000000  0.00000000  0.14282600  1
  V  V7  1  0.33333333  0.66666667  0.02384067  1
  V  V8  1  0.66666667  0.33333333  0.19050733  1
  V  V9  1  0.33333333  0.66666667  0.30949267  1
  V  V10  1  0.66666667  0.33333333  0.47615933  1
  V  V11  1  0.00000000  0.00000000  0.35717400  1
  V  V12  1  0.33333333  0.66666667  0.52384067  1
  V  V13  1  0.00000000  0.00000000  0.64282600  1
  V  V14  1  0.33333333  0.66666667  0.80949267  1
  V  V15  1  0.66666667  0.33333333  0.69050733  1
  V  V16  1  0.00000000  0.00000000  0.85717400  1
  V  V17  1  0.66666667  0.33333333  0.97615933  1
  S  S18  1  0.37264167  0.03930833  0.08333333  1
  S  S19  1  0.70597500  1.00000000  0.25000000  1
  S  S20  1  0.00000000  0.70597500  0.25000000  1
  S  S21  1  0.66666667  0.62735833  0.08333333  1
  S  S22  1  0.96069167  0.33333333  0.08333333  1
  S  S23  1  0.29402500  0.29402500  0.25000000  1
  S  S24  1  0.03930833  0.37264167  0.41666667  1
  S  S25  1  0.37264167  0.33333333  0.58333333  1
  S  S26  1  0.66666667  0.03930833  0.58333333  1
  S  S27  1  0.33333333  0.96069167  0.41666667  1
  S  S28  1  0.62735833  0.66666667  0.41666667  1
  S  S29  1  0.96069167  0.62735833  0.58333333  1
  S  S30  1  0.70597500  0.70597500  0.75000000  1
  S  S31  1  0.03930833  0.66666667  0.91666667  1
  S  S32  1  0.33333333  0.37264167  0.91666667  1
  S  S33  1  0.00000000  0.29402500  0.75000000  1
  S  S34  1  0.29402500  0.00000000  0.75000000  1
  S  S35  1  0.62735833  0.96069167  0.91666667  1
  O  O36  1  0.35342167  0.85900233  0.08714133  1
  O  O37  1  0.16108600  0.68675500  0.24619200  1
  O  O38  1  0.86694500  0.33195100  0.14003800  1
  O  O39  1  0.86832733  0.33471567  0.02662867  1
  O  O40  1  0.19233567  0.02008833  0.07952533  1
  O  O41  1  0.68675500  0.16108600  0.25380800  1
  O  O42  1  0.52566900  0.83891400  0.24619200  1
  O  O43  1  0.20027833  0.20166067  0.30670467  1
  O  O44  1  0.99861767  0.79833933  0.19329533  1
  O  O45  1  0.20166067  0.20027833  0.19329533  1
  O  O46  1  0.00138233  0.79972167  0.30670467  1
  O  O47  1  0.83891400  0.52566900  0.25380800  1
  O  O48  1  0.82775267  0.80766433  0.07952533  1
  O  O49  1  0.46500600  0.13305500  0.14003800  1
  O  O50  1  0.66528433  0.53361167  0.02662867  1
  O  O51  1  0.46638833  0.13167267  0.02662867  1
  O  O52  1  0.66804900  0.53499400  0.14003800  1
  O  O53  1  0.14099767  0.49441933  0.08714133  1
  O  O54  1  0.97991167  0.17224733  0.07952533  1
  O  O55  1  0.47433100  0.31324500  0.25380800  1
  O  O56  1  0.79972167  0.00138233  0.19329533  1
  O  O57  1  0.79833933  0.99861767  0.30670467  1
  O  O58  1  0.50558067  0.64657833  0.08714133  1
  O  O59  1  0.31324500  0.47433100  0.24619200  1
  O  O60  1  0.02008833  0.19233567  0.42047467  1
  O  O61  1  0.82775267  0.02008833  0.57952533  1
  O  O62  1  0.53361167  0.66528433  0.47337133  1
  O  O63  1  0.53499400  0.66804900  0.35996200  1
  O  O64  1  0.85900233  0.35342167  0.41285867  1
  O  O65  1  0.35342167  0.49441933  0.58714133  1
  O  O66  1  0.19233567  0.17224733  0.57952533  1
  O  O67  1  0.86694500  0.53499400  0.64003800  1
  O  O68  1  0.66528433  0.13167267  0.52662867  1
  O  O69  1  0.86832733  0.53361167  0.52662867  1
  O  O70  1  0.66804900  0.13305500  0.64003800  1
  O  O71  1  0.50558067  0.85900233  0.58714133  1
  O  O72  1  0.49441933  0.14099767  0.41285867  1
  O  O73  1  0.13167267  0.46638833  0.47337133  1
  O  O74  1  0.33195100  0.86694500  0.35996200  1
  O  O75  1  0.13305500  0.46500600  0.35996200  1
  O  O76  1  0.33471567  0.86832733  0.47337133  1
  O  O77  1  0.80766433  0.82775267  0.42047467  1
  O  O78  1  0.64657833  0.50558067  0.41285867  1
  O  O79  1  0.14099767  0.64657833  0.58714133  1
  O  O80  1  0.46638833  0.33471567  0.52662867  1
  O  O81  1  0.46500600  0.33195100  0.64003800  1
  O  O82  1  0.17224733  0.97991167  0.42047467  1
  O  O83  1  0.97991167  0.80766433  0.57952533  1
  O  O84  1  0.68675500  0.52566900  0.75380800  1
  O  O85  1  0.49441933  0.35342167  0.91285867  1
  O  O86  1  0.20027833  0.99861767  0.80670467  1
  O  O87  1  0.20166067  0.00138233  0.69329533  1
  O  O88  1  0.52566900  0.68675500  0.74619200  1
  O  O89  1  0.02008833  0.82775267  0.92047467  1
  O  O90  1  0.85900233  0.50558067  0.91285867  1
  O  O91  1  0.53361167  0.86832733  0.97337133  1
  O  O92  1  0.33195100  0.46500600  0.85996200  1
  O  O93  1  0.53499400  0.86694500  0.85996200  1
  O  O94  1  0.33471567  0.46638833  0.97337133  1
  O  O95  1  0.17224733  0.19233567  0.92047467  1
  O  O96  1  0.16108600  0.47433100  0.74619200  1
  O  O97  1  0.79833933  0.79972167  0.80670467  1
  O  O98  1  0.99861767  0.20027833  0.69329533  1
  O  O99  1  0.79972167  0.79833933  0.69329533  1
  O  O100  1  0.00138233  0.20166067  0.80670467  1
  O  O101  1  0.47433100  0.16108600  0.75380800  1
  O  O102  1  0.31324500  0.83891400  0.74619200  1
  O  O103  1  0.80766433  0.97991167  0.92047467  1
  O  O104  1  0.13305500  0.66804900  0.85996200  1
  O  O105  1  0.13167267  0.66528433  0.97337133  1
  O  O106  1  0.83891400  0.31324500  0.75380800  1
  O  O107  1  0.64657833  0.14099767  0.91285867  1
