# generated using pymatgen
data_LiFePO4
_symmetry_space_group_name_H-M   'P 1'
_cell_length_a   5.25996959
_cell_length_b   5.25996959
_cell_length_c   13.25654100
_cell_angle_alpha   90.00000000
_cell_angle_beta   90.00000000
_cell_angle_gamma   120.00000000
_symmetry_Int_Tables_number   1
_chemical_formula_structural   LiFePO4
_chemical_formula_sum   'Li3 Fe3 P3 O12'
_cell_volume   317.63424440
_cell_formula_units_Z   3
loop_
 _symmetry_equiv_pos_site_id
 _symmetry_equiv_pos_as_xyz
  1  'x, y, z'
loop_
 _atom_site_type_symbol
 _atom_site_label
 _atom_site_symmetry_multiplicity
 _atom_site_fract_x
 _atom_site_fract_y
 _atom_site_fract_z
 _atom_site_occupancy
  Li  Li0  1  0.00000000  0.00000000  0.16666667  1
  Li  Li1  1  0.00000000  0.00000000  0.50000000  1
  Li  Li2  1  0.00000000  0.00000000  0.83333333  1
  Fe  Fe3  1  0.00000000  0.50000000  0.66666667  1
  Fe  Fe4  1  0.50000000  0.50000000  0.33333333  1
  Fe  Fe5  1  0.50000000  0.00000000  0.00000000  1
  P  P6  1  0.00000000  0.50000000  0.16666667  1
  P  P7  1  0.50000000  0.50000000  0.83333333  1
  P  P8  1  0.50000000  0.00000000  0.50000000  1
  O  O9  1  0.18276450  0.77825500  0.10131100  1
  O  O10  1  0.22174500  0.81723550  0.56535567  1
  O  O11  1  0.18276450  0.40450950  0.23202233  1
  O  O12  1  0.22174500  0.40450950  0.76797767  1
  O  O13  1  0.59549050  0.77825500  0.89868900  1
  O  O14  1  0.59549050  0.81723550  0.43464433  1
  O  O15  1  0.40450950  0.18276450  0.43464433  1
  O  O16  1  0.40450950  0.22174500  0.89868900  1
  O  O17  1  0.81723550  0.59549050  0.23202233  1
  O  O18  1  0.77825500  0.59549050  0.76797767  1
  O  O19  1  0.81723550  0.22174500  0.10131100  1
  O  O20  1  0.77825500  0.18276450  0.56535567  1
