# generated using pymatgen
data_Li3Nb2VO6
_symmetry_space_group_name_H-M   'P 1'
_cell_length_a   13.69388147
_cell_length_b   2.92734828
_cell_length_c   6.19322836
_cell_angle_alpha   90.00000000
_cell_angle_beta   106.16436650
_cell_angle_gamma   90.00000000
_symmetry_Int_Tables_number   1
_chemical_formula_structural   Li3Nb2VO6
_chemical_formula_sum   'Li6 Nb4 V2 O12'
_cell_volume   238.45174593
_cell_formula_units_Z   2
loop_
 _symmetry_equiv_pos_site_id
 _symmetry_equiv_pos_as_xyz
  1  'x, y, z'
loop_
 _atom_site_type_symbol
 _atom_site_label
 _atom_site_symmetry_multiplicity
 _atom_site_fract_x
 _atom_site_fract_y
 _atom_site_fract_z
 _atom_site_occupancy
  Li  Li0  1  0.00000000  0.00000000  0.00000000  1
  Li  Li1  1  0.15925325  0.50000000  0.34029625  1
  Li  Li2  1  0.84074675  0.50000000  0.65970375  1
  Li  Li3  1  0.50000000  0.50000000  0.00000000  1
  Li  Li4  1  0.65925325  0.00000000  0.34029625  1
  Li  Li5  1  0.34074675  0.00000000  0.65970375  1
  Nb  Nb6  1  0.67699950  0.00000000  0.85530775  1
  Nb  Nb7  1  0.82300050  0.50000000  0.14469225  1
  Nb  Nb8  1  0.17699950  0.50000000  0.85530775  1
  Nb  Nb9  1  0.32300050  0.00000000  0.14469225  1
  V  V10  1  0.00000000  0.00000000  0.50000000  1
  V  V11  1  0.50000000  0.50000000  0.50000000  1
  O  O12  1  0.15947150  0.00000000  0.58984475  1
  O  O13  1  0.84052850  0.00000000  0.41015525  1
  O  O14  1  0.84424625  0.00000000  0.90057225  1
  O  O15  1  0.15575375  0.00000000  0.09942775  1
  O  O16  1  0.98886100  0.50000000  0.26357700  1
  O  O17  1  0.01113900  0.50000000  0.73642300  1
  O  O18  1  0.65947150  0.50000000  0.58984475  1
  O  O19  1  0.34052850  0.50000000  0.41015525  1
  O  O20  1  0.34424625  0.50000000  0.90057225  1
  O  O21  1  0.65575375  0.50000000  0.09942775  1
  O  O22  1  0.48886100  0.00000000  0.26357700  1
  O  O23  1  0.51113900  0.00000000  0.73642300  1
