# generated using pymatgen
data_LiNi2(PO4)2
_symmetry_space_group_name_H-M   'P 1'
_cell_length_a   4.77381049
_cell_length_b   10.11249418
_cell_length_c   5.82379009
_cell_angle_alpha   90.00000000
_cell_angle_beta   91.47966333
_cell_angle_gamma   90.00000000
_symmetry_Int_Tables_number   1
_chemical_formula_structural   LiNi2(PO4)2
_chemical_formula_sum   'Li2 Ni4 P4 O16'
_cell_volume   281.05048191
_cell_formula_units_Z   2
loop_
 _symmetry_equiv_pos_site_id
 _symmetry_equiv_pos_as_xyz
  1  'x, y, z'
loop_
 _atom_site_type_symbol
 _atom_site_label
 _atom_site_symmetry_multiplicity
 _atom_site_fract_x
 _atom_site_fract_y
 _atom_site_fract_z
 _atom_site_occupancy
  Li  Li0  1  0.75023850  0.74134300  0.25711150  1
  Li  Li1  1  0.24976150  0.24134300  0.74288850  1
  Ni  Ni2  1  0.27359550  0.97099200  0.00146250  1
  Ni  Ni3  1  0.22791750  0.51680300  0.49937350  1
  Ni  Ni4  1  0.72640450  0.47099200  0.99853750  1
  Ni  Ni5  1  0.77208250  0.01680300  0.50062650  1
  P  P6  1  0.32952450  0.83856300  0.50235150  1
  P  P7  1  0.17015150  0.64891600  0.99867250  1
  P  P8  1  0.67047550  0.33856300  0.49764850  1
  P  P9  1  0.82984850  0.14891600  0.00132750  1
  O  O10  1  0.47114650  0.91625300  0.70685250  1
  O  O11  1  0.48172550  0.90879800  0.29355850  1
  O  O12  1  0.01095150  0.84979100  0.48855950  1
  O  O13  1  0.07376450  0.79430200  0.00191650  1
  O  O14  1  0.42909650  0.69381000  0.49917350  1
  O  O15  1  0.48901450  0.63752000  0.01258550  1
  O  O16  1  0.02897650  0.57217100  0.79328650  1
  O  O17  1  0.01786150  0.57934700  0.20752050  1
  O  O18  1  0.52885350  0.41625300  0.29314750  1
  O  O19  1  0.51827450  0.40879800  0.70644150  1
  O  O20  1  0.98904850  0.34979100  0.51144050  1
  O  O21  1  0.92623550  0.29430200  0.99808350  1
  O  O22  1  0.57090350  0.19381000  0.50082650  1
  O  O23  1  0.51098550  0.13752000  0.98741450  1
  O  O24  1  0.97102350  0.07217100  0.20671350  1
  O  O25  1  0.98213850  0.07934700  0.79247950  1
