# generated using pymatgen
data_Li2Mn(SiO3)2
_symmetry_space_group_name_H-M   'P 1'
_cell_length_a   5.89472371
_cell_length_b   9.90441300
_cell_length_c   9.40952856
_cell_angle_alpha   90.00000000
_cell_angle_beta   90.99139468
_cell_angle_gamma   90.00000000
_symmetry_Int_Tables_number   1
_chemical_formula_structural   Li2Mn(SiO3)2
_chemical_formula_sum   'Li8 Mn4 Si8 O24'
_cell_volume   549.28159113
_cell_formula_units_Z   4
loop_
 _symmetry_equiv_pos_site_id
 _symmetry_equiv_pos_as_xyz
  1  'x, y, z'
loop_
 _atom_site_type_symbol
 _atom_site_label
 _atom_site_symmetry_multiplicity
 _atom_site_fract_x
 _atom_site_fract_y
 _atom_site_fract_z
 _atom_site_occupancy
  Li  Li0  1  0.93745050  0.64803750  0.61728300  1
  Li  Li1  1  0.93745050  0.35196250  0.11728300  1
  Li  Li2  1  0.06254950  0.64803750  0.88271700  1
  Li  Li3  1  0.06254950  0.35196250  0.38271700  1
  Li  Li4  1  0.43745050  0.14803750  0.61728300  1
  Li  Li5  1  0.43745050  0.85196250  0.11728300  1
  Li  Li6  1  0.56254950  0.14803750  0.88271700  1
  Li  Li7  1  0.56254950  0.85196250  0.38271700  1
  Mn  Mn8  1  0.00000000  0.25444900  0.75000000  1
  Mn  Mn9  1  0.00000000  0.74555100  0.25000000  1
  Mn  Mn10  1  0.50000000  0.75444900  0.75000000  1
  Mn  Mn11  1  0.50000000  0.24555100  0.25000000  1
  Si  Si12  1  0.66590050  0.46957450  0.86668800  1
  Si  Si13  1  0.66590050  0.53042550  0.36668800  1
  Si  Si14  1  0.33409950  0.46957450  0.63331200  1
  Si  Si15  1  0.33409950  0.53042550  0.13331200  1
  Si  Si16  1  0.16590050  0.96957450  0.86668800  1
  Si  Si17  1  0.16590050  0.03042550  0.36668800  1
  Si  Si18  1  0.83409950  0.96957450  0.63331200  1
  Si  Si19  1  0.83409950  0.03042550  0.13331200  1
  O  O20  1  0.75628200  0.61111300  0.79749700  1
  O  O21  1  0.75628200  0.38888700  0.29749700  1
  O  O22  1  0.87017050  0.36829150  0.91417900  1
  O  O23  1  0.87017050  0.63170850  0.41417900  1
  O  O24  1  0.00000000  0.88652850  0.75000000  1
  O  O25  1  0.50000000  0.50000000  0.00000000  1
  O  O26  1  0.00000000  0.11347150  0.25000000  1
  O  O27  1  0.50000000  0.50000000  0.50000000  1
  O  O28  1  0.12982950  0.36829150  0.58582100  1
  O  O29  1  0.12982950  0.63170850  0.08582100  1
  O  O30  1  0.24371800  0.61111300  0.70250300  1
  O  O31  1  0.24371800  0.38888700  0.20250300  1
  O  O32  1  0.25628200  0.11111300  0.79749700  1
  O  O33  1  0.25628200  0.88888700  0.29749700  1
  O  O34  1  0.37017050  0.86829150  0.91417900  1
  O  O35  1  0.37017050  0.13170850  0.41417900  1
  O  O36  1  0.50000000  0.38652850  0.75000000  1
  O  O37  1  0.00000000  0.00000000  0.00000000  1
  O  O38  1  0.50000000  0.61347150  0.25000000  1
  O  O39  1  0.00000000  0.00000000  0.50000000  1
  O  O40  1  0.62982950  0.86829150  0.58582100  1
  O  O41  1  0.62982950  0.13170850  0.08582100  1
  O  O42  1  0.74371800  0.11111300  0.70250300  1
  O  O43  1  0.74371800  0.88888700  0.20250300  1
