# generated using pymatgen
data_Li2Mn3OF6
_symmetry_space_group_name_H-M   'P 1'
_cell_length_a   6.17951281
_cell_length_b   6.70494658
_cell_length_c   8.29503871
_cell_angle_alpha   67.90589874
_cell_angle_beta   71.23790068
_cell_angle_gamma   82.25641293
_symmetry_Int_Tables_number   1
_chemical_formula_structural   Li2Mn3OF6
_chemical_formula_sum   'Li4 Mn6 O2 F12'
_cell_volume   301.49375966
_cell_formula_units_Z   2
loop_
 _symmetry_equiv_pos_site_id
 _symmetry_equiv_pos_as_xyz
  1  'x, y, z'
loop_
 _atom_site_type_symbol
 _atom_site_label
 _atom_site_symmetry_multiplicity
 _atom_site_fract_x
 _atom_site_fract_y
 _atom_site_fract_z
 _atom_site_occupancy
  Li  Li0  1  0.30532100  0.85844600  0.48196000  1
  Li  Li1  1  0.69467900  0.14155400  0.51804000  1
  Li  Li2  1  0.10795800  0.31389500  0.06614500  1
  Li  Li3  1  0.89204200  0.68610500  0.93385500  1
  Mn  Mn4  1  0.76993900  0.56842100  0.66028800  1
  Mn  Mn5  1  0.23006100  0.43157900  0.33971200  1
  Mn  Mn6  1  0.63967700  0.25584100  0.06765400  1
  Mn  Mn7  1  0.90991300  0.82027400  0.22759100  1
  Mn  Mn8  1  0.09008700  0.17972600  0.77240900  1
  Mn  Mn9  1  0.36032300  0.74415900  0.93234600  1
  O  O10  1  0.92277400  0.41841500  0.86706400  1
  O  O11  1  0.07722600  0.58158500  0.13293600  1
  F  F12  1  0.09162300  0.70625300  0.44194500  1
  F  F13  1  0.90837700  0.29374700  0.55805500  1
  F  F14  1  0.44769300  0.43569700  0.87354800  1
  F  F15  1  0.55230700  0.56430300  0.12645200  1
  F  F16  1  0.60832600  0.72179900  0.45243400  1
  F  F17  1  0.39167400  0.27820100  0.54756600  1
  F  F18  1  0.77992200  0.96988200  0.99666900  1
  F  F19  1  0.22007800  0.03011800  0.00333100  1
  F  F20  1  0.16950500  0.87253000  0.73127400  1
  F  F21  1  0.83049500  0.12747000  0.26872600  1
  F  F22  1  0.33230800  0.13983900  0.27759300  1
  F  F23  1  0.66769200  0.86016100  0.72240700  1
