# generated using pymatgen
data_VSiO3
_symmetry_space_group_name_H-M   'P 1'
_cell_length_a   9.70748080
_cell_length_b   9.13695800
_cell_length_c   5.05467329
_cell_angle_alpha   90.00000000
_cell_angle_beta   100.56701624
_cell_angle_gamma   90.00000000
_symmetry_Int_Tables_number   1
_chemical_formula_structural   VSiO3
_chemical_formula_sum   'V8 Si8 O24'
_cell_volume   440.73031799
_cell_formula_units_Z   8
loop_
 _symmetry_equiv_pos_site_id
 _symmetry_equiv_pos_as_xyz
  1  'x, y, z'
loop_
 _atom_site_type_symbol
 _atom_site_label
 _atom_site_symmetry_multiplicity
 _atom_site_fract_x
 _atom_site_fract_y
 _atom_site_fract_z
 _atom_site_occupancy
  V  V0  1  0.00000000  0.09425500  0.75000000  1
  V  V1  1  0.00000000  0.72350150  0.75000000  1
  V  V2  1  0.00000000  0.90574500  0.25000000  1
  V  V3  1  0.00000000  0.27649850  0.25000000  1
  V  V4  1  0.50000000  0.59425500  0.75000000  1
  V  V5  1  0.50000000  0.22350150  0.75000000  1
  V  V6  1  0.50000000  0.40574500  0.25000000  1
  V  V7  1  0.50000000  0.77649850  0.25000000  1
  Si  Si8  1  0.20206900  0.58951700  0.28942500  1
  Si  Si9  1  0.20206900  0.41048300  0.78942500  1
  Si  Si10  1  0.79793100  0.58951700  0.21057500  1
  Si  Si11  1  0.79793100  0.41048300  0.71057500  1
  Si  Si12  1  0.70206900  0.08951700  0.28942500  1
  Si  Si13  1  0.70206900  0.91048300  0.78942500  1
  Si  Si14  1  0.29793100  0.08951700  0.21057500  1
  Si  Si15  1  0.29793100  0.91048300  0.71057500  1
  O  O16  1  0.37363650  0.59344650  0.35015200  1
  O  O17  1  0.37363650  0.40655350  0.85015200  1
  O  O18  1  0.62636350  0.59344650  0.14984800  1
  O  O19  1  0.62636350  0.40655350  0.64984800  1
  O  O20  1  0.14926300  0.44513900  0.08453100  1
  O  O21  1  0.14926300  0.55486100  0.58453100  1
  O  O22  1  0.85073700  0.44513900  0.41546900  1
  O  O23  1  0.85073700  0.55486100  0.91546900  1
  O  O24  1  0.12478350  0.73087550  0.14580200  1
  O  O25  1  0.12478350  0.26912450  0.64580200  1
  O  O26  1  0.87521650  0.73087550  0.35419800  1
  O  O27  1  0.87521650  0.26912450  0.85419800  1
  O  O28  1  0.87363650  0.09344650  0.35015200  1
  O  O29  1  0.87363650  0.90655350  0.85015200  1
  O  O30  1  0.12636350  0.09344650  0.14984800  1
  O  O31  1  0.12636350  0.90655350  0.64984800  1
  O  O32  1  0.64926300  0.94513900  0.08453100  1
  O  O33  1  0.64926300  0.05486100  0.58453100  1
  O  O34  1  0.35073700  0.94513900  0.41546900  1
  O  O35  1  0.35073700  0.05486100  0.91546900  1
  O  O36  1  0.62478350  0.23087550  0.14580200  1
  O  O37  1  0.62478350  0.76912450  0.64580200  1
  O  O38  1  0.37521650  0.23087550  0.35419800  1
  O  O39  1  0.37521650  0.76912450  0.85419800  1
