# generated using pymatgen
data_Li3V4(OF3)3
_symmetry_space_group_name_H-M   'P 1'
_cell_length_a   5.23505238
_cell_length_b   5.51482154
_cell_length_c   8.93586898
_cell_angle_alpha   105.18510499
_cell_angle_beta   89.62368171
_cell_angle_gamma   117.54183534
_symmetry_Int_Tables_number   1
_chemical_formula_structural   Li3V4(OF3)3
_chemical_formula_sum   'Li3 V4 O3 F9'
_cell_volume   218.77202244
_cell_formula_units_Z   1
loop_
 _symmetry_equiv_pos_site_id
 _symmetry_equiv_pos_as_xyz
  1  'x, y, z'
loop_
 _atom_site_type_symbol
 _atom_site_label
 _atom_site_symmetry_multiplicity
 _atom_site_fract_x
 _atom_site_fract_y
 _atom_site_fract_z
 _atom_site_occupancy
  Li  Li0  1  0.91411102  0.21696472  0.65158688  1
  Li  Li1  1  0.19853468  0.97734696  0.40345874  1
  Li  Li2  1  0.41346612  0.70505689  0.14208131  1
  V  V3  1  0.00716990  0.03399429  0.99311396  1
  V  V4  1  0.73360248  0.26652382  0.25333376  1
  V  V5  1  0.50014015  0.46831236  0.50249810  1
  V  V6  1  0.25504768  0.75098348  0.75353442  1
  O  O7  1  0.54216206  0.43013152  0.30756799  1
  O  O8  1  0.49313109  0.11369099  0.62056141  1
  O  O9  1  0.04698232  0.38554916  0.87246005  1
  F  F10  1  0.94693307  0.67301675  0.55511115  1
  F  F11  1  0.93987124  0.06650055  0.19818750  1
  F  F12  1  0.00759383  0.63633429  0.12833359  1
  F  F13  1  0.47848815  0.86258051  0.36593964  1
  F  F14  1  0.43983570  0.15029085  0.06967809  1
  F  F15  1  0.43237512  0.57185199  0.67268648  1
  F  F16  1  0.57029527  0.82225587  0.95031873  1
  F  F17  1  0.04312542  0.28057142  0.44737918  1
  F  F18  1  0.04826271  0.93727057  0.80619803  1
