# generated using pymatgen
data_LiP4WO12
_symmetry_space_group_name_H-M   'P 1'
_cell_length_a   12.04092000
_cell_length_b   8.50692800
_cell_length_c   10.16235393
_cell_angle_alpha   90.00000000
_cell_angle_beta   119.33031511
_cell_angle_gamma   90.00000000
_symmetry_Int_Tables_number   1
_chemical_formula_structural   LiP4WO12
_chemical_formula_sum   'Li4 P16 W4 O48'
_cell_volume   907.50431639
_cell_formula_units_Z   4
loop_
 _symmetry_equiv_pos_site_id
 _symmetry_equiv_pos_as_xyz
  1  'x, y, z'
loop_
 _atom_site_type_symbol
 _atom_site_label
 _atom_site_symmetry_multiplicity
 _atom_site_fract_x
 _atom_site_fract_y
 _atom_site_fract_z
 _atom_site_occupancy
  Li  Li0  1  0.75000000  0.75000000  0.00000000  1
  Li  Li1  1  0.25000000  0.75000000  0.50000000  1
  Li  Li2  1  0.25000000  0.25000000  0.00000000  1
  Li  Li3  1  0.75000000  0.25000000  0.50000000  1
  P  P4  1  0.69861150  0.99006850  0.70093400  1
  P  P5  1  0.99028200  0.73045500  0.52282100  1
  P  P6  1  0.50971800  0.23045500  0.97717900  1
  P  P7  1  0.19861150  0.50993150  0.20093400  1
  P  P8  1  0.30138850  0.99006850  0.79906600  1
  P  P9  1  0.99028200  0.26954500  0.02282100  1
  P  P10  1  0.50971800  0.76954500  0.47717900  1
  P  P11  1  0.80138850  0.50993150  0.29906600  1
  P  P12  1  0.19861150  0.49006850  0.70093400  1
  P  P13  1  0.49028200  0.23045500  0.52282100  1
  P  P14  1  0.00971800  0.73045500  0.97717900  1
  P  P15  1  0.69861150  0.00993150  0.20093400  1
  P  P16  1  0.80138850  0.49006850  0.79906600  1
  P  P17  1  0.49028200  0.76954500  0.02282100  1
  P  P18  1  0.00971800  0.26954500  0.47717900  1
  P  P19  1  0.30138850  0.00993150  0.29906600  1
  W  W20  1  0.00000000  0.94295300  0.25000000  1
  W  W21  1  0.50000000  0.55704700  0.75000000  1
  W  W22  1  0.50000000  0.44295300  0.25000000  1
  W  W23  1  0.00000000  0.05704700  0.75000000  1
  O  O24  1  0.73074050  0.91974950  0.84783500  1
  O  O25  1  0.04438050  0.75636350  0.41741800  1
  O  O26  1  0.08224200  0.61320000  0.65456000  1
  O  O27  1  0.96439400  0.87090000  0.59098500  1
  O  O28  1  0.29906850  0.42178850  0.18138200  1
  O  O29  1  0.85878800  0.63585600  0.43822400  1
  O  O30  1  0.54438050  0.74363650  0.91741800  1
  O  O31  1  0.53560600  0.37090000  0.90901500  1
  O  O32  1  0.14121200  0.63585600  0.06177600  1
  O  O33  1  0.23074050  0.58025050  0.34783500  1
  O  O34  1  0.41775800  0.11320000  0.84544000  1
  O  O35  1  0.20093150  0.92178850  0.31861800  1
  O  O36  1  0.29906850  0.57821150  0.68138200  1
  O  O37  1  0.08224200  0.38680000  0.15456000  1
  O  O38  1  0.26925950  0.91974950  0.65216500  1
  O  O39  1  0.35878800  0.86414400  0.93822400  1
  O  O40  1  0.96439400  0.12910000  0.09098500  1
  O  O41  1  0.95561950  0.75636350  0.08258200  1
  O  O42  1  0.64121200  0.86414400  0.56177600  1
  O  O43  1  0.20093150  0.07821150  0.81861800  1
  O  O44  1  0.53560600  0.62910000  0.40901500  1
  O  O45  1  0.41775800  0.88680000  0.34544000  1
  O  O46  1  0.45561950  0.74363650  0.58258200  1
  O  O47  1  0.76925950  0.58025050  0.15216500  1
  O  O48  1  0.23074050  0.41974950  0.84783500  1
  O  O49  1  0.54438050  0.25636350  0.41741800  1
  O  O50  1  0.58224200  0.11320000  0.65456000  1
  O  O51  1  0.46439400  0.37090000  0.59098500  1
  O  O52  1  0.79906850  0.92178850  0.18138200  1
  O  O53  1  0.35878800  0.13585600  0.43822400  1
  O  O54  1  0.04438050  0.24363650  0.91741800  1
  O  O55  1  0.03560600  0.87090000  0.90901500  1
  O  O56  1  0.64121200  0.13585600  0.06177600  1
  O  O57  1  0.73074050  0.08025050  0.34783500  1
  O  O58  1  0.91775800  0.61320000  0.84544000  1
  O  O59  1  0.70093150  0.42178850  0.31861800  1
  O  O60  1  0.79906850  0.07821150  0.68138200  1
  O  O61  1  0.58224200  0.88680000  0.15456000  1
  O  O62  1  0.76925950  0.41974950  0.65216500  1
  O  O63  1  0.85878800  0.36414400  0.93822400  1
  O  O64  1  0.46439400  0.62910000  0.09098500  1
  O  O65  1  0.45561950  0.25636350  0.08258200  1
  O  O66  1  0.14121200  0.36414400  0.56177600  1
  O  O67  1  0.70093150  0.57821150  0.81861800  1
  O  O68  1  0.03560600  0.12910000  0.40901500  1
  O  O69  1  0.91775800  0.38680000  0.34544000  1
  O  O70  1  0.95561950  0.24363650  0.58258200  1
  O  O71  1  0.26925950  0.08025050  0.15216500  1
