# generated using pymatgen
data_Li2Cr2CoO6
_symmetry_space_group_name_H-M   'P 1'
_cell_length_a   13.33528669
_cell_length_b   2.91520991
_cell_length_c   5.87206075
_cell_angle_alpha   90.00000000
_cell_angle_beta   105.04388178
_cell_angle_gamma   90.00000000
_symmetry_Int_Tables_number   1
_chemical_formula_structural   Li2Cr2CoO6
_chemical_formula_sum   'Li4 Cr4 Co2 O12'
_cell_volume   220.45362493
_cell_formula_units_Z   2
loop_
 _symmetry_equiv_pos_site_id
 _symmetry_equiv_pos_as_xyz
  1  'x, y, z'
loop_
 _atom_site_type_symbol
 _atom_site_label
 _atom_site_symmetry_multiplicity
 _atom_site_fract_x
 _atom_site_fract_y
 _atom_site_fract_z
 _atom_site_occupancy
  Li  Li0  1  0.14673275  0.00000000  0.80241500  1
  Li  Li1  1  0.85326725  0.00000000  0.19758500  1
  Li  Li2  1  0.64673275  0.50000000  0.80241500  1
  Li  Li3  1  0.35326725  0.50000000  0.19758500  1
  Cr  Cr4  1  0.16301875  0.00000000  0.33383400  1
  Cr  Cr5  1  0.83698125  0.00000000  0.66616600  1
  Cr  Cr6  1  0.66301875  0.50000000  0.33383400  1
  Cr  Cr7  1  0.33698125  0.50000000  0.66616600  1
  Co  Co8  1  0.00000000  0.50000000  0.00000000  1
  Co  Co9  1  0.50000000  0.00000000  0.00000000  1
  O  O10  1  0.14748100  0.50000000  0.08639900  1
  O  O11  1  0.85251900  0.50000000  0.91360100  1
  O  O12  1  0.99348900  0.00000000  0.78546800  1
  O  O13  1  0.00651100  0.00000000  0.21453200  1
  O  O14  1  0.81963175  0.50000000  0.42138500  1
  O  O15  1  0.68036825  0.00000000  0.57861500  1
  O  O16  1  0.64748100  0.00000000  0.08639900  1
  O  O17  1  0.35251900  0.00000000  0.91360100  1
  O  O18  1  0.49348900  0.50000000  0.78546800  1
  O  O19  1  0.50651100  0.50000000  0.21453200  1
  O  O20  1  0.31963175  0.00000000  0.42138500  1
  O  O21  1  0.18036825  0.50000000  0.57861500  1
