# generated using pymatgen
data_V2OF5
_symmetry_space_group_name_H-M   'P 1'
_cell_length_a   5.42189399
_cell_length_b   7.59419421
_cell_length_c   9.06247655
_cell_angle_alpha   113.85550176
_cell_angle_beta   105.88555653
_cell_angle_gamma   92.89504311
_symmetry_Int_Tables_number   1
_chemical_formula_structural   V2OF5
_chemical_formula_sum   'V6 O3 F15'
_cell_volume   322.67619548
_cell_formula_units_Z   3
loop_
 _symmetry_equiv_pos_site_id
 _symmetry_equiv_pos_as_xyz
  1  'x, y, z'
loop_
 _atom_site_type_symbol
 _atom_site_label
 _atom_site_symmetry_multiplicity
 _atom_site_fract_x
 _atom_site_fract_y
 _atom_site_fract_z
 _atom_site_occupancy
  V  V0  1  0.00441128  0.00282340  0.99585644  1
  V  V1  1  0.02551094  0.50090464  0.00723015  1
  V  V2  1  0.70278465  0.67538034  0.66001075  1
  V  V3  1  0.63750072  0.16375460  0.68200870  1
  V  V4  1  0.33161005  0.83354249  0.33745119  1
  V  V5  1  0.32528201  0.33655179  0.33079911  1
  O  O6  1  0.37148163  0.11291707  0.85203858  1
  O  O7  1  0.01490829  0.77142873  0.53536955  1
  O  O8  1  0.20913833  0.47323667  0.13305312  1
  F  F9  1  0.31500714  0.55549900  0.79788038  1
  F  F10  1  0.69453436  0.44934085  0.60244598  1
  F  F11  1  0.77739504  0.51916550  0.86929303  1
  F  F12  1  0.56435820  0.81522882  0.47027198  1
  F  F13  1  0.63635783  0.88247778  0.73417587  1
  F  F14  1  0.02916912  0.78210498  0.93180454  1
  F  F15  1  0.10262314  0.85079731  0.19816403  1
  F  F16  1  0.89723007  0.15209683  0.79852148  1
  F  F17  1  0.96357346  0.21945426  0.06217296  1
  F  F18  1  0.96029236  0.21576190  0.47678573  1
  F  F19  1  0.63520606  0.88500839  0.13387379  1
  F  F20  1  0.36315811  0.11671373  0.26775438  1
  F  F21  1  0.44237360  0.18439907  0.52813966  1
  F  F22  1  0.30227196  0.55059626  0.39908719  1
  F  F23  1  0.69382465  0.45081859  0.19581042  1
