# generated using pymatgen
data_Li5Co7O12
_symmetry_space_group_name_H-M   'P 1'
_cell_length_a   5.01285400
_cell_length_b   8.72778800
_cell_length_c   9.65268683
_cell_angle_alpha   90.00000000
_cell_angle_beta   99.58232872
_cell_angle_gamma   90.00000000
_symmetry_Int_Tables_number   1
_chemical_formula_structural   Li5Co7O12
_chemical_formula_sum   'Li10 Co14 O24'
_cell_volume   416.42353292
_cell_formula_units_Z   2
loop_
 _symmetry_equiv_pos_site_id
 _symmetry_equiv_pos_as_xyz
  1  'x, y, z'
loop_
 _atom_site_type_symbol
 _atom_site_label
 _atom_site_symmetry_multiplicity
 _atom_site_fract_x
 _atom_site_fract_y
 _atom_site_fract_z
 _atom_site_occupancy
  Li  Li0  1  0.74892800  0.91477900  0.24091800  1
  Li  Li1  1  0.25256350  0.58385150  0.75881600  1
  Li  Li2  1  0.25107200  0.91477900  0.75908200  1
  Li  Li3  1  0.74743650  0.58385150  0.24118400  1
  Li  Li4  1  0.00000000  0.91751000  0.00000000  1
  Li  Li5  1  0.24892800  0.41477900  0.24091800  1
  Li  Li6  1  0.75256350  0.08385150  0.75881600  1
  Li  Li7  1  0.75107200  0.41477900  0.75908200  1
  Li  Li8  1  0.24743650  0.08385150  0.24118400  1
  Li  Li9  1  0.50000000  0.41751000  0.00000000  1
  Co  Co10  1  0.50000000  0.58098900  0.50000000  1
  Co  Co11  1  0.75910950  0.75507050  0.75895800  1
  Co  Co12  1  0.50000000  0.75068100  0.00000000  1
  Co  Co13  1  0.24089050  0.75507050  0.24104200  1
  Co  Co14  1  0.50000000  0.91959700  0.50000000  1
  Co  Co15  1  0.00000000  0.58283100  0.00000000  1
  Co  Co16  1  0.00000000  0.74866900  0.50000000  1
  Co  Co17  1  0.00000000  0.08098900  0.50000000  1
  Co  Co18  1  0.25910950  0.25507050  0.75895800  1
  Co  Co19  1  0.00000000  0.25068100  0.00000000  1
  Co  Co20  1  0.74089050  0.25507050  0.24104200  1
  Co  Co21  1  0.00000000  0.41959700  0.50000000  1
  Co  Co22  1  0.50000000  0.08283100  0.00000000  1
  Co  Co23  1  0.50000000  0.24866900  0.50000000  1
  O  O24  1  0.64513850  0.59649050  0.88392700  1
  O  O25  1  0.35486150  0.59649050  0.11607300  1
  O  O26  1  0.63763200  0.75272600  0.38586700  1
  O  O27  1  0.36236800  0.75272600  0.61413300  1
  O  O28  1  0.61156050  0.91163350  0.88384500  1
  O  O29  1  0.38843950  0.91163350  0.11615500  1
  O  O30  1  0.11355150  0.59170150  0.38355200  1
  O  O31  1  0.88644850  0.59170150  0.61644800  1
  O  O32  1  0.13567900  0.73766500  0.88750100  1
  O  O33  1  0.86432100  0.73766500  0.11249900  1
  O  O34  1  0.12589100  0.90594400  0.38170000  1
  O  O35  1  0.87410900  0.90594400  0.61830000  1
  O  O36  1  0.14513850  0.09649050  0.88392700  1
  O  O37  1  0.85486150  0.09649050  0.11607300  1
  O  O38  1  0.13763200  0.25272600  0.38586700  1
  O  O39  1  0.86236800  0.25272600  0.61413300  1
  O  O40  1  0.11156050  0.41163350  0.88384500  1
  O  O41  1  0.88843950  0.41163350  0.11615500  1
  O  O42  1  0.61355150  0.09170150  0.38355200  1
  O  O43  1  0.38644850  0.09170150  0.61644800  1
  O  O44  1  0.63567900  0.23766500  0.88750100  1
  O  O45  1  0.36432100  0.23766500  0.11249900  1
  O  O46  1  0.62589100  0.40594400  0.38170000  1
  O  O47  1  0.37410900  0.40594400  0.61830000  1
