# generated using pymatgen
data_Li4Mn3Cr3(SnO8)2
_symmetry_space_group_name_H-M   'P 1'
_cell_length_a   10.25783600
_cell_length_b   5.99312600
_cell_length_c   9.71241053
_cell_angle_alpha   90.00000000
_cell_angle_beta   90.67727140
_cell_angle_gamma   90.00000000
_symmetry_Int_Tables_number   1
_chemical_formula_structural   Li4Mn3Cr3(SnO8)2
_chemical_formula_sum   'Li8 Mn6 Cr6 Sn4 O32'
_cell_volume   597.04332760
_cell_formula_units_Z   2
loop_
 _symmetry_equiv_pos_site_id
 _symmetry_equiv_pos_as_xyz
  1  'x, y, z'
loop_
 _atom_site_type_symbol
 _atom_site_label
 _atom_site_symmetry_multiplicity
 _atom_site_fract_x
 _atom_site_fract_y
 _atom_site_fract_z
 _atom_site_occupancy
  Li  Li0  1  0.32964500  0.00000000  0.89261300  1
  Li  Li1  1  0.00054900  0.00000000  0.99417600  1
  Li  Li2  1  0.00316000  0.00000000  0.49456300  1
  Li  Li3  1  0.66440800  0.00000000  0.38989800  1
  Li  Li4  1  0.82964500  0.50000000  0.89261300  1
  Li  Li5  1  0.50054900  0.50000000  0.99417600  1
  Li  Li6  1  0.50316000  0.50000000  0.49456300  1
  Li  Li7  1  0.16440800  0.50000000  0.38989800  1
  Mn  Mn8  1  0.16948200  0.00000000  0.21517900  1
  Mn  Mn9  1  0.58463400  0.75553000  0.71516900  1
  Mn  Mn10  1  0.58463400  0.24447000  0.71516900  1
  Mn  Mn11  1  0.66948200  0.50000000  0.21517900  1
  Mn  Mn12  1  0.08463400  0.25553000  0.71516900  1
  Mn  Mn13  1  0.08463400  0.74447000  0.71516900  1
  Cr  Cr14  1  0.41549300  0.75367900  0.21482000  1
  Cr  Cr15  1  0.41549300  0.24632100  0.21482000  1
  Cr  Cr16  1  0.83134500  0.00000000  0.71510300  1
  Cr  Cr17  1  0.91549300  0.25367900  0.21482000  1
  Cr  Cr18  1  0.91549300  0.74632100  0.21482000  1
  Cr  Cr19  1  0.33134500  0.50000000  0.71510300  1
  Sn  Sn20  1  0.33595000  0.00000000  0.49087000  1
  Sn  Sn21  1  0.66695900  0.00000000  0.99314900  1
  Sn  Sn22  1  0.83595000  0.50000000  0.49087000  1
  Sn  Sn23  1  0.16695900  0.50000000  0.99314900  1
  O  O24  1  0.42313600  0.73949000  0.60093400  1
  O  O25  1  0.48257400  0.00000000  0.33853900  1
  O  O26  1  0.32740300  0.00000000  0.11002800  1
  O  O27  1  0.00495500  0.00000000  0.30921000  1
  O  O28  1  0.00597700  0.00000000  0.80756600  1
  O  O29  1  0.42313600  0.26051000  0.60093400  1
  O  O30  1  0.25547250  0.77775250  0.33452400  1
  O  O31  1  0.25547250  0.22224750  0.33452400  1
  O  O32  1  0.84095900  0.00000000  0.09768200  1
  O  O33  1  0.16463400  0.00000000  0.60161000  1
  O  O34  1  0.73942100  0.77581700  0.83499900  1
  O  O35  1  0.73942100  0.22418300  0.83499900  1
  O  O36  1  0.66192500  0.00000000  0.61011500  1
  O  O37  1  0.58258900  0.73628300  0.10173600  1
  O  O38  1  0.51420700  0.00000000  0.84332100  1
  O  O39  1  0.58258900  0.26371700  0.10173600  1
  O  O40  1  0.92313600  0.23949000  0.60093400  1
  O  O41  1  0.98257400  0.50000000  0.33853900  1
  O  O42  1  0.82740300  0.50000000  0.11002800  1
  O  O43  1  0.50495500  0.50000000  0.30921000  1
  O  O44  1  0.50597700  0.50000000  0.80756600  1
  O  O45  1  0.92313600  0.76051000  0.60093400  1
  O  O46  1  0.75547250  0.27775250  0.33452400  1
  O  O47  1  0.75547250  0.72224750  0.33452400  1
  O  O48  1  0.34095900  0.50000000  0.09768200  1
  O  O49  1  0.66463400  0.50000000  0.60161000  1
  O  O50  1  0.23942100  0.27581700  0.83499900  1
  O  O51  1  0.23942100  0.72418300  0.83499900  1
  O  O52  1  0.16192500  0.50000000  0.61011500  1
  O  O53  1  0.08258900  0.23628300  0.10173600  1
  O  O54  1  0.01420700  0.50000000  0.84332100  1
  O  O55  1  0.08258900  0.76371700  0.10173600  1
