# generated using pymatgen
data_Li3Cu2(SO4)3
_symmetry_space_group_name_H-M   'P 1'
_cell_length_a   8.59238790
_cell_length_b   8.59238790
_cell_length_c   23.04960874
_cell_angle_alpha   90.00000000
_cell_angle_beta   90.00000000
_cell_angle_gamma   120.00000000
_symmetry_Int_Tables_number   1
_chemical_formula_structural   Li3Cu2(SO4)3
_chemical_formula_sum   'Li18 Cu12 S18 O72'
_cell_volume   1473.74362236
_cell_formula_units_Z   6
loop_
 _symmetry_equiv_pos_site_id
 _symmetry_equiv_pos_as_xyz
  1  'x, y, z'
loop_
 _atom_site_type_symbol
 _atom_site_label
 _atom_site_symmetry_multiplicity
 _atom_site_fract_x
 _atom_site_fract_y
 _atom_site_fract_z
 _atom_site_occupancy
  Li  Li0  1  0.67855833  0.70737367  0.04966867  1
  Li  Li1  1  0.37404033  0.36214867  0.28366467  1
  Li  Li2  1  0.63785133  0.01189167  0.28366467  1
  Li  Li3  1  0.02881533  0.32144167  0.04966867  1
  Li  Li4  1  0.29262633  0.97118467  0.04966867  1
  Li  Li5  1  0.98810833  0.62595967  0.28366467  1
  Li  Li6  1  0.34522500  0.04070700  0.38300200  1
  Li  Li7  1  0.04070700  0.69548200  0.61699800  1
  Li  Li8  1  0.30451800  0.34522500  0.61699800  1
  Li  Li9  1  0.69548200  0.65477500  0.38300200  1
  Li  Li10  1  0.95929300  0.30451800  0.38300200  1
  Li  Li11  1  0.65477500  0.95929300  0.61699800  1
  Li  Li12  1  0.01189167  0.37404033  0.71633533  1
  Li  Li13  1  0.70737367  0.02881533  0.95033133  1
  Li  Li14  1  0.97118467  0.67855833  0.95033133  1
  Li  Li15  1  0.36214867  0.98810833  0.71633533  1
  Li  Li16  1  0.62595967  0.63785133  0.71633533  1
  Li  Li17  1  0.32144167  0.29262633  0.95033133  1
  Cu  Cu18  1  0.66666667  0.33333333  0.18533133  1
  Cu  Cu19  1  0.33333333  0.66666667  0.32268867  1
  Cu  Cu20  1  0.33333333  0.66666667  0.01064467  1
  Cu  Cu21  1  0.00000000  0.00000000  0.14800200  1
  Cu  Cu22  1  0.33333333  0.66666667  0.51866467  1
  Cu  Cu23  1  0.00000000  0.00000000  0.65602200  1
  Cu  Cu24  1  0.00000000  0.00000000  0.34397800  1
  Cu  Cu25  1  0.66666667  0.33333333  0.48133533  1
  Cu  Cu26  1  0.00000000  0.00000000  0.85199800  1
  Cu  Cu27  1  0.66666667  0.33333333  0.98935533  1
  Cu  Cu28  1  0.66666667  0.33333333  0.67731133  1
  Cu  Cu29  1  0.33333333  0.66666667  0.81466867  1
  S  S30  1  0.70349733  0.70351367  0.25025567  1
  S  S31  1  0.37018033  0.33334967  0.08307767  1
  S  S32  1  0.66665033  0.03683067  0.08307767  1
  S  S33  1  0.00001633  0.29650267  0.25025567  1
  S  S34  1  0.29648633  0.99998367  0.25025567  1
  S  S35  1  0.96316933  0.62981967  0.08307767  1
  S  S36  1  0.37016400  0.03684700  0.58358900  1
  S  S37  1  0.03684700  0.66668300  0.41641100  1
  S  S38  1  0.33331700  0.37016400  0.41641100  1
  S  S39  1  0.66668300  0.62983600  0.58358900  1
  S  S40  1  0.96315300  0.33331700  0.58358900  1
  S  S41  1  0.62983600  0.96315300  0.41641100  1
  S  S42  1  0.03683067  0.37018033  0.91692233  1
  S  S43  1  0.70351367  0.00001633  0.74974433  1
  S  S44  1  0.99998367  0.70349733  0.74974433  1
  S  S45  1  0.33334967  0.96316933  0.91692233  1
  S  S46  1  0.62981967  0.66665033  0.91692233  1
  S  S47  1  0.29650267  0.29648633  0.74974433  1
  O  O48  1  0.76109500  0.17527300  0.03487700  1
  O  O49  1  0.82472700  0.58582200  0.03487700  1
  O  O50  1  0.79109967  0.79032333  0.19600333  1
  O  O51  1  0.60594300  0.50327200  0.24539300  1
  O  O52  1  0.41417800  0.23890500  0.03487700  1
  O  O53  1  0.76933767  0.93927633  0.08794033  1
  O  O54  1  0.45699000  0.33255700  0.13733000  1
  O  O55  1  0.57591267  0.76390133  0.26896533  1
  O  O56  1  0.43056800  0.52132200  0.06436800  1
  O  O57  1  0.66744300  0.12443300  0.13733000  1
  O  O58  1  0.16993867  0.23066233  0.08794033  1
  O  O59  1  0.47867800  0.90924600  0.06436800  1
  O  O60  1  0.18798867  0.42408733  0.26896533  1
  O  O61  1  0.49672800  0.10267100  0.24539300  1
  O  O62  1  0.99922367  0.20890033  0.19600333  1
  O  O63  1  0.23609867  0.81201133  0.26896533  1
  O  O64  1  0.09075400  0.56943200  0.06436800  1
  O  O65  1  0.20967667  0.00077633  0.19600333  1
  O  O66  1  0.89732900  0.39405700  0.24539300  1
  O  O67  1  0.25248867  0.09442833  0.29845633  1
  O  O68  1  0.06072367  0.83006133  0.08794033  1
  O  O69  1  0.87556700  0.54301000  0.13733000  1
  O  O70  1  0.84193967  0.74751133  0.29845633  1
  O  O71  1  0.90557167  0.15806033  0.29845633  1
  O  O72  1  0.42776167  0.50860633  0.36821033  1
  O  O73  1  0.49139367  0.91915533  0.36821033  1
  O  O74  1  0.45776633  0.12365667  0.52933667  1
  O  O75  1  0.27260967  0.83660533  0.57872633  1
  O  O76  1  0.08084467  0.57223833  0.36821033  1
  O  O77  1  0.43600433  0.27260967  0.42127367  1
  O  O78  1  0.12365667  0.66589033  0.47066333  1
  O  O79  1  0.24257933  0.09723467  0.60229867  1
  O  O80  1  0.09723467  0.85465533  0.39770133  1
  O  O81  1  0.33410967  0.45776633  0.47066333  1
  O  O82  1  0.83660533  0.56399567  0.42127367  1
  O  O83  1  0.14534467  0.24257933  0.39770133  1
  O  O84  1  0.85465533  0.75742067  0.60229867  1
  O  O85  1  0.16339467  0.43600433  0.57872633  1
  O  O86  1  0.66589033  0.54223367  0.52933667  1
  O  O87  1  0.90276533  0.14534467  0.60229867  1
  O  O88  1  0.75742067  0.90276533  0.39770133  1
  O  O89  1  0.87634333  0.33410967  0.52933667  1
  O  O90  1  0.56399567  0.72739033  0.57872633  1
  O  O91  1  0.91915533  0.42776167  0.63178967  1
  O  O92  1  0.72739033  0.16339467  0.42127367  1
  O  O93  1  0.54223367  0.87634333  0.47066333  1
  O  O94  1  0.50860633  0.08084467  0.63178967  1
  O  O95  1  0.57223833  0.49139367  0.63178967  1
  O  O96  1  0.09442833  0.84193967  0.70154367  1
  O  O97  1  0.15806033  0.25248867  0.70154367  1
  O  O98  1  0.12443300  0.45699000  0.86267000  1
  O  O99  1  0.93927633  0.16993867  0.91205967  1
  O  O100  1  0.74751133  0.90557167  0.70154367  1
  O  O101  1  0.10267100  0.60594300  0.75460700  1
  O  O102  1  0.79032333  0.99922367  0.80399667  1
  O  O103  1  0.90924600  0.43056800  0.93563200  1
  O  O104  1  0.76390133  0.18798867  0.73103467  1
  O  O105  1  0.00077633  0.79109967  0.80399667  1
  O  O106  1  0.50327200  0.89732900  0.75460700  1
  O  O107  1  0.81201133  0.57591267  0.73103467  1
  O  O108  1  0.52132200  0.09075400  0.93563200  1
  O  O109  1  0.83006133  0.76933767  0.91205967  1
  O  O110  1  0.33255700  0.87556700  0.86267000  1
  O  O111  1  0.56943200  0.47867800  0.93563200  1
  O  O112  1  0.42408733  0.23609867  0.73103467  1
  O  O113  1  0.54301000  0.66744300  0.86267000  1
  O  O114  1  0.23066233  0.06072367  0.91205967  1
  O  O115  1  0.58582200  0.76109500  0.96512300  1
  O  O116  1  0.39405700  0.49672800  0.75460700  1
  O  O117  1  0.20890033  0.20967667  0.80399667  1
  O  O118  1  0.17527300  0.41417800  0.96512300  1
  O  O119  1  0.23890500  0.82472700  0.96512300  1
