# generated using pymatgen
data_Li2CrFeO4
_symmetry_space_group_name_H-M   'P 1'
_cell_length_a   9.89180800
_cell_length_b   2.97472600
_cell_length_c   5.15235861
_cell_angle_alpha   90.00000000
_cell_angle_beta   99.97362687
_cell_angle_gamma   90.00000000
_symmetry_Int_Tables_number   1
_chemical_formula_structural   Li2CrFeO4
_chemical_formula_sum   'Li4 Cr2 Fe2 O8'
_cell_volume   149.31910934
_cell_formula_units_Z   2
loop_
 _symmetry_equiv_pos_site_id
 _symmetry_equiv_pos_as_xyz
  1  'x, y, z'
loop_
 _atom_site_type_symbol
 _atom_site_label
 _atom_site_symmetry_multiplicity
 _atom_site_fract_x
 _atom_site_fract_y
 _atom_site_fract_z
 _atom_site_occupancy
  Li  Li0  1  0.75077600  0.50000000  0.25124400  1
  Li  Li1  1  0.74922400  0.00000000  0.74875600  1
  Li  Li2  1  0.25077600  0.00000000  0.25124400  1
  Li  Li3  1  0.24922400  0.50000000  0.74875600  1
  Cr  Cr4  1  0.00000000  0.00000000  0.50000000  1
  Cr  Cr5  1  0.50000000  0.50000000  0.50000000  1
  Fe  Fe6  1  0.00000000  0.50000000  0.00000000  1
  Fe  Fe7  1  0.50000000  0.00000000  0.00000000  1
  O  O8  1  0.88572900  0.00000000  0.13018900  1
  O  O9  1  0.61427100  0.50000000  0.86981100  1
  O  O10  1  0.88719000  0.50000000  0.62764900  1
  O  O11  1  0.61281000  0.00000000  0.37235100  1
  O  O12  1  0.38572900  0.50000000  0.13018900  1
  O  O13  1  0.11427100  0.00000000  0.86981100  1
  O  O14  1  0.38719000  0.00000000  0.62764900  1
  O  O15  1  0.11281000  0.50000000  0.37235100  1
