# generated using pymatgen
data_Li2CoSiO4
_symmetry_space_group_name_H-M   'P 1'
_cell_length_a   7.36594345
_cell_length_b   7.66398825
_cell_length_c   6.30776159
_cell_angle_alpha   90.00000000
_cell_angle_beta   90.75092889
_cell_angle_gamma   90.00000000
_symmetry_Int_Tables_number   1
_chemical_formula_structural   Li2CoSiO4
_chemical_formula_sum   'Li8 Co4 Si4 O16'
_cell_volume   356.05835378
_cell_formula_units_Z   4
loop_
 _symmetry_equiv_pos_site_id
 _symmetry_equiv_pos_as_xyz
  1  'x, y, z'
loop_
 _atom_site_type_symbol
 _atom_site_label
 _atom_site_symmetry_multiplicity
 _atom_site_fract_x
 _atom_site_fract_y
 _atom_site_fract_z
 _atom_site_occupancy
  Li  Li0  1  0.50000000  0.32339025  0.00000000  1
  Li  Li1  1  0.50000000  0.67660975  0.00000000  1
  Li  Li2  1  0.68154300  0.00000000  0.76256300  1
  Li  Li3  1  0.31845700  0.00000000  0.23743700  1
  Li  Li4  1  0.00000000  0.82339025  0.00000000  1
  Li  Li5  1  0.00000000  0.17660975  0.00000000  1
  Li  Li6  1  0.18154300  0.50000000  0.76256300  1
  Li  Li7  1  0.81845700  0.50000000  0.23743700  1
  Co  Co8  1  0.50000000  0.68804250  0.50000000  1
  Co  Co9  1  0.50000000  0.31195750  0.50000000  1
  Co  Co10  1  0.00000000  0.18804250  0.50000000  1
  Co  Co11  1  0.00000000  0.81195750  0.50000000  1
  Si  Si12  1  0.67779500  0.00000000  0.24284700  1
  Si  Si13  1  0.32220500  0.00000000  0.75715300  1
  Si  Si14  1  0.17779500  0.50000000  0.24284700  1
  Si  Si15  1  0.82220500  0.50000000  0.75715300  1
  O  O16  1  0.80517350  0.00000000  0.46734000  1
  O  O17  1  0.19482650  0.00000000  0.53266000  1
  O  O18  1  0.80466750  0.00000000  0.03562700  1
  O  O19  1  0.19533250  0.00000000  0.96437300  1
  O  O20  1  0.53877750  0.17012350  0.24963300  1
  O  O21  1  0.46122250  0.17012350  0.75036700  1
  O  O22  1  0.53877750  0.82987650  0.24963300  1
  O  O23  1  0.46122250  0.82987650  0.75036700  1
  O  O24  1  0.30517350  0.50000000  0.46734000  1
  O  O25  1  0.69482650  0.50000000  0.53266000  1
  O  O26  1  0.30466750  0.50000000  0.03562700  1
  O  O27  1  0.69533250  0.50000000  0.96437300  1
  O  O28  1  0.03877750  0.67012350  0.24963300  1
  O  O29  1  0.96122250  0.67012350  0.75036700  1
  O  O30  1  0.03877750  0.32987650  0.24963300  1
  O  O31  1  0.96122250  0.32987650  0.75036700  1
