# generated using pymatgen
data_Ni3OF5
_symmetry_space_group_name_H-M   'P 1'
_cell_length_a   9.03854000
_cell_length_b   6.70498600
_cell_length_c   7.28440981
_cell_angle_alpha   90.00000000
_cell_angle_beta   111.62011744
_cell_angle_gamma   90.00000000
_symmetry_Int_Tables_number   1
_chemical_formula_structural   Ni3OF5
_chemical_formula_sum   'Ni12 O4 F20'
_cell_volume   410.40125871
_cell_formula_units_Z   4
loop_
 _symmetry_equiv_pos_site_id
 _symmetry_equiv_pos_as_xyz
  1  'x, y, z'
loop_
 _atom_site_type_symbol
 _atom_site_label
 _atom_site_symmetry_multiplicity
 _atom_site_fract_x
 _atom_site_fract_y
 _atom_site_fract_z
 _atom_site_occupancy
  Ni  Ni0  1  0.16543400  0.50000000  0.16582900  1
  Ni  Ni1  1  0.17557900  0.50000000  0.66314600  1
  Ni  Ni2  1  0.00000000  0.00000000  0.00000000  1
  Ni  Ni3  1  0.00000000  0.00000000  0.50000000  1
  Ni  Ni4  1  0.83456600  0.50000000  0.83417100  1
  Ni  Ni5  1  0.82442100  0.50000000  0.33685400  1
  Ni  Ni6  1  0.66543400  0.00000000  0.16582900  1
  Ni  Ni7  1  0.67557900  0.00000000  0.66314600  1
  Ni  Ni8  1  0.50000000  0.50000000  0.00000000  1
  Ni  Ni9  1  0.50000000  0.50000000  0.50000000  1
  Ni  Ni10  1  0.33456600  0.00000000  0.83417100  1
  Ni  Ni11  1  0.32442100  0.00000000  0.33685400  1
  O  O12  1  0.59638900  0.50000000  0.29556600  1
  O  O13  1  0.40361100  0.50000000  0.70443400  1
  O  O14  1  0.09638900  0.00000000  0.29556600  1
  O  O15  1  0.90361100  0.00000000  0.70443400  1
  F  F16  1  0.17089400  0.19745900  0.66464600  1
  F  F17  1  0.00000000  0.69618800  0.00000000  1
  F  F18  1  0.26648100  0.50000000  0.96371900  1
  F  F19  1  0.94061300  0.50000000  0.63447300  1
  F  F20  1  0.05938700  0.50000000  0.36552700  1
  F  F21  1  0.73351900  0.50000000  0.03628100  1
  F  F22  1  0.82910600  0.80254100  0.33535400  1
  F  F23  1  0.17089400  0.80254100  0.66464600  1
  F  F24  1  0.00000000  0.30381200  0.00000000  1
  F  F25  1  0.82910600  0.19745900  0.33535400  1
  F  F26  1  0.67089400  0.69745900  0.66464600  1
  F  F27  1  0.50000000  0.19618800  0.00000000  1
  F  F28  1  0.76648100  0.00000000  0.96371900  1
  F  F29  1  0.44061300  0.00000000  0.63447300  1
  F  F30  1  0.55938700  0.00000000  0.36552700  1
  F  F31  1  0.23351900  0.00000000  0.03628100  1
  F  F32  1  0.32910600  0.30254100  0.33535400  1
  F  F33  1  0.67089400  0.30254100  0.66464600  1
  F  F34  1  0.50000000  0.80381200  0.00000000  1
  F  F35  1  0.32910600  0.69745900  0.33535400  1
