# generated using pymatgen
data_Li4Nb2V3Cu3O16
_symmetry_space_group_name_H-M   'P 1'
_cell_length_a   10.60988941
_cell_length_b   5.87845531
_cell_length_c   9.84113686
_cell_angle_alpha   90.00000000
_cell_angle_beta   91.66362350
_cell_angle_gamma   90.00000000
_symmetry_Int_Tables_number   1
_chemical_formula_structural   Li4Nb2V3Cu3O16
_chemical_formula_sum   'Li8 Nb4 V6 Cu6 O32'
_cell_volume   613.53063593
_cell_formula_units_Z   2
loop_
 _symmetry_equiv_pos_site_id
 _symmetry_equiv_pos_as_xyz
  1  'x, y, z'
loop_
 _atom_site_type_symbol
 _atom_site_label
 _atom_site_symmetry_multiplicity
 _atom_site_fract_x
 _atom_site_fract_y
 _atom_site_fract_z
 _atom_site_occupancy
  Li  Li0  1  0.16528700  0.50000000  0.09237600  1
  Li  Li1  1  0.49106850  0.50000000  0.00427400  1
  Li  Li2  1  0.00234550  0.00000000  0.51698800  1
  Li  Li3  1  0.35503150  0.00000000  0.59660200  1
  Li  Li4  1  0.66528700  0.00000000  0.09237600  1
  Li  Li5  1  0.99106850  0.00000000  0.00427400  1
  Li  Li6  1  0.50234550  0.50000000  0.51698800  1
  Li  Li7  1  0.85503150  0.50000000  0.59660200  1
  Nb  Nb8  1  0.15795300  0.50000000  0.50000800  1
  Nb  Nb9  1  0.32595700  0.00000000  0.00182800  1
  Nb  Nb10  1  0.65795300  0.00000000  0.50000800  1
  Nb  Nb11  1  0.82595700  0.50000000  0.00182800  1
  V  V12  1  0.32356000  0.50000000  0.76141600  1
  V  V13  1  0.40390850  0.24516250  0.28136200  1
  V  V14  1  0.40390850  0.75483750  0.28136200  1
  V  V15  1  0.82356000  0.00000000  0.76141600  1
  V  V16  1  0.90390850  0.74516250  0.28136200  1
  V  V17  1  0.90390850  0.25483750  0.28136200  1
  Cu  Cu18  1  0.08320400  0.74254500  0.79579000  1
  Cu  Cu19  1  0.08320400  0.25745500  0.79579000  1
  Cu  Cu20  1  0.16352750  0.00000000  0.27740100  1
  Cu  Cu21  1  0.58320400  0.24254500  0.79579000  1
  Cu  Cu22  1  0.58320400  0.75745500  0.79579000  1
  Cu  Cu23  1  0.66352750  0.50000000  0.27740100  1
  O  O24  1  0.08238250  0.75161950  0.40747800  1
  O  O25  1  0.03849600  0.50000000  0.64993500  1
  O  O26  1  0.18394200  0.50000000  0.88076700  1
  O  O27  1  0.49264350  0.50000000  0.71218100  1
  O  O28  1  0.48198100  0.50000000  0.19353600  1
  O  O29  1  0.08238250  0.24838050  0.40747800  1
  O  O30  1  0.26970350  0.71721550  0.64804000  1
  O  O31  1  0.26970350  0.28278450  0.64804000  1
  O  O32  1  0.15803850  0.00000000  0.92426600  1
  O  O33  1  0.33526500  0.50000000  0.40242600  1
  O  O34  1  0.26282100  0.23250900  0.16463400  1
  O  O35  1  0.26282100  0.76749100  0.16463400  1
  O  O36  1  0.36257200  0.00000000  0.39889500  1
  O  O37  1  0.39642450  0.25306850  0.91086300  1
  O  O38  1  0.47545950  0.00000000  0.16276100  1
  O  O39  1  0.39642450  0.74693150  0.91086300  1
  O  O40  1  0.58238250  0.25161950  0.40747800  1
  O  O41  1  0.53849600  0.00000000  0.64993500  1
  O  O42  1  0.68394200  0.00000000  0.88076700  1
  O  O43  1  0.99264350  0.00000000  0.71218100  1
  O  O44  1  0.98198100  0.00000000  0.19353600  1
  O  O45  1  0.58238250  0.74838050  0.40747800  1
  O  O46  1  0.76970350  0.21721550  0.64804000  1
  O  O47  1  0.76970350  0.78278450  0.64804000  1
  O  O48  1  0.65803850  0.50000000  0.92426600  1
  O  O49  1  0.83526500  0.00000000  0.40242600  1
  O  O50  1  0.76282100  0.73250900  0.16463400  1
  O  O51  1  0.76282100  0.26749100  0.16463400  1
  O  O52  1  0.86257200  0.50000000  0.39889500  1
  O  O53  1  0.89642450  0.75306850  0.91086300  1
  O  O54  1  0.97545950  0.50000000  0.16276100  1
  O  O55  1  0.89642450  0.24693150  0.91086300  1
