# generated using pymatgen
data_Li4Ti3Mn2Cu3O16
_symmetry_space_group_name_H-M   'P 1'
_cell_length_a   10.22147105
_cell_length_b   5.89327328
_cell_length_c   9.54627764
_cell_angle_alpha   90.00000000
_cell_angle_beta   92.23464381
_cell_angle_gamma   90.00000000
_symmetry_Int_Tables_number   1
_chemical_formula_structural   Li4Ti3Mn2Cu3O16
_chemical_formula_sum   'Li8 Ti6 Mn4 Cu6 O32'
_cell_volume   574.61061861
_cell_formula_units_Z   2
loop_
 _symmetry_equiv_pos_site_id
 _symmetry_equiv_pos_as_xyz
  1  'x, y, z'
loop_
 _atom_site_type_symbol
 _atom_site_label
 _atom_site_symmetry_multiplicity
 _atom_site_fract_x
 _atom_site_fract_y
 _atom_site_fract_z
 _atom_site_occupancy
  Li  Li0  1  0.16812850  0.50000000  0.89710200  1
  Li  Li1  1  0.49012250  0.50000000  0.98716300  1
  Li  Li2  1  0.49385600  0.50000000  0.49476100  1
  Li  Li3  1  0.33637300  0.00000000  0.40090300  1
  Li  Li4  1  0.66812850  0.00000000  0.89710200  1
  Li  Li5  1  0.99012250  0.00000000  0.98716300  1
  Li  Li6  1  0.99385600  0.00000000  0.49476100  1
  Li  Li7  1  0.83637300  0.50000000  0.40090300  1
  Ti  Ti8  1  0.08758500  0.25228100  0.21346900  1
  Ti  Ti9  1  0.08758500  0.74771900  0.21346900  1
  Ti  Ti10  1  0.17103000  0.00000000  0.71404700  1
  Ti  Ti11  1  0.58758500  0.75228100  0.21346900  1
  Ti  Ti12  1  0.58758500  0.24771900  0.21346900  1
  Ti  Ti13  1  0.67103000  0.50000000  0.71404700  1
  Mn  Mn14  1  0.17017300  0.50000000  0.48553500  1
  Mn  Mn15  1  0.33636000  0.00000000  0.98242200  1
  Mn  Mn16  1  0.67017300  0.00000000  0.48553500  1
  Mn  Mn17  1  0.83636000  0.50000000  0.98242200  1
  Cu  Cu18  1  0.33100750  0.50000000  0.20827000  1
  Cu  Cu19  1  0.41496300  0.75631600  0.71072200  1
  Cu  Cu20  1  0.41496300  0.24368400  0.71072200  1
  Cu  Cu21  1  0.83100750  0.00000000  0.20827000  1
  Cu  Cu22  1  0.91496300  0.25631600  0.71072200  1
  Cu  Cu23  1  0.91496300  0.74368400  0.71072200  1
  O  O24  1  0.09382800  0.24983100  0.59720300  1
  O  O25  1  0.02057600  0.50000000  0.33734400  1
  O  O26  1  0.16395650  0.50000000  0.10529900  1
  O  O27  1  0.00081800  0.00000000  0.30440600  1
  O  O28  1  0.49631850  0.50000000  0.79738500  1
  O  O29  1  0.09382800  0.75016900  0.59720300  1
  O  O30  1  0.23299000  0.27473100  0.35267700  1
  O  O31  1  0.23299000  0.72526900  0.35267700  1
  O  O32  1  0.17158950  0.00000000  0.10753800  1
  O  O33  1  0.33311450  0.50000000  0.59634300  1
  O  O34  1  0.25308150  0.78608550  0.85185200  1
  O  O35  1  0.25308150  0.21391450  0.85185200  1
  O  O36  1  0.33341550  0.00000000  0.60751800  1
  O  O37  1  0.42666600  0.76136000  0.09234700  1
  O  O38  1  0.47577550  0.00000000  0.84734200  1
  O  O39  1  0.42666600  0.23864000  0.09234700  1
  O  O40  1  0.59382800  0.74983100  0.59720300  1
  O  O41  1  0.52057600  0.00000000  0.33734400  1
  O  O42  1  0.66395650  0.00000000  0.10529900  1
  O  O43  1  0.50081800  0.50000000  0.30440600  1
  O  O44  1  0.99631850  0.00000000  0.79738500  1
  O  O45  1  0.59382800  0.25016900  0.59720300  1
  O  O46  1  0.73299000  0.77473100  0.35267700  1
  O  O47  1  0.73299000  0.22526900  0.35267700  1
  O  O48  1  0.67158950  0.50000000  0.10753800  1
  O  O49  1  0.83311450  0.00000000  0.59634300  1
  O  O50  1  0.75308150  0.28608550  0.85185200  1
  O  O51  1  0.75308150  0.71391450  0.85185200  1
  O  O52  1  0.83341550  0.50000000  0.60751800  1
  O  O53  1  0.92666600  0.26136000  0.09234700  1
  O  O54  1  0.97577550  0.50000000  0.84734200  1
  O  O55  1  0.92666600  0.73864000  0.09234700  1
