# generated using pymatgen
data_Mn6OF11
_symmetry_space_group_name_H-M   'P 1'
_cell_length_a   9.67530600
_cell_length_b   6.86664400
_cell_length_c   7.78554448
_cell_angle_alpha   90.00000000
_cell_angle_beta   111.24709056
_cell_angle_gamma   90.00000000
_symmetry_Int_Tables_number   1
_chemical_formula_structural   Mn6OF11
_chemical_formula_sum   'Mn12 O2 F22'
_cell_volume   482.08807206
_cell_formula_units_Z   2
loop_
 _symmetry_equiv_pos_site_id
 _symmetry_equiv_pos_as_xyz
  1  'x, y, z'
loop_
 _atom_site_type_symbol
 _atom_site_label
 _atom_site_symmetry_multiplicity
 _atom_site_fract_x
 _atom_site_fract_y
 _atom_site_fract_z
 _atom_site_occupancy
  Mn  Mn0  1  0.84257350  0.48959450  0.84233600  1
  Mn  Mn1  1  0.16730900  0.49491500  0.66813400  1
  Mn  Mn2  1  0.83269100  0.49491500  0.33186600  1
  Mn  Mn3  1  0.15742650  0.48959450  0.15766400  1
  Mn  Mn4  1  0.00000000  0.99845600  0.50000000  1
  Mn  Mn5  1  0.00000000  0.02592900  0.00000000  1
  Mn  Mn6  1  0.34257350  0.98959450  0.84233600  1
  Mn  Mn7  1  0.66730900  0.99491500  0.66813400  1
  Mn  Mn8  1  0.33269100  0.99491500  0.33186600  1
  Mn  Mn9  1  0.65742650  0.98959450  0.15766400  1
  Mn  Mn10  1  0.50000000  0.49845600  0.50000000  1
  Mn  Mn11  1  0.50000000  0.52592900  0.00000000  1
  O  O12  1  0.00000000  0.30063400  0.00000000  1
  O  O13  1  0.50000000  0.80063400  0.00000000  1
  F  F14  1  0.17486500  0.18769100  0.67253200  1
  F  F15  1  0.82513500  0.18769100  0.32746800  1
  F  F16  1  0.59892100  0.50226300  0.29287700  1
  F  F17  1  0.93482150  0.49780150  0.62940800  1
  F  F18  1  0.27277450  0.50440050  0.96668300  1
  F  F19  1  0.40107900  0.50226300  0.70712300  1
  F  F20  1  0.72722550  0.50440050  0.03331700  1
  F  F21  1  0.06517850  0.49780150  0.37059200  1
  F  F22  1  0.83277300  0.80190200  0.33431800  1
  F  F23  1  0.16722700  0.80190200  0.66568200  1
  F  F24  1  0.00000000  0.71784500  0.00000000  1
  F  F25  1  0.67486500  0.68769100  0.67253200  1
  F  F26  1  0.32513500  0.68769100  0.32746800  1
  F  F27  1  0.09892100  0.00226300  0.29287700  1
  F  F28  1  0.43482150  0.99780150  0.62940800  1
  F  F29  1  0.77277450  0.00440050  0.96668300  1
  F  F30  1  0.90107900  0.00226300  0.70712300  1
  F  F31  1  0.22722550  0.00440050  0.03331700  1
  F  F32  1  0.56517850  0.99780150  0.37059200  1
  F  F33  1  0.33277300  0.30190200  0.33431800  1
  F  F34  1  0.66722700  0.30190200  0.66568200  1
  F  F35  1  0.50000000  0.21784500  0.00000000  1
