# generated using pymatgen
data_Li3MnVP2(HO5)2
_symmetry_space_group_name_H-M   'P 1'
_cell_length_a   5.37777777
_cell_length_b   5.46389763
_cell_length_c   7.61029526
_cell_angle_alpha   106.46705024
_cell_angle_beta   109.01535427
_cell_angle_gamma   95.39867672
_symmetry_Int_Tables_number   1
_chemical_formula_structural   Li3MnVP2(HO5)2
_chemical_formula_sum   'Li3 Mn1 V1 P2 H2 O10'
_cell_volume   198.41078051
_cell_formula_units_Z   1
loop_
 _symmetry_equiv_pos_site_id
 _symmetry_equiv_pos_as_xyz
  1  'x, y, z'
loop_
 _atom_site_type_symbol
 _atom_site_label
 _atom_site_symmetry_multiplicity
 _atom_site_fract_x
 _atom_site_fract_y
 _atom_site_fract_z
 _atom_site_occupancy
  Li  Li0  1  0.46794800  0.13330000  0.84908100  1
  Li  Li1  1  0.78877150  0.43011250  0.79781050  1
  Li  Li2  1  0.24009050  0.59554250  0.16938150  1
  Mn  Mn3  1  0.00691700  0.00254800  0.01063750  1
  V  V4  1  0.99057200  0.99806600  0.49429850  1
  P  P5  1  0.68014950  0.37732350  0.23452850  1
  P  P6  1  0.32525050  0.62475150  0.77397450  1
  H  H7  1  0.34571050  0.05537650  0.35682850  1
  H  H8  1  0.66636000  0.91735600  0.63915550  1
  O  O9  1  0.82695600  0.05776300  0.70850350  1
  O  O10  1  0.75396750  0.22454650  0.38053750  1
  O  O11  1  0.31195650  0.33090650  0.66749900  1
  O  O12  1  0.38391750  0.26052050  0.08528850  1
  O  O13  1  0.85891400  0.35087000  0.10656600  1
  O  O14  1  0.14006600  0.64608600  0.89501050  1
  O  O15  1  0.62346550  0.73911650  0.90592550  1
  O  O16  1  0.68536100  0.66567200  0.34083000  1
  O  O17  1  0.24767200  0.79131600  0.63563950  1
  O  O18  1  0.16616050  0.94172550  0.29536100  1
