# generated using pymatgen
data_Li2CoP2O7
_symmetry_space_group_name_H-M   'P 1'
_cell_length_a   14.50124200
_cell_length_b   5.60409400
_cell_length_c   7.90444514
_cell_angle_alpha   90.00000000
_cell_angle_beta   117.65698309
_cell_angle_gamma   90.00000000
_symmetry_Int_Tables_number   1
_chemical_formula_structural   Li2CoP2O7
_chemical_formula_sum   'Li8 Co4 P8 O28'
_cell_volume   568.97007175
_cell_formula_units_Z   4
loop_
 _symmetry_equiv_pos_site_id
 _symmetry_equiv_pos_as_xyz
  1  'x, y, z'
loop_
 _atom_site_type_symbol
 _atom_site_label
 _atom_site_symmetry_multiplicity
 _atom_site_fract_x
 _atom_site_fract_y
 _atom_site_fract_z
 _atom_site_occupancy
  Li  Li0  1  0.22112850  0.84286750  0.80725400  1
  Li  Li1  1  0.27887150  0.34286750  0.69274600  1
  Li  Li2  1  0.22112850  0.15713250  0.30725400  1
  Li  Li3  1  0.27887150  0.65713250  0.19274600  1
  Li  Li4  1  0.72112850  0.34286750  0.80725400  1
  Li  Li5  1  0.77887150  0.84286750  0.69274600  1
  Li  Li6  1  0.72112850  0.65713250  0.30725400  1
  Li  Li7  1  0.77887150  0.15713250  0.19274600  1
  Co  Co8  1  0.00000000  0.00000000  0.50000000  1
  Co  Co9  1  0.00000000  0.00000000  0.00000000  1
  Co  Co10  1  0.50000000  0.50000000  0.50000000  1
  Co  Co11  1  0.50000000  0.50000000  0.00000000  1
  P  P12  1  0.11206700  0.35604700  0.85787000  1
  P  P13  1  0.11206700  0.64395300  0.35787000  1
  P  P14  1  0.38793300  0.85604700  0.64213000  1
  P  P15  1  0.38793300  0.14395300  0.14213000  1
  P  P16  1  0.61206700  0.85604700  0.85787000  1
  P  P17  1  0.61206700  0.14395300  0.35787000  1
  P  P18  1  0.88793300  0.35604700  0.64213000  1
  P  P19  1  0.88793300  0.64395300  0.14213000  1
  O  O20  1  0.11826500  0.17741400  0.71335100  1
  O  O21  1  0.19452350  0.54723350  0.92044300  1
  O  O22  1  0.11049700  0.77640500  0.52816200  1
  O  O23  1  0.11826500  0.82258600  0.21335100  1
  O  O24  1  0.19452350  0.45276650  0.42044300  1
  O  O25  1  0.11049700  0.22359500  0.02816200  1
  O  O26  1  0.38950300  0.27640500  0.97183800  1
  O  O27  1  0.30547650  0.04723350  0.57955700  1
  O  O28  1  0.38173500  0.67741400  0.78664900  1
  O  O29  1  0.38950300  0.72359500  0.47183800  1
  O  O30  1  0.30547650  0.95276650  0.07955700  1
  O  O31  1  0.38173500  0.32258600  0.28664900  1
  O  O32  1  0.00000000  0.49257500  0.75000000  1
  O  O33  1  0.00000000  0.50742500  0.25000000  1
  O  O34  1  0.61826500  0.67741400  0.71335100  1
  O  O35  1  0.69452350  0.04723350  0.92044300  1
  O  O36  1  0.61049700  0.27640500  0.52816200  1
  O  O37  1  0.61826500  0.32258600  0.21335100  1
  O  O38  1  0.69452350  0.95276650  0.42044300  1
  O  O39  1  0.61049700  0.72359500  0.02816200  1
  O  O40  1  0.88950300  0.77640500  0.97183800  1
  O  O41  1  0.80547650  0.54723350  0.57955700  1
  O  O42  1  0.88173500  0.17741400  0.78664900  1
  O  O43  1  0.88950300  0.22359500  0.47183800  1
  O  O44  1  0.80547650  0.45276650  0.07955700  1
  O  O45  1  0.88173500  0.82258600  0.28664900  1
  O  O46  1  0.50000000  0.99257500  0.75000000  1
  O  O47  1  0.50000000  0.00742500  0.25000000  1
