# generated using pymatgen
data_LiVF4
_symmetry_space_group_name_H-M   'P 1'
_cell_length_a   11.94200200
_cell_length_b   5.24973800
_cell_length_c   5.49734838
_cell_angle_alpha   90.00000000
_cell_angle_beta   92.39134121
_cell_angle_gamma   90.00000000
_symmetry_Int_Tables_number   1
_chemical_formula_structural   LiVF4
_chemical_formula_sum   'Li4 V4 F16'
_cell_volume   344.34173070
_cell_formula_units_Z   4
loop_
 _symmetry_equiv_pos_site_id
 _symmetry_equiv_pos_as_xyz
  1  'x, y, z'
loop_
 _atom_site_type_symbol
 _atom_site_label
 _atom_site_symmetry_multiplicity
 _atom_site_fract_x
 _atom_site_fract_y
 _atom_site_fract_z
 _atom_site_occupancy
  Li  Li0  1  0.00000000  0.00608200  0.75000000  1
  Li  Li1  1  0.00000000  0.99391800  0.25000000  1
  Li  Li2  1  0.50000000  0.50608200  0.75000000  1
  Li  Li3  1  0.50000000  0.49391800  0.25000000  1
  V  V4  1  0.75000000  0.75000000  0.50000000  1
  V  V5  1  0.75000000  0.25000000  0.00000000  1
  V  V6  1  0.25000000  0.25000000  0.50000000  1
  V  V7  1  0.25000000  0.75000000  0.00000000  1
  F  F8  1  0.59445700  0.63813300  0.50718500  1
  F  F9  1  0.71351350  0.94297850  0.20047300  1
  F  F10  1  0.71351350  0.05702150  0.70047300  1
  F  F11  1  0.90554300  0.13813300  0.99281500  1
  F  F12  1  0.59445700  0.36186700  0.00718500  1
  F  F13  1  0.78648650  0.44297850  0.29952700  1
  F  F14  1  0.78648650  0.55702150  0.79952700  1
  F  F15  1  0.90554300  0.86186700  0.49281500  1
  F  F16  1  0.09445700  0.13813300  0.50718500  1
  F  F17  1  0.21351350  0.44297850  0.20047300  1
  F  F18  1  0.21351350  0.55702150  0.70047300  1
  F  F19  1  0.40554300  0.63813300  0.99281500  1
  F  F20  1  0.09445700  0.86186700  0.00718500  1
  F  F21  1  0.28648650  0.94297850  0.29952700  1
  F  F22  1  0.28648650  0.05702150  0.79952700  1
  F  F23  1  0.40554300  0.36186700  0.49281500  1
