# generated using pymatgen
data_LiCr(PO3)3
_symmetry_space_group_name_H-M   'P 1'
_cell_length_a   6.57811820
_cell_length_b   6.93163157
_cell_length_c   7.35343155
_cell_angle_alpha   81.60398341
_cell_angle_beta   88.17388218
_cell_angle_gamma   86.82682165
_symmetry_Int_Tables_number   1
_chemical_formula_structural   LiCr(PO3)3
_chemical_formula_sum   'Li2 Cr2 P6 O18'
_cell_volume   331.09697193
_cell_formula_units_Z   2
loop_
 _symmetry_equiv_pos_site_id
 _symmetry_equiv_pos_as_xyz
  1  'x, y, z'
loop_
 _atom_site_type_symbol
 _atom_site_label
 _atom_site_symmetry_multiplicity
 _atom_site_fract_x
 _atom_site_fract_y
 _atom_site_fract_z
 _atom_site_occupancy
  Li  Li0  1  0.14111900  0.55238700  0.17237700  1
  Li  Li1  1  0.85888100  0.44761300  0.82762300  1
  Cr  Cr2  1  0.16394500  0.07877800  0.14125200  1
  Cr  Cr3  1  0.83605500  0.92122200  0.85874800  1
  P  P4  1  0.14372800  0.22796400  0.54755200  1
  P  P5  1  0.32758000  0.88390100  0.77385800  1
  P  P6  1  0.35616300  0.44528800  0.79609300  1
  P  P7  1  0.64383700  0.55471200  0.20390700  1
  P  P8  1  0.67242000  0.11609900  0.22614200  1
  P  P9  1  0.85627200  0.77203600  0.45244800  1
  O  O10  1  0.04572600  0.76289700  0.33529800  1
  O  O11  1  0.12955200  0.27014800  0.33986400  1
  O  O12  1  0.15659900  0.90567300  0.91919600  1
  O  O13  1  0.18171000  0.39657800  0.93098800  1
  O  O14  1  0.25370700  0.01048300  0.58438000  1
  O  O15  1  0.31310600  0.36410300  0.60399000  1
  O  O16  1  0.33033200  0.67609200  0.71219900  1
  O  O17  1  0.42965800  0.60881800  0.15481200  1
  O  O18  1  0.46952700  0.05576300  0.18012600  1
  O  O19  1  0.53047300  0.94423700  0.81987400  1
  O  O20  1  0.57034200  0.39118200  0.84518800  1
  O  O21  1  0.66966800  0.32390800  0.28780100  1
  O  O22  1  0.68689400  0.63589700  0.39601000  1
  O  O23  1  0.74629300  0.98951700  0.41562000  1
  O  O24  1  0.81829000  0.60342200  0.06901200  1
  O  O25  1  0.84340100  0.09432700  0.08080400  1
  O  O26  1  0.87044800  0.72985200  0.66013600  1
  O  O27  1  0.95427400  0.23710300  0.66470200  1
