# generated using pymatgen
data_Li2MnO2F
_symmetry_space_group_name_H-M   'P 1'
_cell_length_a   3.95363200
_cell_length_b   9.56274400
_cell_length_c   6.35893300
_cell_angle_alpha   90.00000000
_cell_angle_beta   90.00000000
_cell_angle_gamma   90.00000000
_symmetry_Int_Tables_number   1
_chemical_formula_structural   Li2MnO2F
_chemical_formula_sum   'Li8 Mn4 O8 F4'
_cell_volume   240.41580893
_cell_formula_units_Z   4
loop_
 _symmetry_equiv_pos_site_id
 _symmetry_equiv_pos_as_xyz
  1  'x, y, z'
loop_
 _atom_site_type_symbol
 _atom_site_label
 _atom_site_symmetry_multiplicity
 _atom_site_fract_x
 _atom_site_fract_y
 _atom_site_fract_z
 _atom_site_occupancy
  Li  Li0  1  0.00000000  0.66776175  0.75000000  1
  Li  Li1  1  0.50000000  0.83223825  0.25000000  1
  Li  Li2  1  0.00000000  0.62582750  0.25000000  1
  Li  Li3  1  0.50000000  0.87417250  0.75000000  1
  Li  Li4  1  0.50000000  0.16776175  0.75000000  1
  Li  Li5  1  0.00000000  0.33223825  0.25000000  1
  Li  Li6  1  0.50000000  0.12582750  0.25000000  1
  Li  Li7  1  0.00000000  0.37417250  0.75000000  1
  Mn  Mn8  1  0.00000000  0.00000000  0.00000000  1
  Mn  Mn9  1  0.00000000  0.00000000  0.50000000  1
  Mn  Mn10  1  0.50000000  0.50000000  0.00000000  1
  Mn  Mn11  1  0.50000000  0.50000000  0.50000000  1
  O  O12  1  0.50000000  0.61817250  0.25000000  1
  O  O13  1  0.00000000  0.88182750  0.75000000  1
  O  O14  1  0.00000000  0.50000000  0.50000000  1
  O  O15  1  0.00000000  0.50000000  0.00000000  1
  O  O16  1  0.00000000  0.11817250  0.25000000  1
  O  O17  1  0.50000000  0.38182750  0.75000000  1
  O  O18  1  0.50000000  0.00000000  0.50000000  1
  O  O19  1  0.50000000  0.00000000  0.00000000  1
  F  F20  1  0.50000000  0.67084275  0.75000000  1
  F  F21  1  0.00000000  0.82915725  0.25000000  1
  F  F22  1  0.00000000  0.17084275  0.75000000  1
  F  F23  1  0.50000000  0.32915725  0.25000000  1
