# generated using pymatgen
data_LiCu4(PO4)3
_symmetry_space_group_name_H-M   'P 1'
_cell_length_a   8.93328800
_cell_length_b   6.40294500
_cell_length_c   14.89811217
_cell_angle_alpha   90.00000000
_cell_angle_beta   90.10738750
_cell_angle_gamma   90.00000000
_symmetry_Int_Tables_number   1
_chemical_formula_structural   LiCu4(PO4)3
_chemical_formula_sum   'Li4 Cu16 P12 O48'
_cell_volume   852.16086126
_cell_formula_units_Z   4
loop_
 _symmetry_equiv_pos_site_id
 _symmetry_equiv_pos_as_xyz
  1  'x, y, z'
loop_
 _atom_site_type_symbol
 _atom_site_label
 _atom_site_symmetry_multiplicity
 _atom_site_fract_x
 _atom_site_fract_y
 _atom_site_fract_z
 _atom_site_occupancy
  Li  Li0  1  0.83941900  0.00000000  0.48360600  1
  Li  Li1  1  0.66104000  0.50000000  0.32061000  1
  Li  Li2  1  0.66662000  0.50000000  0.98711700  1
  Li  Li3  1  0.35660500  0.00000000  0.01604800  1
  Cu  Cu4  1  0.98202500  0.24907500  0.66391400  1
  Cu  Cu5  1  0.99183300  0.75795700  0.00220200  1
  Cu  Cu6  1  0.99667400  0.75617800  0.33133800  1
  Cu  Cu7  1  0.98202500  0.75092500  0.66391400  1
  Cu  Cu8  1  0.99183300  0.24204300  0.00220200  1
  Cu  Cu9  1  0.99667400  0.24382200  0.33133800  1
  Cu  Cu10  1  0.50868900  0.75644800  0.16433000  1
  Cu  Cu11  1  0.51896900  0.75526500  0.82955400  1
  Cu  Cu12  1  0.50868900  0.24355200  0.16433000  1
  Cu  Cu13  1  0.51896900  0.24473500  0.82955400  1
  Cu  Cu14  1  0.50985000  0.75507900  0.49321600  1
  Cu  Cu15  1  0.50985000  0.24492100  0.49321600  1
  Cu  Cu16  1  0.35939000  0.00000000  0.68181200  1
  Cu  Cu17  1  0.13712200  0.50000000  0.85413100  1
  Cu  Cu18  1  0.14906000  0.50000000  0.18544800  1
  Cu  Cu19  1  0.14061700  0.50000000  0.51717200  1
  P  P20  1  0.81998900  0.50000000  0.15250800  1
  P  P21  1  0.82236000  0.50000000  0.48556500  1
  P  P22  1  0.82050600  0.50000000  0.81641000  1
  P  P23  1  0.68084300  0.00000000  0.31814900  1
  P  P24  1  0.67319300  0.00000000  0.64782000  1
  P  P25  1  0.68293000  0.00000000  0.98711600  1
  P  P26  1  0.31649600  0.50000000  0.35384000  1
  P  P27  1  0.31537800  0.50000000  0.68229500  1
  P  P28  1  0.31473300  0.50000000  0.01744200  1
  P  P29  1  0.18721600  0.00000000  0.17515900  1
  P  P30  1  0.18795500  0.00000000  0.84696000  1
  P  P31  1  0.18115100  0.00000000  0.51047500  1
  O  O32  1  0.87807100  0.70010500  0.10825900  1
  O  O33  1  0.87943100  0.70118700  0.77316000  1
  O  O34  1  0.88227700  0.70162400  0.44076100  1
  O  O35  1  0.87943100  0.29881300  0.77316000  1
  O  O36  1  0.88227700  0.29837600  0.44076100  1
  O  O37  1  0.87807100  0.29989500  0.10825900  1
  O  O38  1  0.86005900  0.50000000  0.25386500  1
  O  O39  1  0.87396500  0.50000000  0.58414300  1
  O  O40  1  0.86923300  0.50000000  0.91728300  1
  O  O41  1  0.85810300  0.00000000  0.97416000  1
  O  O42  1  0.85797500  0.00000000  0.30660800  1
  O  O43  1  0.85080600  0.00000000  0.63275800  1
  O  O44  1  0.64171500  0.50000000  0.13676000  1
  O  O45  1  0.64777400  0.50000000  0.46591600  1
  O  O46  1  0.64335200  0.50000000  0.80940400  1
  O  O47  1  0.62804000  0.00000000  0.08452600  1
  O  O48  1  0.64408000  0.00000000  0.41964300  1
  O  O49  1  0.62229800  0.00000000  0.74651400  1
  O  O50  1  0.62069100  0.79791700  0.27482600  1
  O  O51  1  0.61753100  0.79964600  0.60183800  1
  O  O52  1  0.62351700  0.79804000  0.94172000  1
  O  O53  1  0.61753100  0.20035400  0.60183800  1
  O  O54  1  0.62351700  0.20196000  0.94172000  1
  O  O55  1  0.62069100  0.20208300  0.27482600  1
  O  O56  1  0.38397100  0.69830800  0.05773400  1
  O  O57  1  0.38061800  0.69931300  0.39451700  1
  O  O58  1  0.38397100  0.30169200  0.05773400  1
  O  O59  1  0.38061800  0.30068700  0.39451700  1
  O  O60  1  0.38623500  0.69853100  0.72428900  1
  O  O61  1  0.38623500  0.30146900  0.72428900  1
  O  O62  1  0.34028000  0.50000000  0.24995200  1
  O  O63  1  0.33477400  0.50000000  0.91409300  1
  O  O64  1  0.33655700  0.50000000  0.57971100  1
  O  O65  1  0.36156800  0.00000000  0.19000700  1
  O  O66  1  0.36067400  0.00000000  0.86957000  1
  O  O67  1  0.35476100  0.00000000  0.53426400  1
  O  O68  1  0.14248300  0.50000000  0.70699800  1
  O  O69  1  0.13857400  0.50000000  0.03936400  1
  O  O70  1  0.13793300  0.50000000  0.37114800  1
  O  O71  1  0.13755200  0.00000000  0.41243300  1
  O  O72  1  0.14959100  0.00000000  0.07447100  1
  O  O73  1  0.16315500  0.00000000  0.74403300  1
  O  O74  1  0.12084700  0.19861800  0.22158200  1
  O  O75  1  0.11612100  0.19688200  0.89027400  1
  O  O76  1  0.12084700  0.80138200  0.22158200  1
  O  O77  1  0.11612100  0.80311800  0.89027400  1
  O  O78  1  0.11532700  0.19776700  0.55928600  1
  O  O79  1  0.11532700  0.80223300  0.55928600  1
