# generated using pymatgen
data_Li4Ni3SnO8
_symmetry_space_group_name_H-M   'P 1'
_cell_length_a   5.97850073
_cell_length_b   5.97850073
_cell_length_c   14.65289696
_cell_angle_alpha   90.00000000
_cell_angle_beta   90.00000000
_cell_angle_gamma   120.00000000
_symmetry_Int_Tables_number   1
_chemical_formula_structural   Li4Ni3SnO8
_chemical_formula_sum   'Li12 Ni9 Sn3 O24'
_cell_volume   453.56412902
_cell_formula_units_Z   3
loop_
 _symmetry_equiv_pos_site_id
 _symmetry_equiv_pos_as_xyz
  1  'x, y, z'
loop_
 _atom_site_type_symbol
 _atom_site_label
 _atom_site_symmetry_multiplicity
 _atom_site_fract_x
 _atom_site_fract_y
 _atom_site_fract_z
 _atom_site_occupancy
  Li  Li0  1  0.00000000  0.00000000  0.50000000  1
  Li  Li1  1  0.00000000  0.50000000  0.50000000  1
  Li  Li2  1  0.50000000  0.00000000  0.50000000  1
  Li  Li3  1  0.50000000  0.50000000  0.50000000  1
  Li  Li4  1  0.66666667  0.33333333  0.83333333  1
  Li  Li5  1  0.66666667  0.83333333  0.83333333  1
  Li  Li6  1  0.16666667  0.33333333  0.83333333  1
  Li  Li7  1  0.16666667  0.83333333  0.83333333  1
  Li  Li8  1  0.33333333  0.66666667  0.16666667  1
  Li  Li9  1  0.33333333  0.16666667  0.16666667  1
  Li  Li10  1  0.83333333  0.66666667  0.16666667  1
  Li  Li11  1  0.83333333  0.16666667  0.16666667  1
  Ni  Ni12  1  0.66666667  0.83333333  0.33333333  1
  Ni  Ni13  1  0.83333333  0.66666667  0.66666667  1
  Ni  Ni14  1  0.83333333  0.16666667  0.66666667  1
  Ni  Ni15  1  0.33333333  0.16666667  0.66666667  1
  Ni  Ni16  1  0.50000000  0.00000000  0.00000000  1
  Ni  Ni17  1  0.50000000  0.50000000  0.00000000  1
  Ni  Ni18  1  0.00000000  0.50000000  0.00000000  1
  Ni  Ni19  1  0.16666667  0.33333333  0.33333333  1
  Ni  Ni20  1  0.16666667  0.83333333  0.33333333  1
  Sn  Sn21  1  0.66666667  0.33333333  0.33333333  1
  Sn  Sn22  1  0.33333333  0.66666667  0.66666667  1
  Sn  Sn23  1  1.00000000  1.00000000  0.00000000  1
  O  O24  1  0.66666667  0.33333333  0.59819500  1
  O  O25  1  0.66601000  0.83300500  0.58621900  1
  O  O26  1  0.16699500  0.33399000  0.58621900  1
  O  O27  1  0.33333333  0.66666667  0.40180500  1
  O  O28  1  0.16699500  0.83300500  0.58621900  1
  O  O29  1  0.33399000  0.16699500  0.41378100  1
  O  O30  1  0.83300500  0.66601000  0.41378100  1
  O  O31  1  0.83300500  0.16699500  0.41378100  1
  O  O32  1  0.33333333  0.66666667  0.93152833  1
  O  O33  1  0.33267667  0.16633833  0.91955233  1
  O  O34  1  0.83366167  0.66732333  0.91955233  1
  O  O35  1  0.00000000  0.00000000  0.73513833  1
  O  O36  1  0.83366167  0.16633833  0.91955233  1
  O  O37  1  0.00065667  0.50032833  0.74711433  1
  O  O38  1  0.49967167  0.99934333  0.74711433  1
  O  O39  1  0.49967167  0.50032833  0.74711433  1
  O  O40  1  0.00000000  0.00000000  0.26486167  1
  O  O41  1  0.99934333  0.49967167  0.25288567  1
  O  O42  1  0.50032833  0.00065667  0.25288567  1
  O  O43  1  0.66666667  0.33333333  0.06847167  1
  O  O44  1  0.50032833  0.49967167  0.25288567  1
  O  O45  1  0.66732333  0.83366167  0.08044767  1
  O  O46  1  0.16633833  0.33267667  0.08044767  1
  O  O47  1  0.16633833  0.83366167  0.08044767  1
