# generated using pymatgen
data_ZnCr3(SO4)6
_symmetry_space_group_name_H-M   'P 1'
_cell_length_a   8.31743631
_cell_length_b   8.31743631
_cell_length_c   22.40907850
_cell_angle_alpha   90.00000000
_cell_angle_beta   90.00000000
_cell_angle_gamma   120.00000000
_symmetry_Int_Tables_number   1
_chemical_formula_structural   ZnCr3(SO4)6
_chemical_formula_sum   'Zn3 Cr9 S18 O72'
_cell_volume   1342.55967017
_cell_formula_units_Z   3
loop_
 _symmetry_equiv_pos_site_id
 _symmetry_equiv_pos_as_xyz
  1  'x, y, z'
loop_
 _atom_site_type_symbol
 _atom_site_label
 _atom_site_symmetry_multiplicity
 _atom_site_fract_x
 _atom_site_fract_y
 _atom_site_fract_z
 _atom_site_occupancy
  Zn  Zn0  1  0.00000000  0.00000000  0.14874600  1
  Zn  Zn1  1  0.66666667  0.33333333  0.48207933  1
  Zn  Zn2  1  0.33333333  0.66666667  0.81541267  1
  Cr  Cr3  1  0.33333333  0.66666667  0.02196767  1
  Cr  Cr4  1  0.33333333  0.66666667  0.31115667  1
  Cr  Cr5  1  0.66666667  0.33333333  0.18280333  1
  Cr  Cr6  1  0.00000000  0.00000000  0.35530100  1
  Cr  Cr7  1  0.00000000  0.00000000  0.64449000  1
  Cr  Cr8  1  0.33333333  0.66666667  0.51613667  1
  Cr  Cr9  1  0.66666667  0.33333333  0.68863433  1
  Cr  Cr10  1  0.66666667  0.33333333  0.97782333  1
  Cr  Cr11  1  0.00000000  0.00000000  0.84947000  1
  S  S12  1  0.95535267  0.33768633  0.08350633  1
  S  S13  1  0.28883300  0.29282800  0.24977800  1
  S  S14  1  0.00399500  0.71116700  0.24977800  1
  S  S15  1  0.66231367  0.61766633  0.08350633  1
  S  S16  1  0.38233367  0.04464733  0.08350633  1
  S  S17  1  0.70717200  0.99600500  0.24977800  1
  S  S18  1  0.62201933  0.67101967  0.41683967  1
  S  S19  1  0.95549967  0.62616133  0.58311133  1
  S  S20  1  0.67066167  0.04450033  0.58311133  1
  S  S21  1  0.32898033  0.95099967  0.41683967  1
  S  S22  1  0.04900033  0.37798067  0.41683967  1
  S  S23  1  0.37383867  0.32933833  0.58311133  1
  S  S24  1  0.28868600  0.00435300  0.75017300  1
  S  S25  1  0.62216633  0.95949467  0.91644467  1
  S  S26  1  0.33732833  0.37783367  0.91644467  1
  S  S27  1  0.99564700  0.28433300  0.75017300  1
  S  S28  1  0.71566700  0.71131400  0.75017300  1
  S  S29  1  0.04050533  0.66267167  0.91644467  1
  O  O30  1  0.99057167  0.79164333  0.30739933  1
  O  O31  1  0.80107167  0.00942833  0.30739933  1
  O  O32  1  0.91176567  0.14794633  0.09663333  1
  O  O33  1  0.89196133  0.41779167  0.13170667  1
  O  O34  1  0.14846167  0.23454133  0.20238533  1
  O  O35  1  0.81347067  0.55993533  0.23519233  1
  O  O36  1  0.20835667  0.19892833  0.30739933  1
  O  O37  1  0.15827667  0.46365733  0.07740033  1
  O  O38  1  0.44006467  0.25353533  0.23519233  1
  O  O39  1  0.12512267  0.62793433  0.25763733  1
  O  O40  1  0.37206567  0.49718833  0.25763733  1
  O  O41  1  0.08607967  0.85153833  0.20238533  1
  O  O42  1  0.58220833  0.47416967  0.13170667  1
  O  O43  1  0.30538067  0.84172333  0.07740033  1
  O  O44  1  0.53634267  0.69461933  0.07740033  1
  O  O45  1  0.23618067  0.08823433  0.09663333  1
  O  O46  1  0.50281167  0.87487733  0.25763733  1
  O  O47  1  0.46902433  0.13304467  0.02569367  1
  O  O48  1  0.85205367  0.76381933  0.09663333  1
  O  O49  1  0.52583033  0.10803867  0.13170667  1
  O  O50  1  0.76545867  0.91392033  0.20238533  1
  O  O51  1  0.74646467  0.18652933  0.23519233  1
  O  O52  1  0.86695533  0.33597967  0.02569367  1
  O  O53  1  0.66402033  0.53097567  0.02569367  1
  O  O54  1  0.65723833  0.12497667  0.64073267  1
  O  O55  1  0.46773833  0.34276167  0.64073267  1
  O  O56  1  0.57843233  0.48127967  0.42996667  1
  O  O57  1  0.55862800  0.75112500  0.46504000  1
  O  O58  1  0.81512833  0.56787467  0.53571867  1
  O  O59  1  0.48013733  0.89326867  0.56852567  1
  O  O60  1  0.87502333  0.53226167  0.64073267  1
  O  O61  1  0.82494333  0.79699067  0.41073367  1
  O  O62  1  0.10673133  0.58686867  0.56852567  1
  O  O63  1  0.79178933  0.96126767  0.59097067  1
  O  O64  1  0.03873233  0.83052167  0.59097067  1
  O  O65  1  0.75274633  0.18487167  0.53571867  1
  O  O66  1  0.24887500  0.80750300  0.46504000  1
  O  O67  1  0.97204733  0.17505667  0.41073367  1
  O  O68  1  0.20300933  0.02795267  0.41073367  1
  O  O69  1  0.90284733  0.42156767  0.42996667  1
  O  O70  1  0.16947833  0.20821067  0.59097067  1
  O  O71  1  0.13569100  0.46637800  0.35902700  1
  O  O72  1  0.51872033  0.09715267  0.42996667  1
  O  O73  1  0.19249700  0.44137200  0.46504000  1
  O  O74  1  0.43212533  0.24725367  0.53571867  1
  O  O75  1  0.41313133  0.51986267  0.56852567  1
  O  O76  1  0.53362200  0.66931300  0.35902700  1
  O  O77  1  0.33068700  0.86430900  0.35902700  1
  O  O78  1  0.32390500  0.45831000  0.97406600  1
  O  O79  1  0.13440500  0.67609500  0.97406600  1
  O  O80  1  0.24509900  0.81461300  0.76330000  1
  O  O81  1  0.22529467  0.08445833  0.79837333  1
  O  O82  1  0.48179500  0.90120800  0.86905200  1
  O  O83  1  0.14680400  0.22660200  0.90185900  1
  O  O84  1  0.54169000  0.86559500  0.97406600  1
  O  O85  1  0.49161000  0.13032400  0.74406700  1
  O  O86  1  0.77339800  0.92020200  0.90185900  1
  O  O87  1  0.45845600  0.29460100  0.92430400  1
  O  O88  1  0.70539900  0.16385500  0.92430400  1
  O  O89  1  0.41941300  0.51820500  0.86905200  1
  O  O90  1  0.91554167  0.14083633  0.79837333  1
  O  O91  1  0.63871400  0.50839000  0.74406700  1
  O  O92  1  0.86967600  0.36128600  0.74406700  1
  O  O93  1  0.56951400  0.75490100  0.76330000  1
  O  O94  1  0.83614500  0.54154400  0.92430400  1
  O  O95  1  0.80235767  0.79971133  0.69236033  1
  O  O96  1  0.18538700  0.43048600  0.76330000  1
  O  O97  1  0.85916367  0.77470533  0.79837333  1
  O  O98  1  0.09879200  0.58058700  0.86905200  1
  O  O99  1  0.07979800  0.85319600  0.90185900  1
  O  O100  1  0.20028867  0.00264633  0.69236033  1
  O  O101  1  0.99735367  0.19764233  0.69236033  1
