# generated using pymatgen
data_Mn3Co2Ni(PO4)6
_symmetry_space_group_name_H-M   'P 1'
_cell_length_a   8.57369053
_cell_length_b   8.57369053
_cell_length_c   20.48021247
_cell_angle_alpha   90.00000000
_cell_angle_beta   90.00000000
_cell_angle_gamma   120.00000000
_symmetry_Int_Tables_number   1
_chemical_formula_structural   Mn3Co2Ni(PO4)6
_chemical_formula_sum   'Mn9 Co6 Ni3 P18 O72'
_cell_volume   1303.76913814
_cell_formula_units_Z   3
loop_
 _symmetry_equiv_pos_site_id
 _symmetry_equiv_pos_as_xyz
  1  'x, y, z'
loop_
 _atom_site_type_symbol
 _atom_site_label
 _atom_site_symmetry_multiplicity
 _atom_site_fract_x
 _atom_site_fract_y
 _atom_site_fract_z
 _atom_site_occupancy
  Mn  Mn0  1  0.33333333  0.66666667  0.30817767  1
  Mn  Mn1  1  0.33333333  0.66666667  0.52526267  1
  Mn  Mn2  1  0.33333333  0.66666667  0.02419767  1
  Mn  Mn3  1  0.00000000  0.00000000  0.64151100  1
  Mn  Mn4  1  0.00000000  0.00000000  0.85859600  1
  Mn  Mn5  1  0.00000000  0.00000000  0.35753100  1
  Mn  Mn6  1  0.66666667  0.33333333  0.97484433  1
  Mn  Mn7  1  0.66666667  0.33333333  0.19192933  1
  Mn  Mn8  1  0.66666667  0.33333333  0.69086433  1
  Co  Co9  1  0.33333333  0.66666667  0.67020767  1
  Co  Co10  1  0.33333333  0.66666667  0.16652667  1
  Co  Co11  1  0.00000000  0.00000000  0.00354100  1
  Co  Co12  1  0.00000000  0.00000000  0.49986000  1
  Co  Co13  1  0.66666667  0.33333333  0.33687433  1
  Co  Co14  1  0.66666667  0.33333333  0.83319333  1
  Ni  Ni15  1  0.33333333  0.66666667  0.80877267  1
  Ni  Ni16  1  0.00000000  0.00000000  0.14210600  1
  Ni  Ni17  1  0.66666667  0.33333333  0.47543933  1
  P  P18  1  0.70712300  0.70643300  0.25003200  1
  P  P19  1  0.29356700  0.00069000  0.25003200  1
  P  P20  1  0.99931000  0.29287700  0.25003200  1
  P  P21  1  0.66647633  0.04248967  0.08207267  1
  P  P22  1  0.37601333  0.33352367  0.08207267  1
  P  P23  1  0.95751033  0.62398667  0.08207267  1
  P  P24  1  0.37378967  0.03976633  0.58336533  1
  P  P25  1  0.96023367  0.33402333  0.58336533  1
  P  P26  1  0.66597667  0.62621033  0.58336533  1
  P  P27  1  0.33314300  0.37582300  0.41540600  1
  P  P28  1  0.04268000  0.66685700  0.41540600  1
  P  P29  1  0.62417700  0.95732000  0.41540600  1
  P  P30  1  0.04045633  0.37309967  0.91669867  1
  P  P31  1  0.62690033  0.66735667  0.91669867  1
  P  P32  1  0.33264333  0.95954367  0.91669867  1
  P  P33  1  0.99980967  0.70915633  0.74873933  1
  P  P34  1  0.70934667  0.00019033  0.74873933  1
  P  P35  1  0.29084367  0.29065333  0.74873933  1
  O  O36  1  0.53168367  0.66956233  0.97990133  1
  O  O37  1  0.33043767  0.86212133  0.97990133  1
  O  O38  1  0.13787867  0.46831633  0.97990133  1
  O  O39  1  0.67988767  0.51098733  0.26005433  1
  O  O40  1  0.79740000  0.79587800  0.18744900  1
  O  O41  1  0.51192667  0.68173933  0.24393433  1
  O  O42  1  0.48901267  0.16890033  0.26005433  1
  O  O43  1  0.31826067  0.83018733  0.24393433  1
  O  O44  1  0.66683767  0.13764133  0.14553233  1
  O  O45  1  0.16981267  0.48807333  0.24393433  1
  O  O46  1  0.83177533  0.01690567  0.07225067  1
  O  O47  1  0.47080367  0.33316233  0.14553233  1
  O  O48  1  0.20412200  0.00152200  0.18744900  1
  O  O49  1  0.83109967  0.32011233  0.26005433  1
  O  O50  1  0.49437700  0.85106800  0.09074600  1
  O  O51  1  0.99847800  0.20260000  0.18744900  1
  O  O52  1  0.35669100  0.50562300  0.09074600  1
  O  O53  1  0.18513033  0.16822467  0.07225067  1
  O  O54  1  0.14893200  0.64330900  0.09074600  1
  O  O55  1  0.86235867  0.52919633  0.14553233  1
  O  O56  1  0.98309433  0.81486967  0.07225067  1
  O  O57  1  0.52749433  0.85385767  0.35364067  1
  O  O58  1  0.32636333  0.47250567  0.35364067  1
  O  O59  1  0.14614233  0.67363667  0.35364067  1
  O  O60  1  0.19835033  0.00289567  0.31323467  1
  O  O61  1  0.99710433  0.19545467  0.31323467  1
  O  O62  1  0.80454533  0.80164967  0.31323467  1
  O  O63  1  0.34655433  0.84432067  0.59338767  1
  O  O64  1  0.46406667  0.12921133  0.52078233  1
  O  O65  1  0.17859333  0.01507267  0.57726767  1
  O  O66  1  0.15567933  0.50223367  0.59338767  1
  O  O67  1  0.98492733  0.16352067  0.57726767  1
  O  O68  1  0.33350433  0.47097467  0.47886567  1
  O  O69  1  0.83647933  0.82140667  0.57726767  1
  O  O70  1  0.49844200  0.35023900  0.40558400  1
  O  O71  1  0.13747033  0.66649567  0.47886567  1
  O  O72  1  0.87078867  0.33485533  0.52078233  1
  O  O73  1  0.49776633  0.65344567  0.59338767  1
  O  O74  1  0.16104367  0.18440133  0.42407933  1
  O  O75  1  0.66514467  0.53593333  0.52078233  1
  O  O76  1  0.02335767  0.83895633  0.42407933  1
  O  O77  1  0.85179700  0.50155800  0.40558400  1
  O  O78  1  0.81559867  0.97664233  0.42407933  1
  O  O79  1  0.52902533  0.86252967  0.47886567  1
  O  O80  1  0.64976100  0.14820300  0.40558400  1
  O  O81  1  0.19416100  0.18719100  0.68697400  1
  O  O82  1  0.99303000  0.80583900  0.68697400  1
  O  O83  1  0.81280900  0.00697000  0.68697400  1
  O  O84  1  0.86501700  0.33622900  0.64656800  1
  O  O85  1  0.66377100  0.52878800  0.64656800  1
  O  O86  1  0.47121200  0.13498300  0.64656800  1
  O  O87  1  0.01322100  0.17765400  0.92672100  1
  O  O88  1  0.13073333  0.46254467  0.85411567  1
  O  O89  1  0.84526000  0.34840600  0.91060100  1
  O  O90  1  0.82234600  0.83556700  0.92672100  1
  O  O91  1  0.65159400  0.49685400  0.91060100  1
  O  O92  1  0.00017100  0.80430800  0.81219900  1
  O  O93  1  0.50314600  0.15474000  0.91060100  1
  O  O94  1  0.16510867  0.68357233  0.73891733  1
  O  O95  1  0.80413700  0.99982900  0.81219900  1
  O  O96  1  0.53745533  0.66818867  0.85411567  1
  O  O97  1  0.16443300  0.98677900  0.92672100  1
  O  O98  1  0.82771033  0.51773467  0.75741267  1
  O  O99  1  0.33181133  0.86926667  0.85411567  1
  O  O100  1  0.69002433  0.17228967  0.75741267  1
  O  O101  1  0.51846367  0.83489133  0.73891733  1
  O  O102  1  0.48226533  0.30997567  0.75741267  1
  O  O103  1  0.19569200  0.19586300  0.81219900  1
  O  O104  1  0.31642767  0.48153633  0.73891733  1
  O  O105  1  0.86082767  0.52052433  0.02030733  1
  O  O106  1  0.65969667  0.13917233  0.02030733  1
  O  O107  1  0.47947567  0.34030333  0.02030733  1
