# generated using pymatgen
data_Li5Mn2Ni5O12
_symmetry_space_group_name_H-M   'P 1'
_cell_length_a   5.00462200
_cell_length_b   8.84577200
_cell_length_c   9.67190772
_cell_angle_alpha   90.00000000
_cell_angle_beta   100.67112741
_cell_angle_gamma   90.00000000
_symmetry_Int_Tables_number   1
_chemical_formula_structural   Li5Mn2Ni5O12
_chemical_formula_sum   'Li10 Mn4 Ni10 O24'
_cell_volume   420.76816770
_cell_formula_units_Z   2
loop_
 _symmetry_equiv_pos_site_id
 _symmetry_equiv_pos_as_xyz
  1  'x, y, z'
loop_
 _atom_site_type_symbol
 _atom_site_label
 _atom_site_symmetry_multiplicity
 _atom_site_fract_x
 _atom_site_fract_y
 _atom_site_fract_z
 _atom_site_occupancy
  Li  Li0  1  0.75106350  0.91607750  0.74200000  1
  Li  Li1  1  0.25353350  0.58336850  0.25931700  1
  Li  Li2  1  0.24893650  0.91607750  0.25800000  1
  Li  Li3  1  0.74646650  0.58336850  0.74068300  1
  Li  Li4  1  0.00000000  0.91567100  0.50000000  1
  Li  Li5  1  0.25106350  0.41607750  0.74200000  1
  Li  Li6  1  0.75353350  0.08336850  0.25931700  1
  Li  Li7  1  0.74893650  0.41607750  0.25800000  1
  Li  Li8  1  0.24646650  0.08336850  0.74068300  1
  Li  Li9  1  0.50000000  0.41567100  0.50000000  1
  Mn  Mn10  1  0.50000000  0.75294700  0.50000000  1
  Mn  Mn11  1  0.00000000  0.74869000  0.00000000  1
  Mn  Mn12  1  0.00000000  0.25294700  0.50000000  1
  Mn  Mn13  1  0.50000000  0.24869000  0.00000000  1
  Ni  Ni14  1  0.50000000  0.58016600  0.00000000  1
  Ni  Ni15  1  0.75783600  0.75345100  0.25658400  1
  Ni  Ni16  1  0.24216400  0.75345100  0.74341600  1
  Ni  Ni17  1  0.50000000  0.91700500  0.00000000  1
  Ni  Ni18  1  0.00000000  0.58308900  0.50000000  1
  Ni  Ni19  1  0.00000000  0.08016600  0.00000000  1
  Ni  Ni20  1  0.25783600  0.25345100  0.25658400  1
  Ni  Ni21  1  0.74216400  0.25345100  0.74341600  1
  Ni  Ni22  1  0.00000000  0.41700500  0.00000000  1
  Ni  Ni23  1  0.50000000  0.08308900  0.50000000  1
  O  O24  1  0.62475050  0.59826950  0.38005800  1
  O  O25  1  0.37524950  0.59826950  0.61994200  1
  O  O26  1  0.63605600  0.75012200  0.88434500  1
  O  O27  1  0.36394400  0.75012200  0.11565500  1
  O  O28  1  0.61621200  0.90599800  0.38065800  1
  O  O29  1  0.38378800  0.90599800  0.61934200  1
  O  O30  1  0.11632750  0.59258250  0.88178300  1
  O  O31  1  0.88367250  0.59258250  0.11821700  1
  O  O32  1  0.14357200  0.74767500  0.38170600  1
  O  O33  1  0.85642800  0.74767500  0.61829400  1
  O  O34  1  0.11588600  0.90367200  0.88049500  1
  O  O35  1  0.88411400  0.90367200  0.11950500  1
  O  O36  1  0.12475050  0.09826950  0.38005800  1
  O  O37  1  0.87524950  0.09826950  0.61994200  1
  O  O38  1  0.13605600  0.25012200  0.88434500  1
  O  O39  1  0.86394400  0.25012200  0.11565500  1
  O  O40  1  0.11621200  0.40599800  0.38065800  1
  O  O41  1  0.88378800  0.40599800  0.61934200  1
  O  O42  1  0.61632750  0.09258250  0.88178300  1
  O  O43  1  0.38367250  0.09258250  0.11821700  1
  O  O44  1  0.64357200  0.24767500  0.38170600  1
  O  O45  1  0.35642800  0.24767500  0.61829400  1
  O  O46  1  0.61588600  0.40367200  0.88049500  1
  O  O47  1  0.38411400  0.40367200  0.11950500  1
