# generated using pymatgen
data_LiNbNiO4
_symmetry_space_group_name_H-M   'P 1'
_cell_length_a   6.05114300
_cell_length_b   6.19525498
_cell_length_c   8.64503955
_cell_angle_alpha   90.00000000
_cell_angle_beta   90.00000000
_cell_angle_gamma   90.00000000
_symmetry_Int_Tables_number   1
_chemical_formula_structural   LiNbNiO4
_chemical_formula_sum   'Li4 Nb4 Ni4 O16'
_cell_volume   324.08847434
_cell_formula_units_Z   4
loop_
 _symmetry_equiv_pos_site_id
 _symmetry_equiv_pos_as_xyz
  1  'x, y, z'
loop_
 _atom_site_type_symbol
 _atom_site_label
 _atom_site_symmetry_multiplicity
 _atom_site_fract_x
 _atom_site_fract_y
 _atom_site_fract_z
 _atom_site_occupancy
  Li  Li0  1  0.50000000  0.75000000  0.36112500  1
  Li  Li1  1  0.00000000  0.75000000  0.13887500  1
  Li  Li2  1  0.00000000  0.25000000  0.86112500  1
  Li  Li3  1  0.50000000  0.25000000  0.63887500  1
  Nb  Nb4  1  0.50000000  0.00000000  0.00000000  1
  Nb  Nb5  1  0.50000000  0.50000000  0.00000000  1
  Nb  Nb6  1  0.00000000  0.50000000  0.50000000  1
  Nb  Nb7  1  0.00000000  0.00000000  0.50000000  1
  Ni  Ni8  1  0.75000000  0.75000000  0.75000000  1
  Ni  Ni9  1  0.25000000  0.75000000  0.75000000  1
  Ni  Ni10  1  0.25000000  0.25000000  0.25000000  1
  Ni  Ni11  1  0.75000000  0.25000000  0.25000000  1
  O  O12  1  0.77689750  0.75000000  0.49868150  1
  O  O13  1  0.22310250  0.75000000  0.49868150  1
  O  O14  1  0.27689750  0.75000000  0.00131850  1
  O  O15  1  0.72310250  0.75000000  0.00131850  1
  O  O16  1  0.00000000  0.52126200  0.72851050  1
  O  O17  1  0.00000000  0.97873800  0.72851050  1
  O  O18  1  0.50000000  0.97873800  0.77148950  1
  O  O19  1  0.50000000  0.52126200  0.77148950  1
  O  O20  1  0.27689750  0.25000000  0.99868150  1
  O  O21  1  0.72310250  0.25000000  0.99868150  1
  O  O22  1  0.77689750  0.25000000  0.50131850  1
  O  O23  1  0.22310250  0.25000000  0.50131850  1
  O  O24  1  0.50000000  0.02126200  0.22851050  1
  O  O25  1  0.50000000  0.47873800  0.22851050  1
  O  O26  1  0.00000000  0.47873800  0.27148950  1
  O  O27  1  0.00000000  0.02126200  0.27148950  1
