# generated using pymatgen
data_Ti2V3Cr(PO4)6
_symmetry_space_group_name_H-M   'P 1'
_cell_length_a   8.69476197
_cell_length_b   8.69476197
_cell_length_c   20.36513172
_cell_angle_alpha   90.00000000
_cell_angle_beta   90.00000000
_cell_angle_gamma   120.00000000
_symmetry_Int_Tables_number   1
_chemical_formula_structural   Ti2V3Cr(PO4)6
_chemical_formula_sum   'Ti6 V9 Cr3 P18 O72'
_cell_volume   1333.31648782
_cell_formula_units_Z   3
loop_
 _symmetry_equiv_pos_site_id
 _symmetry_equiv_pos_as_xyz
  1  'x, y, z'
loop_
 _atom_site_type_symbol
 _atom_site_label
 _atom_site_symmetry_multiplicity
 _atom_site_fract_x
 _atom_site_fract_y
 _atom_site_fract_z
 _atom_site_occupancy
  Ti  Ti0  1  0.33333333  0.66666667  0.66910067  1
  Ti  Ti1  1  0.33333333  0.66666667  0.16733567  1
  Ti  Ti2  1  0.00000000  0.00000000  0.00243400  1
  Ti  Ti3  1  0.00000000  0.00000000  0.50066900  1
  Ti  Ti4  1  0.66666667  0.33333333  0.33576733  1
  Ti  Ti5  1  0.66666667  0.33333333  0.83400233  1
  V  V6  1  0.33333333  0.66666667  0.02408167  1
  V  V7  1  0.33333333  0.66666667  0.80825267  1
  V  V8  1  0.33333333  0.66666667  0.30774367  1
  V  V9  1  0.00000000  0.00000000  0.35741500  1
  V  V10  1  0.00000000  0.00000000  0.14158600  1
  V  V11  1  0.00000000  0.00000000  0.64107700  1
  V  V12  1  0.66666667  0.33333333  0.69074833  1
  V  V13  1  0.66666667  0.33333333  0.47491933  1
  V  V14  1  0.66666667  0.33333333  0.97441033  1
  Cr  Cr15  1  0.33333333  0.66666667  0.52472367  1
  Cr  Cr16  1  0.00000000  0.00000000  0.85805700  1
  Cr  Cr17  1  0.66666667  0.33333333  0.19139033  1
  P  P18  1  0.96006300  0.33483000  0.08370700  1
  P  P19  1  0.37476700  0.03993700  0.08370700  1
  P  P20  1  0.66517000  0.62523300  0.08370700  1
  P  P21  1  0.99810767  0.70387933  0.24949233  1
  P  P22  1  0.29612067  0.29422833  0.24949233  1
  P  P23  1  0.70577167  0.00189233  0.24949233  1
  P  P24  1  0.62672967  0.66816333  0.41704033  1
  P  P25  1  0.04143367  0.37327033  0.41704033  1
  P  P26  1  0.33183667  0.95856633  0.41704033  1
  P  P27  1  0.66477433  0.03721267  0.58282567  1
  P  P28  1  0.96278733  0.62756167  0.58282567  1
  P  P29  1  0.37243833  0.33522567  0.58282567  1
  P  P30  1  0.29339633  0.00149667  0.75037367  1
  P  P31  1  0.70810033  0.70660367  0.75037367  1
  P  P32  1  0.99850333  0.29189967  0.75037367  1
  P  P33  1  0.33144100  0.37054600  0.91615900  1
  P  P34  1  0.62945400  0.96089500  0.91615900  1
  P  P35  1  0.03910500  0.66855900  0.91615900  1
  O  O36  1  0.14114367  0.46284933  0.35507933  1
  O  O37  1  0.32170567  0.85885633  0.35507933  1
  O  O38  1  0.53715067  0.67829433  0.35507933  1
  O  O39  1  0.98896467  0.17009333  0.07177533  1
  O  O40  1  0.86094300  0.32511500  0.14588600  1
  O  O41  1  0.15438467  0.49762133  0.09524033  1
  O  O42  1  0.18112867  0.01103533  0.07177533  1
  O  O43  1  0.34323667  0.84561533  0.09524033  1
  O  O44  1  0.98932967  0.79565233  0.18804133  1
  O  O45  1  0.50237867  0.65676333  0.09524033  1
  O  O46  1  0.83361800  0.51068300  0.26116900  1
  O  O47  1  0.20434767  0.19367733  0.18804133  1
  O  O48  1  0.46417200  0.13905700  0.14588600  1
  O  O49  1  0.82990667  0.81887133  0.07177533  1
  O  O50  1  0.16219867  0.67432133  0.23763833  1
  O  O51  1  0.67488500  0.53582800  0.14588600  1
  O  O52  1  0.32567867  0.48787733  0.23763833  1
  O  O53  1  0.48931700  0.32293500  0.26116900  1
  O  O54  1  0.51212267  0.83780133  0.23763833  1
  O  O55  1  0.80632267  0.01067033  0.18804133  1
  O  O56  1  0.67706500  0.16638200  0.26116900  1
  O  O57  1  0.12820167  0.65711433  0.97822933  1
  O  O58  1  0.34288567  0.47108733  0.97822933  1
  O  O59  1  0.52891267  0.87179833  0.97822933  1
  O  O60  1  0.80781033  0.79618267  0.68841267  1
  O  O61  1  0.98837233  0.19218967  0.68841267  1
  O  O62  1  0.20381733  0.01162767  0.68841267  1
  O  O63  1  0.65563133  0.50342667  0.40510867  1
  O  O64  1  0.52760967  0.65844833  0.47921933  1
  O  O65  1  0.82105133  0.83095467  0.42857367  1
  O  O66  1  0.84779533  0.34436867  0.40510867  1
  O  O67  1  0.00990333  0.17894867  0.42857367  1
  O  O68  1  0.65599633  0.12898567  0.52137467  1
  O  O69  1  0.16904533  0.99009667  0.42857367  1
  O  O70  1  0.50028467  0.84401633  0.59450233  1
  O  O71  1  0.87101433  0.52701067  0.52137467  1
  O  O72  1  0.13083867  0.47239033  0.47921933  1
  O  O73  1  0.49657333  0.15220467  0.40510867  1
  O  O74  1  0.82886533  0.00765467  0.57097167  1
  O  O75  1  0.34155167  0.86916133  0.47921933  1
  O  O76  1  0.99234533  0.82121067  0.57097167  1
  O  O77  1  0.15598367  0.65626833  0.59450233  1
  O  O78  1  0.17878933  0.17113467  0.57097167  1
  O  O79  1  0.47298933  0.34400367  0.52137467  1
  O  O80  1  0.34373167  0.49971533  0.59450233  1
  O  O81  1  0.79486833  0.99044767  0.31156267  1
  O  O82  1  0.00955233  0.80442067  0.31156267  1
  O  O83  1  0.19557933  0.20513167  0.31156267  1
  O  O84  1  0.47447700  0.12951600  0.02174600  1
  O  O85  1  0.65503900  0.52552300  0.02174600  1
  O  O86  1  0.87048400  0.34496100  0.02174600  1
  O  O87  1  0.32229800  0.83676000  0.73844200  1
  O  O88  1  0.19427633  0.99178167  0.81255267  1
  O  O89  1  0.48771800  0.16428800  0.76190700  1
  O  O90  1  0.51446200  0.67770200  0.73844200  1
  O  O91  1  0.67657000  0.51228200  0.76190700  1
  O  O92  1  0.32266300  0.46231900  0.85470800  1
  O  O93  1  0.83571200  0.32343000  0.76190700  1
  O  O94  1  0.16695133  0.17734967  0.92783567  1
  O  O95  1  0.53768100  0.86034400  0.85470800  1
  O  O96  1  0.79750533  0.80572367  0.81255267  1
  O  O97  1  0.16324000  0.48553800  0.73844200  1
  O  O98  1  0.49553200  0.34098800  0.90430500  1
  O  O99  1  0.00821833  0.20249467  0.81255267  1
  O  O100  1  0.65901200  0.15454400  0.90430500  1
  O  O101  1  0.82265033  0.98960167  0.92783567  1
  O  O102  1  0.84545600  0.50446800  0.90430500  1
  O  O103  1  0.13965600  0.67733700  0.85470800  1
  O  O104  1  0.01039833  0.83304867  0.92783567  1
  O  O105  1  0.46153500  0.32378100  0.64489600  1
  O  O106  1  0.67621900  0.13775400  0.64489600  1
  O  O107  1  0.86224600  0.53846500  0.64489600  1
