# generated using pymatgen
data_Li5La3Nb14O42
_symmetry_space_group_name_H-M   'P 1'
_cell_length_a   16.98986600
_cell_length_b   5.63100400
_cell_length_c   18.69117349
_cell_angle_alpha   90.00000000
_cell_angle_beta   96.03815795
_cell_angle_gamma   90.00000000
_symmetry_Int_Tables_number   1
_chemical_formula_structural   Li5La3Nb14O42
_chemical_formula_sum   'Li10 La6 Nb28 O84'
_cell_volume   1778.26389222
_cell_formula_units_Z   2
loop_
 _symmetry_equiv_pos_site_id
 _symmetry_equiv_pos_as_xyz
  1  'x, y, z'
loop_
 _atom_site_type_symbol
 _atom_site_label
 _atom_site_symmetry_multiplicity
 _atom_site_fract_x
 _atom_site_fract_y
 _atom_site_fract_z
 _atom_site_occupancy
  Li  Li0  1  0.57171000  0.00000000  0.14268200  1
  Li  Li1  1  0.92829000  0.50000000  0.85731800  1
  Li  Li2  1  0.00000000  0.50000000  0.50000000  1
  Li  Li3  1  0.78666300  0.50000000  0.57222200  1
  Li  Li4  1  0.71333700  0.00000000  0.42777800  1
  Li  Li5  1  0.07171000  0.50000000  0.14268200  1
  Li  Li6  1  0.42829000  0.00000000  0.85731800  1
  Li  Li7  1  0.50000000  0.00000000  0.50000000  1
  Li  Li8  1  0.28666300  0.00000000  0.57222200  1
  Li  Li9  1  0.21333700  0.50000000  0.42777800  1
  La  La10  1  0.64308900  0.50000000  0.28641900  1
  La  La11  1  0.00000000  0.00000000  0.00000000  1
  La  La12  1  0.85691100  0.00000000  0.71358100  1
  La  La13  1  0.14308900  0.00000000  0.28641900  1
  La  La14  1  0.50000000  0.50000000  0.00000000  1
  La  La15  1  0.35691100  0.50000000  0.71358100  1
  Nb  Nb16  1  0.61056600  0.00000000  0.96368500  1
  Nb  Nb17  1  0.75399400  0.00000000  0.24892900  1
  Nb  Nb18  1  0.88943400  0.50000000  0.03631500  1
  Nb  Nb19  1  0.68202900  0.50000000  0.10646400  1
  Nb  Nb20  1  0.96139600  0.00000000  0.17903400  1
  Nb  Nb21  1  0.74600600  0.50000000  0.75107100  1
  Nb  Nb22  1  0.53860400  0.50000000  0.82096600  1
  Nb  Nb23  1  0.96721000  0.50000000  0.67832900  1
  Nb  Nb24  1  0.81797100  0.00000000  0.89353600  1
  Nb  Nb25  1  0.89228800  0.00000000  0.53299800  1
  Nb  Nb26  1  0.60771200  0.50000000  0.46700200  1
  Nb  Nb27  1  0.67679800  0.00000000  0.60728000  1
  Nb  Nb28  1  0.53279000  0.00000000  0.32167100  1
  Nb  Nb29  1  0.82320200  0.50000000  0.39272000  1
  Nb  Nb30  1  0.11056600  0.50000000  0.96368500  1
  Nb  Nb31  1  0.25399400  0.50000000  0.24892900  1
  Nb  Nb32  1  0.38943400  0.00000000  0.03631500  1
  Nb  Nb33  1  0.18202900  0.00000000  0.10646400  1
  Nb  Nb34  1  0.46139600  0.50000000  0.17903400  1
  Nb  Nb35  1  0.24600600  0.00000000  0.75107100  1
  Nb  Nb36  1  0.03860400  0.00000000  0.82096600  1
  Nb  Nb37  1  0.46721000  0.00000000  0.67832900  1
  Nb  Nb38  1  0.31797100  0.50000000  0.89353600  1
  Nb  Nb39  1  0.39228800  0.50000000  0.53299800  1
  Nb  Nb40  1  0.10771200  0.00000000  0.46700200  1
  Nb  Nb41  1  0.17679800  0.50000000  0.60728000  1
  Nb  Nb42  1  0.03279000  0.50000000  0.32167100  1
  Nb  Nb43  1  0.32320200  0.00000000  0.39272000  1
  O  O44  1  0.64263800  0.00000000  0.28593900  1
  O  O45  1  0.51045300  0.25638800  0.24821800  1
  O  O46  1  0.63225200  0.25617800  0.03724900  1
  O  O47  1  0.93758800  0.75557400  0.10204800  1
  O  O48  1  0.51045300  0.74361200  0.24821800  1
  O  O49  1  0.64296300  0.50000000  0.78589700  1
  O  O50  1  0.57131000  0.50000000  0.14254500  1
  O  O51  1  0.85703700  0.00000000  0.21410300  1
  O  O52  1  0.00000000  0.50000000  0.00000000  1
  O  O53  1  0.78575600  0.50000000  0.07150100  1
  O  O54  1  0.93758800  0.24442600  0.10204800  1
  O  O55  1  0.70504950  0.25568350  0.18354600  1
  O  O56  1  0.56241200  0.25557400  0.89795200  1
  O  O57  1  0.63225200  0.74382200  0.03724900  1
  O  O58  1  0.86774800  0.24382200  0.96275100  1
  O  O59  1  0.98954700  0.75638800  0.75178200  1
  O  O60  1  0.70504950  0.74431650  0.18354600  1
  O  O61  1  0.56241200  0.74442600  0.89795200  1
  O  O62  1  0.98954700  0.24361200  0.75178200  1
  O  O63  1  0.56926900  0.00000000  0.63722200  1
  O  O64  1  0.85736200  0.50000000  0.71406100  1
  O  O65  1  0.79495050  0.24431650  0.81645400  1
  O  O66  1  0.92143950  0.75215550  0.61080100  1
  O  O67  1  0.92869000  0.00000000  0.85745500  1
  O  O68  1  0.71424400  0.00000000  0.92849900  1
  O  O69  1  0.86774800  0.75617800  0.96275100  1
  O  O70  1  0.57856050  0.25215550  0.38919900  1
  O  O71  1  0.92143950  0.24784450  0.61080100  1
  O  O72  1  0.79495050  0.75568350  0.81645400  1
  O  O73  1  0.72489200  0.24448500  0.67751700  1
  O  O74  1  0.72489200  0.75551500  0.67751700  1
  O  O75  1  0.71193300  0.50000000  0.42398100  1
  O  O76  1  0.85106400  0.25480900  0.46767200  1
  O  O77  1  0.64893600  0.24519100  0.53232800  1
  O  O78  1  0.00000000  0.00000000  0.50000000  1
  O  O79  1  0.78806700  0.00000000  0.57601900  1
  O  O80  1  0.93073100  0.50000000  0.36277800  1
  O  O81  1  0.57856050  0.74784450  0.38919900  1
  O  O82  1  0.85106400  0.74519100  0.46767200  1
  O  O83  1  0.64893600  0.75480900  0.53232800  1
  O  O84  1  0.77510800  0.25551500  0.32248300  1
  O  O85  1  0.77510800  0.74448500  0.32248300  1
  O  O86  1  0.14263800  0.50000000  0.28593900  1
  O  O87  1  0.01045300  0.75638800  0.24821800  1
  O  O88  1  0.13225200  0.75617800  0.03724900  1
  O  O89  1  0.43758800  0.25557400  0.10204800  1
  O  O90  1  0.01045300  0.24361200  0.24821800  1
  O  O91  1  0.14296300  0.00000000  0.78589700  1
  O  O92  1  0.07131000  0.00000000  0.14254500  1
  O  O93  1  0.35703700  0.50000000  0.21410300  1
  O  O94  1  0.50000000  0.00000000  0.00000000  1
  O  O95  1  0.28575600  0.00000000  0.07150100  1
  O  O96  1  0.43758800  0.74442600  0.10204800  1
  O  O97  1  0.20504950  0.75568350  0.18354600  1
  O  O98  1  0.06241200  0.75557400  0.89795200  1
  O  O99  1  0.13225200  0.24382200  0.03724900  1
  O  O100  1  0.36774800  0.74382200  0.96275100  1
  O  O101  1  0.48954700  0.25638800  0.75178200  1
  O  O102  1  0.20504950  0.24431650  0.18354600  1
  O  O103  1  0.06241200  0.24442600  0.89795200  1
  O  O104  1  0.48954700  0.74361200  0.75178200  1
  O  O105  1  0.06926900  0.50000000  0.63722200  1
  O  O106  1  0.35736200  0.00000000  0.71406100  1
  O  O107  1  0.29495050  0.74431650  0.81645400  1
  O  O108  1  0.42143950  0.25215550  0.61080100  1
  O  O109  1  0.42869000  0.50000000  0.85745500  1
  O  O110  1  0.21424400  0.50000000  0.92849900  1
  O  O111  1  0.36774800  0.25617800  0.96275100  1
  O  O112  1  0.07856050  0.75215550  0.38919900  1
  O  O113  1  0.42143950  0.74784450  0.61080100  1
  O  O114  1  0.29495050  0.25568350  0.81645400  1
  O  O115  1  0.22489200  0.74448500  0.67751700  1
  O  O116  1  0.22489200  0.25551500  0.67751700  1
  O  O117  1  0.21193300  0.00000000  0.42398100  1
  O  O118  1  0.35106400  0.75480900  0.46767200  1
  O  O119  1  0.14893600  0.74519100  0.53232800  1
  O  O120  1  0.50000000  0.50000000  0.50000000  1
  O  O121  1  0.28806700  0.50000000  0.57601900  1
  O  O122  1  0.43073100  0.00000000  0.36277800  1
  O  O123  1  0.07856050  0.24784450  0.38919900  1
  O  O124  1  0.35106400  0.24519100  0.46767200  1
  O  O125  1  0.14893600  0.25480900  0.53232800  1
  O  O126  1  0.27510800  0.75551500  0.32248300  1
  O  O127  1  0.27510800  0.24448500  0.32248300  1
