# generated using pymatgen
data_Fe4O3F5
_symmetry_space_group_name_H-M   'P 1'
_cell_length_a   6.52068000
_cell_length_b   7.01425000
_cell_length_c   12.37619800
_cell_angle_alpha   90.00000000
_cell_angle_beta   90.00000000
_cell_angle_gamma   90.00000000
_symmetry_Int_Tables_number   1
_chemical_formula_structural   Fe4O3F5
_chemical_formula_sum   'Fe16 O12 F20'
_cell_volume   566.05857990
_cell_formula_units_Z   4
loop_
 _symmetry_equiv_pos_site_id
 _symmetry_equiv_pos_as_xyz
  1  'x, y, z'
loop_
 _atom_site_type_symbol
 _atom_site_label
 _atom_site_symmetry_multiplicity
 _atom_site_fract_x
 _atom_site_fract_y
 _atom_site_fract_z
 _atom_site_occupancy
  Fe  Fe0  1  0.00000000  0.00000000  0.00000000  1
  Fe  Fe1  1  0.97364800  0.00000000  0.25000000  1
  Fe  Fe2  1  0.00000000  0.00000000  0.50000000  1
  Fe  Fe3  1  0.02635200  0.00000000  0.75000000  1
  Fe  Fe4  1  0.50952300  0.00000000  0.11902800  1
  Fe  Fe5  1  0.49047700  0.00000000  0.61902800  1
  Fe  Fe6  1  0.49047700  0.00000000  0.88097200  1
  Fe  Fe7  1  0.50952300  0.00000000  0.38097200  1
  Fe  Fe8  1  0.50000000  0.50000000  0.00000000  1
  Fe  Fe9  1  0.47364800  0.50000000  0.25000000  1
  Fe  Fe10  1  0.50000000  0.50000000  0.50000000  1
  Fe  Fe11  1  0.52635200  0.50000000  0.75000000  1
  Fe  Fe12  1  0.00952300  0.50000000  0.11902800  1
  Fe  Fe13  1  0.99047700  0.50000000  0.61902800  1
  Fe  Fe14  1  0.99047700  0.50000000  0.88097200  1
  Fe  Fe15  1  0.00952300  0.50000000  0.38097200  1
  O  O16  1  0.29818900  0.00000000  0.00258400  1
  O  O17  1  0.29818900  0.00000000  0.49741600  1
  O  O18  1  0.32873400  0.00000000  0.75000000  1
  O  O19  1  0.70181100  0.00000000  0.99741600  1
  O  O20  1  0.67126600  0.00000000  0.25000000  1
  O  O21  1  0.70181100  0.00000000  0.50258400  1
  O  O22  1  0.79818900  0.50000000  0.00258400  1
  O  O23  1  0.79818900  0.50000000  0.49741600  1
  O  O24  1  0.82873400  0.50000000  0.75000000  1
  O  O25  1  0.20181100  0.50000000  0.99741600  1
  O  O26  1  0.17126600  0.50000000  0.25000000  1
  O  O27  1  0.20181100  0.50000000  0.50258400  1
  F  F28  1  0.49647500  0.29933900  0.11962100  1
  F  F29  1  0.50352500  0.29933900  0.88037900  1
  F  F30  1  0.49647500  0.29933900  0.38037900  1
  F  F31  1  0.50352500  0.29933900  0.61962100  1
  F  F32  1  0.28755100  0.00000000  0.25000000  1
  F  F33  1  0.71244900  0.00000000  0.75000000  1
  F  F34  1  0.49647500  0.70066100  0.38037900  1
  F  F35  1  0.50352500  0.70066100  0.61962100  1
  F  F36  1  0.49647500  0.70066100  0.11962100  1
  F  F37  1  0.50352500  0.70066100  0.88037900  1
  F  F38  1  0.99647500  0.79933900  0.11962100  1
  F  F39  1  0.00352500  0.79933900  0.88037900  1
  F  F40  1  0.99647500  0.79933900  0.38037900  1
  F  F41  1  0.00352500  0.79933900  0.61962100  1
  F  F42  1  0.78755100  0.50000000  0.25000000  1
  F  F43  1  0.21244900  0.50000000  0.75000000  1
  F  F44  1  0.99647500  0.20066100  0.38037900  1
  F  F45  1  0.00352500  0.20066100  0.61962100  1
  F  F46  1  0.99647500  0.20066100  0.11962100  1
  F  F47  1  0.00352500  0.20066100  0.88037900  1
