# generated using pymatgen
data_LiNiPO4
_symmetry_space_group_name_H-M   'P 1'
_cell_length_a   7.93091129
_cell_length_b   5.22958604
_cell_length_c   8.47754759
_cell_angle_alpha   90.00000000
_cell_angle_beta   104.57737664
_cell_angle_gamma   90.00000000
_symmetry_Int_Tables_number   1
_chemical_formula_structural   LiNiPO4
_chemical_formula_sum   'Li4 Ni4 P4 O16'
_cell_volume   340.29073913
_cell_formula_units_Z   4
loop_
 _symmetry_equiv_pos_site_id
 _symmetry_equiv_pos_as_xyz
  1  'x, y, z'
loop_
 _atom_site_type_symbol
 _atom_site_label
 _atom_site_symmetry_multiplicity
 _atom_site_fract_x
 _atom_site_fract_y
 _atom_site_fract_z
 _atom_site_occupancy
  Li  Li0  1  0.12605000  0.33937300  0.79138300  1
  Li  Li1  1  0.12605000  0.66062700  0.29138300  1
  Li  Li2  1  0.64414200  0.82335700  0.61688200  1
  Li  Li3  1  0.64414200  0.17664300  0.11688200  1
  Ni  Ni4  1  0.04643100  0.16754500  0.44776900  1
  Ni  Ni5  1  0.51036900  0.32301600  0.73315800  1
  Ni  Ni6  1  0.04643100  0.83245500  0.94776900  1
  Ni  Ni7  1  0.51036900  0.67698400  0.23315800  1
  P  P8  1  0.74655800  0.67765500  0.98837100  1
  P  P9  1  0.74655800  0.32234500  0.48837100  1
  P  P10  1  0.25885200  0.82219800  0.66472600  1
  P  P11  1  0.25885200  0.17780200  0.16472600  1
  O  O12  1  0.12302500  0.19292700  0.99661900  1
  O  O13  1  0.12302500  0.80707300  0.49661900  1
  O  O14  1  0.67935500  0.40102400  0.94188000  1
  O  O15  1  0.67935500  0.59897600  0.44188000  1
  O  O16  1  0.18481300  0.70699500  0.80159000  1
  O  O17  1  0.18481300  0.29300500  0.30159000  1
  O  O18  1  0.29193200  0.11799300  0.69458000  1
  O  O19  1  0.29193200  0.88200700  0.19458000  1
  O  O20  1  0.78347100  0.81783800  0.83816600  1
  O  O21  1  0.78347100  0.18216200  0.33816600  1
  O  O22  1  0.42688300  0.67719800  0.65898000  1
  O  O23  1  0.42688300  0.32280200  0.15898000  1
  O  O24  1  0.61033500  0.18090500  0.55999400  1
  O  O25  1  0.61033500  0.81909500  0.05999400  1
  O  O26  1  0.92873500  0.31995000  0.61203000  1
  O  O27  1  0.92873500  0.68005000  0.11203000  1
