# generated using pymatgen
data_LiVPO4
_symmetry_space_group_name_H-M   'P 1'
_cell_length_a   5.55952800
_cell_length_b   8.47666700
_cell_length_c   18.91249300
_cell_angle_alpha   90.00000000
_cell_angle_beta   90.00000000
_cell_angle_gamma   90.00000000
_symmetry_Int_Tables_number   1
_chemical_formula_structural   LiVPO4
_chemical_formula_sum   'Li12 V12 P12 O48'
_cell_volume   891.27520484
_cell_formula_units_Z   12
loop_
 _symmetry_equiv_pos_site_id
 _symmetry_equiv_pos_as_xyz
  1  'x, y, z'
loop_
 _atom_site_type_symbol
 _atom_site_label
 _atom_site_symmetry_multiplicity
 _atom_site_fract_x
 _atom_site_fract_y
 _atom_site_fract_z
 _atom_site_occupancy
  Li  Li0  1  0.01551750  0.83127450  0.08297400  1
  Li  Li1  1  0.48448250  0.33127450  0.08297400  1
  Li  Li2  1  0.00000000  0.16661350  0.25000000  1
  Li  Li3  1  0.50000000  0.66661350  0.25000000  1
  Li  Li4  1  0.98448250  0.83127450  0.41702600  1
  Li  Li5  1  0.51551750  0.33127450  0.41702600  1
  Li  Li6  1  0.01551750  0.16872550  0.58297400  1
  Li  Li7  1  0.48448250  0.66872550  0.58297400  1
  Li  Li8  1  0.00000000  0.83338650  0.75000000  1
  Li  Li9  1  0.50000000  0.33338650  0.75000000  1
  Li  Li10  1  0.98448250  0.16872550  0.91702600  1
  Li  Li11  1  0.51551750  0.66872550  0.91702600  1
  V  V12  1  0.00000000  0.50000000  0.00000000  1
  V  V13  1  0.50038450  0.99964450  0.16628400  1
  V  V14  1  0.99961550  0.49964450  0.16628400  1
  V  V15  1  0.49961550  0.99964450  0.33371600  1
  V  V16  1  0.00038450  0.49964450  0.33371600  1
  V  V17  1  0.50000000  0.00000000  0.50000000  1
  V  V18  1  0.00000000  0.50000000  0.50000000  1
  V  V19  1  0.50038450  0.00035550  0.66628400  1
  V  V20  1  0.99961550  0.50035550  0.66628400  1
  V  V21  1  0.49961550  0.00035550  0.83371600  1
  V  V22  1  0.00038450  0.50035550  0.83371600  1
  V  V23  1  0.50000000  0.00000000  0.00000000  1
  P  P24  1  0.99774950  0.14634250  0.08282500  1
  P  P25  1  0.50225050  0.64634250  0.08282500  1
  P  P26  1  0.00000000  0.85224450  0.25000000  1
  P  P27  1  0.50000000  0.35224450  0.25000000  1
  P  P28  1  0.00225050  0.14634250  0.41717500  1
  P  P29  1  0.49774950  0.64634250  0.41717500  1
  P  P30  1  0.99774950  0.85365750  0.58282500  1
  P  P31  1  0.50225050  0.35365750  0.58282500  1
  P  P32  1  0.00000000  0.14775550  0.75000000  1
  P  P33  1  0.50000000  0.64775550  0.75000000  1
  P  P34  1  0.00225050  0.85365750  0.91717500  1
  P  P35  1  0.49774950  0.35365750  0.91717500  1
  O  O36  1  0.99603650  0.24793850  0.01566000  1
  O  O37  1  0.50396350  0.74793850  0.01566000  1
  O  O38  1  0.72358250  0.53100050  0.08367900  1
  O  O39  1  0.27391550  0.53326650  0.08386700  1
  O  O40  1  0.22608450  0.03326650  0.08386700  1
  O  O41  1  0.77641750  0.03100050  0.08367900  1
  O  O42  1  0.99879250  0.24685150  0.15035500  1
  O  O43  1  0.50120750  0.74685150  0.15035500  1
  O  O44  1  0.00259650  0.75102850  0.18234300  1
  O  O45  1  0.49740350  0.25102850  0.18234300  1
  O  O46  1  0.72506850  0.46674350  0.25032800  1
  O  O47  1  0.27493150  0.46674350  0.24967200  1
  O  O48  1  0.77493150  0.96674350  0.25032800  1
  O  O49  1  0.22506850  0.96674350  0.24967200  1
  O  O50  1  0.99740350  0.75102850  0.31765700  1
  O  O51  1  0.50259650  0.25102850  0.31765700  1
  O  O52  1  0.00120750  0.24685150  0.34964500  1
  O  O53  1  0.49879250  0.74685150  0.34964500  1
  O  O54  1  0.27641750  0.53100050  0.41632100  1
  O  O55  1  0.72608450  0.53326650  0.41613300  1
  O  O56  1  0.77391550  0.03326650  0.41613300  1
  O  O57  1  0.22358250  0.03100050  0.41632100  1
  O  O58  1  0.00396350  0.24793850  0.48434000  1
  O  O59  1  0.49603650  0.74793850  0.48434000  1
  O  O60  1  0.99603650  0.75206150  0.51566000  1
  O  O61  1  0.50396350  0.25206150  0.51566000  1
  O  O62  1  0.72358250  0.46899950  0.58367900  1
  O  O63  1  0.27391550  0.46673350  0.58386700  1
  O  O64  1  0.22608450  0.96673350  0.58386700  1
  O  O65  1  0.77641750  0.96899950  0.58367900  1
  O  O66  1  0.99879250  0.75314850  0.65035500  1
  O  O67  1  0.50120750  0.25314850  0.65035500  1
  O  O68  1  0.00259650  0.24897150  0.68234300  1
  O  O69  1  0.49740350  0.74897150  0.68234300  1
  O  O70  1  0.72506850  0.53325650  0.75032800  1
  O  O71  1  0.27493150  0.53325650  0.74967200  1
  O  O72  1  0.77493150  0.03325650  0.75032800  1
  O  O73  1  0.22506850  0.03325650  0.74967200  1
  O  O74  1  0.99740350  0.24897150  0.81765700  1
  O  O75  1  0.50259650  0.74897150  0.81765700  1
  O  O76  1  0.00120750  0.75314850  0.84964500  1
  O  O77  1  0.49879250  0.25314850  0.84964500  1
  O  O78  1  0.27641750  0.46899950  0.91632100  1
  O  O79  1  0.72608450  0.46673350  0.91613300  1
  O  O80  1  0.77391550  0.96673350  0.91613300  1
  O  O81  1  0.22358250  0.96899950  0.91632100  1
  O  O82  1  0.00396350  0.75206150  0.98434000  1
  O  O83  1  0.49603650  0.25206150  0.98434000  1
