# generated using pymatgen
data_Li(CoO2)2
_symmetry_space_group_name_H-M   'P 1'
_cell_length_a   5.65877064
_cell_length_b   5.75456024
_cell_length_c   7.95443032
_cell_angle_alpha   90.00000000
_cell_angle_beta   90.00000000
_cell_angle_gamma   90.00000000
_symmetry_Int_Tables_number   1
_chemical_formula_structural   Li(CoO2)2
_chemical_formula_sum   'Li4 Co8 O16'
_cell_volume   259.02597322
_cell_formula_units_Z   4
loop_
 _symmetry_equiv_pos_site_id
 _symmetry_equiv_pos_as_xyz
  1  'x, y, z'
loop_
 _atom_site_type_symbol
 _atom_site_label
 _atom_site_symmetry_multiplicity
 _atom_site_fract_x
 _atom_site_fract_y
 _atom_site_fract_z
 _atom_site_occupancy
  Li  Li0  1  0.75000000  0.25000000  0.25000000  1
  Li  Li1  1  0.75000000  0.75000000  0.75000000  1
  Li  Li2  1  0.25000000  0.75000000  0.75000000  1
  Li  Li3  1  0.25000000  0.25000000  0.25000000  1
  Co  Co4  1  0.00000000  0.00000000  0.00000000  1
  Co  Co5  1  0.25000000  0.75000000  0.25000000  1
  Co  Co6  1  0.50000000  0.00000000  0.50000000  1
  Co  Co7  1  0.25000000  0.25000000  0.75000000  1
  Co  Co8  1  0.50000000  0.50000000  0.50000000  1
  Co  Co9  1  0.75000000  0.25000000  0.75000000  1
  Co  Co10  1  0.00000000  0.50000000  0.00000000  1
  Co  Co11  1  0.75000000  0.75000000  0.25000000  1
  O  O12  1  0.50000000  0.97672900  0.26012300  1
  O  O13  1  0.00000000  0.97672900  0.23987700  1
  O  O14  1  0.00000000  0.02327100  0.76012300  1
  O  O15  1  0.50000000  0.02327100  0.73987700  1
  O  O16  1  0.27901650  0.25000000  0.51596550  1
  O  O17  1  0.27901650  0.75000000  0.48403450  1
  O  O18  1  0.72098350  0.25000000  0.51596550  1
  O  O19  1  0.72098350  0.75000000  0.48403450  1
  O  O20  1  0.00000000  0.47672900  0.76012300  1
  O  O21  1  0.50000000  0.47672900  0.73987700  1
  O  O22  1  0.50000000  0.52327100  0.26012300  1
  O  O23  1  0.00000000  0.52327100  0.23987700  1
  O  O24  1  0.77901650  0.75000000  0.01596550  1
  O  O25  1  0.77901650  0.25000000  0.98403450  1
  O  O26  1  0.22098350  0.75000000  0.01596550  1
  O  O27  1  0.22098350  0.25000000  0.98403450  1
