# generated using pymatgen
data_NaTi8O16
_symmetry_space_group_name_H-M   'P 1'
_cell_length_a   10.50530600
_cell_length_b   5.97873600
_cell_length_c   10.78085668
_cell_angle_alpha   90.00000000
_cell_angle_beta   118.02666427
_cell_angle_gamma   90.00000000
_symmetry_Int_Tables_number   1
_chemical_formula_structural   NaTi8O16
_chemical_formula_sum   'Na2 Ti16 O32'
_cell_volume   597.72133622
_cell_formula_units_Z   2
loop_
 _symmetry_equiv_pos_site_id
 _symmetry_equiv_pos_as_xyz
  1  'x, y, z'
loop_
 _atom_site_type_symbol
 _atom_site_label
 _atom_site_symmetry_multiplicity
 _atom_site_fract_x
 _atom_site_fract_y
 _atom_site_fract_z
 _atom_site_occupancy
  Na  Na0  1  0.63060500  0.50000000  0.45938300  1
  Na  Na1  1  0.13060500  0.00000000  0.45938300  1
  Ti  Ti2  1  0.32223400  0.24890200  0.35222300  1
  Ti  Ti3  1  0.44597800  0.00000000  0.64575300  1
  Ti  Ti4  1  0.45958500  0.50000000  0.12590700  1
  Ti  Ti5  1  0.47228100  0.00000000  0.14115600  1
  Ti  Ti6  1  0.78464150  0.25490950  0.85775200  1
  Ti  Ti7  1  0.78464150  0.74509050  0.85775200  1
  Ti  Ti8  1  0.32223400  0.75109800  0.35222300  1
  Ti  Ti9  1  0.41766000  0.50000000  0.63897300  1
  Ti  Ti10  1  0.82223400  0.74890200  0.35222300  1
  Ti  Ti11  1  0.94597800  0.50000000  0.64575300  1
  Ti  Ti12  1  0.95958500  0.00000000  0.12590700  1
  Ti  Ti13  1  0.97228100  0.50000000  0.14115600  1
  Ti  Ti14  1  0.28464150  0.75490950  0.85775200  1
  Ti  Ti15  1  0.28464150  0.24509050  0.85775200  1
  Ti  Ti16  1  0.82223400  0.25109800  0.35222300  1
  Ti  Ti17  1  0.91766000  0.00000000  0.63897300  1
  O  O18  1  0.41047200  0.25627300  0.23079700  1
  O  O19  1  0.45076500  0.00000000  0.46159300  1
  O  O20  1  0.17600700  0.00000000  0.27130900  1
  O  O21  1  0.17462500  0.50000000  0.26673600  1
  O  O22  1  0.30431650  0.24914850  0.53914400  1
  O  O23  1  0.48728800  0.75395200  0.03345700  1
  O  O24  1  0.48728800  0.24604800  0.03345700  1
  O  O25  1  0.84621500  0.50000000  0.76809200  1
  O  O26  1  0.41047200  0.74372700  0.23079700  1
  O  O27  1  0.76582500  0.00000000  0.96316000  1
  O  O28  1  0.76634700  0.50000000  0.96287600  1
  O  O29  1  0.43687100  0.50000000  0.45975200  1
  O  O30  1  0.57767750  0.74964250  0.72673600  1
  O  O31  1  0.57767750  0.25035750  0.72673600  1
  O  O32  1  0.30431650  0.75085150  0.53914400  1
  O  O33  1  0.84494500  0.00000000  0.77054900  1
  O  O34  1  0.91047200  0.75627300  0.23079700  1
  O  O35  1  0.95076500  0.50000000  0.46159300  1
  O  O36  1  0.67600700  0.50000000  0.27130900  1
  O  O37  1  0.67462500  0.00000000  0.26673600  1
  O  O38  1  0.80431650  0.74914850  0.53914400  1
  O  O39  1  0.98728800  0.25395200  0.03345700  1
  O  O40  1  0.98728800  0.74604800  0.03345700  1
  O  O41  1  0.34621500  0.00000000  0.76809200  1
  O  O42  1  0.91047200  0.24372700  0.23079700  1
  O  O43  1  0.26582500  0.50000000  0.96316000  1
  O  O44  1  0.26634700  0.00000000  0.96287600  1
  O  O45  1  0.93687100  0.00000000  0.45975200  1
  O  O46  1  0.07767750  0.24964250  0.72673600  1
  O  O47  1  0.07767750  0.75035750  0.72673600  1
  O  O48  1  0.80431650  0.25085150  0.53914400  1
  O  O49  1  0.34494500  0.50000000  0.77054900  1
