# generated using pymatgen
data_Li12CrCo3P4(CO7)4
_symmetry_space_group_name_H-M   'P 1'
_cell_length_a   8.49209300
_cell_length_b   6.45621800
_cell_length_c   10.00281808
_cell_angle_alpha   90.00000000
_cell_angle_beta   94.66431601
_cell_angle_gamma   90.00000000
_symmetry_Int_Tables_number   1
_chemical_formula_structural   Li12CrCo3P4(CO7)4
_chemical_formula_sum   'Li12 Cr1 Co3 P4 C4 O28'
_cell_volume   546.60629125
_cell_formula_units_Z   1
loop_
 _symmetry_equiv_pos_site_id
 _symmetry_equiv_pos_as_xyz
  1  'x, y, z'
loop_
 _atom_site_type_symbol
 _atom_site_label
 _atom_site_symmetry_multiplicity
 _atom_site_fract_x
 _atom_site_fract_y
 _atom_site_fract_z
 _atom_site_occupancy
  Li  Li0  1  0.09929700  0.00000000  0.61915100  1
  Li  Li1  1  0.09638500  0.00000000  0.11680000  1
  Li  Li2  1  0.27539100  0.77159800  0.87505100  1
  Li  Li3  1  0.27539100  0.22840200  0.87505100  1
  Li  Li4  1  0.27475900  0.77212900  0.37515800  1
  Li  Li5  1  0.27475900  0.22787100  0.37515800  1
  Li  Li6  1  0.72443700  0.27150100  0.62666200  1
  Li  Li7  1  0.72443700  0.72849900  0.62666200  1
  Li  Li8  1  0.72442500  0.27272800  0.12346600  1
  Li  Li9  1  0.72442500  0.72727200  0.12346600  1
  Li  Li10  1  0.90358400  0.50000000  0.88227100  1
  Li  Li11  1  0.90463100  0.50000000  0.38215600  1
  Cr  Cr12  1  0.66552100  0.00000000  0.39216000  1
  Co  Co13  1  0.33212200  0.50000000  0.60561800  1
  Co  Co14  1  0.33111800  0.50000000  0.10487000  1
  Co  Co15  1  0.66738500  0.00000000  0.89545900  1
  P  P16  1  0.41325100  0.00000000  0.64069300  1
  P  P17  1  0.41014500  0.00000000  0.13905000  1
  P  P18  1  0.58662300  0.50000000  0.86026700  1
  P  P19  1  0.58606100  0.50000000  0.35934700  1
  C  C20  1  0.03671800  0.50000000  0.64884700  1
  C  C21  1  0.03670100  0.50000000  0.14916900  1
  C  C22  1  0.96219800  0.00000000  0.85096900  1
  C  C23  1  0.96863800  0.00000000  0.35247800  1
  O  O24  1  0.07324200  0.50000000  0.52572500  1
  O  O25  1  0.10810900  0.00000000  0.82042400  1
  O  O26  1  0.07218800  0.50000000  0.02600200  1
  O  O27  1  0.15177200  0.50000000  0.74389400  1
  O  O28  1  0.11232000  0.00000000  0.31765700  1
  O  O29  1  0.15215200  0.50000000  0.24383700  1
  O  O30  1  0.30990100  0.81270400  0.58820900  1
  O  O31  1  0.30990100  0.18729600  0.58820900  1
  O  O32  1  0.30884700  0.81207000  0.08479900  1
  O  O33  1  0.30884700  0.18793000  0.08479900  1
  O  O34  1  0.42027600  0.50000000  0.91196800  1
  O  O35  1  0.43256200  0.00000000  0.79711000  1
  O  O36  1  0.42034000  0.50000000  0.41221300  1
  O  O37  1  0.42120200  0.00000000  0.29461400  1
  O  O38  1  0.56812400  0.50000000  0.70352100  1
  O  O39  1  0.57996200  0.00000000  0.58923100  1
  O  O40  1  0.56713200  0.50000000  0.20301000  1
  O  O41  1  0.57917900  0.00000000  0.09015700  1
  O  O42  1  0.69067500  0.68711600  0.91235000  1
  O  O43  1  0.69067500  0.31288400  0.91235000  1
  O  O44  1  0.69032600  0.31383400  0.41251400  1
  O  O45  1  0.69032600  0.68616600  0.41251400  1
  O  O46  1  0.84677300  0.00000000  0.75588800  1
  O  O47  1  0.89078500  0.50000000  0.67953300  1
  O  O48  1  0.85151400  0.00000000  0.25853100  1
  O  O49  1  0.92561200  0.00000000  0.97391700  1
  O  O50  1  0.89068300  0.50000000  0.18035700  1
  O  O51  1  0.93817100  0.00000000  0.47668900  1
