# generated using pymatgen
data_Ge11N11O5
_symmetry_space_group_name_H-M   'P 1'
_cell_length_a   10.26033800
_cell_length_b   5.88943400
_cell_length_c   10.22390280
_cell_angle_alpha   90.00000000
_cell_angle_beta   109.48044844
_cell_angle_gamma   90.00000000
_symmetry_Int_Tables_number   1
_chemical_formula_structural   Ge11N11O5
_chemical_formula_sum   'Ge22 N22 O10'
_cell_volume   582.43966270
_cell_formula_units_Z   2
loop_
 _symmetry_equiv_pos_site_id
 _symmetry_equiv_pos_as_xyz
  1  'x, y, z'
loop_
 _atom_site_type_symbol
 _atom_site_label
 _atom_site_symmetry_multiplicity
 _atom_site_fract_x
 _atom_site_fract_y
 _atom_site_fract_z
 _atom_site_occupancy
  Ge  Ge0  1  0.93724700  0.25046200  0.56212400  1
  Ge  Ge1  1  0.94147450  0.74379750  0.06593000  1
  Ge  Ge2  1  0.94147450  0.25620250  0.06593000  1
  Ge  Ge3  1  0.61704500  0.00000000  0.87395000  1
  Ge  Ge4  1  0.62366800  0.50000000  0.37287800  1
  Ge  Ge5  1  0.94339600  0.00000000  0.81024100  1
  Ge  Ge6  1  0.68984000  0.50000000  0.06142700  1
  Ge  Ge7  1  0.93612000  0.50000000  0.31140300  1
  Ge  Ge8  1  0.68729600  0.00000000  0.56453700  1
  Ge  Ge9  1  0.75139000  0.50000000  0.74990400  1
  Ge  Ge10  1  0.93724700  0.74953800  0.56212400  1
  Ge  Ge11  1  0.43724700  0.75046200  0.56212400  1
  Ge  Ge12  1  0.44147450  0.24379750  0.06593000  1
  Ge  Ge13  1  0.44147450  0.75620250  0.06593000  1
  Ge  Ge14  1  0.11704500  0.50000000  0.87395000  1
  Ge  Ge15  1  0.12366800  0.00000000  0.37287800  1
  Ge  Ge16  1  0.44339600  0.50000000  0.81024100  1
  Ge  Ge17  1  0.18984000  0.00000000  0.06142700  1
  Ge  Ge18  1  0.43612000  0.00000000  0.31140300  1
  Ge  Ge19  1  0.18729600  0.50000000  0.56453700  1
  Ge  Ge20  1  0.25139000  0.00000000  0.74990400  1
  Ge  Ge21  1  0.43724700  0.24953800  0.56212400  1
  N  N22  1  0.55653450  0.76768850  0.43827300  1
  N  N23  1  0.82352500  0.50000000  0.43770100  1
  N  N24  1  0.55739600  0.50000000  0.17388100  1
  N  N25  1  0.55467000  0.00000000  0.67289700  1
  N  N26  1  0.55603650  0.73234250  0.94432100  1
  N  N27  1  0.55603650  0.26765750  0.94432100  1
  N  N28  1  0.81669400  0.76685500  0.68556800  1
  N  N29  1  0.55653450  0.23231150  0.43827300  1
  N  N30  1  0.81669400  0.23314500  0.68556800  1
  N  N31  1  0.55237500  0.50000000  0.68355700  1
  N  N32  1  0.81635600  0.50000000  0.94767900  1
  N  N33  1  0.05653450  0.26768850  0.43827300  1
  N  N34  1  0.32352500  0.00000000  0.43770100  1
  N  N35  1  0.05739600  0.00000000  0.17388100  1
  N  N36  1  0.05467000  0.50000000  0.67289700  1
  N  N37  1  0.05603650  0.23234250  0.94432100  1
  N  N38  1  0.05603650  0.76765750  0.94432100  1
  N  N39  1  0.31669400  0.26685500  0.68556800  1
  N  N40  1  0.05653450  0.73231150  0.43827300  1
  N  N41  1  0.31669400  0.73314500  0.68556800  1
  N  N42  1  0.05237500  0.00000000  0.68355700  1
  N  N43  1  0.31635600  0.00000000  0.94767900  1
  O  O44  1  0.82109500  0.28076900  0.17691000  1
  O  O45  1  0.82576200  0.00000000  0.94743600  1
  O  O46  1  0.54102800  0.00000000  0.18025100  1
  O  O47  1  0.82198400  0.00000000  0.46600700  1
  O  O48  1  0.82109500  0.71923100  0.17691000  1
  O  O49  1  0.32109500  0.78076900  0.17691000  1
  O  O50  1  0.32576200  0.50000000  0.94743600  1
  O  O51  1  0.04102800  0.50000000  0.18025100  1
  O  O52  1  0.32198400  0.50000000  0.46600700  1
  O  O53  1  0.32109500  0.21923100  0.17691000  1
