# generated using pymatgen
data_LiV2(CO3)4
_symmetry_space_group_name_H-M   'P 1'
_cell_length_a   8.20888200
_cell_length_b   5.87772900
_cell_length_c   12.25676508
_cell_angle_alpha   90.00000000
_cell_angle_beta   131.60094008
_cell_angle_gamma   90.00000000
_symmetry_Int_Tables_number   1
_chemical_formula_structural   LiV2(CO3)4
_chemical_formula_sum   'Li2 V4 C8 O24'
_cell_volume   442.22924424
_cell_formula_units_Z   2
loop_
 _symmetry_equiv_pos_site_id
 _symmetry_equiv_pos_as_xyz
  1  'x, y, z'
loop_
 _atom_site_type_symbol
 _atom_site_label
 _atom_site_symmetry_multiplicity
 _atom_site_fract_x
 _atom_site_fract_y
 _atom_site_fract_z
 _atom_site_occupancy
  Li  Li0  1  0.52808000  0.43269600  0.67323800  1
  Li  Li1  1  0.52808000  0.56730400  0.17323800  1
  V  V2  1  0.54036300  0.99875700  0.99905700  1
  V  V3  1  0.95556800  0.04236900  0.99801700  1
  V  V4  1  0.95556800  0.95763100  0.49801700  1
  V  V5  1  0.54036300  0.00124300  0.49905700  1
  C  C6  1  0.54081900  0.43242800  0.99440100  1
  C  C7  1  0.05583500  0.52715600  0.00680600  1
  C  C8  1  0.02651900  0.99811000  0.77952500  1
  C  C9  1  0.46205100  0.99543800  0.71804300  1
  C  C10  1  0.05583500  0.47284400  0.50680600  1
  C  C11  1  0.54081900  0.56757200  0.49440100  1
  C  C12  1  0.02651900  0.00189000  0.27952500  1
  C  C13  1  0.46205100  0.00456200  0.21804300  1
  O  O14  1  0.57160900  0.64552700  0.00288700  1
  O  O15  1  0.22226800  0.49128200  0.02710000  1
  O  O16  1  0.92375200  0.36888600  0.98642500  1
  O  O17  1  0.99049900  0.73581700  0.00276100  1
  O  O18  1  0.43888000  0.31078000  0.87789000  1
  O  O19  1  0.62027000  0.98100000  0.86231000  1
  O  O20  1  0.21707100  0.93152200  0.85180000  1
  O  O21  1  0.94258700  0.07762100  0.83094700  1
  O  O22  1  0.27699100  0.90977500  0.66136500  1
  O  O23  1  0.50394100  0.09815800  0.64815300  1
  O  O24  1  0.88884300  0.98523200  0.63312700  1
  O  O25  1  0.61733700  0.68694800  0.61151800  1
  O  O26  1  0.92375200  0.63111400  0.48642500  1
  O  O27  1  0.99049900  0.26418300  0.50276100  1
  O  O28  1  0.22226800  0.50871800  0.52710000  1
  O  O29  1  0.57160900  0.35447300  0.50288700  1
  O  O30  1  0.43888000  0.68922000  0.37789000  1
  O  O31  1  0.62027000  0.01900000  0.36231000  1
  O  O32  1  0.21707100  0.06847800  0.35180000  1
  O  O33  1  0.94258700  0.92237900  0.33094700  1
  O  O34  1  0.27699100  0.09022500  0.16136500  1
  O  O35  1  0.50394100  0.90184200  0.14815300  1
  O  O36  1  0.88884300  0.01476800  0.13312700  1
  O  O37  1  0.61733700  0.31305200  0.11151800  1
