# generated using pymatgen
data_LiCoPO4
_symmetry_space_group_name_H-M   'P 1'
_cell_length_a   4.96153453
_cell_length_b   6.18112251
_cell_length_c   9.75700118
_cell_angle_alpha   90.00000000
_cell_angle_beta   90.00000000
_cell_angle_gamma   90.00000000
_symmetry_Int_Tables_number   1
_chemical_formula_structural   LiCoPO4
_chemical_formula_sum   'Li4 Co4 P4 O16'
_cell_volume   299.22627585
_cell_formula_units_Z   4
loop_
 _symmetry_equiv_pos_site_id
 _symmetry_equiv_pos_as_xyz
  1  'x, y, z'
loop_
 _atom_site_type_symbol
 _atom_site_label
 _atom_site_symmetry_multiplicity
 _atom_site_fract_x
 _atom_site_fract_y
 _atom_site_fract_z
 _atom_site_occupancy
  Li  Li0  1  0.00000000  0.50000000  0.00000000  1
  Li  Li1  1  0.00000000  0.00000000  0.00000000  1
  Li  Li2  1  0.50000000  0.50000000  0.50000000  1
  Li  Li3  1  0.50000000  0.00000000  0.50000000  1
  Co  Co4  1  0.03029700  0.25000000  0.66321550  1
  Co  Co5  1  0.53029700  0.75000000  0.83678450  1
  Co  Co6  1  0.46970300  0.25000000  0.16321550  1
  Co  Co7  1  0.96970300  0.75000000  0.33678450  1
  P  P8  1  0.45834000  0.75000000  0.17753650  1
  P  P9  1  0.95834000  0.25000000  0.32246350  1
  P  P10  1  0.04166000  0.75000000  0.67753650  1
  P  P11  1  0.54166000  0.25000000  0.82246350  1
  O  O12  1  0.76946600  0.75000000  0.15737150  1
  O  O13  1  0.26946600  0.25000000  0.34262850  1
  O  O14  1  0.73053400  0.75000000  0.65737150  1
  O  O15  1  0.23053400  0.25000000  0.84262850  1
  O  O16  1  0.88065900  0.25000000  0.16599050  1
  O  O17  1  0.38065900  0.75000000  0.33400950  1
  O  O18  1  0.61934100  0.25000000  0.66599050  1
  O  O19  1  0.11934100  0.75000000  0.83400950  1
  O  O20  1  0.33410900  0.54608250  0.10865950  1
  O  O21  1  0.33410900  0.95391750  0.10865950  1
  O  O22  1  0.83410900  0.45391750  0.39134050  1
  O  O23  1  0.83410900  0.04608250  0.39134050  1
  O  O24  1  0.16589100  0.54608250  0.60865950  1
  O  O25  1  0.16589100  0.95391750  0.60865950  1
  O  O26  1  0.66589100  0.04608250  0.89134050  1
  O  O27  1  0.66589100  0.45391750  0.89134050  1
