# generated using pymatgen
data_Li4FeOF5
_symmetry_space_group_name_H-M   'P 1'
_cell_length_a   5.81824400
_cell_length_b   10.10497800
_cell_length_c   13.27038747
_cell_angle_alpha   90.00000000
_cell_angle_beta   90.04144432
_cell_angle_gamma   90.00000000
_symmetry_Int_Tables_number   1
_chemical_formula_structural   Li4FeOF5
_chemical_formula_sum   'Li24 Fe6 O6 F30'
_cell_volume   780.20870710
_cell_formula_units_Z   6
loop_
 _symmetry_equiv_pos_site_id
 _symmetry_equiv_pos_as_xyz
  1  'x, y, z'
loop_
 _atom_site_type_symbol
 _atom_site_label
 _atom_site_symmetry_multiplicity
 _atom_site_fract_x
 _atom_site_fract_y
 _atom_site_fract_z
 _atom_site_occupancy
  Li  Li0  1  0.67261650  0.33890750  0.34587200  1
  Li  Li1  1  0.67029300  0.33647800  0.05006300  1
  Li  Li2  1  0.31794600  0.00000000  0.50311100  1
  Li  Li3  1  0.17261650  0.16109250  0.34587200  1
  Li  Li4  1  0.17029300  0.16352200  0.05006300  1
  Li  Li5  1  0.66602200  0.00000000  0.65685600  1
  Li  Li6  1  0.65498700  0.00000000  0.33970500  1
  Li  Li7  1  0.66103900  0.00000000  0.04584900  1
  Li  Li8  1  0.33876750  0.32701950  0.50215200  1
  Li  Li9  1  0.33360550  0.33345050  0.20731100  1
  Li  Li10  1  0.83876750  0.17298050  0.50215200  1
  Li  Li11  1  0.83360550  0.16654950  0.20731100  1
  Li  Li12  1  0.17261650  0.83890750  0.34587200  1
  Li  Li13  1  0.17029300  0.83647800  0.05006300  1
  Li  Li14  1  0.81794600  0.50000000  0.50311100  1
  Li  Li15  1  0.67261650  0.66109250  0.34587200  1
  Li  Li16  1  0.67029300  0.66352200  0.05006300  1
  Li  Li17  1  0.16602200  0.50000000  0.65685600  1
  Li  Li18  1  0.15498700  0.50000000  0.33970500  1
  Li  Li19  1  0.16103900  0.50000000  0.04584900  1
  Li  Li20  1  0.83876750  0.82701950  0.50215200  1
  Li  Li21  1  0.83360550  0.83345050  0.20731100  1
  Li  Li22  1  0.33876750  0.67298050  0.50215200  1
  Li  Li23  1  0.33360550  0.66654950  0.20731100  1
  Fe  Fe24  1  0.33423000  0.00000000  0.85114700  1
  Fe  Fe25  1  0.33394950  0.33333850  0.85090800  1
  Fe  Fe26  1  0.83394950  0.16666150  0.85090800  1
  Fe  Fe27  1  0.83423000  0.50000000  0.85114700  1
  Fe  Fe28  1  0.83394950  0.83333850  0.85090800  1
  Fe  Fe29  1  0.33394950  0.66666150  0.85090800  1
  O  O30  1  0.66772350  0.33345350  0.86309400  1
  O  O31  1  0.16772350  0.16654650  0.86309400  1
  O  O32  1  0.66784700  0.00000000  0.87354800  1
  O  O33  1  0.16772350  0.83345350  0.86309400  1
  O  O34  1  0.66772350  0.66654650  0.86309400  1
  O  O35  1  0.16784700  0.50000000  0.87354800  1
  F  F36  1  0.66516550  0.33218050  0.50404700  1
  F  F37  1  0.64691000  0.31284500  0.18635400  1
  F  F38  1  0.36510100  0.00000000  0.71102900  1
  F  F39  1  0.33751500  0.00000000  0.35663800  1
  F  F40  1  0.32698000  0.00000000  0.00978700  1
  F  F41  1  0.16516550  0.16781950  0.50404700  1
  F  F42  1  0.14691000  0.18715500  0.18635400  1
  F  F43  1  0.66863400  0.00000000  0.51947300  1
  F  F44  1  0.70854900  0.00000000  0.18294800  1
  F  F45  1  0.31615550  0.34943850  0.71078100  1
  F  F46  1  0.33029550  0.33627050  0.35038000  1
  F  F47  1  0.33717750  0.32935050  0.00959200  1
  F  F48  1  0.81615550  0.15056150  0.71078100  1
  F  F49  1  0.83029550  0.16372950  0.35038000  1
  F  F50  1  0.83717750  0.17064950  0.00959200  1
  F  F51  1  0.16516550  0.83218050  0.50404700  1
  F  F52  1  0.14691000  0.81284500  0.18635400  1
  F  F53  1  0.86510100  0.50000000  0.71102900  1
  F  F54  1  0.83751500  0.50000000  0.35663800  1
  F  F55  1  0.82698000  0.50000000  0.00978700  1
  F  F56  1  0.66516550  0.66781950  0.50404700  1
  F  F57  1  0.64691000  0.68715500  0.18635400  1
  F  F58  1  0.16863400  0.50000000  0.51947300  1
  F  F59  1  0.20854900  0.50000000  0.18294800  1
  F  F60  1  0.81615550  0.84943850  0.71078100  1
  F  F61  1  0.83029550  0.83627050  0.35038000  1
  F  F62  1  0.83717750  0.82935050  0.00959200  1
  F  F63  1  0.31615550  0.65056150  0.71078100  1
  F  F64  1  0.33029550  0.66372950  0.35038000  1
  F  F65  1  0.33717750  0.67064950  0.00959200  1
