# generated using pymatgen
data_Fe5O3F7
_symmetry_space_group_name_H-M   'P 1'
_cell_length_a   4.78410718
_cell_length_b   4.78880120
_cell_length_c   15.74672736
_cell_angle_alpha   89.99077133
_cell_angle_beta   89.96202304
_cell_angle_gamma   89.84945625
_symmetry_Int_Tables_number   1
_chemical_formula_structural   Fe5O3F7
_chemical_formula_sum   'Fe10 O6 F14'
_cell_volume   360.75837112
_cell_formula_units_Z   2
loop_
 _symmetry_equiv_pos_site_id
 _symmetry_equiv_pos_as_xyz
  1  'x, y, z'
loop_
 _atom_site_type_symbol
 _atom_site_label
 _atom_site_symmetry_multiplicity
 _atom_site_fract_x
 _atom_site_fract_y
 _atom_site_fract_z
 _atom_site_occupancy
  Fe  Fe0  1  0.97473900  0.04709900  0.00665900  1
  Fe  Fe1  1  0.02799900  0.97319700  0.80121000  1
  Fe  Fe2  1  0.02775600  0.98833600  0.59446900  1
  Fe  Fe3  1  0.02443100  0.02978500  0.39960200  1
  Fe  Fe4  1  0.02666100  0.02841100  0.20013000  1
  Fe  Fe5  1  0.50096500  0.50605400  0.90029300  1
  Fe  Fe6  1  0.47105000  0.48932300  0.50707900  1
  Fe  Fe7  1  0.48350100  0.52704400  0.70237000  1
  Fe  Fe8  1  0.48697100  0.48613700  0.29987400  1
  Fe  Fe9  1  0.48859800  0.48018500  0.09340000  1
  O  O10  1  0.20378900  0.20128200  0.49278400  1
  O  O11  1  0.18584300  0.18702800  0.29934400  1
  O  O12  1  0.17237200  0.18563500  0.10036200  1
  O  O13  1  0.32774300  0.68105700  0.80373500  1
  O  O14  1  0.31882500  0.68410300  0.60241100  1
  O  O15  1  0.68486600  0.31394900  0.99079100  1
  F  F16  1  0.19593500  0.20269800  0.90484700  1
  F  F17  1  0.22042700  0.19725500  0.70127300  1
  F  F18  1  0.27967600  0.71221400  0.99171200  1
  F  F19  1  0.29734900  0.69866700  0.40476500  1
  F  F20  1  0.29123800  0.69899200  0.19668300  1
  F  F21  1  0.71135800  0.29758600  0.79942200  1
  F  F22  1  0.70261400  0.29956100  0.60332200  1
  F  F23  1  0.69701200  0.29943700  0.40634700  1
  F  F24  1  0.69912100  0.28718100  0.19927200  1
  F  F25  1  0.80173900  0.80863900  0.90724700  1
  F  F26  1  0.79347400  0.78781800  0.48964600  1
  F  F27  1  0.80951700  0.78973900  0.69883800  1
  F  F28  1  0.79478500  0.81024700  0.10170600  1
  F  F29  1  0.79964400  0.80134600  0.30040900  1
