# generated using pymatgen
data_LiVFeO4
_symmetry_space_group_name_H-M   'P 1'
_cell_length_a   5.95890659
_cell_length_b   6.03643591
_cell_length_c   8.40024631
_cell_angle_alpha   90.00000000
_cell_angle_beta   90.00000000
_cell_angle_gamma   90.00000000
_symmetry_Int_Tables_number   1
_chemical_formula_structural   LiVFeO4
_chemical_formula_sum   'Li4 V4 Fe4 O16'
_cell_volume   302.16154484
_cell_formula_units_Z   4
loop_
 _symmetry_equiv_pos_site_id
 _symmetry_equiv_pos_as_xyz
  1  'x, y, z'
loop_
 _atom_site_type_symbol
 _atom_site_label
 _atom_site_symmetry_multiplicity
 _atom_site_fract_x
 _atom_site_fract_y
 _atom_site_fract_z
 _atom_site_occupancy
  Li  Li0  1  0.75000000  0.25000000  0.75000000  1
  Li  Li1  1  0.25000000  0.25000000  0.75000000  1
  Li  Li2  1  0.25000000  0.75000000  0.25000000  1
  Li  Li3  1  0.75000000  0.75000000  0.25000000  1
  V  V4  1  0.00000000  0.75000000  0.87491850  1
  V  V5  1  0.00000000  0.25000000  0.12508150  1
  V  V6  1  0.50000000  0.25000000  0.37491850  1
  V  V7  1  0.50000000  0.75000000  0.62508150  1
  Fe  Fe8  1  0.50000000  0.50000000  0.00000000  1
  Fe  Fe9  1  0.50000000  0.00000000  0.00000000  1
  Fe  Fe10  1  0.00000000  0.00000000  0.50000000  1
  Fe  Fe11  1  0.00000000  0.50000000  0.50000000  1
  O  O12  1  0.75415900  0.25000000  0.00333050  1
  O  O13  1  0.75415900  0.75000000  0.99666950  1
  O  O14  1  0.24584100  0.25000000  0.00333050  1
  O  O15  1  0.24584100  0.75000000  0.99666950  1
  O  O16  1  0.50000000  0.51529950  0.74400750  1
  O  O17  1  0.00000000  0.48470050  0.24400750  1
  O  O18  1  0.00000000  0.51529950  0.75599250  1
  O  O19  1  0.50000000  0.48470050  0.25599250  1
  O  O20  1  0.25415900  0.75000000  0.50333050  1
  O  O21  1  0.25415900  0.25000000  0.49666950  1
  O  O22  1  0.74584100  0.75000000  0.50333050  1
  O  O23  1  0.74584100  0.25000000  0.49666950  1
  O  O24  1  0.00000000  0.01529950  0.24400750  1
  O  O25  1  0.50000000  0.98470050  0.74400750  1
  O  O26  1  0.50000000  0.01529950  0.25599250  1
  O  O27  1  0.00000000  0.98470050  0.75599250  1
