# generated using pymatgen
data_Li2Mn7O12
_symmetry_space_group_name_H-M   'P 1'
_cell_length_a   5.22886400
_cell_length_b   9.01122700
_cell_length_c   10.00842405
_cell_angle_alpha   90.00000000
_cell_angle_beta   101.77946018
_cell_angle_gamma   90.00000000
_symmetry_Int_Tables_number   1
_chemical_formula_structural   Li2Mn7O12
_chemical_formula_sum   'Li4 Mn14 O24'
_cell_volume   461.65052140
_cell_formula_units_Z   2
loop_
 _symmetry_equiv_pos_site_id
 _symmetry_equiv_pos_as_xyz
  1  'x, y, z'
loop_
 _atom_site_type_symbol
 _atom_site_label
 _atom_site_symmetry_multiplicity
 _atom_site_fract_x
 _atom_site_fract_y
 _atom_site_fract_z
 _atom_site_occupancy
  Li  Li0  1  0.49266800  0.08888900  0.73079300  1
  Li  Li1  1  0.74725400  0.41920900  0.50098800  1
  Li  Li2  1  0.50733200  0.58888900  0.26920700  1
  Li  Li3  1  0.25274600  0.91920900  0.49901200  1
  Mn  Mn4  1  0.23870500  0.08377000  0.98596300  1
  Mn  Mn5  1  0.75730300  0.07657400  0.49652600  1
  Mn  Mn6  1  0.24131000  0.25558400  0.48879000  1
  Mn  Mn7  1  0.99826400  0.25886100  0.73704700  1
  Mn  Mn8  1  0.75682600  0.25229400  0.00663400  1
  Mn  Mn9  1  0.25625500  0.41694200  0.01048800  1
  Mn  Mn10  1  0.50540300  0.24322200  0.25724200  1
  Mn  Mn11  1  0.24269700  0.57657400  0.50347400  1
  Mn  Mn12  1  0.76129500  0.58377000  0.01403700  1
  Mn  Mn13  1  0.24317400  0.75229400  0.99336600  1
  Mn  Mn14  1  0.00173600  0.75886100  0.26295300  1
  Mn  Mn15  1  0.75869000  0.75558400  0.51121000  1
  Mn  Mn16  1  0.49459700  0.74322200  0.74275800  1
  Mn  Mn17  1  0.74374500  0.91694200  0.98951200  1
  O  O18  1  0.11959000  0.10265500  0.60091700  1
  O  O19  1  0.87682200  0.11582000  0.88156400  1
  O  O20  1  0.84133000  0.22917700  0.37789000  1
  O  O21  1  0.60775800  0.08248700  0.08513900  1
  O  O22  1  0.16627600  0.25724800  0.12121400  1
  O  O23  1  0.40241800  0.10496600  0.38829400  1
  O  O24  1  0.12479200  0.40397500  0.60117300  1
  O  O25  1  0.66279200  0.22946900  0.61732600  1
  O  O26  1  0.88832400  0.41875900  0.91416100  1
  O  O27  1  0.33620600  0.23780300  0.86936700  1
  O  O28  1  0.60929500  0.39260800  0.12300200  1
  O  O29  1  0.37029900  0.41864200  0.39491100  1
  O  O30  1  0.12317800  0.61582000  0.11843600  1
  O  O31  1  0.88041000  0.60265500  0.39908300  1
  O  O32  1  0.15867000  0.72917700  0.62211000  1
  O  O33  1  0.59758200  0.60496600  0.61170600  1
  O  O34  1  0.83372400  0.75724800  0.87878600  1
  O  O35  1  0.39224200  0.58248700  0.91486100  1
  O  O36  1  0.11167600  0.91875900  0.08583900  1
  O  O37  1  0.33720800  0.72946900  0.38267400  1
  O  O38  1  0.87520800  0.90397500  0.39882700  1
  O  O39  1  0.66379400  0.73780300  0.13063300  1
  O  O40  1  0.62970100  0.91864200  0.60508900  1
  O  O41  1  0.39070500  0.89260800  0.87699800  1
