# generated using pymatgen
data_Li4TiCo3O8
_symmetry_space_group_name_H-M   'P 1'
_cell_length_a   10.27772853
_cell_length_b   5.87279055
_cell_length_c   5.92175206
_cell_angle_alpha   90.00000000
_cell_angle_beta   124.84130755
_cell_angle_gamma   90.00000000
_symmetry_Int_Tables_number   1
_chemical_formula_structural   Li4TiCo3O8
_chemical_formula_sum   'Li8 Ti2 Co6 O16'
_cell_volume   293.35680846
_cell_formula_units_Z   2
loop_
 _symmetry_equiv_pos_site_id
 _symmetry_equiv_pos_as_xyz
  1  'x, y, z'
loop_
 _atom_site_type_symbol
 _atom_site_label
 _atom_site_symmetry_multiplicity
 _atom_site_fract_x
 _atom_site_fract_y
 _atom_site_fract_z
 _atom_site_occupancy
  Li  Li0  1  0.50000000  0.00000000  0.50000000  1
  Li  Li1  1  0.50000000  0.50000000  0.50000000  1
  Li  Li2  1  0.75000000  0.75000000  0.50000000  1
  Li  Li3  1  0.75000000  0.25000000  0.50000000  1
  Li  Li4  1  0.00000000  0.50000000  0.50000000  1
  Li  Li5  1  0.00000000  0.00000000  0.50000000  1
  Li  Li6  1  0.25000000  0.25000000  0.50000000  1
  Li  Li7  1  0.25000000  0.75000000  0.50000000  1
  Ti  Ti8  1  0.00000000  0.00000000  0.00000000  1
  Ti  Ti9  1  0.50000000  0.50000000  0.00000000  1
  Co  Co10  1  0.50000000  0.00000000  0.00000000  1
  Co  Co11  1  0.75000000  0.25000000  0.00000000  1
  Co  Co12  1  0.75000000  0.75000000  0.00000000  1
  Co  Co13  1  0.00000000  0.50000000  0.00000000  1
  Co  Co14  1  0.25000000  0.75000000  0.00000000  1
  Co  Co15  1  0.25000000  0.25000000  0.00000000  1
  O  O16  1  0.74844900  0.00000000  0.21475900  1
  O  O17  1  0.75155100  0.50000000  0.78524100  1
  O  O18  1  0.73849325  0.50000000  0.23158900  1
  O  O19  1  0.76150675  0.00000000  0.76841100  1
  O  O20  1  0.99580975  0.76309075  0.23224900  1
  O  O21  1  0.99580975  0.23690925  0.23224900  1
  O  O22  1  0.50419025  0.73690925  0.76775100  1
  O  O23  1  0.50419025  0.26309075  0.76775100  1
  O  O24  1  0.24844900  0.50000000  0.21475900  1
  O  O25  1  0.25155100  0.00000000  0.78524100  1
  O  O26  1  0.23849325  0.00000000  0.23158900  1
  O  O27  1  0.26150675  0.50000000  0.76841100  1
  O  O28  1  0.49580975  0.26309075  0.23224900  1
  O  O29  1  0.49580975  0.73690925  0.23224900  1
  O  O30  1  0.00419025  0.23690925  0.76775100  1
  O  O31  1  0.00419025  0.76309075  0.76775100  1
