# generated using pymatgen
data_Li4Fe5Ni(PO4)6
_symmetry_space_group_name_H-M   'P 1'
_cell_length_a   8.35496289
_cell_length_b   8.44009361
_cell_length_c   8.46795322
_cell_angle_alpha   63.56929886
_cell_angle_beta   63.99442291
_cell_angle_gamma   64.12323188
_symmetry_Int_Tables_number   1
_chemical_formula_structural   Li4Fe5Ni(PO4)6
_chemical_formula_sum   'Li4 Fe5 Ni1 P6 O24'
_cell_volume   458.47261119
_cell_formula_units_Z   1
loop_
 _symmetry_equiv_pos_site_id
 _symmetry_equiv_pos_as_xyz
  1  'x, y, z'
loop_
 _atom_site_type_symbol
 _atom_site_label
 _atom_site_symmetry_multiplicity
 _atom_site_fract_x
 _atom_site_fract_y
 _atom_site_fract_z
 _atom_site_occupancy
  Li  Li0  1  0.25133900  0.64250800  0.85467200  1
  Li  Li1  1  0.75470500  0.34298900  0.15417100  1
  Li  Li2  1  0.34527500  0.15002500  0.75756900  1
  Li  Li3  1  0.15102600  0.75704100  0.34523900  1
  Fe  Fe4  1  0.99104200  0.00295300  0.00093400  1
  Fe  Fe5  1  0.64585900  0.64575800  0.64253200  1
  Fe  Fe6  1  0.50693800  0.49799100  0.49551300  1
  Fe  Fe7  1  0.85378200  0.85849600  0.85367300  1
  Fe  Fe8  1  0.35090500  0.34513600  0.34813400  1
  Ni  Ni9  1  0.14596800  0.14811800  0.15200900  1
  P  P10  1  0.94181500  0.55458700  0.25239500  1
  P  P11  1  0.55603800  0.24959600  0.94472300  1
  P  P12  1  0.25055100  0.94468800  0.55489100  1
  P  P13  1  0.75284900  0.04261900  0.45472100  1
  P  P14  1  0.44716900  0.75037000  0.04223700  1
  P  P15  1  0.05185800  0.45650100  0.75317700  1
  O  O16  1  0.53451600  0.31182900  0.09925300  1
  O  O17  1  0.31699700  0.09807400  0.53224900  1
  O  O18  1  0.09746500  0.52880800  0.31963500  1
  O  O19  1  0.93458700  0.74453400  0.09034200  1
  O  O20  1  0.97134400  0.39574600  0.19060900  1
  O  O21  1  0.74677900  0.57481500  0.40505500  1
  O  O22  1  0.75021600  0.09667000  0.92110600  1
  O  O23  1  0.56119300  0.41222400  0.75573900  1
  O  O24  1  0.82945000  0.99640900  0.60864700  1
  O  O25  1  0.39811600  0.74529700  0.58136200  1
  O  O26  1  0.90517200  0.05694000  0.25947600  1
  O  O27  1  0.61397300  0.81601900  0.98432800  1
  O  O28  1  0.39432900  0.18588500  0.97788600  1
  O  O29  1  0.09999700  0.91947400  0.75314100  1
  O  O30  1  0.60715900  0.23958000  0.43331100  1
  O  O31  1  0.18888800  0.97522900  0.39607000  1
  O  O32  1  0.43495800  0.60167400  0.23774400  1
  O  O33  1  0.25329900  0.90573500  0.06479300  1
  O  O34  1  0.24647900  0.43189200  0.60142900  1
  O  O35  1  0.03151400  0.60654500  0.82268700  1
  O  O36  1  0.06066000  0.26023800  0.90431800  1
  O  O37  1  0.88500100  0.51277200  0.68761400  1
  O  O38  1  0.67526800  0.88895200  0.49782700  1
  O  O39  1  0.46552300  0.68228500  0.89178600  1
