# generated using pymatgen
data_Li4Ti2Cu3Sb3O16
_symmetry_space_group_name_H-M   'P 1'
_cell_length_a   10.77710400
_cell_length_b   6.05609200
_cell_length_c   9.83768158
_cell_angle_alpha   90.00000000
_cell_angle_beta   93.68000922
_cell_angle_gamma   90.00000000
_symmetry_Int_Tables_number   1
_chemical_formula_structural   Li4Ti2Cu3Sb3O16
_chemical_formula_sum   'Li8 Ti4 Cu6 Sb6 O32'
_cell_volume   640.75335883
_cell_formula_units_Z   2
loop_
 _symmetry_equiv_pos_site_id
 _symmetry_equiv_pos_as_xyz
  1  'x, y, z'
loop_
 _atom_site_type_symbol
 _atom_site_label
 _atom_site_symmetry_multiplicity
 _atom_site_fract_x
 _atom_site_fract_y
 _atom_site_fract_z
 _atom_site_occupancy
  Li  Li0  1  0.67583300  0.00000000  0.09485400  1
  Li  Li1  1  0.50849600  0.50000000  0.99864300  1
  Li  Li2  1  0.51825100  0.50000000  0.52170500  1
  Li  Li3  1  0.83147600  0.50000000  0.60751800  1
  Li  Li4  1  0.17583300  0.50000000  0.09485400  1
  Li  Li5  1  0.00849600  0.00000000  0.99864300  1
  Li  Li6  1  0.01825100  0.00000000  0.52170500  1
  Li  Li7  1  0.33147600  0.00000000  0.60751800  1
  Ti  Ti8  1  0.63793900  0.00000000  0.53402300  1
  Ti  Ti9  1  0.82108300  0.50000000  0.99513600  1
  Ti  Ti10  1  0.13793900  0.50000000  0.53402300  1
  Ti  Ti11  1  0.32108300  0.00000000  0.99513600  1
  Cu  Cu12  1  0.57871800  0.75628100  0.79291400  1
  Cu  Cu13  1  0.57871800  0.24371900  0.79291400  1
  Cu  Cu14  1  0.67075600  0.50000000  0.28827300  1
  Cu  Cu15  1  0.07871800  0.25628100  0.79291400  1
  Cu  Cu16  1  0.07871800  0.74371900  0.79291400  1
  Cu  Cu17  1  0.17075600  0.00000000  0.28827300  1
  Sb  Sb18  1  0.82527800  0.00000000  0.78166100  1
  Sb  Sb19  1  0.91729700  0.25210900  0.28371700  1
  Sb  Sb20  1  0.91729700  0.74789100  0.28371700  1
  Sb  Sb21  1  0.32527800  0.50000000  0.78166100  1
  Sb  Sb22  1  0.41729700  0.75210900  0.28371700  1
  Sb  Sb23  1  0.41729700  0.24789100  0.28371700  1
  O  O24  1  0.57128000  0.75802200  0.40961100  1
  O  O25  1  0.51430400  0.00000000  0.64652200  1
  O  O26  1  0.66904900  0.00000000  0.88490500  1
  O  O27  1  0.99453000  0.00000000  0.70744700  1
  O  O28  1  0.50170400  0.50000000  0.18738800  1
  O  O29  1  0.57128000  0.24197800  0.40961100  1
  O  O30  1  0.74956800  0.78726700  0.64158600  1
  O  O31  1  0.74956800  0.21273300  0.64158600  1
  O  O32  1  0.66917000  0.50000000  0.91741800  1
  O  O33  1  0.84990000  0.00000000  0.39197200  1
  O  O34  1  0.77374150  0.27058850  0.15114600  1
  O  O35  1  0.77374150  0.72941150  0.15114600  1
  O  O36  1  0.83977900  0.50000000  0.39221500  1
  O  O37  1  0.89897650  0.24576350  0.90815700  1
  O  O38  1  0.98904600  0.50000000  0.16816200  1
  O  O39  1  0.89897650  0.75423650  0.90815700  1
  O  O40  1  0.07128000  0.25802200  0.40961100  1
  O  O41  1  0.01430400  0.50000000  0.64652200  1
  O  O42  1  0.16904900  0.50000000  0.88490500  1
  O  O43  1  0.49453000  0.50000000  0.70744700  1
  O  O44  1  0.00170400  0.00000000  0.18738800  1
  O  O45  1  0.07128000  0.74197800  0.40961100  1
  O  O46  1  0.24956800  0.28726700  0.64158600  1
  O  O47  1  0.24956800  0.71273300  0.64158600  1
  O  O48  1  0.16917000  0.00000000  0.91741800  1
  O  O49  1  0.34990000  0.50000000  0.39197200  1
  O  O50  1  0.27374150  0.77058850  0.15114600  1
  O  O51  1  0.27374150  0.22941150  0.15114600  1
  O  O52  1  0.33977900  0.00000000  0.39221500  1
  O  O53  1  0.39897650  0.74576350  0.90815700  1
  O  O54  1  0.48904600  0.00000000  0.16816200  1
  O  O55  1  0.39897650  0.25423650  0.90815700  1
