# generated using pymatgen
data_Li2CoBO4
_symmetry_space_group_name_H-M   'P 1'
_cell_length_a   6.99560200
_cell_length_b   7.21839100
_cell_length_c   6.03497300
_cell_angle_alpha   90.00000000
_cell_angle_beta   90.00000000
_cell_angle_gamma   90.00000000
_symmetry_Int_Tables_number   1
_chemical_formula_structural   Li2CoBO4
_chemical_formula_sum   'Li8 Co4 B4 O16'
_cell_volume   304.74797435
_cell_formula_units_Z   4
loop_
 _symmetry_equiv_pos_site_id
 _symmetry_equiv_pos_as_xyz
  1  'x, y, z'
loop_
 _atom_site_type_symbol
 _atom_site_label
 _atom_site_symmetry_multiplicity
 _atom_site_fract_x
 _atom_site_fract_y
 _atom_site_fract_z
 _atom_site_occupancy
  Li  Li0  1  0.82668250  0.50000000  0.50000000  1
  Li  Li1  1  0.17331750  0.50000000  0.00000000  1
  Li  Li2  1  0.00000000  0.19282200  0.75000000  1
  Li  Li3  1  0.00000000  0.80717800  0.25000000  1
  Li  Li4  1  0.32668250  0.00000000  0.50000000  1
  Li  Li5  1  0.67331750  0.00000000  0.00000000  1
  Li  Li6  1  0.50000000  0.69282200  0.75000000  1
  Li  Li7  1  0.50000000  0.30717800  0.25000000  1
  Co  Co8  1  0.00000000  0.81766400  0.75000000  1
  Co  Co9  1  0.00000000  0.18233600  0.25000000  1
  Co  Co10  1  0.50000000  0.31766400  0.75000000  1
  Co  Co11  1  0.50000000  0.68233600  0.25000000  1
  B  B12  1  0.81492700  0.50000000  0.00000000  1
  B  B13  1  0.18507300  0.50000000  0.50000000  1
  B  B14  1  0.31492700  0.00000000  0.00000000  1
  B  B15  1  0.68507300  0.00000000  0.50000000  1
  O  O16  1  0.69703500  0.50859000  0.20556500  1
  O  O17  1  0.69703500  0.49141000  0.79443500  1
  O  O18  1  0.30296500  0.49141000  0.70556500  1
  O  O19  1  0.30296500  0.50859000  0.29443500  1
  O  O20  1  0.94363650  0.33436050  0.01050300  1
  O  O21  1  0.94363650  0.66563950  0.98949700  1
  O  O22  1  0.05636350  0.33436050  0.48949700  1
  O  O23  1  0.05636350  0.66563950  0.51050300  1
  O  O24  1  0.19703500  0.00859000  0.20556500  1
  O  O25  1  0.19703500  0.99141000  0.79443500  1
  O  O26  1  0.80296500  0.99141000  0.70556500  1
  O  O27  1  0.80296500  0.00859000  0.29443500  1
  O  O28  1  0.44363650  0.83436050  0.01050300  1
  O  O29  1  0.44363650  0.16563950  0.98949700  1
  O  O30  1  0.55636350  0.83436050  0.48949700  1
  O  O31  1  0.55636350  0.16563950  0.51050300  1
