# generated using pymatgen
data_Li4Ni5BiO12
_symmetry_space_group_name_H-M   'P 1'
_cell_length_a   5.19123391
_cell_length_b   8.89724220
_cell_length_c   10.12156696
_cell_angle_alpha   90.00000000
_cell_angle_beta   92.19175784
_cell_angle_gamma   90.00000000
_symmetry_Int_Tables_number   1
_chemical_formula_structural   Li4Ni5BiO12
_chemical_formula_sum   'Li8 Ni10 Bi2 O24'
_cell_volume   467.14954428
_cell_formula_units_Z   2
loop_
 _symmetry_equiv_pos_site_id
 _symmetry_equiv_pos_as_xyz
  1  'x, y, z'
loop_
 _atom_site_type_symbol
 _atom_site_label
 _atom_site_symmetry_multiplicity
 _atom_site_fract_x
 _atom_site_fract_y
 _atom_site_fract_z
 _atom_site_occupancy
  Li  Li0  1  0.59582000  0.77061500  0.25801100  1
  Li  Li1  1  0.40418000  0.77061500  0.74198900  1
  Li  Li2  1  0.59582000  0.22938500  0.25801100  1
  Li  Li3  1  0.40418000  0.22938500  0.74198900  1
  Li  Li4  1  0.09582000  0.27061500  0.25801100  1
  Li  Li5  1  0.90418000  0.27061500  0.74198900  1
  Li  Li6  1  0.09582000  0.72938500  0.25801100  1
  Li  Li7  1  0.90418000  0.72938500  0.74198900  1
  Ni  Ni8  1  0.50000000  0.66430800  0.50000000  1
  Ni  Ni9  1  0.50000000  0.16564050  0.00000000  1
  Ni  Ni10  1  0.50000000  0.83435950  0.00000000  1
  Ni  Ni11  1  0.50000000  0.33569200  0.50000000  1
  Ni  Ni12  1  0.50000000  0.00000000  0.50000000  1
  Ni  Ni13  1  0.00000000  0.16430800  0.50000000  1
  Ni  Ni14  1  0.00000000  0.66564050  0.00000000  1
  Ni  Ni15  1  0.00000000  0.33435950  0.00000000  1
  Ni  Ni16  1  0.00000000  0.83569200  0.50000000  1
  Ni  Ni17  1  0.00000000  0.50000000  0.50000000  1
  Bi  Bi18  1  0.00000000  0.00000000  0.00000000  1
  Bi  Bi19  1  0.50000000  0.50000000  0.00000000  1
  O  O20  1  0.65144100  0.67932600  0.88587200  1
  O  O21  1  0.34855900  0.67932600  0.11412800  1
  O  O22  1  0.66352950  0.82108650  0.60206100  1
  O  O23  1  0.66352950  0.17891350  0.60206100  1
  O  O24  1  0.33647050  0.82108650  0.39793900  1
  O  O25  1  0.82173400  0.00000000  0.41015400  1
  O  O26  1  0.33647050  0.17891350  0.39793900  1
  O  O27  1  0.65144100  0.32067400  0.88587200  1
  O  O28  1  0.64092000  0.00000000  0.89489200  1
  O  O29  1  0.34855900  0.32067400  0.11412800  1
  O  O30  1  0.35908000  0.00000000  0.10510800  1
  O  O31  1  0.17826600  0.00000000  0.58984600  1
  O  O32  1  0.15144100  0.17932600  0.88587200  1
  O  O33  1  0.84855900  0.17932600  0.11412800  1
  O  O34  1  0.16352950  0.32108650  0.60206100  1
  O  O35  1  0.16352950  0.67891350  0.60206100  1
  O  O36  1  0.83647050  0.32108650  0.39793900  1
  O  O37  1  0.32173400  0.50000000  0.41015400  1
  O  O38  1  0.83647050  0.67891350  0.39793900  1
  O  O39  1  0.15144100  0.82067400  0.88587200  1
  O  O40  1  0.14092000  0.50000000  0.89489200  1
  O  O41  1  0.84855900  0.82067400  0.11412800  1
  O  O42  1  0.85908000  0.50000000  0.10510800  1
  O  O43  1  0.67826600  0.50000000  0.58984600  1
