# generated using pymatgen
data_LiFeF3
_symmetry_space_group_name_H-M   'P 1'
_cell_length_a   5.17485367
_cell_length_b   5.17485367
_cell_length_c   14.56759614
_cell_angle_alpha   90.00000000
_cell_angle_beta   90.00000000
_cell_angle_gamma   120.00000000
_symmetry_Int_Tables_number   1
_chemical_formula_structural   LiFeF3
_chemical_formula_sum   'Li6 Fe6 F18'
_cell_volume   337.84280294
_cell_formula_units_Z   6
loop_
 _symmetry_equiv_pos_site_id
 _symmetry_equiv_pos_as_xyz
  1  'x, y, z'
loop_
 _atom_site_type_symbol
 _atom_site_label
 _atom_site_symmetry_multiplicity
 _atom_site_fract_x
 _atom_site_fract_y
 _atom_site_fract_z
 _atom_site_occupancy
  Li  Li0  1  0.00000000  0.00000000  0.14472200  1
  Li  Li1  1  0.66666667  0.33333333  0.18861133  1
  Li  Li2  1  0.66666667  0.33333333  0.47805533  1
  Li  Li3  1  0.33333333  0.66666667  0.52194467  1
  Li  Li4  1  0.33333333  0.66666667  0.81138867  1
  Li  Li5  1  0.00000000  0.00000000  0.85527800  1
  Fe  Fe6  1  0.33333333  0.66666667  0.01266767  1
  Fe  Fe7  1  0.33333333  0.66666667  0.32066567  1
  Fe  Fe8  1  0.00000000  0.00000000  0.34600100  1
  Fe  Fe9  1  0.00000000  0.00000000  0.65399900  1
  Fe  Fe10  1  0.66666667  0.33333333  0.67933433  1
  Fe  Fe11  1  0.66666667  0.33333333  0.98733233  1
  F  F12  1  0.69150733  0.68536567  0.25005667  1
  F  F13  1  0.35203233  0.32719167  0.08327667  1
  F  F14  1  0.67280833  0.02484067  0.08327667  1
  F  F15  1  0.99385833  0.30849267  0.25005667  1
  F  F16  1  0.31463433  0.00614167  0.25005667  1
  F  F17  1  0.97515933  0.64796767  0.08327667  1
  F  F18  1  0.35817400  0.01869900  0.58339000  1
  F  F19  1  0.01869900  0.66052500  0.41661000  1
  F  F20  1  0.33947500  0.35817400  0.41661000  1
  F  F21  1  0.66052500  0.64182600  0.58339000  1
  F  F22  1  0.98130100  0.33947500  0.58339000  1
  F  F23  1  0.64182600  0.98130100  0.41661000  1
  F  F24  1  0.02484067  0.35203233  0.91672333  1
  F  F25  1  0.68536567  0.99385833  0.74994333  1
  F  F26  1  0.00614167  0.69150733  0.74994333  1
  F  F27  1  0.32719167  0.97515933  0.91672333  1
  F  F28  1  0.64796767  0.67280833  0.91672333  1
  F  F29  1  0.30849267  0.31463433  0.74994333  1
