# generated using pymatgen
data_Li3Mn3SbO8
_symmetry_space_group_name_H-M   'P 1'
_cell_length_a   6.19902579
_cell_length_b   6.19902579
_cell_length_c   14.89130561
_cell_angle_alpha   90.00000000
_cell_angle_beta   90.00000000
_cell_angle_gamma   120.00000000
_symmetry_Int_Tables_number   1
_chemical_formula_structural   Li3Mn3SbO8
_chemical_formula_sum   'Li9 Mn9 Sb3 O24'
_cell_volume   495.57603208
_cell_formula_units_Z   3
loop_
 _symmetry_equiv_pos_site_id
 _symmetry_equiv_pos_as_xyz
  1  'x, y, z'
loop_
 _atom_site_type_symbol
 _atom_site_label
 _atom_site_symmetry_multiplicity
 _atom_site_fract_x
 _atom_site_fract_y
 _atom_site_fract_z
 _atom_site_occupancy
  Li  Li0  1  0.16666667  0.33333333  0.83333333  1
  Li  Li1  1  0.33333333  0.16666667  0.16666667  1
  Li  Li2  1  0.83333333  0.16666667  0.16666667  1
  Li  Li3  1  0.83333333  0.66666667  0.16666667  1
  Li  Li4  1  0.00000000  0.50000000  0.50000000  1
  Li  Li5  1  0.50000000  0.50000000  0.50000000  1
  Li  Li6  1  0.50000000  0.00000000  0.50000000  1
  Li  Li7  1  0.66666667  0.83333333  0.83333333  1
  Li  Li8  1  0.16666667  0.83333333  0.83333333  1
  Mn  Mn9  1  0.16666667  0.33333333  0.33333333  1
  Mn  Mn10  1  0.00000000  0.50000000  0.00000000  1
  Mn  Mn11  1  0.50000000  0.50000000  0.00000000  1
  Mn  Mn12  1  0.83333333  0.66666667  0.66666667  1
  Mn  Mn13  1  0.66666667  0.83333333  0.33333333  1
  Mn  Mn14  1  0.16666667  0.83333333  0.33333333  1
  Mn  Mn15  1  0.50000000  0.00000000  0.00000000  1
  Mn  Mn16  1  0.33333333  0.16666667  0.66666667  1
  Mn  Mn17  1  0.83333333  0.16666667  0.66666667  1
  Sb  Sb18  1  0.00000000  0.00000000  0.00000000  1
  Sb  Sb19  1  0.66666667  0.33333333  0.33333333  1
  Sb  Sb20  1  0.33333333  0.66666667  0.66666667  1
  O  O21  1  0.33333333  0.66666667  0.93695267  1
  O  O22  1  0.51334733  0.02669467  0.25615667  1
  O  O23  1  0.97330533  0.48665267  0.25615667  1
  O  O24  1  0.33333333  0.66666667  0.39638067  1
  O  O25  1  0.51334733  0.48665267  0.25615667  1
  O  O26  1  0.15331933  0.30663867  0.07717667  1
  O  O27  1  0.69336133  0.84668067  0.07717667  1
  O  O28  1  0.15331933  0.84668067  0.07717667  1
  O  O29  1  0.00000000  0.00000000  0.27028600  1
  O  O30  1  0.18001400  0.36002800  0.58949000  1
  O  O31  1  0.63997200  0.81998600  0.58949000  1
  O  O32  1  0.00000000  0.00000000  0.72971400  1
  O  O33  1  0.18001400  0.81998600  0.58949000  1
  O  O34  1  0.81998600  0.63997200  0.41051000  1
  O  O35  1  0.36002800  0.18001400  0.41051000  1
  O  O36  1  0.81998600  0.18001400  0.41051000  1
  O  O37  1  0.66666667  0.33333333  0.60361933  1
  O  O38  1  0.84668067  0.69336133  0.92282333  1
  O  O39  1  0.30663867  0.15331933  0.92282333  1
  O  O40  1  0.66666667  0.33333333  0.06304733  1
  O  O41  1  0.84668067  0.15331933  0.92282333  1
  O  O42  1  0.48665267  0.97330533  0.74384333  1
  O  O43  1  0.02669467  0.51334733  0.74384333  1
  O  O44  1  0.48665267  0.51334733  0.74384333  1
