# generated using pymatgen
data_Li4Mn3Cr2Sn3O16
_symmetry_space_group_name_H-M   'P 1'
_cell_length_a   10.46262400
_cell_length_b   6.17538400
_cell_length_c   9.65281091
_cell_angle_alpha   90.00000000
_cell_angle_beta   90.21650362
_cell_angle_gamma   90.00000000
_symmetry_Int_Tables_number   1
_chemical_formula_structural   Li4Mn3Cr2Sn3O16
_chemical_formula_sum   'Li8 Mn6 Cr4 Sn6 O32'
_cell_volume   623.67061878
_cell_formula_units_Z   2
loop_
 _symmetry_equiv_pos_site_id
 _symmetry_equiv_pos_as_xyz
  1  'x, y, z'
loop_
 _atom_site_type_symbol
 _atom_site_label
 _atom_site_symmetry_multiplicity
 _atom_site_fract_x
 _atom_site_fract_y
 _atom_site_fract_z
 _atom_site_occupancy
  Li  Li0  1  0.32643700  0.00000000  0.88583300  1
  Li  Li1  1  0.01134500  0.00000000  0.99198600  1
  Li  Li2  1  0.01631500  0.00000000  0.49995600  1
  Li  Li3  1  0.66787300  0.00000000  0.39723100  1
  Li  Li4  1  0.82643700  0.50000000  0.88583300  1
  Li  Li5  1  0.51134500  0.50000000  0.99198600  1
  Li  Li6  1  0.51631500  0.50000000  0.49995600  1
  Li  Li7  1  0.16787300  0.50000000  0.39723100  1
  Mn  Mn8  1  0.16895000  0.00000000  0.21273700  1
  Mn  Mn9  1  0.58417150  0.75683350  0.71454900  1
  Mn  Mn10  1  0.58417150  0.24316650  0.71454900  1
  Mn  Mn11  1  0.66895000  0.50000000  0.21273700  1
  Mn  Mn12  1  0.08417150  0.25683350  0.71454900  1
  Mn  Mn13  1  0.08417150  0.74316650  0.71454900  1
  Cr  Cr14  1  0.33346200  0.00000000  0.48995600  1
  Cr  Cr15  1  0.65755400  0.00000000  0.98167200  1
  Cr  Cr16  1  0.83346200  0.50000000  0.48995600  1
  Cr  Cr17  1  0.15755400  0.50000000  0.98167200  1
  Sn  Sn18  1  0.41475400  0.75306300  0.21438100  1
  Sn  Sn19  1  0.41475400  0.24693700  0.21438100  1
  Sn  Sn20  1  0.83173300  0.00000000  0.71084200  1
  Sn  Sn21  1  0.91475400  0.25306300  0.21438100  1
  Sn  Sn22  1  0.91475400  0.74693700  0.21438100  1
  Sn  Sn23  1  0.33173300  0.50000000  0.71084200  1
  O  O24  1  0.42623300  0.74427400  0.59931300  1
  O  O25  1  0.48354500  0.00000000  0.34546000  1
  O  O26  1  0.32198100  0.00000000  0.10038500  1
  O  O27  1  0.01043100  0.00000000  0.31297000  1
  O  O28  1  0.00889400  0.00000000  0.80664700  1
  O  O29  1  0.42623300  0.25572600  0.59931300  1
  O  O30  1  0.26211800  0.77884000  0.35052800  1
  O  O31  1  0.26211800  0.22116000  0.35052800  1
  O  O32  1  0.83554900  0.00000000  0.09553300  1
  O  O33  1  0.17210400  0.00000000  0.60558300  1
  O  O34  1  0.73218700  0.77954300  0.83990500  1
  O  O35  1  0.73218700  0.22045700  0.83990500  1
  O  O36  1  0.65960500  0.00000000  0.60442800  1
  O  O37  1  0.57909000  0.74910300  0.09469200  1
  O  O38  1  0.51515400  0.00000000  0.84006500  1
  O  O39  1  0.57909000  0.25089700  0.09469200  1
  O  O40  1  0.92623300  0.24427400  0.59931300  1
  O  O41  1  0.98354500  0.50000000  0.34546000  1
  O  O42  1  0.82198100  0.50000000  0.10038500  1
  O  O43  1  0.51043100  0.50000000  0.31297000  1
  O  O44  1  0.50889400  0.50000000  0.80664700  1
  O  O45  1  0.92623300  0.75572600  0.59931300  1
  O  O46  1  0.76211800  0.27884000  0.35052800  1
  O  O47  1  0.76211800  0.72116000  0.35052800  1
  O  O48  1  0.33554900  0.50000000  0.09553300  1
  O  O49  1  0.67210400  0.50000000  0.60558300  1
  O  O50  1  0.23218700  0.27954300  0.83990500  1
  O  O51  1  0.23218700  0.72045700  0.83990500  1
  O  O52  1  0.15960500  0.50000000  0.60442800  1
  O  O53  1  0.07909000  0.24910300  0.09469200  1
  O  O54  1  0.01515400  0.50000000  0.84006500  1
  O  O55  1  0.07909000  0.75089700  0.09469200  1
