# generated using pymatgen
data_Na7Mn10O24
_symmetry_space_group_name_H-M   'P 1'
_cell_length_a   10.66501682
_cell_length_b   5.97390894
_cell_length_c   15.35986480
_cell_angle_alpha   90.00000000
_cell_angle_beta   92.42808602
_cell_angle_gamma   90.00000000
_symmetry_Int_Tables_number   1
_chemical_formula_structural   Na7Mn10O24
_chemical_formula_sum   'Na14 Mn20 O48'
_cell_volume   977.72663045
_cell_formula_units_Z   2
loop_
 _symmetry_equiv_pos_site_id
 _symmetry_equiv_pos_as_xyz
  1  'x, y, z'
loop_
 _atom_site_type_symbol
 _atom_site_label
 _atom_site_symmetry_multiplicity
 _atom_site_fract_x
 _atom_site_fract_y
 _atom_site_fract_z
 _atom_site_occupancy
  Na  Na0  1  0.66036500  0.50000000  0.71239200  1
  Na  Na1  1  0.33322250  0.50000000  0.66768200  1
  Na  Na2  1  0.49083350  0.00000000  0.36880600  1
  Na  Na3  1  0.50678750  0.00000000  0.62786000  1
  Na  Na4  1  0.33087450  0.00000000  0.16101300  1
  Na  Na5  1  0.33521550  0.50000000  0.04386500  1
  Na  Na6  1  0.32892900  0.50000000  0.28551000  1
  Na  Na7  1  0.16036500  0.00000000  0.71239200  1
  Na  Na8  1  0.83322250  0.00000000  0.66768200  1
  Na  Na9  1  0.99083350  0.50000000  0.36880600  1
  Na  Na10  1  0.00678750  0.50000000  0.62786000  1
  Na  Na11  1  0.83087450  0.50000000  0.16101300  1
  Na  Na12  1  0.83521550  0.00000000  0.04386500  1
  Na  Na13  1  0.82892900  0.00000000  0.28551000  1
  Mn  Mn14  1  0.51319600  0.00000000  0.00051300  1
  Mn  Mn15  1  0.41828850  0.25317050  0.84341700  1
  Mn  Mn16  1  0.49709950  0.50000000  0.49178700  1
  Mn  Mn17  1  0.67119950  0.00000000  0.84299600  1
  Mn  Mn18  1  0.74963250  0.24735650  0.49107200  1
  Mn  Mn19  1  0.74963250  0.75264350  0.49107200  1
  Mn  Mn20  1  0.41828850  0.74682950  0.84341700  1
  Mn  Mn21  1  0.65609800  0.50000000  0.32828400  1
  Mn  Mn22  1  0.58155400  0.75325000  0.16684800  1
  Mn  Mn23  1  0.58155400  0.24675000  0.16684800  1
  Mn  Mn24  1  0.01319600  0.50000000  0.00051300  1
  Mn  Mn25  1  0.91828850  0.75317050  0.84341700  1
  Mn  Mn26  1  0.99709950  0.00000000  0.49178700  1
  Mn  Mn27  1  0.17119950  0.50000000  0.84299600  1
  Mn  Mn28  1  0.24963250  0.74735650  0.49107200  1
  Mn  Mn29  1  0.24963250  0.25264350  0.49107200  1
  Mn  Mn30  1  0.91828850  0.24682950  0.84341700  1
  Mn  Mn31  1  0.15609800  0.00000000  0.32828400  1
  Mn  Mn32  1  0.08155400  0.25325000  0.16684800  1
  Mn  Mn33  1  0.08155400  0.74675000  0.16684800  1
  O  O34  1  0.57785900  0.21192700  0.91646200  1
  O  O35  1  0.36940000  0.00000000  0.91948200  1
  O  O36  1  0.48144250  0.50000000  0.78008500  1
  O  O37  1  0.33849900  0.50000000  0.90537900  1
  O  O38  1  0.59146800  0.70963100  0.41873800  1
  O  O39  1  0.25932150  0.27359050  0.78044500  1
  O  O40  1  0.25932150  0.72640950  0.78044500  1
  O  O41  1  0.40929600  0.72850100  0.55235700  1
  O  O42  1  0.57785900  0.78807300  0.91646200  1
  O  O43  1  0.68497550  0.00000000  0.55270200  1
  O  O44  1  0.32976150  0.50000000  0.42748200  1
  O  O45  1  0.49868950  0.00000000  0.77811000  1
  O  O46  1  0.29865250  0.00000000  0.41516900  1
  O  O47  1  0.66968850  0.50000000  0.55677300  1
  O  O48  1  0.51762500  0.00000000  0.22838800  1
  O  O49  1  0.59146800  0.29036900  0.41873800  1
  O  O50  1  0.45376100  0.22171200  0.07842200  1
  O  O51  1  0.71442800  0.71906000  0.25468500  1
  O  O52  1  0.71442800  0.28094000  0.25468500  1
  O  O53  1  0.40929600  0.27149900  0.55235700  1
  O  O54  1  0.51583900  0.50000000  0.23920600  1
  O  O55  1  0.64031850  0.50000000  0.10391200  1
  O  O56  1  0.65254500  0.00000000  0.09951600  1
  O  O57  1  0.45376100  0.77828800  0.07842200  1
  O  O58  1  0.07785900  0.71192700  0.91646200  1
  O  O59  1  0.86940000  0.50000000  0.91948200  1
  O  O60  1  0.98144250  0.00000000  0.78008500  1
  O  O61  1  0.83849900  0.00000000  0.90537900  1
  O  O62  1  0.09146800  0.20963100  0.41873800  1
  O  O63  1  0.75932150  0.77359050  0.78044500  1
  O  O64  1  0.75932150  0.22640950  0.78044500  1
  O  O65  1  0.90929600  0.22850100  0.55235700  1
  O  O66  1  0.07785900  0.28807300  0.91646200  1
  O  O67  1  0.18497550  0.50000000  0.55270200  1
  O  O68  1  0.82976150  0.00000000  0.42748200  1
  O  O69  1  0.99868950  0.50000000  0.77811000  1
  O  O70  1  0.79865250  0.50000000  0.41516900  1
  O  O71  1  0.16968850  0.00000000  0.55677300  1
  O  O72  1  0.01762500  0.50000000  0.22838800  1
  O  O73  1  0.09146800  0.79036900  0.41873800  1
  O  O74  1  0.95376100  0.72171200  0.07842200  1
  O  O75  1  0.21442800  0.21906000  0.25468500  1
  O  O76  1  0.21442800  0.78094000  0.25468500  1
  O  O77  1  0.90929600  0.77149900  0.55235700  1
  O  O78  1  0.01583900  0.00000000  0.23920600  1
  O  O79  1  0.14031850  0.00000000  0.10391200  1
  O  O80  1  0.15254500  0.50000000  0.09951600  1
  O  O81  1  0.95376100  0.27828800  0.07842200  1
