# generated using pymatgen
data_Cr3Fe3(TeO8)2
_symmetry_space_group_name_H-M   'P 1'
_cell_length_a   10.42636600
_cell_length_b   6.02656200
_cell_length_c   9.20709178
_cell_angle_alpha   90.00000000
_cell_angle_beta   90.49368955
_cell_angle_gamma   90.00000000
_symmetry_Int_Tables_number   1
_chemical_formula_structural   Cr3Fe3(TeO8)2
_chemical_formula_sum   'Cr6 Fe6 Te4 O32'
_cell_volume   578.50743563
_cell_formula_units_Z   2
loop_
 _symmetry_equiv_pos_site_id
 _symmetry_equiv_pos_as_xyz
  1  'x, y, z'
loop_
 _atom_site_type_symbol
 _atom_site_label
 _atom_site_symmetry_multiplicity
 _atom_site_fract_x
 _atom_site_fract_y
 _atom_site_fract_z
 _atom_site_occupancy
  Cr  Cr0  1  0.41334250  0.24575750  0.78685500  1
  Cr  Cr1  1  0.41334250  0.75424250  0.78685500  1
  Cr  Cr2  1  0.82770900  0.00000000  0.28265800  1
  Cr  Cr3  1  0.91334250  0.74575750  0.78685500  1
  Cr  Cr4  1  0.91334250  0.25424250  0.78685500  1
  Cr  Cr5  1  0.32770900  0.50000000  0.28265800  1
  Fe  Fe6  1  0.16792200  0.00000000  0.79491600  1
  Fe  Fe7  1  0.58222200  0.24615900  0.29411900  1
  Fe  Fe8  1  0.58222200  0.75384100  0.29411900  1
  Fe  Fe9  1  0.66792200  0.50000000  0.79491600  1
  Fe  Fe10  1  0.08222200  0.74615900  0.29411900  1
  Fe  Fe11  1  0.08222200  0.25384100  0.29411900  1
  Te  Te12  1  0.33175400  0.00000000  0.51245900  1
  Te  Te13  1  0.66761100  0.00000000  0.01004900  1
  Te  Te14  1  0.83175400  0.50000000  0.51245900  1
  Te  Te15  1  0.16761100  0.50000000  0.01004900  1
  O  O16  1  0.41150500  0.23722100  0.40151700  1
  O  O17  1  0.47696400  0.00000000  0.65623100  1
  O  O18  1  0.33716000  0.00000000  0.89074200  1
  O  O19  1  0.99524200  0.00000000  0.70483700  1
  O  O20  1  0.99262900  0.00000000  0.20516100  1
  O  O21  1  0.41150500  0.76277900  0.40151700  1
  O  O22  1  0.26163200  0.21730300  0.65377900  1
  O  O23  1  0.26163200  0.78269700  0.65377900  1
  O  O24  1  0.82676200  0.00000000  0.90027200  1
  O  O25  1  0.17344600  0.00000000  0.40137600  1
  O  O26  1  0.74404200  0.21270600  0.15340200  1
  O  O27  1  0.74404200  0.78729400  0.15340200  1
  O  O28  1  0.67543900  0.00000000  0.39266300  1
  O  O29  1  0.58808800  0.23994300  0.90138900  1
  O  O30  1  0.52600900  0.00000000  0.15092700  1
  O  O31  1  0.58808800  0.76005700  0.90138900  1
  O  O32  1  0.91150500  0.73722100  0.40151700  1
  O  O33  1  0.97696400  0.50000000  0.65623100  1
  O  O34  1  0.83716000  0.50000000  0.89074200  1
  O  O35  1  0.49524200  0.50000000  0.70483700  1
  O  O36  1  0.49262900  0.50000000  0.20516100  1
  O  O37  1  0.91150500  0.26277900  0.40151700  1
  O  O38  1  0.76163200  0.71730300  0.65377900  1
  O  O39  1  0.76163200  0.28269700  0.65377900  1
  O  O40  1  0.32676200  0.50000000  0.90027200  1
  O  O41  1  0.67344600  0.50000000  0.40137600  1
  O  O42  1  0.24404200  0.71270600  0.15340200  1
  O  O43  1  0.24404200  0.28729400  0.15340200  1
  O  O44  1  0.17543900  0.50000000  0.39266300  1
  O  O45  1  0.08808800  0.73994300  0.90138900  1
  O  O46  1  0.02600900  0.50000000  0.15092700  1
  O  O47  1  0.08808800  0.26005700  0.90138900  1
