# generated using pymatgen
data_Li2Si2Ni2O7
_symmetry_space_group_name_H-M   'P 1'
_cell_length_a   5.07372400
_cell_length_b   8.32159000
_cell_length_c   13.02650300
_cell_angle_alpha   90.00000000
_cell_angle_beta   90.00000000
_cell_angle_gamma   90.00000000
_symmetry_Int_Tables_number   1
_chemical_formula_structural   Li2Si2Ni2O7
_chemical_formula_sum   'Li8 Si8 Ni8 O28'
_cell_volume   549.99785683
_cell_formula_units_Z   4
loop_
 _symmetry_equiv_pos_site_id
 _symmetry_equiv_pos_as_xyz
  1  'x, y, z'
loop_
 _atom_site_type_symbol
 _atom_site_label
 _atom_site_symmetry_multiplicity
 _atom_site_fract_x
 _atom_site_fract_y
 _atom_site_fract_z
 _atom_site_occupancy
  Li  Li0  1  0.04437300  0.70223300  0.58563100  1
  Li  Li1  1  0.04437300  0.70223300  0.91436900  1
  Li  Li2  1  0.04437300  0.29776700  0.41436900  1
  Li  Li3  1  0.04437300  0.29776700  0.08563100  1
  Li  Li4  1  0.54437300  0.20223300  0.58563100  1
  Li  Li5  1  0.54437300  0.20223300  0.91436900  1
  Li  Li6  1  0.54437300  0.79776700  0.41436900  1
  Li  Li7  1  0.54437300  0.79776700  0.08563100  1
  Si  Si8  1  0.04690100  0.64787300  0.36375500  1
  Si  Si9  1  0.04690100  0.64787300  0.13624500  1
  Si  Si10  1  0.04690100  0.35212700  0.63624500  1
  Si  Si11  1  0.04690100  0.35212700  0.86375500  1
  Si  Si12  1  0.54690100  0.14787300  0.36375500  1
  Si  Si13  1  0.54690100  0.14787300  0.13624500  1
  Si  Si14  1  0.54690100  0.85212700  0.63624500  1
  Si  Si15  1  0.54690100  0.85212700  0.86375500  1
  Ni  Ni16  1  0.53552800  0.50000000  0.00000000  1
  Ni  Ni17  1  0.53552800  0.50000000  0.50000000  1
  Ni  Ni18  1  0.51713550  0.49476650  0.25000000  1
  Ni  Ni19  1  0.51713550  0.50523350  0.75000000  1
  Ni  Ni20  1  0.03552800  0.00000000  0.00000000  1
  Ni  Ni21  1  0.03552800  0.00000000  0.50000000  1
  Ni  Ni22  1  0.01713550  0.99476650  0.25000000  1
  Ni  Ni23  1  0.01713550  0.00523350  0.75000000  1
  O  O24  1  0.73695150  0.59367750  0.13517600  1
  O  O25  1  0.73695150  0.59367750  0.36482400  1
  O  O26  1  0.10518800  0.74258700  0.25000000  1
  O  O27  1  0.24108600  0.51017500  0.86963500  1
  O  O28  1  0.24108600  0.51017500  0.63036500  1
  O  O29  1  0.13881450  0.77603250  0.05096200  1
  O  O30  1  0.13881450  0.77603250  0.44903800  1
  O  O31  1  0.73695150  0.40632250  0.86482400  1
  O  O32  1  0.73695150  0.40632250  0.63517600  1
  O  O33  1  0.10518800  0.25741300  0.75000000  1
  O  O34  1  0.24108600  0.48982500  0.36963500  1
  O  O35  1  0.24108600  0.48982500  0.13036500  1
  O  O36  1  0.13881450  0.22396750  0.94903800  1
  O  O37  1  0.13881450  0.22396750  0.55096200  1
  O  O38  1  0.23695150  0.09367750  0.13517600  1
  O  O39  1  0.23695150  0.09367750  0.36482400  1
  O  O40  1  0.60518800  0.24258700  0.25000000  1
  O  O41  1  0.74108600  0.01017500  0.86963500  1
  O  O42  1  0.74108600  0.01017500  0.63036500  1
  O  O43  1  0.63881450  0.27603250  0.05096200  1
  O  O44  1  0.63881450  0.27603250  0.44903800  1
  O  O45  1  0.23695150  0.90632250  0.86482400  1
  O  O46  1  0.23695150  0.90632250  0.63517600  1
  O  O47  1  0.60518800  0.75741300  0.75000000  1
  O  O48  1  0.74108600  0.98982500  0.36963500  1
  O  O49  1  0.74108600  0.98982500  0.13036500  1
  O  O50  1  0.63881450  0.72396750  0.94903800  1
  O  O51  1  0.63881450  0.72396750  0.55096200  1
