# generated using pymatgen
data_Li2FeF4
_symmetry_space_group_name_H-M   'P 1'
_cell_length_a   10.16720800
_cell_length_b   5.73766200
_cell_length_c   5.40932712
_cell_angle_alpha   90.00000000
_cell_angle_beta   93.35048558
_cell_angle_gamma   90.00000000
_symmetry_Int_Tables_number   1
_chemical_formula_structural   Li2FeF4
_chemical_formula_sum   'Li8 Fe4 F16'
_cell_volume   315.01914135
_cell_formula_units_Z   4
loop_
 _symmetry_equiv_pos_site_id
 _symmetry_equiv_pos_as_xyz
  1  'x, y, z'
loop_
 _atom_site_type_symbol
 _atom_site_label
 _atom_site_symmetry_multiplicity
 _atom_site_fract_x
 _atom_site_fract_y
 _atom_site_fract_z
 _atom_site_occupancy
  Li  Li0  1  0.79831950  0.13986450  0.71530100  1
  Li  Li1  1  0.79831950  0.86013550  0.21530100  1
  Li  Li2  1  0.70168050  0.63986450  0.78469900  1
  Li  Li3  1  0.70168050  0.36013550  0.28469900  1
  Li  Li4  1  0.29831950  0.63986450  0.71530100  1
  Li  Li5  1  0.29831950  0.36013550  0.21530100  1
  Li  Li6  1  0.20168050  0.13986450  0.78469900  1
  Li  Li7  1  0.20168050  0.86013550  0.28469900  1
  Fe  Fe8  1  0.00000000  0.64589700  0.75000000  1
  Fe  Fe9  1  0.00000000  0.35410300  0.25000000  1
  Fe  Fe10  1  0.50000000  0.14589700  0.75000000  1
  Fe  Fe11  1  0.50000000  0.85410300  0.25000000  1
  F  F12  1  0.64455100  0.35876600  0.61762100  1
  F  F13  1  0.64455100  0.64123400  0.11762100  1
  F  F14  1  0.61780850  0.88587650  0.59069400  1
  F  F15  1  0.61780850  0.11412350  0.09069400  1
  F  F16  1  0.88219150  0.38587650  0.90930600  1
  F  F17  1  0.88219150  0.61412350  0.40930600  1
  F  F18  1  0.85544900  0.85876600  0.88237900  1
  F  F19  1  0.85544900  0.14123400  0.38237900  1
  F  F20  1  0.14455100  0.85876600  0.61762100  1
  F  F21  1  0.14455100  0.14123400  0.11762100  1
  F  F22  1  0.11780850  0.38587650  0.59069400  1
  F  F23  1  0.11780850  0.61412350  0.09069400  1
  F  F24  1  0.38219150  0.88587650  0.90930600  1
  F  F25  1  0.38219150  0.11412350  0.40930600  1
  F  F26  1  0.35544900  0.35876600  0.88237900  1
  F  F27  1  0.35544900  0.64123400  0.38237900  1
