# generated using pymatgen
data_LiAlVO4
_symmetry_space_group_name_H-M   'P 1'
_cell_length_a   5.78068251
_cell_length_b   5.92053054
_cell_length_c   8.17360779
_cell_angle_alpha   90.00000000
_cell_angle_beta   90.00000000
_cell_angle_gamma   90.00000000
_symmetry_Int_Tables_number   1
_chemical_formula_structural   LiAlVO4
_chemical_formula_sum   'Li4 Al4 V4 O16'
_cell_volume   279.73933485
_cell_formula_units_Z   4
loop_
 _symmetry_equiv_pos_site_id
 _symmetry_equiv_pos_as_xyz
  1  'x, y, z'
loop_
 _atom_site_type_symbol
 _atom_site_label
 _atom_site_symmetry_multiplicity
 _atom_site_fract_x
 _atom_site_fract_y
 _atom_site_fract_z
 _atom_site_occupancy
  Li  Li0  1  0.00000000  0.25000000  0.12936500  1
  Li  Li1  1  0.00000000  0.75000000  0.87063500  1
  Li  Li2  1  0.50000000  0.75000000  0.62936500  1
  Li  Li3  1  0.50000000  0.25000000  0.37063500  1
  Al  Al4  1  0.75000000  0.75000000  0.25000000  1
  Al  Al5  1  0.25000000  0.75000000  0.25000000  1
  Al  Al6  1  0.25000000  0.25000000  0.75000000  1
  Al  Al7  1  0.75000000  0.25000000  0.75000000  1
  V  V8  1  0.50000000  0.50000000  0.00000000  1
  V  V9  1  0.50000000  0.00000000  0.00000000  1
  V  V10  1  0.00000000  0.00000000  0.50000000  1
  V  V11  1  0.00000000  0.50000000  0.50000000  1
  O  O12  1  0.50000000  0.53197425  0.23405175  1
  O  O13  1  0.00000000  0.53197425  0.26594825  1
  O  O14  1  0.00000000  0.46802575  0.73405175  1
  O  O15  1  0.50000000  0.46802575  0.76594825  1
  O  O16  1  0.72992575  0.25000000  0.98314675  1
  O  O17  1  0.27007425  0.25000000  0.98314675  1
  O  O18  1  0.72992575  0.75000000  0.01685325  1
  O  O19  1  0.27007425  0.75000000  0.01685325  1
  O  O20  1  0.00000000  0.03197425  0.73405175  1
  O  O21  1  0.50000000  0.03197425  0.76594825  1
  O  O22  1  0.50000000  0.96802575  0.23405175  1
  O  O23  1  0.00000000  0.96802575  0.26594825  1
  O  O24  1  0.22992575  0.75000000  0.48314675  1
  O  O25  1  0.77007425  0.75000000  0.48314675  1
  O  O26  1  0.22992575  0.25000000  0.51685325  1
  O  O27  1  0.77007425  0.25000000  0.51685325  1
