# generated using pymatgen
data_LiCoCO4
_symmetry_space_group_name_H-M   'P 1'
_cell_length_a   8.22257600
_cell_length_b   14.51901200
_cell_length_c   5.79405800
_cell_angle_alpha   90.00000000
_cell_angle_beta   90.00000000
_cell_angle_gamma   90.00000000
_symmetry_Int_Tables_number   1
_chemical_formula_structural   LiCoCO4
_chemical_formula_sum   'Li8 Co8 C8 O32'
_cell_volume   691.71596394
_cell_formula_units_Z   8
loop_
 _symmetry_equiv_pos_site_id
 _symmetry_equiv_pos_as_xyz
  1  'x, y, z'
loop_
 _atom_site_type_symbol
 _atom_site_label
 _atom_site_symmetry_multiplicity
 _atom_site_fract_x
 _atom_site_fract_y
 _atom_site_fract_z
 _atom_site_occupancy
  Li  Li0  1  0.37861450  0.41324250  0.50007000  1
  Li  Li1  1  0.87861450  0.08675750  0.00007000  1
  Li  Li2  1  0.62138550  0.41324250  0.00007000  1
  Li  Li3  1  0.12138550  0.08675750  0.50007000  1
  Li  Li4  1  0.87861450  0.91324250  0.50007000  1
  Li  Li5  1  0.37861450  0.58675750  0.00007000  1
  Li  Li6  1  0.12138550  0.91324250  0.00007000  1
  Li  Li7  1  0.62138550  0.58675750  0.50007000  1
  Co  Co8  1  0.01420050  0.29011250  0.23289900  1
  Co  Co9  1  0.98579950  0.29011250  0.73289900  1
  Co  Co10  1  0.51420050  0.20988750  0.73289900  1
  Co  Co11  1  0.48579950  0.20988750  0.23289900  1
  Co  Co12  1  0.51420050  0.79011250  0.23289900  1
  Co  Co13  1  0.48579950  0.79011250  0.73289900  1
  Co  Co14  1  0.01420050  0.70988750  0.73289900  1
  Co  Co15  1  0.98579950  0.70988750  0.23289900  1
  C  C16  1  0.24367100  0.39856800  0.97501500  1
  C  C17  1  0.75632900  0.39856800  0.47501500  1
  C  C18  1  0.74367100  0.10143200  0.47501500  1
  C  C19  1  0.25632900  0.10143200  0.97501500  1
  C  C20  1  0.74367100  0.89856800  0.97501500  1
  C  C21  1  0.25632900  0.89856800  0.47501500  1
  C  C22  1  0.24367100  0.60143200  0.47501500  1
  C  C23  1  0.75632900  0.60143200  0.97501500  1
  O  O24  1  0.36902400  0.44899600  0.96184700  1
  O  O25  1  0.19340300  0.37071900  0.17945900  1
  O  O26  1  0.16749250  0.37460950  0.78631100  1
  O  O27  1  0.06047700  0.22252500  0.49791000  1
  O  O28  1  0.93952300  0.22252500  0.99791000  1
  O  O29  1  0.86902400  0.05100400  0.46184700  1
  O  O30  1  0.83250750  0.37460950  0.28631100  1
  O  O31  1  0.80659700  0.37071900  0.67945900  1
  O  O32  1  0.69340300  0.12928100  0.67945900  1
  O  O33  1  0.66749250  0.12539050  0.28631100  1
  O  O34  1  0.63097600  0.44899600  0.46184700  1
  O  O35  1  0.56047700  0.27747500  0.99791000  1
  O  O36  1  0.43952300  0.27747500  0.49791000  1
  O  O37  1  0.33250750  0.12539050  0.78631100  1
  O  O38  1  0.30659700  0.12928100  0.17945900  1
  O  O39  1  0.13097600  0.05100400  0.96184700  1
  O  O40  1  0.86902400  0.94899600  0.96184700  1
  O  O41  1  0.69340300  0.87071900  0.17945900  1
  O  O42  1  0.66749250  0.87460950  0.78631100  1
  O  O43  1  0.56047700  0.72252500  0.49791000  1
  O  O44  1  0.43952300  0.72252500  0.99791000  1
  O  O45  1  0.36902400  0.55100400  0.46184700  1
  O  O46  1  0.33250750  0.87460950  0.28631100  1
  O  O47  1  0.30659700  0.87071900  0.67945900  1
  O  O48  1  0.19340300  0.62928100  0.67945900  1
  O  O49  1  0.16749250  0.62539050  0.28631100  1
  O  O50  1  0.13097600  0.94899600  0.46184700  1
  O  O51  1  0.06047700  0.77747500  0.99791000  1
  O  O52  1  0.93952300  0.77747500  0.49791000  1
  O  O53  1  0.83250750  0.62539050  0.78631100  1
  O  O54  1  0.80659700  0.62928100  0.17945900  1
  O  O55  1  0.63097600  0.55100400  0.96184700  1
